MODEL 1
REMARK minimizedAffinity 13.4860878
REMARK minimizedRMSD -1
REMARK  3 active torsions:
REMARK  status: ('A' for Active; 'I' for Inactive)
REMARK    1  A    between atoms: C3'_2  and  C2'_3 
REMARK    2  A    between atoms: C2'_3  and  C1'_4 
REMARK    3  A    between atoms: C1'_4  and  C1_5 
ROOT
ATOM      1  C1  N4B d   1       0.136   0.210   2.247  0.00  0.00    -0.075 A 
ATOM      2  C2  N4B d   1      -0.307  -1.032   1.741  0.00  0.00     0.002 A 
ATOM      3  C3  N4B d   1      -1.535  -1.127   1.134  0.00  0.00     0.002 A 
ATOM      4  C4  N4B d   1      -2.343  -0.004   1.040  0.00  0.00    -0.004 A 
ATOM      5  C5  N4B d   1      -1.897   1.198   1.509  0.00  0.00     0.002 A 
ATOM      6  C6  N4B d   1      -0.663   1.309   2.117  0.00  0.00     0.002 A 
ENDROOT
BRANCH   1   7
ATOM      7  C1' N4B d   1       1.434   0.346   2.995  0.00  0.00     0.057 C 
BRANCH   7   8
ATOM      8  C2' N4B d   1       1.141   0.735   4.441  0.00  0.00     0.009 C 
BRANCH   8   9
ATOM      9  C3' N4B d   1       2.214   0.235   5.393  0.00  0.00     0.004 C 
ATOM     10  C4' N4B d   1       1.878  -1.095   6.000  0.00  0.00     0.003 C 
ENDBRANCH   8   9
ENDBRANCH   7   8
ENDBRANCH   1   7
TORSDOF 3
ENDMDL
