MODEL 1
REMARK minimizedAffinity -1.81912112
REMARK minimizedRMSD -1
REMARK  1 active torsions:
REMARK  status: ('A' for Active; 'I' for Inactive)
REMARK    1  A    between atoms: C3_4  and  O_7 
ROOT
ATOM      1  C   UNL d   1      -0.240  -0.120   0.180  0.00  0.00    -0.033 A 
ATOM      2  C1  UNL d   1       0.394   1.121   0.102  0.00  0.00     0.039 A 
ATOM      3  C2  UNL d   1       1.782   1.207   0.226  0.00  0.00    -0.080 A 
ATOM      4  C3  UNL d   1       2.523   0.045   0.428  0.00  0.00     0.150 A 
ATOM      5  C4  UNL d   1       1.898  -1.195   0.503  0.00  0.00    -0.007 A 
ATOM      6  C5  UNL d   1       0.512  -1.278   0.379  0.00  0.00     0.039 A 
ENDROOT
BRANCH   4   7
ATOM      7  O   UNL d   1       3.880   0.080   0.560  0.00  0.00    -0.526 OA
ATOM      8  H5  UNL d   1       4.170   1.006   0.515  0.00  0.00     0.418 HD
ENDBRANCH   4   7
TORSDOF 1
ENDMDL
