MODEL 1
REMARK minimizedAffinity -1.58829594
REMARK minimizedRMSD -1
REMARK  1 active torsions:
REMARK  status: ('A' for Active; 'I' for Inactive)
REMARK    1  A    between atoms: C3_4  and  O_7 
ROOT
ATOM      1  C   UNL d   1       0.306   1.319  -0.073  0.00  0.00    -0.033 A 
ATOM      2  C1  UNL d   1       0.008  -0.007   0.247  0.00  0.00     0.039 A 
ATOM      3  C2  UNL d   1       0.787  -0.694   1.180  0.00  0.00    -0.080 A 
ATOM      4  C3  UNL d   1       1.859  -0.043   1.786  0.00  0.00     0.150 A 
ATOM      5  C4  UNL d   1       2.159   1.279   1.474  0.00  0.00    -0.007 A 
ATOM      6  C5  UNL d   1       1.380   1.962   0.541  0.00  0.00     0.039 A 
ENDROOT
BRANCH   4   7
ATOM      7  O   UNL d   1       2.651  -0.674   2.699  0.00  0.00    -0.526 OA
ATOM      8  H5  UNL d   1       2.343  -1.590   2.793  0.00  0.00     0.418 HD
ENDBRANCH   4   7
TORSDOF 1
ENDMDL
