MODEL 1
REMARK minimizedAffinity -4.13638258
REMARK minimizedRMSD -1
REMARK  1 active torsions:
REMARK  status: ('A' for Active; 'I' for Inactive)
REMARK    1  A    between atoms: C3_4  and  O_7 
ROOT
ATOM      1  C   UNL d   1       0.248   1.410   0.170  0.00  0.00    -0.033 A 
ATOM      2  C1  UNL d   1       0.403   0.037   0.375  0.00  0.00     0.039 A 
ATOM      3  C2  UNL d   1       1.681  -0.518   0.463  0.00  0.00    -0.080 A 
ATOM      4  C3  UNL d   1       2.794   0.310   0.346  0.00  0.00     0.150 A 
ATOM      5  C4  UNL d   1       2.648   1.678   0.145  0.00  0.00    -0.007 A 
ATOM      6  C5  UNL d   1       1.371   2.230   0.057  0.00  0.00     0.039 A 
ENDROOT
BRANCH   4   7
ATOM      7  O   UNL d   1       4.062  -0.187   0.420  0.00  0.00    -0.526 OA
ATOM      8  H5  UNL d   1       4.009  -1.151   0.532  0.00  0.00     0.418 HD
ENDBRANCH   4   7
TORSDOF 1
ENDMDL
