MODEL 1
REMARK minimizedAffinity -3.68686223
REMARK minimizedRMSD -1
REMARK  1 active torsions:
REMARK  status: ('A' for Active; 'I' for Inactive)
REMARK    1  A    between atoms: C3_4  and  O_7 
ROOT
ATOM      1  C   UNL d   1       2.254  -0.765   4.185  0.00  0.00    -0.033 A 
ATOM      2  C1  UNL d   1       2.181   0.619   4.351  0.00  0.00     0.039 A 
ATOM      3  C2  UNL d   1       2.276   1.463   3.243  0.00  0.00    -0.080 A 
ATOM      4  C3  UNL d   1       2.442   0.911   1.976  0.00  0.00     0.150 A 
ATOM      5  C4  UNL d   1       2.512  -0.467   1.802  0.00  0.00    -0.007 A 
ATOM      6  C5  UNL d   1       2.418  -1.308   2.910  0.00  0.00     0.039 A 
ENDROOT
BRANCH   4   7
ATOM      7  O   UNL d   1       2.545   1.695   0.865  0.00  0.00    -0.526 OA
ATOM      8  H5  UNL d   1       2.509   2.626   1.141  0.00  0.00     0.418 HD
ENDBRANCH   4   7
TORSDOF 1
ENDMDL
