MODEL 1
REMARK minimizedAffinity -4.12743855
REMARK minimizedRMSD -1
REMARK  1 active torsions:
REMARK  status: ('A' for Active; 'I' for Inactive)
REMARK    1  A    between atoms: C3_4  and  O_7 
ROOT
ATOM      1  C   UNL d   1       3.025   0.452   1.127  0.00  0.00    -0.033 A 
ATOM      2  C1  UNL d   1       3.541  -0.543   1.961  0.00  0.00     0.039 A 
ATOM      3  C2  UNL d   1       2.798  -1.698   2.214  0.00  0.00    -0.080 A 
ATOM      4  C3  UNL d   1       1.544  -1.846   1.628  0.00  0.00     0.150 A 
ATOM      5  C4  UNL d   1       1.026  -0.861   0.794  0.00  0.00    -0.007 A 
ATOM      6  C5  UNL d   1       1.769   0.292   0.543  0.00  0.00     0.039 A 
ENDROOT
BRANCH   4   7
ATOM      7  O   UNL d   1       0.780  -2.953   1.850  0.00  0.00    -0.526 OA
ATOM      8  H5  UNL d   1       1.254  -3.535   2.469  0.00  0.00     0.418 HD
ENDBRANCH   4   7
TORSDOF 1
ENDMDL
