MODEL 1
REMARK minimizedAffinity -2.8661499
REMARK minimizedRMSD -1
REMARK  1 active torsions:
REMARK  status: ('A' for Active; 'I' for Inactive)
REMARK    1  A    between atoms: C3_4  and  O_7 
ROOT
ATOM      1  C   UNL d   1      -2.028  -0.477   0.310  0.00  0.00    -0.033 A 
ATOM      2  C1  UNL d   1      -1.258   0.597  -0.143  0.00  0.00     0.039 A 
ATOM      3  C2  UNL d   1       0.134   0.545  -0.056  0.00  0.00    -0.080 A 
ATOM      4  C3  UNL d   1       0.744  -0.585   0.484  0.00  0.00     0.150 A 
ATOM      5  C4  UNL d   1      -0.017  -1.659   0.933  0.00  0.00    -0.007 A 
ATOM      6  C5  UNL d   1      -1.408  -1.605   0.846  0.00  0.00     0.039 A 
ENDROOT
BRANCH   4   7
ATOM      7  O   UNL d   1       2.099  -0.679   0.594  0.00  0.00    -0.526 OA
ATOM      8  H5  UNL d   1       2.493   0.149   0.270  0.00  0.00     0.418 HD
ENDBRANCH   4   7
TORSDOF 1
ENDMDL
