MODEL 1
REMARK minimizedAffinity -1.48268592
REMARK minimizedRMSD -1
REMARK  1 active torsions:
REMARK  status: ('A' for Active; 'I' for Inactive)
REMARK    1  A    between atoms: C3_4  and  O_7 
ROOT
ATOM      1  C   UNL d   1       2.703   2.358   2.386  0.00  0.00    -0.033 A 
ATOM      2  C1  UNL d   1       2.492   1.271   1.535  0.00  0.00     0.039 A 
ATOM      3  C2  UNL d   1       2.165   0.021   2.063  0.00  0.00    -0.080 A 
ATOM      4  C3  UNL d   1       2.051  -0.129   3.443  0.00  0.00     0.150 A 
ATOM      5  C4  UNL d   1       2.255   0.950   4.296  0.00  0.00    -0.007 A 
ATOM      6  C5  UNL d   1       2.582   2.198   3.767  0.00  0.00     0.039 A 
ENDROOT
BRANCH   4   7
ATOM      7  O   UNL d   1       1.738  -1.330   4.005  0.00  0.00    -0.526 OA
ATOM      8  H5  UNL d   1       1.654  -1.990   3.296  0.00  0.00     0.418 HD
ENDBRANCH   4   7
TORSDOF 1
ENDMDL
