MODEL 1
REMARK minimizedAffinity -4.55568981
REMARK minimizedRMSD -1
REMARK  0 active torsions:
REMARK  status: ('A' for Active; 'I' for Inactive)
ROOT
ATOM      1  C1  BNZ d   1      -0.870   0.983  -2.239  0.00  0.00     0.000 A 
ATOM      2  C2  BNZ d   1      -0.771   2.029  -1.362  0.00  0.00     0.000 A 
ATOM      3  C3  BNZ d   1      -0.879   1.826  -0.015  0.00  0.00     0.000 A 
ATOM      4  C4  BNZ d   1      -1.126   0.585   0.451  0.00  0.00     0.000 A 
ATOM      5  C5  BNZ d   1      -1.238  -0.479  -0.422  0.00  0.00     0.000 A 
ATOM      6  C6  BNZ d   1      -1.090  -0.277  -1.775  0.00  0.00     0.000 A 
ENDROOT
TORSDOF 0
ENDMDL
