MODEL 1
REMARK minimizedAffinity -4.77859354
REMARK minimizedRMSD -1
REMARK  0 active torsions:
REMARK  status: ('A' for Active; 'I' for Inactive)
ROOT
ATOM      1  C1  BNZ d   1      -0.139   3.518   0.832  0.00  0.00     0.000 A 
ATOM      2  C2  BNZ d   1       0.656   2.807   1.690  0.00  0.00     0.000 A 
ATOM      3  C3  BNZ d   1       0.196   1.669   2.291  0.00  0.00     0.000 A 
ATOM      4  C4  BNZ d   1      -1.072   1.267   2.066  0.00  0.00     0.000 A 
ATOM      5  C5  BNZ d   1      -1.889   1.978   1.210  0.00  0.00     0.000 A 
ATOM      6  C6  BNZ d   1      -1.409   3.101   0.576  0.00  0.00     0.000 A 
ENDROOT
TORSDOF 0
ENDMDL
