MODEL 1
REMARK minimizedAffinity -0.0805950537
REMARK minimizedRMSD -1
REMARK  0 active torsions:
REMARK  status: ('A' for Active; 'I' for Inactive)
ROOT
ATOM      1  C1  BNZ d   1       0.528   0.269   3.040  0.00  0.00     0.000 A 
ATOM      2  C2  BNZ d   1       0.772   1.606   3.205  0.00  0.00     0.000 A 
ATOM      3  C3  BNZ d   1       0.883   2.436   2.125  0.00  0.00     0.000 A 
ATOM      4  C4  BNZ d   1       0.790   1.922   0.881  0.00  0.00     0.000 A 
ATOM      5  C5  BNZ d   1       0.553   0.575   0.698  0.00  0.00     0.000 A 
ATOM      6  C6  BNZ d   1       0.403  -0.251   1.788  0.00  0.00     0.000 A 
ENDROOT
TORSDOF 0
ENDMDL
