MODEL 1
REMARK minimizedAffinity -3.92300391
REMARK minimizedRMSD -1
REMARK  0 active torsions:
REMARK  status: ('A' for Active; 'I' for Inactive)
ROOT
ATOM      1  C1  BNZ d   1      -0.254   1.389   0.920  0.00  0.00     0.000 A 
ATOM      2  C2  BNZ d   1      -0.572   2.668   1.290  0.00  0.00     0.000 A 
ATOM      3  C3  BNZ d   1      -0.871   3.615   0.351  0.00  0.00     0.000 A 
ATOM      4  C4  BNZ d   1      -0.813   3.293  -0.957  0.00  0.00     0.000 A 
ATOM      5  C5  BNZ d   1      -0.485   2.010  -1.347  0.00  0.00     0.000 A 
ATOM      6  C6  BNZ d   1      -0.223   1.049  -0.398  0.00  0.00     0.000 A 
ENDROOT
TORSDOF 0
ENDMDL
