MODEL 1
REMARK minimizedAffinity -4.47471523
REMARK minimizedRMSD -1
REMARK  0 active torsions:
REMARK  status: ('A' for Active; 'I' for Inactive)
ROOT
ATOM      1  C1  BNZ d   1       0.047   1.215   2.441  0.00  0.00     0.000 A 
ATOM      2  C2  BNZ d   1       0.475  -0.041   2.100  0.00  0.00     0.000 A 
ATOM      3  C3  BNZ d   1       0.500  -0.441   0.793  0.00  0.00     0.000 A 
ATOM      4  C4  BNZ d   1       0.060   0.398  -0.166  0.00  0.00     0.000 A 
ATOM      5  C5  BNZ d   1      -0.384   1.664   0.163  0.00  0.00     0.000 A 
ATOM      6  C6  BNZ d   1      -0.371   2.078   1.475  0.00  0.00     0.000 A 
ENDROOT
TORSDOF 0
ENDMDL
