MODEL 1
REMARK minimizedAffinity -4.62572145
REMARK minimizedRMSD -1
REMARK  0 active torsions:
REMARK  status: ('A' for Active; 'I' for Inactive)
ROOT
ATOM      1  C1  BNZ d   1       0.310   1.356   2.470  0.00  0.00     0.000 A 
ATOM      2  C2  BNZ d   1      -0.831   1.965   2.019  0.00  0.00     0.000 A 
ATOM      3  C3  BNZ d   1      -1.427   1.562   0.857  0.00  0.00     0.000 A 
ATOM      4  C4  BNZ d   1      -0.862   0.578   0.128  0.00  0.00     0.000 A 
ATOM      5  C5  BNZ d   1       0.293  -0.040   0.565  0.00  0.00     0.000 A 
ATOM      6  C6  BNZ d   1       0.869   0.342   1.755  0.00  0.00     0.000 A 
ENDROOT
TORSDOF 0
ENDMDL
