MODEL 1
REMARK minimizedAffinity -4.61540556
REMARK minimizedRMSD -1
REMARK  0 active torsions:
REMARK  status: ('A' for Active; 'I' for Inactive)
ROOT
ATOM      1  C1  BNZ d   1       0.568   1.070   2.434  0.00  0.00     0.000 A 
ATOM      2  C2  BNZ d   1      -0.456   1.775   1.860  0.00  0.00     0.000 A 
ATOM      3  C3  BNZ d   1      -1.002   1.374   0.673  0.00  0.00     0.000 A 
ATOM      4  C4  BNZ d   1      -0.497   0.295   0.042  0.00  0.00     0.000 A 
ATOM      5  C5  BNZ d   1       0.542  -0.420   0.603  0.00  0.00     0.000 A 
ATOM      6  C6  BNZ d   1       1.063  -0.037   1.817  0.00  0.00     0.000 A 
ENDROOT
TORSDOF 0
ENDMDL
