MODEL 1
REMARK minimizedAffinity -2.76684785
REMARK minimizedRMSD -1
REMARK  0 active torsions:
REMARK  status: ('A' for Active; 'I' for Inactive)
ROOT
ATOM      1  C1  BNZ d   1      -0.854   0.596  -1.355  0.00  0.00     0.000 A 
ATOM      2  C2  BNZ d   1       0.420   0.136  -1.155  0.00  0.00     0.000 A 
ATOM      3  C3  BNZ d   1       0.866  -0.165   0.102  0.00  0.00     0.000 A 
ATOM      4  C4  BNZ d   1       0.052   0.030   1.159  0.00  0.00     0.000 A 
ATOM      5  C5  BNZ d   1      -1.233   0.502   0.974  0.00  0.00     0.000 A 
ATOM      6  C6  BNZ d   1      -1.691   0.768  -0.296  0.00  0.00     0.000 A 
ENDROOT
TORSDOF 0
ENDMDL
