MODEL 1
REMARK minimizedAffinity -4.40086174
REMARK minimizedRMSD -1
REMARK  1 active torsions:
REMARK  status: ('A' for Active; 'I' for Inactive)
REMARK    1  A    between atoms: C1_2  and  C2_3 
ROOT
ATOM      1  C2  UNL d   1       0.657  -0.425  -0.706  0.00  0.00    -0.081 A 
ATOM      2  C3  UNL d   1       0.293  -0.910   0.556  0.00  0.00     0.006 A 
ATOM      3  C4  UNL d   1      -0.558  -0.172   1.381  0.00  0.00     0.002 A 
ATOM      4  C5  UNL d   1      -1.067   1.060   0.955  0.00  0.00    -0.080 A 
ATOM      5  C6  UNL d   1      -2.006   1.849   1.818  0.00  0.00     0.076 C 
ATOM      6  C7  UNL d   1      -0.690   1.554  -0.299  0.00  0.00     0.002 A 
ATOM      7  C8  UNL d   1       0.162   0.816  -1.124  0.00  0.00     0.006 A 
ENDROOT
BRANCH   1   8
ATOM      8  C1  UNL d   1       1.523  -1.249  -1.624  0.00  0.00     0.054 C 
ATOM      9  C   UNL d   1       1.064  -2.699  -1.664  0.00  0.00     0.018 C 
ENDBRANCH   1   8
TORSDOF 1
ENDMDL
