MODEL 1
REMARK minimizedAffinity -5.90252209
REMARK minimizedRMSD -1
REMARK  1 active torsions:
REMARK  status: ('A' for Active; 'I' for Inactive)
REMARK    1  A    between atoms: C1_2  and  C2_3 
ROOT
ATOM      1  C2  UNL d   1      -0.123  -0.699  -0.726  0.00  0.00    -0.081 A 
ATOM      2  C3  UNL d   1      -0.393  -0.948   0.625  0.00  0.00     0.006 A 
ATOM      3  C4  UNL d   1      -1.118  -0.025   1.384  0.00  0.00     0.002 A 
ATOM      4  C5  UNL d   1      -1.591   1.156   0.803  0.00  0.00    -0.080 A 
ATOM      5  C6  UNL d   1      -2.396   2.140   1.599  0.00  0.00     0.076 C 
ATOM      6  C7  UNL d   1      -1.306   1.413  -0.542  0.00  0.00     0.002 A 
ATOM      7  C8  UNL d   1      -0.581   0.491  -1.301  0.00  0.00     0.006 A 
ENDROOT
BRANCH   1   8
ATOM      8  C1  UNL d   1       0.602  -1.721  -1.563  0.00  0.00     0.054 C 
ATOM      9  C   UNL d   1      -0.366  -2.515  -2.429  0.00  0.00     0.018 C 
ENDBRANCH   1   8
TORSDOF 1
ENDMDL
