MODEL 1
REMARK minimizedAffinity -2.86883664
REMARK minimizedRMSD -1
REMARK  1 active torsions:
REMARK  status: ('A' for Active; 'I' for Inactive)
REMARK    1  A    between atoms: C1_2  and  C2_3 
ROOT
ATOM      1  C2  UNL d   1       0.058  -0.317  -0.161  0.00  0.00    -0.081 A 
ATOM      2  C3  UNL d   1       0.023  -0.113   1.224  0.00  0.00     0.006 A 
ATOM      3  C4  UNL d   1      -0.949   0.713   1.794  0.00  0.00     0.002 A 
ATOM      4  C5  UNL d   1      -1.905   1.342   0.990  0.00  0.00    -0.080 A 
ATOM      5  C6  UNL d   1      -2.972   2.208   1.592  0.00  0.00     0.076 C 
ATOM      6  C7  UNL d   1      -1.860   1.153  -0.395  0.00  0.00     0.002 A 
ATOM      7  C8  UNL d   1      -0.888   0.327  -0.965  0.00  0.00     0.006 A 
ENDROOT
BRANCH   1   8
ATOM      8  C1  UNL d   1       1.064  -1.259  -0.772  0.00  0.00     0.054 C 
ATOM      9  C   UNL d   1       0.423  -2.140  -1.835  0.00  0.00     0.018 C 
ENDBRANCH   1   8
TORSDOF 1
ENDMDL
