MODEL 1
REMARK minimizedAffinity -0.0873438716
REMARK minimizedRMSD -1
REMARK  1 active torsions:
REMARK  status: ('A' for Active; 'I' for Inactive)
REMARK    1  A    between atoms: C1_2  and  C2_3 
ROOT
ATOM      1  C2  UNL d   1       0.951  -1.211  -0.379  0.00  0.00    -0.081 A 
ATOM      2  C3  UNL d   1       0.387  -1.339   0.896  0.00  0.00     0.006 A 
ATOM      3  C4  UNL d   1      -0.355  -0.294   1.450  0.00  0.00     0.002 A 
ATOM      4  C5  UNL d   1      -0.553   0.893   0.736  0.00  0.00    -0.080 A 
ATOM      5  C6  UNL d   1      -1.373   2.011   1.307  0.00  0.00     0.076 C 
ATOM      6  C7  UNL d   1       0.025   1.027  -0.531  0.00  0.00     0.002 A 
ATOM      7  C8  UNL d   1       0.768  -0.017  -1.085  0.00  0.00     0.006 A 
ENDROOT
BRANCH   1   8
ATOM      8  C1  UNL d   1       1.697  -2.361  -1.006  0.00  0.00     0.054 C 
ATOM      9  C   UNL d   1       0.828  -3.102  -2.012  0.00  0.00     0.018 C 
ENDBRANCH   1   8
TORSDOF 1
ENDMDL
