MODEL 1
REMARK minimizedAffinity -1.14410555
REMARK minimizedRMSD -1
REMARK  1 active torsions:
REMARK  status: ('A' for Active; 'I' for Inactive)
REMARK    1  A    between atoms: C1_2  and  C2_3 
ROOT
ATOM      1  C2  UNL d   1      -0.185  -0.330  -1.053  0.00  0.00    -0.081 A 
ATOM      2  C3  UNL d   1       0.774  -0.411  -0.036  0.00  0.00     0.006 A 
ATOM      3  C4  UNL d   1       0.582   0.260   1.174  0.00  0.00     0.002 A 
ATOM      4  C5  UNL d   1      -0.575   1.017   1.390  0.00  0.00    -0.080 A 
ATOM      5  C6  UNL d   1      -0.808   1.718   2.695  0.00  0.00     0.076 C 
ATOM      6  C7  UNL d   1      -1.525   1.113   0.367  0.00  0.00     0.002 A 
ATOM      7  C8  UNL d   1      -1.333   0.442  -0.843  0.00  0.00     0.006 A 
ENDROOT
BRANCH   1   8
ATOM      8  C1  UNL d   1      -0.011  -1.105  -2.334  0.00  0.00     0.054 C 
ATOM      9  C   UNL d   1      -0.145  -2.602  -2.097  0.00  0.00     0.018 C 
ENDBRANCH   1   8
TORSDOF 1
ENDMDL
