MODEL 1
REMARK minimizedAffinity -5.7236104
REMARK minimizedRMSD -1
REMARK  1 active torsions:
REMARK  status: ('A' for Active; 'I' for Inactive)
REMARK    1  A    between atoms: C1_2  and  C2_3 
ROOT
ATOM      1  C2  UNL d   1       0.678  -0.180  -0.479  0.00  0.00    -0.081 A 
ATOM      2  C3  UNL d   1       0.200  -0.569   0.778  0.00  0.00     0.006 A 
ATOM      3  C4  UNL d   1      -0.717   0.230   1.465  0.00  0.00     0.002 A 
ATOM      4  C5  UNL d   1      -1.177   1.425   0.903  0.00  0.00    -0.080 A 
ATOM      5  C6  UNL d   1      -2.185   2.277   1.617  0.00  0.00     0.076 C 
ATOM      6  C7  UNL d   1      -0.687   1.823  -0.345  0.00  0.00     0.002 A 
ATOM      7  C8  UNL d   1       0.231   1.025  -1.032  0.00  0.00     0.006 A 
ENDROOT
BRANCH   1   8
ATOM      8  C1  UNL d   1       1.618  -1.071  -1.251  0.00  0.00     0.054 C 
ATOM      9  C   UNL d   1       1.013  -2.449  -1.477  0.00  0.00     0.018 C 
ENDBRANCH   1   8
TORSDOF 1
ENDMDL
