MODEL 1
REMARK minimizedAffinity -3.62403512
REMARK minimizedRMSD -1
REMARK  1 active torsions:
REMARK  status: ('A' for Active; 'I' for Inactive)
REMARK    1  A    between atoms: C1_2  and  C2_3 
ROOT
ATOM      1  C2  UNL d   1       0.642  -0.169  -0.387  0.00  0.00    -0.081 A 
ATOM      2  C3  UNL d   1       0.031  -0.720   0.746  0.00  0.00     0.006 A 
ATOM      3  C4  UNL d   1      -0.916   0.012   1.466  0.00  0.00     0.002 A 
ATOM      4  C5  UNL d   1      -1.273   1.303   1.062  0.00  0.00    -0.080 A 
ATOM      5  C6  UNL d   1      -2.310   2.088   1.809  0.00  0.00     0.076 C 
ATOM      6  C7  UNL d   1      -0.649   1.860  -0.060  0.00  0.00     0.002 A 
ATOM      7  C8  UNL d   1       0.298   1.129  -0.780  0.00  0.00     0.006 A 
ENDROOT
BRANCH   1   8
ATOM      8  C1  UNL d   1       1.616  -0.980  -1.204  0.00  0.00     0.054 C 
ATOM      9  C   UNL d   1       0.925  -2.155  -1.882  0.00  0.00     0.018 C 
ENDBRANCH   1   8
TORSDOF 1
ENDMDL
