MODEL 1
REMARK minimizedAffinity -4.04589272
REMARK minimizedRMSD -1
REMARK  1 active torsions:
REMARK  status: ('A' for Active; 'I' for Inactive)
REMARK    1  A    between atoms: C1_2  and  C2_3 
ROOT
ATOM      1  C2  UNL d   1       0.224  -0.438  -0.330  0.00  0.00    -0.081 A 
ATOM      2  C3  UNL d   1      -0.113  -0.691   1.005  0.00  0.00     0.006 A 
ATOM      3  C4  UNL d   1      -0.928   0.198   1.711  0.00  0.00     0.002 A 
ATOM      4  C5  UNL d   1      -1.426   1.348   1.091  0.00  0.00    -0.080 A 
ATOM      5  C6  UNL d   1      -2.327   2.295   1.827  0.00  0.00     0.076 C 
ATOM      6  C7  UNL d   1      -1.076   1.610  -0.238  0.00  0.00     0.002 A 
ATOM      7  C8  UNL d   1      -0.261   0.722  -0.944  0.00  0.00     0.006 A 
ENDROOT
BRANCH   1   8
ATOM      8  C1  UNL d   1       1.049  -1.427  -1.113  0.00  0.00     0.054 C 
ATOM      9  C   UNL d   1       0.180  -2.255  -2.049  0.00  0.00     0.018 C 
ENDBRANCH   1   8
TORSDOF 1
ENDMDL
