MODEL 1
REMARK minimizedAffinity -5.24213123
REMARK minimizedRMSD -1
REMARK  1 active torsions:
REMARK  status: ('A' for Active; 'I' for Inactive)
REMARK    1  A    between atoms: C1_2  and  C2_3 
ROOT
ATOM      1  C2  UNL d   1       0.355  -0.901  -0.142  0.00  0.00    -0.081 A 
ATOM      2  C3  UNL d   1       0.005  -1.076   1.202  0.00  0.00     0.006 A 
ATOM      3  C4  UNL d   1      -0.785  -0.129   1.858  0.00  0.00     0.002 A 
ATOM      4  C5  UNL d   1      -1.244   1.004   1.179  0.00  0.00    -0.080 A 
ATOM      5  C6  UNL d   1      -2.118   2.014   1.862  0.00  0.00     0.076 C 
ATOM      6  C7  UNL d   1      -0.880   1.189  -0.159  0.00  0.00     0.002 A 
ATOM      7  C8  UNL d   1      -0.090   0.242  -0.815  0.00  0.00     0.006 A 
ENDROOT
BRANCH   1   8
ATOM      8  C1  UNL d   1       1.153  -1.953  -0.870  0.00  0.00     0.054 C 
ATOM      9  C   UNL d   1       0.281  -2.735  -1.842  0.00  0.00     0.018 C 
ENDBRANCH   1   8
TORSDOF 1
ENDMDL
