MODEL 1
REMARK minimizedAffinity 10.9069958
REMARK minimizedRMSD -1
REMARK  0 active torsions:
REMARK  status: ('A' for Active; 'I' for Inactive)
ROOT
ATOM      1  C   UNL d   1      -3.393  -2.199  -0.870  0.00  0.00     0.124 A 
ATOM      2  C1  UNL d   1      -3.272  -0.845  -0.589  0.00  0.00     0.062 A 
ATOM      3  C2  UNL d   1      -2.183  -0.376   0.140  0.00  0.00     0.162 A 
ATOM      4  C3  UNL d   1      -1.205  -1.262   0.593  0.00  0.00    -0.034 A 
ATOM      5  C4  UNL d   1      -1.334  -2.623   0.308  0.00  0.00     0.162 A 
ATOM      6  C5  UNL d   1      -2.425  -3.086  -0.422  0.00  0.00     0.062 A 
ATOM      7  F   UNL d   1      -2.540  -4.395  -0.692  0.00  0.00    -0.097 F 
ATOM      8  F1  UNL d   1      -0.413  -3.502   0.728  0.00  0.00    -0.096 F 
ATOM      9  I   UNL d   1       0.425  -0.565   1.683  0.00  0.00    -0.060 I 
ATOM     10  F2  UNL d   1      -2.091   0.937   0.396  0.00  0.00    -0.096 F 
ATOM     11  F3  UNL d   1      -4.206   0.014  -1.021  0.00  0.00    -0.097 F 
ATOM     12  F4  UNL d   1      -4.442  -2.648  -1.571  0.00  0.00    -0.092 F 
ENDROOT
TORSDOF 0
ENDMDL
