MODEL 1
REMARK minimizedAffinity 12.6793652
REMARK minimizedRMSD -1
REMARK  0 active torsions:
REMARK  status: ('A' for Active; 'I' for Inactive)
ROOT
ATOM      1  C   UNL d   1       1.869  -1.406   1.519  0.00  0.00     0.124 A 
ATOM      2  C1  UNL d   1       1.292  -0.707   2.571  0.00  0.00     0.062 A 
ATOM      3  C2  UNL d   1       1.272  -1.258   3.849  0.00  0.00     0.162 A 
ATOM      4  C3  UNL d   1       1.831  -2.515   4.083  0.00  0.00    -0.034 A 
ATOM      5  C4  UNL d   1       2.409  -3.211   3.020  0.00  0.00     0.162 A 
ATOM      6  C5  UNL d   1       2.427  -2.656   1.744  0.00  0.00     0.062 A 
ATOM      7  F   UNL d   1       2.984  -3.332   0.729  0.00  0.00    -0.097 F 
ATOM      8  F1  UNL d   1       2.955  -4.421   3.209  0.00  0.00    -0.096 F 
ATOM      9  I   UNL d   1       1.802  -3.342   5.992  0.00  0.00    -0.060 I 
ATOM     10  F2  UNL d   1       0.708  -0.562   4.847  0.00  0.00    -0.096 F 
ATOM     11  F3  UNL d   1       0.753   0.501   2.356  0.00  0.00    -0.097 F 
ATOM     12  F4  UNL d   1       1.887  -0.873   0.290  0.00  0.00    -0.092 F 
ENDROOT
TORSDOF 0
ENDMDL
