MODEL 1
REMARK minimizedAffinity 12.2702169
REMARK minimizedRMSD -1
REMARK  0 active torsions:
REMARK  status: ('A' for Active; 'I' for Inactive)
ROOT
ATOM      1  C   UNL d   1       1.090  -0.711   3.746  0.00  0.00     0.124 A 
ATOM      2  C1  UNL d   1       1.141  -1.698   4.720  0.00  0.00     0.062 A 
ATOM      3  C2  UNL d   1       1.466  -3.006   4.374  0.00  0.00     0.162 A 
ATOM      4  C3  UNL d   1       1.743  -3.336   3.048  0.00  0.00    -0.034 A 
ATOM      5  C4  UNL d   1       1.688  -2.338   2.073  0.00  0.00     0.162 A 
ATOM      6  C5  UNL d   1       1.363  -1.032   2.423  0.00  0.00     0.062 A 
ATOM      7  F   UNL d   1       1.314  -0.079   1.481  0.00  0.00    -0.097 F 
ATOM      8  F1  UNL d   1       1.949  -2.620   0.788  0.00  0.00    -0.096 F 
ATOM      9  I   UNL d   1       2.229  -5.291   2.527  0.00  0.00    -0.060 I 
ATOM     10  F2  UNL d   1       1.508  -3.940   5.337  0.00  0.00    -0.096 F 
ATOM     11  F3  UNL d   1       0.877  -1.391   5.998  0.00  0.00    -0.097 F 
ATOM     12  F4  UNL d   1       0.776   0.547   4.081  0.00  0.00    -0.092 F 
ENDROOT
TORSDOF 0
ENDMDL
