MODEL 1
REMARK minimizedAffinity 16.0875053
REMARK minimizedRMSD -1
REMARK  0 active torsions:
REMARK  status: ('A' for Active; 'I' for Inactive)
ROOT
ATOM      1  C   UNL d   1      -3.058   0.315  -0.837  0.00  0.00     0.124 A 
ATOM      2  C1  UNL d   1      -2.285   1.380  -0.396  0.00  0.00     0.062 A 
ATOM      3  C2  UNL d   1      -1.231   1.161   0.486  0.00  0.00     0.162 A 
ATOM      4  C3  UNL d   1      -0.942  -0.129   0.932  0.00  0.00    -0.034 A 
ATOM      5  C4  UNL d   1      -1.725  -1.194   0.484  0.00  0.00     0.162 A 
ATOM      6  C5  UNL d   1      -2.777  -0.971  -0.397  0.00  0.00     0.062 A 
ATOM      7  F   UNL d   1      -3.523  -2.001  -0.823  0.00  0.00    -0.097 F 
ATOM      8  F1  UNL d   1      -1.475  -2.447   0.893  0.00  0.00    -0.096 F 
ATOM      9  I   UNL d   1       0.634  -0.460   2.250  0.00  0.00    -0.060 I 
ATOM     10  F2  UNL d   1      -0.500   2.209   0.896  0.00  0.00    -0.096 F 
ATOM     11  F3  UNL d   1      -2.555   2.623  -0.819  0.00  0.00    -0.097 F 
ATOM     12  F4  UNL d   1      -4.073   0.529  -1.685  0.00  0.00    -0.092 F 
ENDROOT
TORSDOF 0
ENDMDL
