MODEL 1
REMARK minimizedAffinity 19.4689674
REMARK minimizedRMSD -1
REMARK  0 active torsions:
REMARK  status: ('A' for Active; 'I' for Inactive)
ROOT
ATOM      1  C   UNL d   1      -2.209   2.056  -0.204  0.00  0.00     0.124 A 
ATOM      2  C1  UNL d   1      -0.946   2.565   0.064  0.00  0.00     0.062 A 
ATOM      3  C2  UNL d   1       0.018   1.764   0.670  0.00  0.00     0.162 A 
ATOM      4  C3  UNL d   1      -0.278   0.444   1.012  0.00  0.00    -0.034 A 
ATOM      5  C4  UNL d   1      -1.551  -0.061   0.740  0.00  0.00     0.162 A 
ATOM      6  C5  UNL d   1      -2.510   0.744   0.134  0.00  0.00     0.062 A 
ATOM      7  F   UNL d   1      -3.730   0.251  -0.124  0.00  0.00    -0.097 F 
ATOM      8  F1  UNL d   1      -1.869  -1.325   1.055  0.00  0.00    -0.096 F 
ATOM      9  I   UNL d   1       1.159  -0.758   1.918  0.00  0.00    -0.060 I 
ATOM     10  F2  UNL d   1       1.230   2.281   0.918  0.00  0.00    -0.096 F 
ATOM     11  F3  UNL d   1      -0.652   3.832  -0.260  0.00  0.00    -0.097 F 
ATOM     12  F4  UNL d   1      -3.134   2.830  -0.786  0.00  0.00    -0.092 F 
ENDROOT
TORSDOF 0
ENDMDL
