MODEL 1
REMARK minimizedAffinity 19.4911556
REMARK minimizedRMSD -1
REMARK  0 active torsions:
REMARK  status: ('A' for Active; 'I' for Inactive)
ROOT
ATOM      1  C   UNL d   1      -2.368  -1.170  -0.241  0.00  0.00     0.124 A 
ATOM      2  C1  UNL d   1      -1.659  -2.359  -0.338  0.00  0.00     0.062 A 
ATOM      3  C2  UNL d   1      -0.426  -2.493   0.293  0.00  0.00     0.162 A 
ATOM      4  C3  UNL d   1       0.106  -1.434   1.029  0.00  0.00    -0.034 A 
ATOM      5  C4  UNL d   1      -0.612  -0.241   1.122  0.00  0.00     0.162 A 
ATOM      6  C5  UNL d   1      -1.844  -0.112   0.489  0.00  0.00     0.062 A 
ATOM      7  F   UNL d   1      -2.527   1.038   0.584  0.00  0.00    -0.097 F 
ATOM      8  F1  UNL d   1      -0.129   0.797   1.822  0.00  0.00    -0.096 F 
ATOM      9  I   UNL d   1       1.950  -1.631   1.975  0.00  0.00    -0.060 I 
ATOM     10  F2  UNL d   1       0.237  -3.654   0.182  0.00  0.00    -0.096 F 
ATOM     11  F3  UNL d   1      -2.163  -3.382  -1.043  0.00  0.00    -0.097 F 
ATOM     12  F4  UNL d   1      -3.554  -1.044  -0.850  0.00  0.00    -0.092 F 
ENDROOT
TORSDOF 0
ENDMDL
