MODEL 1
REMARK minimizedAffinity 3.61492205
REMARK minimizedRMSD -1
REMARK  0 active torsions:
REMARK  status: ('A' for Active; 'I' for Inactive)
ROOT
ATOM      1  C   UNL d   1      -0.480  -0.305   0.950  0.00  0.00     0.124 A 
ATOM      2  C1  UNL d   1      -1.806  -0.323   0.539  0.00  0.00     0.062 A 
ATOM      3  C2  UNL d   1      -2.413  -1.524   0.188  0.00  0.00     0.162 A 
ATOM      4  C3  UNL d   1      -1.696  -2.719   0.246  0.00  0.00    -0.034 A 
ATOM      5  C4  UNL d   1      -0.363  -2.693   0.659  0.00  0.00     0.162 A 
ATOM      6  C5  UNL d   1       0.240  -1.490   1.009  0.00  0.00     0.062 A 
ATOM      7  F   UNL d   1       1.521  -1.475   1.405  0.00  0.00    -0.097 F 
ATOM      8  F1  UNL d   1       0.356  -3.824   0.726  0.00  0.00    -0.096 F 
ATOM      9  I   UNL d   1      -2.602  -4.518  -0.279  0.00  0.00    -0.060 I 
ATOM     10  F2  UNL d   1      -3.696  -1.512  -0.205  0.00  0.00    -0.096 F 
ATOM     11  F3  UNL d   1      -2.503   0.821   0.481  0.00  0.00    -0.097 F 
ATOM     12  F4  UNL d   1       0.103   0.853   1.287  0.00  0.00    -0.092 F 
ENDROOT
TORSDOF 0
ENDMDL
