MODEL 1
REMARK minimizedAffinity 25.8816433
REMARK minimizedRMSD -1
REMARK  0 active torsions:
REMARK  status: ('A' for Active; 'I' for Inactive)
ROOT
ATOM      1  C   UNL d   1       1.141  -0.405   2.188  0.00  0.00     0.124 A 
ATOM      2  C1  UNL d   1       1.628  -1.690   1.992  0.00  0.00     0.062 A 
ATOM      3  C2  UNL d   1       1.826  -2.536   3.079  0.00  0.00     0.162 A 
ATOM      4  C3  UNL d   1       1.536  -2.101   4.372  0.00  0.00    -0.034 A 
ATOM      5  C4  UNL d   1       1.047  -0.808   4.561  0.00  0.00     0.162 A 
ATOM      6  C5  UNL d   1       0.851   0.035   3.472  0.00  0.00     0.062 A 
ATOM      7  F   UNL d   1       0.380   1.276   3.663  0.00  0.00    -0.097 F 
ATOM      8  F1  UNL d   1       0.758  -0.357   5.791  0.00  0.00    -0.096 F 
ATOM      9  I   UNL d   1       1.831  -3.365   6.000  0.00  0.00    -0.060 I 
ATOM     10  F2  UNL d   1       2.298  -3.773   2.860  0.00  0.00    -0.096 F 
ATOM     11  F3  UNL d   1       1.910  -2.116   0.753  0.00  0.00    -0.097 F 
ATOM     12  F4  UNL d   1       0.952   0.408   1.141  0.00  0.00    -0.092 F 
ENDROOT
TORSDOF 0
ENDMDL
