MODEL 1
REMARK minimizedAffinity 27.133976
REMARK minimizedRMSD -1
REMARK  0 active torsions:
REMARK  status: ('A' for Active; 'I' for Inactive)
ROOT
ATOM      1  C   UNL d   1      -1.128   0.517   0.629  0.00  0.00     0.124 A 
ATOM      2  C1  UNL d   1      -1.552  -0.790   0.429  0.00  0.00     0.062 A 
ATOM      3  C2  UNL d   1      -0.676  -1.850   0.637  0.00  0.00     0.162 A 
ATOM      4  C3  UNL d   1       0.635  -1.609   1.049  0.00  0.00    -0.034 A 
ATOM      5  C4  UNL d   1       1.055  -0.293   1.247  0.00  0.00     0.162 A 
ATOM      6  C5  UNL d   1       0.175   0.764   1.037  0.00  0.00     0.062 A 
ATOM      7  F   UNL d   1       0.587   2.025   1.231  0.00  0.00    -0.097 F 
ATOM      8  F1  UNL d   1       2.309  -0.025   1.643  0.00  0.00    -0.096 F 
ATOM      9  I   UNL d   1       1.950  -3.192   1.362  0.00  0.00    -0.060 I 
ATOM     10  F2  UNL d   1      -1.113  -3.102   0.437  0.00  0.00    -0.096 F 
ATOM     11  F3  UNL d   1      -2.811  -1.031   0.034  0.00  0.00    -0.097 F 
ATOM     12  F4  UNL d   1      -1.974   1.535   0.427  0.00  0.00    -0.092 F 
ENDROOT
TORSDOF 0
ENDMDL
