MODEL 1
REMARK minimizedAffinity 10.1569519
REMARK minimizedRMSD -1
REMARK  0 active torsions:
REMARK  status: ('A' for Active; 'I' for Inactive)
ROOT
ATOM      1  C   UNL d   1       1.003  -0.687   3.416  0.00  0.00     0.124 A 
ATOM      2  C1  UNL d   1       1.097  -1.532   4.513  0.00  0.00     0.062 A 
ATOM      3  C2  UNL d   1       1.494  -2.855   4.345  0.00  0.00     0.162 A 
ATOM      4  C3  UNL d   1       1.802  -3.342   3.074  0.00  0.00    -0.034 A 
ATOM      5  C4  UNL d   1       1.704  -2.486   1.975  0.00  0.00     0.162 A 
ATOM      6  C5  UNL d   1       1.306  -1.164   2.149  0.00  0.00     0.062 A 
ATOM      7  F   UNL d   1       1.216  -0.349   1.088  0.00  0.00    -0.097 F 
ATOM      8  F1  UNL d   1       1.993  -2.921   0.740  0.00  0.00    -0.096 F 
ATOM      9  I   UNL d   1       2.397  -5.320   2.819  0.00  0.00    -0.060 I 
ATOM     10  F2  UNL d   1       1.577  -3.649   5.422  0.00  0.00    -0.096 F 
ATOM     11  F3  UNL d   1       0.803  -1.073   5.738  0.00  0.00    -0.097 F 
ATOM     12  F4  UNL d   1       0.619   0.586   3.580  0.00  0.00    -0.092 F 
ENDROOT
TORSDOF 0
ENDMDL
