MODEL 1
REMARK minimizedAffinity 17.812664
REMARK minimizedRMSD -1
REMARK  0 active torsions:
REMARK  status: ('A' for Active; 'I' for Inactive)
ROOT
ATOM      1  C   UNL d   1       1.416  -0.034   3.654  0.00  0.00     0.124 A 
ATOM      2  C1  UNL d   1       1.793  -0.677   4.825  0.00  0.00     0.062 A 
ATOM      3  C2  UNL d   1       2.274  -1.982   4.783  0.00  0.00     0.162 A 
ATOM      4  C3  UNL d   1       2.382  -2.654   3.566  0.00  0.00    -0.034 A 
ATOM      5  C4  UNL d   1       2.000  -2.002   2.392  0.00  0.00     0.162 A 
ATOM      6  C5  UNL d   1       1.520  -0.697   2.439  0.00  0.00     0.062 A 
ATOM      7  F   UNL d   1       1.157  -0.078   1.306  0.00  0.00    -0.097 F 
ATOM      8  F1  UNL d   1       2.091  -2.618   1.204  0.00  0.00    -0.096 F 
ATOM      9  I   UNL d   1       3.101  -4.606   3.499  0.00  0.00    -0.060 I 
ATOM     10  F2  UNL d   1       2.630  -2.579   5.931  0.00  0.00    -0.096 F 
ATOM     11  F3  UNL d   1       1.692  -0.039   6.000  0.00  0.00    -0.097 F 
ATOM     12  F4  UNL d   1       0.953   1.222   3.697  0.00  0.00    -0.092 F 
ENDROOT
TORSDOF 0
ENDMDL
