MODEL 1
REMARK minimizedAffinity 12.5791492
REMARK minimizedRMSD -1
REMARK  0 active torsions:
REMARK  status: ('A' for Active; 'I' for Inactive)
ROOT
ATOM      1  C   UNL d   1       1.336  -0.094   3.712  0.00  0.00     0.124 A 
ATOM      2  C1  UNL d   1       1.316  -0.520   2.391  0.00  0.00     0.062 A 
ATOM      3  C2  UNL d   1       1.597  -1.847   2.080  0.00  0.00     0.162 A 
ATOM      4  C3  UNL d   1       1.901  -2.758   3.091  0.00  0.00    -0.034 A 
ATOM      5  C4  UNL d   1       1.920  -2.322   4.417  0.00  0.00     0.162 A 
ATOM      6  C5  UNL d   1       1.638  -0.994   4.723  0.00  0.00     0.062 A 
ATOM      7  F   UNL d   1       1.658  -0.584   6.000  0.00  0.00    -0.097 F 
ATOM      8  F1  UNL d   1       2.208  -3.171   5.415  0.00  0.00    -0.096 F 
ATOM      9  I   UNL d   1       2.322  -4.743   2.630  0.00  0.00    -0.060 I 
ATOM     10  F2  UNL d   1       1.571  -2.231   0.795  0.00  0.00    -0.096 F 
ATOM     11  F3  UNL d   1       1.025   0.348   1.412  0.00  0.00    -0.097 F 
ATOM     12  F4  UNL d   1       1.065   1.184   4.009  0.00  0.00    -0.092 F 
ENDROOT
TORSDOF 0
ENDMDL
