MODEL 1
REMARK minimizedAffinity 11.7886209
REMARK minimizedRMSD -1
REMARK  0 active torsions:
REMARK  status: ('A' for Active; 'I' for Inactive)
ROOT
ATOM      1  C   UNL d   1       1.631  -1.363   4.795  0.00  0.00     0.124 A 
ATOM      2  C1  UNL d   1       1.400  -0.621   3.645  0.00  0.00     0.062 A 
ATOM      3  C2  UNL d   1       1.618  -1.186   2.392  0.00  0.00     0.162 A 
ATOM      4  C3  UNL d   1       2.068  -2.501   2.282  0.00  0.00    -0.034 A 
ATOM      5  C4  UNL d   1       2.300  -3.241   3.443  0.00  0.00     0.162 A 
ATOM      6  C5  UNL d   1       2.081  -2.672   4.693  0.00  0.00     0.062 A 
ATOM      7  F   UNL d   1       2.305  -3.390   5.803  0.00  0.00    -0.097 F 
ATOM      8  F1  UNL d   1       2.733  -4.508   3.374  0.00  0.00    -0.096 F 
ATOM      9  I   UNL d   1       2.395  -3.350   0.410  0.00  0.00    -0.060 I 
ATOM     10  F2  UNL d   1       1.386  -0.446   1.298  0.00  0.00    -0.096 F 
ATOM     11  F3  UNL d   1       0.967   0.644   3.741  0.00  0.00    -0.097 F 
ATOM     12  F4  UNL d   1       1.422  -0.816   6.000  0.00  0.00    -0.092 F 
ENDROOT
TORSDOF 0
ENDMDL
