MODEL 1
REMARK minimizedAffinity 5.54786062
REMARK minimizedRMSD -1
REMARK  1 active torsions:
REMARK  status: ('A' for Active; 'I' for Inactive)
REMARK    1  A    between atoms: C1_2  and  C2_3 
ROOT
ATOM      1  C2  UNL d   1       4.461  -4.079   3.488  0.00  0.00    -0.077 A 
ATOM      2  C3  UNL d   1       4.724  -2.890   4.182  0.00  0.00     0.002 A 
ATOM      3  C4  UNL d   1       5.343  -2.924   5.433  0.00  0.00     0.002 A 
ATOM      4  C5  UNL d   1       5.706  -4.144   5.999  0.00  0.00    -0.004 A 
ATOM      5  C6  UNL d   1       5.446  -5.333   5.318  0.00  0.00     0.002 A 
ATOM      6  C7  UNL d   1       4.827  -5.300   4.068  0.00  0.00     0.002 A 
ENDROOT
BRANCH   1   7
ATOM      7  C1  UNL d   1       3.838  -4.041   2.117  0.00  0.00     0.055 C 
ATOM      8  C   UNL d   1       2.526  -3.271   2.126  0.00  0.00     0.019 C 
ENDBRANCH   1   7
TORSDOF 1
ENDMDL
