MODEL 1
REMARK minimizedAffinity 2.11728954
REMARK minimizedRMSD -1
REMARK  1 active torsions:
REMARK  status: ('A' for Active; 'I' for Inactive)
REMARK    1  A    between atoms: C1_2  and  C2_3 
ROOT
ATOM      1  C2  UNL d   1       2.034  -1.269   2.165  0.00  0.00    -0.077 A 
ATOM      2  C3  UNL d   1       1.029  -2.159   1.760  0.00  0.00     0.002 A 
ATOM      3  C4  UNL d   1       0.972  -2.607   0.439  0.00  0.00     0.002 A 
ATOM      4  C5  UNL d   1       1.920  -2.175  -0.486  0.00  0.00    -0.004 A 
ATOM      5  C6  UNL d   1       2.922  -1.289  -0.094  0.00  0.00     0.002 A 
ATOM      6  C7  UNL d   1       2.980  -0.838   1.225  0.00  0.00     0.002 A 
ENDROOT
BRANCH   1   7
ATOM      7  C1  UNL d   1       2.127  -0.823   3.601  0.00  0.00     0.055 C 
ATOM      8  C   UNL d   1       3.249  -1.544   4.333  0.00  0.00     0.019 C 
ENDBRANCH   1   7
TORSDOF 1
ENDMDL
