MODEL 1
REMARK minimizedAffinity 3.64377403
REMARK minimizedRMSD -1
REMARK  1 active torsions:
REMARK  status: ('A' for Active; 'I' for Inactive)
REMARK    1  A    between atoms: C1_2  and  C2_3 
ROOT
ATOM      1  C2  UNL d   1      -3.882   2.603  -4.974  0.00  0.00    -0.077 A 
ATOM      2  C3  UNL d   1      -3.747   2.991  -3.633  0.00  0.00     0.002 A 
ATOM      3  C4  UNL d   1      -2.483   3.084  -3.048  0.00  0.00     0.002 A 
ATOM      4  C5  UNL d   1      -1.344   2.795  -3.797  0.00  0.00    -0.004 A 
ATOM      5  C6  UNL d   1      -1.467   2.406  -5.130  0.00  0.00     0.002 A 
ATOM      6  C7  UNL d   1      -2.730   2.312  -5.716  0.00  0.00     0.002 A 
ENDROOT
BRANCH   1   7
ATOM      7  C1  UNL d   1      -5.241   2.550  -5.621  0.00  0.00     0.055 C 
ATOM      8  C   UNL d   1      -5.621   1.125  -5.994  0.00  0.00     0.019 C 
ENDBRANCH   1   7
TORSDOF 1
ENDMDL
