MODEL 1
REMARK minimizedAffinity 10.6225681
REMARK minimizedRMSD -1
REMARK  1 active torsions:
REMARK  status: ('A' for Active; 'I' for Inactive)
REMARK    1  A    between atoms: C1_2  and  C2_3 
ROOT
ATOM      1  C2  UNL d   1       1.386  -2.564   0.541  0.00  0.00    -0.077 A 
ATOM      2  C3  UNL d   1       2.191  -1.670   1.261  0.00  0.00     0.002 A 
ATOM      3  C4  UNL d   1       1.653  -0.925   2.312  0.00  0.00     0.002 A 
ATOM      4  C5  UNL d   1       0.310  -1.070   2.655  0.00  0.00    -0.004 A 
ATOM      5  C6  UNL d   1      -0.499  -1.954   1.944  0.00  0.00     0.002 A 
ATOM      6  C7  UNL d   1       0.037  -2.699   0.892  0.00  0.00     0.002 A 
ENDROOT
BRANCH   1   7
ATOM      7  C1  UNL d   1       1.976  -3.404  -0.562  0.00  0.00     0.055 C 
ATOM      8  C   UNL d   1       1.781  -4.889  -0.291  0.00  0.00     0.019 C 
ENDBRANCH   1   7
TORSDOF 1
ENDMDL
