MODEL 1
REMARK minimizedAffinity -3.72931004
REMARK minimizedRMSD -1
REMARK  0 active torsions:
REMARK  status: ('A' for Active; 'I' for Inactive)
ROOT
ATOM      1  C   UNL d   1       1.107   3.328   1.035  0.00  0.00    -0.002 A 
ATOM      2  C1  UNL d   1       2.324   2.664   1.069  0.00  0.00     0.010 A 
ATOM      3  C2  UNL d   1       2.389   1.286   0.850  0.00  0.00     0.041 A 
ATOM      4  C3  UNL d   1       1.197   0.581   0.592  0.00  0.00    -0.075 A 
ATOM      5  S   UNL d   1       1.032  -1.109   0.293  0.00  0.00     0.015 SA
ATOM      6  C4  UNL d   1      -0.658  -0.989   0.113  0.00  0.00     0.022 A 
ATOM      7  C5  UNL d   1      -1.103   0.301   0.274  0.00  0.00     0.026 A 
ATOM      8  C6  UNL d   1      -0.042   1.228   0.552  0.00  0.00    -0.082 A 
ATOM      9  C7  UNL d   1      -0.074   2.625   0.779  0.00  0.00     0.045 A 
ENDROOT
TORSDOF 0
ENDMDL
