MODEL 1
REMARK minimizedAffinity -0.883430183
REMARK minimizedRMSD -1
REMARK  0 active torsions:
REMARK  status: ('A' for Active; 'I' for Inactive)
ROOT
ATOM      1  C   UNL d   1      -1.017   2.254   0.760  0.00  0.00    -0.002 A 
ATOM      2  C1  UNL d   1       0.370   2.248   0.812  0.00  0.00     0.010 A 
ATOM      3  C2  UNL d   1       1.087   1.095   0.488  0.00  0.00     0.041 A 
ATOM      4  C3  UNL d   1       0.381  -0.062   0.105  0.00  0.00    -0.075 A 
ATOM      5  S   UNL d   1       1.049  -1.589  -0.337  0.00  0.00     0.015 SA
ATOM      6  C4  UNL d   1      -0.491  -2.269  -0.606  0.00  0.00     0.022 A 
ATOM      7  C5  UNL d   1      -1.501  -1.367  -0.369  0.00  0.00     0.026 A 
ATOM      8  C6  UNL d   1      -1.015  -0.080   0.044  0.00  0.00    -0.082 A 
ATOM      9  C7  UNL d   1      -1.714   1.105   0.380  0.00  0.00     0.045 A 
ENDROOT
TORSDOF 0
ENDMDL
