MODEL 1
REMARK minimizedAffinity -1.15702426
REMARK minimizedRMSD -1
REMARK  0 active torsions:
REMARK  status: ('A' for Active; 'I' for Inactive)
ROOT
ATOM      1  C   UNL d   1       0.905   3.352   1.134  0.00  0.00    -0.002 A 
ATOM      2  C1  UNL d   1       2.237   2.963   1.134  0.00  0.00     0.010 A 
ATOM      3  C2  UNL d   1       2.599   1.670   0.748  0.00  0.00     0.041 A 
ATOM      4  C3  UNL d   1       1.590   0.768   0.357  0.00  0.00    -0.075 A 
ATOM      5  S   UNL d   1       1.798  -0.865  -0.155  0.00  0.00     0.015 SA
ATOM      6  C4  UNL d   1       0.124  -1.084  -0.387  0.00  0.00     0.022 A 
ATOM      7  C5  UNL d   1      -0.591   0.051  -0.085  0.00  0.00     0.026 A 
ATOM      8  C6  UNL d   1       0.242   1.137   0.348  0.00  0.00    -0.082 A 
ATOM      9  C7  UNL d   1      -0.093   2.454   0.746  0.00  0.00     0.045 A 
ENDROOT
TORSDOF 0
ENDMDL
