MODEL 1
REMARK minimizedAffinity -3.17867017
REMARK minimizedRMSD -1
REMARK  0 active torsions:
REMARK  status: ('A' for Active; 'I' for Inactive)
ROOT
ATOM      1  C   UNL d   1       0.498   3.449   0.914  0.00  0.00    -0.002 A 
ATOM      2  C1  UNL d   1       1.804   3.053   1.165  0.00  0.00     0.010 A 
ATOM      3  C2  UNL d   1       2.162   1.705   1.102  0.00  0.00     0.041 A 
ATOM      4  C3  UNL d   1       1.176   0.753   0.777  0.00  0.00    -0.075 A 
ATOM      5  S   UNL d   1       1.384  -0.953   0.641  0.00  0.00     0.015 SA
ATOM      6  C4  UNL d   1      -0.256  -1.197   0.246  0.00  0.00     0.022 A 
ATOM      7  C5  UNL d   1      -0.959  -0.016   0.214  0.00  0.00     0.026 A 
ATOM      8  C6  UNL d   1      -0.146   1.127   0.519  0.00  0.00    -0.082 A 
ATOM      9  C7  UNL d   1      -0.477   2.501   0.592  0.00  0.00     0.045 A 
ENDROOT
TORSDOF 0
ENDMDL
