MODEL 1
REMARK minimizedAffinity -0.615598977
REMARK minimizedRMSD -1
REMARK  0 active torsions:
REMARK  status: ('A' for Active; 'I' for Inactive)
ROOT
ATOM      1  C   UNL d   1      -0.346   3.188   0.766  0.00  0.00    -0.002 A 
ATOM      2  C1  UNL d   1       0.952   2.943   1.189  0.00  0.00     0.010 A 
ATOM      3  C2  UNL d   1       1.501   1.663   1.092  0.00  0.00     0.041 A 
ATOM      4  C3  UNL d   1       0.716   0.624   0.554  0.00  0.00    -0.075 A 
ATOM      5  S   UNL d   1       1.179  -1.023   0.337  0.00  0.00     0.015 SA
ATOM      6  C4  UNL d   1      -0.336  -1.439  -0.325  0.00  0.00     0.022 A 
ATOM      7  C5  UNL d   1      -1.186  -0.360  -0.385  0.00  0.00     0.026 A 
ATOM      8  C6  UNL d   1      -0.594   0.847   0.120  0.00  0.00    -0.082 A 
ATOM      9  C7  UNL d   1      -1.122   2.155   0.233  0.00  0.00     0.045 A 
ENDROOT
TORSDOF 0
ENDMDL
