MODEL 1
REMARK minimizedAffinity 3.69056392
REMARK minimizedRMSD -1
REMARK  0 active torsions:
REMARK  status: ('A' for Active; 'I' for Inactive)
ROOT
ATOM      1  C   UNL d   1      -1.525   2.485   0.667  0.00  0.00    -0.002 A 
ATOM      2  C1  UNL d   1      -0.226   2.701   1.107  0.00  0.00     0.010 A 
ATOM      3  C2  UNL d   1       0.748   1.712   0.955  0.00  0.00     0.041 A 
ATOM      4  C3  UNL d   1       0.393   0.493   0.346  0.00  0.00    -0.075 A 
ATOM      5  S   UNL d   1       1.420  -0.861   0.053  0.00  0.00     0.015 SA
ATOM      6  C4  UNL d   1       0.159  -1.757  -0.664  0.00  0.00     0.022 A 
ATOM      7  C5  UNL d   1      -1.023  -1.055  -0.687  0.00  0.00     0.026 A 
ATOM      8  C6  UNL d   1      -0.908   0.253  -0.106  0.00  0.00    -0.082 A 
ATOM      9  C7  UNL d   1      -1.873   1.274   0.063  0.00  0.00     0.045 A 
ENDROOT
TORSDOF 0
ENDMDL
