MODEL 1
REMARK minimizedAffinity -3.37498188
REMARK minimizedRMSD -1
REMARK  0 active torsions:
REMARK  status: ('A' for Active; 'I' for Inactive)
ROOT
ATOM      1  C   UNL d   1      -0.193  -3.189  -1.235  0.00  0.00    -0.002 A 
ATOM      2  C1  UNL d   1       0.179  -2.340  -2.268  0.00  0.00     0.010 A 
ATOM      3  C2  UNL d   1      -0.052  -0.966  -2.176  0.00  0.00     0.041 A 
ATOM      4  C3  UNL d   1      -0.667  -0.455  -1.017  0.00  0.00    -0.075 A 
ATOM      5  S   UNL d   1      -1.049   1.193  -0.684  0.00  0.00     0.015 SA
ATOM      6  C4  UNL d   1      -1.714   0.810   0.837  0.00  0.00     0.022 A 
ATOM      7  C5  UNL d   1      -1.655  -0.538   1.101  0.00  0.00     0.026 A 
ATOM      8  C6  UNL d   1      -1.050  -1.289   0.037  0.00  0.00    -0.082 A 
ATOM      9  C7  UNL d   1      -0.803  -2.678  -0.087  0.00  0.00     0.045 A 
ENDROOT
TORSDOF 0
ENDMDL
