MODEL 1
REMARK minimizedAffinity -0.0658544898
REMARK minimizedRMSD -1
REMARK  0 active torsions:
REMARK  status: ('A' for Active; 'I' for Inactive)
ROOT
ATOM      1  C   UNL d   1      -0.021  -0.899  -1.073  0.00  0.00     0.023 A 
ATOM      2  C1  UNL d   1      -1.372  -0.718  -0.780  0.00  0.00     0.003 A 
ATOM      3  C2  UNL d   1      -1.755  -0.170   0.446  0.00  0.00     0.048 A 
ATOM      4  C3  UNL d   1      -0.781   0.196   1.374  0.00  0.00     0.023 A 
ATOM      5  C4  UNL d   1       0.573   0.018   1.084  0.00  0.00     0.048 A 
ATOM      6  C5  UNL d   1       0.951  -0.531  -0.142  0.00  0.00     0.003 A 
ATOM      7  I   UNL d   1      -1.348   1.012   3.199  0.00  0.00    -0.146 I 
ENDROOT
TORSDOF 0
ENDMDL
