MODEL 1
REMARK minimizedAffinity -3.18070579
REMARK minimizedRMSD -1
REMARK  0 active torsions:
REMARK  status: ('A' for Active; 'I' for Inactive)
ROOT
ATOM      1  C   UNL d   1      -0.200   1.075   3.452  0.00  0.00     0.023 A 
ATOM      2  C1  UNL d   1       1.106   0.646   3.214  0.00  0.00     0.003 A 
ATOM      3  C2  UNL d   1       1.452   0.114   1.970  0.00  0.00     0.048 A 
ATOM      4  C3  UNL d   1       0.487   0.015   0.968  0.00  0.00     0.023 A 
ATOM      5  C4  UNL d   1      -0.820   0.444   1.201  0.00  0.00     0.048 A 
ATOM      6  C5  UNL d   1      -1.162   0.974   2.447  0.00  0.00     0.003 A 
ATOM      7  I   UNL d   1       1.000  -0.776  -0.885  0.00  0.00    -0.146 I 
ENDROOT
TORSDOF 0
ENDMDL
