MODEL 1
REMARK minimizedAffinity -4.63017702
REMARK minimizedRMSD -1
REMARK  0 active torsions:
REMARK  status: ('A' for Active; 'I' for Inactive)
ROOT
ATOM      1  C   UNL d   1       0.292   0.739   3.905  0.00  0.00     0.023 A 
ATOM      2  C1  UNL d   1      -0.777   1.177   3.124  0.00  0.00     0.003 A 
ATOM      3  C2  UNL d   1      -0.813   0.886   1.759  0.00  0.00     0.048 A 
ATOM      4  C3  UNL d   1       0.224   0.155   1.181  0.00  0.00     0.023 A 
ATOM      5  C4  UNL d   1       1.296  -0.287   1.958  0.00  0.00     0.048 A 
ATOM      6  C5  UNL d   1       1.328   0.008   3.322  0.00  0.00     0.003 A 
ATOM      7  I   UNL d   1       0.173  -0.281  -0.851  0.00  0.00    -0.146 I 
ENDROOT
TORSDOF 0
ENDMDL
