MODEL 1
REMARK minimizedAffinity -3.57416177
REMARK minimizedRMSD -1
REMARK  0 active torsions:
REMARK  status: ('A' for Active; 'I' for Inactive)
ROOT
ATOM      1  C   UNL d   1       0.376   0.354   3.063  0.00  0.00     0.023 A 
ATOM      2  C1  UNL d   1      -0.729   0.693   2.282  0.00  0.00     0.003 A 
ATOM      3  C2  UNL d   1      -0.716   0.447   0.908  0.00  0.00     0.048 A 
ATOM      4  C3  UNL d   1       0.405  -0.140   0.321  0.00  0.00     0.023 A 
ATOM      5  C4  UNL d   1       1.512  -0.481   1.099  0.00  0.00     0.048 A 
ATOM      6  C5  UNL d   1       1.495  -0.232   2.472  0.00  0.00     0.003 A 
ATOM      7  I   UNL d   1       0.426  -0.507  -1.724  0.00  0.00    -0.146 I 
ENDROOT
TORSDOF 0
ENDMDL
