MODEL 1
REMARK minimizedAffinity 5.76703691
REMARK minimizedRMSD -1
REMARK  1 active torsions:
REMARK  status: ('A' for Active; 'I' for Inactive)
REMARK    1  A    between atoms: C1_2  and  C2_3 
ROOT
ATOM      1  C2  UNL d   1      -0.055   2.958   2.611  0.00  0.00    -0.077 A 
ATOM      2  C3  UNL d   1      -1.188   3.060   3.431  0.00  0.00     0.002 A 
ATOM      3  C4  UNL d   1      -2.466   2.902   2.892  0.00  0.00     0.002 A 
ATOM      4  C5  UNL d   1      -2.623   2.637   1.533  0.00  0.00    -0.004 A 
ATOM      5  C6  UNL d   1      -1.503   2.536   0.709  0.00  0.00     0.002 A 
ATOM      6  C7  UNL d   1      -0.224   2.695   1.246  0.00  0.00     0.002 A 
ENDROOT
BRANCH   1   7
ATOM      7  C1  UNL d   1       1.327   3.080   3.200  0.00  0.00     0.055 C 
ATOM      8  C   UNL d   1       2.398   2.772   2.164  0.00  0.00     0.019 C 
ENDBRANCH   1   7
TORSDOF 1
ENDMDL
