MODEL 1
REMARK minimizedAffinity -0.0974293873
REMARK minimizedRMSD -1
REMARK  1 active torsions:
REMARK  status: ('A' for Active; 'I' for Inactive)
REMARK    1  A    between atoms: C1_2  and  C2_3 
ROOT
ATOM      1  C2  UNL d   1       1.322   2.441   1.616  0.00  0.00    -0.077 A 
ATOM      2  C3  UNL d   1       0.110   3.147   1.625  0.00  0.00     0.002 A 
ATOM      3  C4  UNL d   1      -1.034   2.593   1.049  0.00  0.00     0.002 A 
ATOM      4  C5  UNL d   1      -0.980   1.329   0.464  0.00  0.00    -0.004 A 
ATOM      5  C6  UNL d   1       0.220   0.620   0.449  0.00  0.00     0.002 A 
ATOM      6  C7  UNL d   1       1.366   1.173   1.023  0.00  0.00     0.002 A 
ENDROOT
BRANCH   1   7
ATOM      7  C1  UNL d   1       2.545   3.016   2.280  0.00  0.00     0.055 C 
ATOM      8  C   UNL d   1       2.402   3.021   3.795  0.00  0.00     0.019 C 
ENDBRANCH   1   7
TORSDOF 1
ENDMDL
