MODEL 1
REMARK minimizedAffinity 1.62031877
REMARK minimizedRMSD -1
REMARK  1 active torsions:
REMARK  status: ('A' for Active; 'I' for Inactive)
REMARK    1  A    between atoms: C1_2  and  C2_3 
ROOT
ATOM      1  C2  UNL d   1       0.441   0.448   0.562  0.00  0.00    -0.077 A 
ATOM      2  C3  UNL d   1      -0.438  -0.633   0.711  0.00  0.00     0.002 A 
ATOM      3  C4  UNL d   1      -1.811  -0.414   0.844  0.00  0.00     0.002 A 
ATOM      4  C5  UNL d   1      -2.316   0.884   0.825  0.00  0.00    -0.004 A 
ATOM      5  C6  UNL d   1      -1.449   1.966   0.679  0.00  0.00     0.002 A 
ATOM      6  C7  UNL d   1      -0.077   1.749   0.548  0.00  0.00     0.002 A 
ENDROOT
BRANCH   1   7
ATOM      7  C1  UNL d   1       1.916   0.211   0.370  0.00  0.00     0.055 C 
ATOM      8  C   UNL d   1       2.267   0.073  -1.105  0.00  0.00     0.019 C 
ENDBRANCH   1   7
TORSDOF 1
ENDMDL
