MODEL 1
REMARK minimizedAffinity 4.29334259
REMARK minimizedRMSD -1
REMARK  1 active torsions:
REMARK  status: ('A' for Active; 'I' for Inactive)
REMARK    1  A    between atoms: C1_2  and  C2_3 
ROOT
ATOM      1  C2  UNL d   1       3.018   0.608  -0.500  0.00  0.00    -0.077 A 
ATOM      2  C3  UNL d   1       4.000   1.273   0.248  0.00  0.00     0.002 A 
ATOM      3  C4  UNL d   1       3.635   2.134   1.285  0.00  0.00     0.002 A 
ATOM      4  C5  UNL d   1       2.289   2.334   1.586  0.00  0.00    -0.004 A 
ATOM      5  C6  UNL d   1       1.306   1.678   0.846  0.00  0.00     0.002 A 
ATOM      6  C7  UNL d   1       1.668   0.819  -0.192  0.00  0.00     0.002 A 
ENDROOT
BRANCH   1   7
ATOM      7  C1  UNL d   1       3.411  -0.359  -1.587  0.00  0.00     0.055 C 
ATOM      8  C   UNL d   1       2.384  -0.377  -2.709  0.00  0.00     0.019 C 
ENDBRANCH   1   7
TORSDOF 1
ENDMDL
