MODEL 1
REMARK minimizedAffinity 2.75300002
REMARK minimizedRMSD -1
REMARK  1 active torsions:
REMARK  status: ('A' for Active; 'I' for Inactive)
REMARK    1  A    between atoms: C1_2  and  C2_3 
ROOT
ATOM      1  C2  UNL d   1       2.022   0.775   0.399  0.00  0.00    -0.077 A 
ATOM      2  C3  UNL d   1       3.113   1.346   1.070  0.00  0.00     0.002 A 
ATOM      3  C4  UNL d   1       2.919   2.401   1.964  0.00  0.00     0.002 A 
ATOM      4  C5  UNL d   1       1.636   2.891   2.198  0.00  0.00    -0.004 A 
ATOM      5  C6  UNL d   1       0.545   2.332   1.534  0.00  0.00     0.002 A 
ATOM      6  C7  UNL d   1       0.737   1.278   0.639  0.00  0.00     0.002 A 
ENDROOT
BRANCH   1   7
ATOM      7  C1  UNL d   1       2.223  -0.395  -0.528  0.00  0.00     0.055 C 
ATOM      8  C   UNL d   1       2.672   0.063  -1.908  0.00  0.00     0.019 C 
ENDBRANCH   1   7
TORSDOF 1
ENDMDL
