MODEL 1
REMARK minimizedAffinity -3.27093554
REMARK minimizedRMSD -1
REMARK  1 active torsions:
REMARK  status: ('A' for Active; 'I' for Inactive)
REMARK    1  A    between atoms: C1_2  and  C2_3 
ROOT
ATOM      1  C2  UNL d   1       0.594   2.990   2.669  0.00  0.00    -0.077 A 
ATOM      2  C3  UNL d   1      -0.365   3.073   3.688  0.00  0.00     0.002 A 
ATOM      3  C4  UNL d   1      -1.723   2.937   3.393  0.00  0.00     0.002 A 
ATOM      4  C5  UNL d   1      -2.133   2.713   2.081  0.00  0.00    -0.004 A 
ATOM      5  C6  UNL d   1      -1.188   2.630   1.060  0.00  0.00     0.002 A 
ATOM      6  C7  UNL d   1       0.170   2.767   1.353  0.00  0.00     0.002 A 
ENDROOT
BRANCH   1   7
ATOM      7  C1  UNL d   1       2.062   3.087   2.992  0.00  0.00     0.055 C 
ATOM      8  C   UNL d   1       2.884   2.146   2.123  0.00  0.00     0.019 C 
ENDBRANCH   1   7
TORSDOF 1
ENDMDL
