MODEL 1
REMARK minimizedAffinity 5.15378952
REMARK minimizedRMSD -1
REMARK  1 active torsions:
REMARK  status: ('A' for Active; 'I' for Inactive)
REMARK    1  A    between atoms: C1_2  and  C2_3 
ROOT
ATOM      1  C2  UNL d   1       2.638   2.486   0.749  0.00  0.00    -0.077 A 
ATOM      2  C3  UNL d   1       3.785   2.097   0.043  0.00  0.00     0.002 A 
ATOM      3  C4  UNL d   1       3.697   1.154  -0.984  0.00  0.00     0.002 A 
ATOM      4  C5  UNL d   1       2.464   0.596  -1.315  0.00  0.00    -0.004 A 
ATOM      5  C6  UNL d   1       1.318   0.975  -0.617  0.00  0.00     0.002 A 
ATOM      6  C7  UNL d   1       1.404   1.916   0.410  0.00  0.00     0.002 A 
ENDROOT
BRANCH   1   7
ATOM      7  C1  UNL d   1       2.723   3.539   1.823  0.00  0.00     0.055 C 
ATOM      8  C   UNL d   1       3.434   4.786   1.320  0.00  0.00     0.019 C 
ENDBRANCH   1   7
TORSDOF 1
ENDMDL
