MODEL 1
REMARK minimizedAffinity 6.12093687
REMARK minimizedRMSD -1
REMARK  1 active torsions:
REMARK  status: ('A' for Active; 'I' for Inactive)
REMARK    1  A    between atoms: C1_2  and  C2_3 
ROOT
ATOM      1  C2  UNL d   1      -1.228   1.857   1.033  0.00  0.00    -0.077 A 
ATOM      2  C3  UNL d   1      -2.523   1.328   1.124  0.00  0.00     0.002 A 
ATOM      3  C4  UNL d   1      -2.763  -0.010   0.807  0.00  0.00     0.002 A 
ATOM      4  C5  UNL d   1      -1.713  -0.831   0.401  0.00  0.00    -0.004 A 
ATOM      5  C6  UNL d   1      -0.421  -0.314   0.305  0.00  0.00     0.002 A 
ATOM      6  C7  UNL d   1      -0.180   1.024   0.621  0.00  0.00     0.002 A 
ENDROOT
BRANCH   1   7
ATOM      7  C1  UNL d   1      -0.958   3.287   1.422  0.00  0.00     0.055 C 
ATOM      8  C   UNL d   1       0.354   3.416   2.183  0.00  0.00     0.019 C 
ENDBRANCH   1   7
TORSDOF 1
ENDMDL
