MODEL 1
REMARK minimizedAffinity 0.113841794
REMARK minimizedRMSD -1
REMARK  1 active torsions:
REMARK  status: ('A' for Active; 'I' for Inactive)
REMARK    1  A    between atoms: C1_2  and  C2_3 
ROOT
ATOM      1  C2  UNL d   1      -0.312   0.843   0.804  0.00  0.00    -0.077 A 
ATOM      2  C3  UNL d   1      -1.040  -0.331   1.043  0.00  0.00     0.002 A 
ATOM      3  C4  UNL d   1      -2.435  -0.319   0.994  0.00  0.00     0.002 A 
ATOM      4  C5  UNL d   1      -3.114   0.863   0.704  0.00  0.00    -0.004 A 
ATOM      5  C6  UNL d   1      -2.399   2.036   0.467  0.00  0.00     0.002 A 
ATOM      6  C7  UNL d   1      -1.004   2.026   0.516  0.00  0.00     0.002 A 
ENDROOT
BRANCH   1   7
ATOM      7  C1  UNL d   1       1.194   0.821   0.807  0.00  0.00     0.055 C 
ATOM      8  C   UNL d   1       1.764   2.029   1.536  0.00  0.00     0.019 C 
ENDBRANCH   1   7
TORSDOF 1
ENDMDL
