MODEL 1
REMARK minimizedAffinity 1.75334692
REMARK minimizedRMSD -1
REMARK  1 active torsions:
REMARK  status: ('A' for Active; 'I' for Inactive)
REMARK    1  A    between atoms: C1_2  and  C2_3 
ROOT
ATOM      1  C2  UNL d   1       0.257   0.579   0.825  0.00  0.00    -0.077 A 
ATOM      2  C3  UNL d   1      -0.129   1.910   1.038  0.00  0.00     0.002 A 
ATOM      3  C4  UNL d   1      -1.462   2.224   1.312  0.00  0.00     0.002 A 
ATOM      4  C5  UNL d   1      -2.418   1.213   1.379  0.00  0.00    -0.004 A 
ATOM      5  C6  UNL d   1      -2.044  -0.114   1.167  0.00  0.00     0.002 A 
ATOM      6  C7  UNL d   1      -0.713  -0.429   0.891  0.00  0.00     0.002 A 
ENDROOT
BRANCH   1   7
ATOM      7  C1  UNL d   1       1.702   0.234   0.578  0.00  0.00     0.055 C 
ATOM      8  C   UNL d   1       1.996   0.111  -0.910  0.00  0.00     0.019 C 
ENDBRANCH   1   7
TORSDOF 1
ENDMDL
