MODEL 1
REMARK minimizedAffinity 10.3043633
REMARK minimizedRMSD -1
REMARK  0 active torsions:
REMARK  status: ('A' for Active; 'I' for Inactive)
ROOT
ATOM      1  C   UNL d   1       2.745   0.804   4.063  0.00  0.00     0.124 A 
ATOM      2  C1  UNL d   1       2.505   1.687   3.019  0.00  0.00     0.062 A 
ATOM      3  C2  UNL d   1       1.767   1.278   1.912  0.00  0.00     0.162 A 
ATOM      4  C3  UNL d   1       1.263  -0.021   1.843  0.00  0.00    -0.034 A 
ATOM      5  C4  UNL d   1       1.510  -0.903   2.896  0.00  0.00     0.162 A 
ATOM      6  C5  UNL d   1       2.247  -0.489   4.001  0.00  0.00     0.062 A 
ATOM      7  F   UNL d   1       2.478  -1.344   5.008  0.00  0.00    -0.097 F 
ATOM      8  F1  UNL d   1       1.040  -2.159   2.863  0.00  0.00    -0.096 F 
ATOM      9  I   UNL d   1       0.160  -0.637   0.189  0.00  0.00    -0.060 I 
ATOM     10  F2  UNL d   1       1.551   2.152   0.917  0.00  0.00    -0.096 F 
ATOM     11  F3  UNL d   1       2.986   2.937   3.076  0.00  0.00    -0.097 F 
ATOM     12  F4  UNL d   1       3.456   1.201   5.126  0.00  0.00    -0.092 F 
ENDROOT
TORSDOF 0
ENDMDL
