MODEL 1
REMARK minimizedAffinity 2.26791358
REMARK minimizedRMSD -1
REMARK  0 active torsions:
REMARK  status: ('A' for Active; 'I' for Inactive)
ROOT
ATOM      1  C   UNL d   1       2.516   0.009   0.817  0.00  0.00     0.124 A 
ATOM      2  C1  UNL d   1       1.891  -0.960   0.044  0.00  0.00     0.062 A 
ATOM      3  C2  UNL d   1       0.651  -0.704  -0.533  0.00  0.00     0.162 A 
ATOM      4  C3  UNL d   1       0.026   0.529  -0.339  0.00  0.00    -0.034 A 
ATOM      5  C4  UNL d   1       0.660   1.498   0.440  0.00  0.00     0.162 A 
ATOM      6  C5  UNL d   1       1.900   1.237   1.014  0.00  0.00     0.062 A 
ATOM      7  F   UNL d   1       2.502   2.174   1.760  0.00  0.00    -0.097 F 
ATOM      8  F1  UNL d   1       0.088   2.693   0.646  0.00  0.00    -0.096 F 
ATOM      9  I   UNL d   1      -1.829   0.916  -1.199  0.00  0.00    -0.060 I 
ATOM     10  F2  UNL d   1       0.070  -1.659  -1.275  0.00  0.00    -0.096 F 
ATOM     11  F3  UNL d   1       2.484  -2.148  -0.148  0.00  0.00    -0.097 F 
ATOM     12  F4  UNL d   1       3.709  -0.241   1.371  0.00  0.00    -0.092 F 
ENDROOT
TORSDOF 0
ENDMDL
