MODEL 1
REMARK minimizedAffinity -1.22737277
REMARK minimizedRMSD -1
REMARK  0 active torsions:
REMARK  status: ('A' for Active; 'I' for Inactive)
ROOT
ATOM      1  C   UNL d   1      -1.859  -0.495   0.455  0.00  0.00     0.124 A 
ATOM      2  C1  UNL d   1      -1.151   0.547  -0.129  0.00  0.00     0.062 A 
ATOM      3  C2  UNL d   1       0.234   0.607  -0.006  0.00  0.00     0.162 A 
ATOM      4  C3  UNL d   1       0.921  -0.378   0.703  0.00  0.00    -0.034 A 
ATOM      5  C4  UNL d   1       0.203  -1.422   1.288  0.00  0.00     0.162 A 
ATOM      6  C5  UNL d   1      -1.182  -1.478   1.162  0.00  0.00     0.062 A 
ATOM      7  F   UNL d   1      -1.864  -2.485   1.727  0.00  0.00    -0.097 F 
ATOM      8  F1  UNL d   1       0.832  -2.386   1.977  0.00  0.00    -0.096 F 
ATOM      9  I   UNL d   1       2.992  -0.291   0.889  0.00  0.00    -0.060 I 
ATOM     10  F2  UNL d   1       0.892   1.625  -0.581  0.00  0.00    -0.096 F 
ATOM     11  F3  UNL d   1      -1.803   1.499  -0.812  0.00  0.00    -0.097 F 
ATOM     12  F4  UNL d   1      -3.192  -0.550   0.336  0.00  0.00    -0.092 F 
ENDROOT
TORSDOF 0
ENDMDL
