MODEL 1
REMARK minimizedAffinity -2.48510575
REMARK minimizedRMSD -1
REMARK  0 active torsions:
REMARK  status: ('A' for Active; 'I' for Inactive)
ROOT
ATOM      1  C   UNL d   1       2.203  -0.163   0.533  0.00  0.00     0.124 A 
ATOM      2  C1  UNL d   1       2.015   1.138   0.088  0.00  0.00     0.062 A 
ATOM      3  C2  UNL d   1       0.801   1.516  -0.480  0.00  0.00     0.162 A 
ATOM      4  C3  UNL d   1      -0.235   0.590  -0.605  0.00  0.00    -0.034 A 
ATOM      5  C4  UNL d   1      -0.038  -0.717  -0.156  0.00  0.00     0.162 A 
ATOM      6  C5  UNL d   1       1.176  -1.089   0.411  0.00  0.00     0.062 A 
ATOM      7  F   UNL d   1       1.356  -2.346   0.840  0.00  0.00    -0.097 F 
ATOM      8  F1  UNL d   1      -1.013  -1.632  -0.261  0.00  0.00    -0.096 F 
ATOM      9  I   UNL d   1      -2.051   1.150  -1.454  0.00  0.00    -0.060 I 
ATOM     10  F2  UNL d   1       0.648   2.780  -0.901  0.00  0.00    -0.096 F 
ATOM     11  F3  UNL d   1       3.005   2.035   0.204  0.00  0.00    -0.097 F 
ATOM     12  F4  UNL d   1       3.372  -0.523   1.078  0.00  0.00    -0.092 F 
ENDROOT
TORSDOF 0
ENDMDL
