MODEL 1
REMARK minimizedAffinity 3.23572779
REMARK minimizedRMSD -1
REMARK  0 active torsions:
REMARK  status: ('A' for Active; 'I' for Inactive)
ROOT
ATOM      1  C   UNL d   1       2.154  -0.438   0.897  0.00  0.00     0.124 A 
ATOM      2  C1  UNL d   1       1.392  -1.490   0.406  0.00  0.00     0.062 A 
ATOM      3  C2  UNL d   1       0.193  -1.237  -0.253  0.00  0.00     0.162 A 
ATOM      4  C3  UNL d   1      -0.253   0.073  -0.427  0.00  0.00    -0.034 A 
ATOM      5  C4  UNL d   1       0.518   1.125   0.070  0.00  0.00     0.162 A 
ATOM      6  C5  UNL d   1       1.716   0.868   0.728  0.00  0.00     0.062 A 
ATOM      7  F   UNL d   1       2.450   1.886   1.202  0.00  0.00    -0.097 F 
ATOM      8  F1  UNL d   1       0.119   2.397  -0.080  0.00  0.00    -0.096 F 
ATOM      9  I   UNL d   1      -2.045   0.454  -1.413  0.00  0.00    -0.060 I 
ATOM     10  F2  UNL d   1      -0.522  -2.273  -0.717  0.00  0.00    -0.096 F 
ATOM     11  F3  UNL d   1       1.813  -2.753   0.569  0.00  0.00    -0.097 F 
ATOM     12  F4  UNL d   1       3.307  -0.683   1.532  0.00  0.00    -0.092 F 
ENDROOT
TORSDOF 0
ENDMDL
