MODEL 1
REMARK minimizedAffinity 4.6327424
REMARK minimizedRMSD -1
REMARK  0 active torsions:
REMARK  status: ('A' for Active; 'I' for Inactive)
ROOT
ATOM      1  C   UNL d   1      -0.345   0.161   0.563  0.00  0.00     0.124 A 
ATOM      2  C1  UNL d   1      -1.610  -0.398   0.438  0.00  0.00     0.062 A 
ATOM      3  C2  UNL d   1      -2.264  -0.380  -0.791  0.00  0.00     0.162 A 
ATOM      4  C3  UNL d   1      -1.654   0.197  -1.904  0.00  0.00    -0.034 A 
ATOM      5  C4  UNL d   1      -0.383   0.758  -1.770  0.00  0.00     0.162 A 
ATOM      6  C5  UNL d   1       0.267   0.739  -0.540  0.00  0.00     0.062 A 
ATOM      7  F   UNL d   1       1.488   1.279  -0.421  0.00  0.00    -0.097 F 
ATOM      8  F1  UNL d   1       0.232   1.322  -2.821  0.00  0.00    -0.096 F 
ATOM      9  I   UNL d   1      -2.629   0.225  -3.743  0.00  0.00    -0.060 I 
ATOM     10  F2  UNL d   1      -3.485  -0.928  -0.883  0.00  0.00    -0.096 F 
ATOM     11  F3  UNL d   1      -2.204  -0.955   1.503  0.00  0.00    -0.097 F 
ATOM     12  F4  UNL d   1       0.281   0.144   1.747  0.00  0.00    -0.092 F 
ENDROOT
TORSDOF 0
ENDMDL
