MODEL 1
REMARK minimizedAffinity 1.86746848
REMARK minimizedRMSD -1
REMARK  0 active torsions:
REMARK  status: ('A' for Active; 'I' for Inactive)
ROOT
ATOM      1  C   UNL d   1       1.482  -0.546   1.203  0.00  0.00     0.124 A 
ATOM      2  C1  UNL d   1       0.249  -1.137   1.447  0.00  0.00     0.062 A 
ATOM      3  C2  UNL d   1      -0.813  -0.927   0.572  0.00  0.00     0.162 A 
ATOM      4  C3  UNL d   1      -0.647  -0.124  -0.556  0.00  0.00    -0.034 A 
ATOM      5  C4  UNL d   1       0.595   0.467  -0.795  0.00  0.00     0.162 A 
ATOM      6  C5  UNL d   1       1.653   0.255   0.082  0.00  0.00     0.062 A 
ATOM      7  F   UNL d   1       2.843   0.826  -0.155  0.00  0.00    -0.097 F 
ATOM      8  F1  UNL d   1       0.788   1.245  -1.870  0.00  0.00    -0.096 F 
ATOM      9  I   UNL d   1      -2.233   0.191  -1.867  0.00  0.00    -0.060 I 
ATOM     10  F2  UNL d   1      -1.992  -1.510   0.833  0.00  0.00    -0.096 F 
ATOM     11  F3  UNL d   1       0.081  -1.910   2.529  0.00  0.00    -0.097 F 
ATOM     12  F4  UNL d   1       2.502  -0.749   2.046  0.00  0.00    -0.092 F 
ENDROOT
TORSDOF 0
ENDMDL
