MODEL 1
REMARK minimizedAffinity 27.4828053
REMARK minimizedRMSD -1
REMARK  0 active torsions:
REMARK  status: ('A' for Active; 'I' for Inactive)
ROOT
ATOM      1  C   UNL d   1      -2.028  -0.666  -3.236  0.00  0.00     0.124 A 
ATOM      2  C1  UNL d   1      -1.993  -0.221  -1.922  0.00  0.00     0.062 A 
ATOM      3  C2  UNL d   1      -2.539   1.015  -1.587  0.00  0.00     0.162 A 
ATOM      4  C3  UNL d   1      -3.124   1.815  -2.569  0.00  0.00    -0.034 A 
ATOM      5  C4  UNL d   1      -3.154   1.361  -3.889  0.00  0.00     0.162 A 
ATOM      6  C5  UNL d   1      -2.608   0.124  -4.218  0.00  0.00     0.062 A 
ATOM      7  F   UNL d   1      -2.642  -0.304  -5.488  0.00  0.00    -0.097 F 
ATOM      8  F1  UNL d   1      -3.710   2.104  -4.857  0.00  0.00    -0.096 F 
ATOM      9  I   UNL d   1      -3.941   3.664  -2.073  0.00  0.00    -0.060 I 
ATOM     10  F2  UNL d   1      -2.492   1.420  -0.310  0.00  0.00    -0.096 F 
ATOM     11  F3  UNL d   1      -1.433  -0.983  -0.972  0.00  0.00    -0.097 F 
ATOM     12  F4  UNL d   1      -1.501  -1.856  -3.556  0.00  0.00    -0.092 F 
ENDROOT
TORSDOF 0
ENDMDL
