MODEL 1
REMARK minimizedAffinity 0.250834197
REMARK minimizedRMSD -1
REMARK  0 active torsions:
REMARK  status: ('A' for Active; 'I' for Inactive)
ROOT
ATOM      1  C   UNL d   1       2.541  -0.508   0.828  0.00  0.00     0.124 A 
ATOM      2  C1  UNL d   1       2.366   0.800   0.396  0.00  0.00     0.062 A 
ATOM      3  C2  UNL d   1       1.192   1.171  -0.252  0.00  0.00     0.162 A 
ATOM      4  C3  UNL d   1       0.182   0.234  -0.471  0.00  0.00    -0.034 A 
ATOM      5  C4  UNL d   1       0.366  -1.079  -0.034  0.00  0.00     0.162 A 
ATOM      6  C5  UNL d   1       1.541  -1.445   0.613  0.00  0.00     0.062 A 
ATOM      7  F   UNL d   1       1.709  -2.709   1.030  0.00  0.00    -0.097 F 
ATOM      8  F1  UNL d   1      -0.585  -2.005  -0.228  0.00  0.00    -0.096 F 
ATOM      9  I   UNL d   1      -1.575   0.786  -1.440  0.00  0.00    -0.060 I 
ATOM     10  F2  UNL d   1       1.050   2.441  -0.659  0.00  0.00    -0.096 F 
ATOM     11  F3  UNL d   1       3.332   1.707   0.602  0.00  0.00    -0.097 F 
ATOM     12  F4  UNL d   1       3.673  -0.863   1.451  0.00  0.00    -0.092 F 
ENDROOT
TORSDOF 0
ENDMDL
