MODEL 1
REMARK minimizedAffinity 0.0119406441
REMARK minimizedRMSD -1
REMARK  0 active torsions:
REMARK  status: ('A' for Active; 'I' for Inactive)
ROOT
ATOM      1  C   UNL d   1       1.128   0.444   0.328  0.00  0.00     0.124 A 
ATOM      2  C1  UNL d   1       1.364  -0.780  -0.284  0.00  0.00     0.062 A 
ATOM      3  C2  UNL d   1       0.397  -1.347  -1.109  0.00  0.00     0.162 A 
ATOM      4  C3  UNL d   1      -0.814  -0.691  -1.328  0.00  0.00    -0.034 A 
ATOM      5  C4  UNL d   1      -1.044   0.538  -0.709  0.00  0.00     0.162 A 
ATOM      6  C5  UNL d   1      -0.075   1.101   0.115  0.00  0.00     0.062 A 
ATOM      7  F   UNL d   1      -0.304   2.283   0.706  0.00  0.00    -0.097 F 
ATOM      8  F1  UNL d   1      -2.198   1.196  -0.898  0.00  0.00    -0.096 F 
ATOM      9  I   UNL d   1      -2.262  -1.536  -2.561  0.00  0.00    -0.060 I 
ATOM     10  F2  UNL d   1       0.652  -2.530  -1.687  0.00  0.00    -0.096 F 
ATOM     11  F3  UNL d   1       2.525  -1.418  -0.079  0.00  0.00    -0.097 F 
ATOM     12  F4  UNL d   1       2.060   0.987   1.122  0.00  0.00    -0.092 F 
ENDROOT
TORSDOF 0
ENDMDL
