MODEL 1
REMARK minimizedAffinity -2.12575221
REMARK minimizedRMSD -1
REMARK  0 active torsions:
REMARK  status: ('A' for Active; 'I' for Inactive)
ROOT
ATOM      1  C   UNL d   1      -1.717  -1.667   0.803  0.00  0.00     0.124 A 
ATOM      2  C1  UNL d   1      -0.439  -2.159   0.577  0.00  0.00     0.062 A 
ATOM      3  C2  UNL d   1       0.581  -1.301   0.176  0.00  0.00     0.162 A 
ATOM      4  C3  UNL d   1       0.327   0.059  -0.001  0.00  0.00    -0.034 A 
ATOM      5  C4  UNL d   1      -0.961   0.547   0.227  0.00  0.00     0.162 A 
ATOM      6  C5  UNL d   1      -1.977  -0.315   0.628  0.00  0.00     0.062 A 
ATOM      7  F   UNL d   1      -3.211   0.162   0.846  0.00  0.00    -0.097 F 
ATOM      8  F1  UNL d   1      -1.239   1.849   0.067  0.00  0.00    -0.096 F 
ATOM      9  I   UNL d   1       1.849   1.345  -0.601  0.00  0.00    -0.060 I 
ATOM     10  F2  UNL d   1       1.806  -1.804  -0.035  0.00  0.00    -0.096 F 
ATOM     11  F3  UNL d   1      -0.186  -3.465   0.745  0.00  0.00    -0.097 F 
ATOM     12  F4  UNL d   1      -2.697  -2.495   1.188  0.00  0.00    -0.092 F 
ENDROOT
TORSDOF 0
ENDMDL
