MODEL 1
REMARK minimizedAffinity -0.822912931
REMARK minimizedRMSD -1
REMARK  0 active torsions:
REMARK  status: ('A' for Active; 'I' for Inactive)
ROOT
ATOM      1  C   UNL d   1      -0.985  -1.965   1.291  0.00  0.00     0.124 A 
ATOM      2  C1  UNL d   1       0.393  -1.973   1.124  0.00  0.00     0.062 A 
ATOM      3  C2  UNL d   1       1.023  -0.932   0.448  0.00  0.00     0.162 A 
ATOM      4  C3  UNL d   1       0.275   0.127  -0.066  0.00  0.00    -0.034 A 
ATOM      5  C4  UNL d   1      -1.111   0.128   0.105  0.00  0.00     0.162 A 
ATOM      6  C5  UNL d   1      -1.735  -0.914   0.781  0.00  0.00     0.062 A 
ATOM      7  F   UNL d   1      -3.067  -0.905   0.940  0.00  0.00    -0.097 F 
ATOM      8  F1  UNL d   1      -1.860   1.131  -0.377  0.00  0.00    -0.096 F 
ATOM      9  I   UNL d   1       1.213   1.686  -1.077  0.00  0.00    -0.060 I 
ATOM     10  F2  UNL d   1       2.355  -0.966   0.303  0.00  0.00    -0.096 F 
ATOM     11  F3  UNL d   1       1.120  -2.987   1.615  0.00  0.00    -0.097 F 
ATOM     12  F4  UNL d   1      -1.589  -2.968   1.941  0.00  0.00    -0.092 F 
ENDROOT
TORSDOF 0
ENDMDL
