MODEL 1
REMARK minimizedAffinity -4.39269066
REMARK minimizedRMSD -1
REMARK  0 active torsions:
REMARK  status: ('A' for Active; 'I' for Inactive)
ROOT
ATOM      1  C   UNL d   1      -1.688  -2.291   1.654  0.00  0.00     0.124 A 
ATOM      2  C1  UNL d   1      -0.362  -2.391   1.255  0.00  0.00     0.062 A 
ATOM      3  C2  UNL d   1       0.299  -1.280   0.742  0.00  0.00     0.162 A 
ATOM      4  C3  UNL d   1      -0.363  -0.058   0.624  0.00  0.00    -0.034 A 
ATOM      5  C4  UNL d   1      -1.697   0.034   1.026  0.00  0.00     0.162 A 
ATOM      6  C5  UNL d   1      -2.354  -1.079   1.539  0.00  0.00     0.062 A 
ATOM      7  F   UNL d   1      -3.635  -0.981   1.924  0.00  0.00    -0.097 F 
ATOM      8  F1  UNL d   1      -2.364   1.194   0.927  0.00  0.00    -0.096 F 
ATOM      9  I   UNL d   1       0.623   1.606  -0.143  0.00  0.00    -0.060 I 
ATOM     10  F2  UNL d   1       1.581  -1.405   0.364  0.00  0.00    -0.096 F 
ATOM     11  F3  UNL d   1       0.283  -3.561   1.364  0.00  0.00    -0.097 F 
ATOM     12  F4  UNL d   1      -2.323  -3.363   2.147  0.00  0.00    -0.092 F 
ENDROOT
TORSDOF 0
ENDMDL
