MODEL 1
REMARK minimizedAffinity -1.63143682
REMARK minimizedRMSD -1
REMARK  0 active torsions:
REMARK  status: ('A' for Active; 'I' for Inactive)
ROOT
ATOM      1  C   UNL d   1       0.167  -1.716   0.689  0.00  0.00     0.124 A 
ATOM      2  C1  UNL d   1       1.227  -0.827   0.575  0.00  0.00     0.062 A 
ATOM      3  C2  UNL d   1       1.116   0.293  -0.245  0.00  0.00     0.162 A 
ATOM      4  C3  UNL d   1      -0.061   0.530  -0.956  0.00  0.00    -0.034 A 
ATOM      5  C4  UNL d   1      -1.121  -0.369  -0.837  0.00  0.00     0.162 A 
ATOM      6  C5  UNL d   1      -1.005  -1.487  -0.017  0.00  0.00     0.062 A 
ATOM      7  F   UNL d   1      -2.030  -2.345   0.093  0.00  0.00    -0.097 F 
ATOM      8  F1  UNL d   1      -2.267  -0.172  -1.506  0.00  0.00    -0.096 F 
ATOM      9  I   UNL d   1      -0.231   2.203  -2.182  0.00  0.00    -0.060 I 
ATOM     10  F2  UNL d   1       2.155   1.135  -0.336  0.00  0.00    -0.096 F 
ATOM     11  F3  UNL d   1       2.361  -1.047   1.255  0.00  0.00    -0.097 F 
ATOM     12  F4  UNL d   1       0.278  -2.793   1.477  0.00  0.00    -0.092 F 
ENDROOT
TORSDOF 0
ENDMDL
