MODEL 1
REMARK minimizedAffinity 0.584412336
REMARK minimizedRMSD -1
REMARK  0 active torsions:
REMARK  status: ('A' for Active; 'I' for Inactive)
ROOT
ATOM      1  C   UNL d   1      -1.249  -1.243   1.280  0.00  0.00     0.124 A 
ATOM      2  C1  UNL d   1      -0.174  -1.770   0.578  0.00  0.00     0.062 A 
ATOM      3  C2  UNL d   1       0.582  -0.955  -0.261  0.00  0.00     0.162 A 
ATOM      4  C3  UNL d   1       0.265   0.396  -0.401  0.00  0.00    -0.034 A 
ATOM      5  C4  UNL d   1      -0.819   0.918   0.307  0.00  0.00     0.162 A 
ATOM      6  C5  UNL d   1      -1.570   0.100   1.144  0.00  0.00     0.062 A 
ATOM      7  F   UNL d   1      -2.609   0.611   1.821  0.00  0.00    -0.097 F 
ATOM      8  F1  UNL d   1      -1.151   2.213   0.195  0.00  0.00    -0.096 F 
ATOM      9  I   UNL d   1       1.391   1.618  -1.654  0.00  0.00    -0.060 I 
ATOM     10  F2  UNL d   1       1.615  -1.491  -0.927  0.00  0.00    -0.096 F 
ATOM     11  F3  UNL d   1       0.139  -3.067   0.707  0.00  0.00    -0.097 F 
ATOM     12  F4  UNL d   1      -1.974  -2.029   2.085  0.00  0.00    -0.092 F 
ENDROOT
TORSDOF 0
ENDMDL
