MODEL 1
REMARK minimizedAffinity -2.18507004
REMARK minimizedRMSD -1
REMARK  0 active torsions:
REMARK  status: ('A' for Active; 'I' for Inactive)
ROOT
ATOM      1  C   UNL d   1      -0.337  -1.213   1.074  0.00  0.00     0.124 A 
ATOM      2  C1  UNL d   1      -1.467  -0.957   0.309  0.00  0.00     0.062 A 
ATOM      3  C2  UNL d   1      -1.471   0.095  -0.602  0.00  0.00     0.162 A 
ATOM      4  C3  UNL d   1      -0.341   0.898  -0.755  0.00  0.00    -0.034 A 
ATOM      5  C4  UNL d   1       0.791   0.635   0.018  0.00  0.00     0.162 A 
ATOM      6  C5  UNL d   1       0.790  -0.418   0.927  0.00  0.00     0.062 A 
ATOM      7  F   UNL d   1       1.883  -0.664   1.665  0.00  0.00    -0.097 F 
ATOM      8  F1  UNL d   1       1.895   1.387  -0.104  0.00  0.00    -0.096 F 
ATOM      9  I   UNL d   1      -0.344   2.472  -2.117  0.00  0.00    -0.060 I 
ATOM     10  F2  UNL d   1      -2.577   0.320  -1.328  0.00  0.00    -0.096 F 
ATOM     11  F3  UNL d   1      -2.558  -1.723   0.450  0.00  0.00    -0.097 F 
ATOM     12  F4  UNL d   1      -0.336  -2.225   1.951  0.00  0.00    -0.092 F 
ENDROOT
TORSDOF 0
ENDMDL
