MODEL 1
REMARK minimizedAffinity -3.8568418
REMARK minimizedRMSD -1
REMARK  0 active torsions:
REMARK  status: ('A' for Active; 'I' for Inactive)
ROOT
ATOM      1  C   UNL d   1      -2.015  -1.203   0.836  0.00  0.00     0.124 A 
ATOM      2  C1  UNL d   1      -2.177   0.173   0.754  0.00  0.00     0.062 A 
ATOM      3  C2  UNL d   1      -1.110   0.983   0.376  0.00  0.00     0.162 A 
ATOM      4  C3  UNL d   1       0.129   0.418   0.075  0.00  0.00    -0.034 A 
ATOM      5  C4  UNL d   1       0.286  -0.966   0.160  0.00  0.00     0.162 A 
ATOM      6  C5  UNL d   1      -0.784  -1.771   0.538  0.00  0.00     0.062 A 
ATOM      7  F   UNL d   1      -0.625  -3.101   0.616  0.00  0.00    -0.097 F 
ATOM      8  F1  UNL d   1       1.464  -1.542  -0.123  0.00  0.00    -0.096 F 
ATOM      9  I   UNL d   1       1.727   1.626  -0.491  0.00  0.00    -0.060 I 
ATOM     10  F2  UNL d   1      -1.296   2.309   0.306  0.00  0.00    -0.096 F 
ATOM     11  F3  UNL d   1      -3.365   0.724   1.042  0.00  0.00    -0.097 F 
ATOM     12  F4  UNL d   1      -3.042  -1.980   1.201  0.00  0.00    -0.092 F 
ENDROOT
TORSDOF 0
ENDMDL
