MODEL 1
REMARK minimizedAffinity -0.39950037
REMARK minimizedRMSD -1
REMARK  0 active torsions:
REMARK  status: ('A' for Active; 'I' for Inactive)
ROOT
ATOM      1  C   UNL d   1      -1.242  -1.468   0.953  0.00  0.00     0.124 A 
ATOM      2  C1  UNL d   1      -1.612  -0.223   0.464  0.00  0.00     0.062 A 
ATOM      3  C2  UNL d   1      -0.655   0.629  -0.079  0.00  0.00     0.162 A 
ATOM      4  C3  UNL d   1       0.683   0.238  -0.135  0.00  0.00    -0.034 A 
ATOM      5  C4  UNL d   1       1.048  -1.015   0.360  0.00  0.00     0.162 A 
ATOM      6  C5  UNL d   1       0.087  -1.863   0.901  0.00  0.00     0.062 A 
ATOM      7  F   UNL d   1       0.447  -3.065   1.374  0.00  0.00    -0.097 F 
ATOM      8  F1  UNL d   1       2.326  -1.422   0.321  0.00  0.00    -0.096 F 
ATOM      9  I   UNL d   1       2.118   1.510  -0.945  0.00  0.00    -0.060 I 
ATOM     10  F2  UNL d   1      -1.041   1.826  -0.544  0.00  0.00    -0.096 F 
ATOM     11  F3  UNL d   1      -2.896   0.161   0.514  0.00  0.00    -0.097 F 
ATOM     12  F4  UNL d   1      -2.166  -2.286   1.475  0.00  0.00    -0.092 F 
ENDROOT
TORSDOF 0
ENDMDL
