MODEL 1
REMARK minimizedAffinity -3.21274924
REMARK minimizedRMSD -1
REMARK  0 active torsions:
REMARK  status: ('A' for Active; 'I' for Inactive)
ROOT
ATOM      1  C   UNL d   1      -2.261  -1.747   1.652  0.00  0.00     0.124 A 
ATOM      2  C1  UNL d   1      -1.167  -2.229   0.948  0.00  0.00     0.062 A 
ATOM      3  C2  UNL d   1      -0.296  -1.346   0.316  0.00  0.00     0.162 A 
ATOM      4  C3  UNL d   1      -0.515   0.030   0.386  0.00  0.00    -0.034 A 
ATOM      5  C4  UNL d   1      -1.619   0.508   1.095  0.00  0.00     0.162 A 
ATOM      6  C5  UNL d   1      -2.486  -0.379   1.725  0.00  0.00     0.062 A 
ATOM      7  F   UNL d   1      -3.543   0.089   2.405  0.00  0.00    -0.097 F 
ATOM      8  F1  UNL d   1      -1.860   1.824   1.183  0.00  0.00    -0.096 F 
ATOM      9  I   UNL d   1       0.784   1.354  -0.557  0.00  0.00    -0.060 I 
ATOM     10  F2  UNL d   1       0.754  -1.840  -0.357  0.00  0.00    -0.096 F 
ATOM     11  F3  UNL d   1      -0.947  -3.550   0.875  0.00  0.00    -0.097 F 
ATOM     12  F4  UNL d   1      -3.098  -2.599   2.258  0.00  0.00    -0.092 F 
ENDROOT
TORSDOF 0
ENDMDL
