MODEL 1
REMARK minimizedAffinity -0.889300287
REMARK minimizedRMSD -1
REMARK  0 active torsions:
REMARK  status: ('A' for Active; 'I' for Inactive)
ROOT
ATOM      1  C   UNL d   1      -1.209  -1.711   1.121  0.00  0.00     0.124 A 
ATOM      2  C1  UNL d   1       0.093  -2.107   0.847  0.00  0.00     0.062 A 
ATOM      3  C2  UNL d   1       0.967  -1.239   0.197  0.00  0.00     0.162 A 
ATOM      4  C3  UNL d   1       0.541   0.034  -0.182  0.00  0.00    -0.034 A 
ATOM      5  C4  UNL d   1      -0.770   0.425   0.096  0.00  0.00     0.162 A 
ATOM      6  C5  UNL d   1      -1.639  -0.446   0.745  0.00  0.00     0.062 A 
ATOM      7  F   UNL d   1      -2.896  -0.062   1.009  0.00  0.00    -0.097 F 
ATOM      8  F1  UNL d   1      -1.212   1.641  -0.255  0.00  0.00    -0.096 F 
ATOM      9  I   UNL d   1       1.844   1.334  -1.153  0.00  0.00    -0.060 I 
ATOM     10  F2  UNL d   1       2.219  -1.648  -0.054  0.00  0.00    -0.096 F 
ATOM     11  F3  UNL d   1       0.511  -3.328   1.208  0.00  0.00    -0.097 F 
ATOM     12  F4  UNL d   1      -2.047  -2.548   1.745  0.00  0.00    -0.092 F 
ENDROOT
TORSDOF 0
ENDMDL
