MODEL 1
REMARK minimizedAffinity 3.26014686
REMARK minimizedRMSD -1
REMARK  0 active torsions:
REMARK  status: ('A' for Active; 'I' for Inactive)
ROOT
ATOM      1  C   UNL d   1      -0.447  -2.016   1.520  0.00  0.00     0.124 A 
ATOM      2  C1  UNL d   1       0.815  -1.508   1.797  0.00  0.00     0.062 A 
ATOM      3  C2  UNL d   1       1.330  -0.459   1.041  0.00  0.00     0.162 A 
ATOM      4  C3  UNL d   1       0.582   0.091  -0.000  0.00  0.00    -0.034 A 
ATOM      5  C4  UNL d   1      -0.686  -0.425  -0.274  0.00  0.00     0.162 A 
ATOM      6  C5  UNL d   1      -1.196  -1.474   0.485  0.00  0.00     0.062 A 
ATOM      7  F   UNL d   1      -2.415  -1.963   0.216  0.00  0.00    -0.097 F 
ATOM      8  F1  UNL d   1      -1.432   0.080  -1.267  0.00  0.00    -0.096 F 
ATOM      9  I   UNL d   1       1.347   1.659  -1.134  0.00  0.00    -0.060 I 
ATOM     10  F2  UNL d   1       2.552   0.011   1.331  0.00  0.00    -0.096 F 
ATOM     11  F3  UNL d   1       1.542  -2.031   2.796  0.00  0.00    -0.097 F 
ATOM     12  F4  UNL d   1      -0.939  -3.026   2.249  0.00  0.00    -0.092 F 
ENDROOT
TORSDOF 0
ENDMDL
