MODEL 1
REMARK minimizedAffinity 4.15547609
REMARK minimizedRMSD -1
REMARK  0 active torsions:
REMARK  status: ('A' for Active; 'I' for Inactive)
ROOT
ATOM      1  C   UNL d   1      -1.332  -0.841   1.095  0.00  0.00     0.124 A 
ATOM      2  C1  UNL d   1      -0.279  -1.436   0.414  0.00  0.00     0.062 A 
ATOM      3  C2  UNL d   1       0.506  -0.685  -0.456  0.00  0.00     0.162 A 
ATOM      4  C3  UNL d   1       0.242   0.671  -0.649  0.00  0.00    -0.034 A 
ATOM      5  C4  UNL d   1      -0.820   1.262   0.038  0.00  0.00     0.162 A 
ATOM      6  C5  UNL d   1      -1.601   0.507   0.907  0.00  0.00     0.062 A 
ATOM      7  F   UNL d   1      -2.618   1.083   1.564  0.00  0.00    -0.097 F 
ATOM      8  F1  UNL d   1      -1.102   2.563  -0.124  0.00  0.00    -0.096 F 
ATOM      9  I   UNL d   1       1.413   1.798  -1.949  0.00  0.00    -0.060 I 
ATOM     10  F2  UNL d   1       1.517  -1.286  -1.101  0.00  0.00    -0.096 F 
ATOM     11  F3  UNL d   1      -0.017  -2.739   0.593  0.00  0.00    -0.097 F 
ATOM     12  F4  UNL d   1      -2.086  -1.567   1.930  0.00  0.00    -0.092 F 
ENDROOT
TORSDOF 0
ENDMDL
