MODEL 1
REMARK minimizedAffinity 0.333371788
REMARK minimizedRMSD -1
REMARK  0 active torsions:
REMARK  status: ('A' for Active; 'I' for Inactive)
ROOT
ATOM      1  C   UNL d   1       1.676   1.402   0.535  0.00  0.00     0.124 A 
ATOM      2  C1  UNL d   1       0.299   1.492   0.689  0.00  0.00     0.062 A 
ATOM      3  C2  UNL d   1      -0.448   0.355   0.984  0.00  0.00     0.162 A 
ATOM      4  C3  UNL d   1       0.180  -0.882   1.128  0.00  0.00    -0.034 A 
ATOM      5  C4  UNL d   1       1.564  -0.965   0.971  0.00  0.00     0.162 A 
ATOM      6  C5  UNL d   1       2.307   0.174   0.676  0.00  0.00     0.062 A 
ATOM      7  F   UNL d   1       3.637   0.084   0.528  0.00  0.00    -0.097 F 
ATOM      8  F1  UNL d   1       2.200  -2.139   1.103  0.00  0.00    -0.096 F 
ATOM      9  I   UNL d   1      -0.935  -2.584   1.569  0.00  0.00    -0.060 I 
ATOM     10  F2  UNL d   1      -1.777   0.472   1.127  0.00  0.00    -0.096 F 
ATOM     11  F3  UNL d   1      -0.313   2.677   0.552  0.00  0.00    -0.097 F 
ATOM     12  F4  UNL d   1       2.393   2.497   0.251  0.00  0.00    -0.092 F 
ENDROOT
TORSDOF 0
ENDMDL
