MODEL 1
REMARK minimizedAffinity -3.87714601
REMARK minimizedRMSD -1
REMARK  0 active torsions:
REMARK  status: ('A' for Active; 'I' for Inactive)
ROOT
ATOM      1  C   UNL d   1      -1.256  -2.152   1.776  0.00  0.00     0.124 A 
ATOM      2  C1  UNL d   1       0.092  -2.201   1.452  0.00  0.00     0.062 A 
ATOM      3  C2  UNL d   1       0.651  -1.222   0.634  0.00  0.00     0.162 A 
ATOM      4  C3  UNL d   1      -0.139  -0.186   0.136  0.00  0.00    -0.034 A 
ATOM      5  C4  UNL d   1      -1.495  -0.145   0.466  0.00  0.00     0.162 A 
ATOM      6  C5  UNL d   1      -2.048  -1.125   1.284  0.00  0.00     0.062 A 
ATOM      7  F   UNL d   1      -3.351  -1.076   1.596  0.00  0.00    -0.097 F 
ATOM      8  F1  UNL d   1      -2.283   0.837   0.004  0.00  0.00    -0.096 F 
ATOM      9  I   UNL d   1       0.693   1.278  -1.087  0.00  0.00    -0.060 I 
ATOM     10  F2  UNL d   1       1.957  -1.294   0.337  0.00  0.00    -0.096 F 
ATOM     11  F3  UNL d   1       0.859  -3.193   1.926  0.00  0.00    -0.097 F 
ATOM     12  F4  UNL d   1      -1.791  -3.095   2.562  0.00  0.00    -0.092 F 
ENDROOT
TORSDOF 0
ENDMDL
