MODEL 1
REMARK minimizedAffinity 1.3665185
REMARK minimizedRMSD -1
REMARK  0 active torsions:
REMARK  status: ('A' for Active; 'I' for Inactive)
ROOT
ATOM      1  C   UNL d   1       2.443   2.512  -3.061  0.00  0.00     0.124 A 
ATOM      2  C1  UNL d   1       1.114   2.750  -3.386  0.00  0.00     0.062 A 
ATOM      3  C2  UNL d   1       0.097   2.299  -2.550  0.00  0.00     0.162 A 
ATOM      4  C3  UNL d   1       0.404   1.606  -1.379  0.00  0.00    -0.034 A 
ATOM      5  C4  UNL d   1       1.742   1.370  -1.059  0.00  0.00     0.162 A 
ATOM      6  C5  UNL d   1       2.755   1.822  -1.898  0.00  0.00     0.062 A 
ATOM      7  F   UNL d   1       4.038   1.591  -1.583  0.00  0.00    -0.097 F 
ATOM      8  F1  UNL d   1       2.073   0.706   0.059  0.00  0.00    -0.096 F 
ATOM      9  I   UNL d   1      -1.114   0.931  -0.126  0.00  0.00    -0.060 I 
ATOM     10  F2  UNL d   1      -1.177   2.544  -2.889  0.00  0.00    -0.096 F 
ATOM     11  F3  UNL d   1       0.810   3.416  -4.510  0.00  0.00    -0.097 F 
ATOM     12  F4  UNL d   1       3.419   2.946  -3.868  0.00  0.00    -0.092 F 
ENDROOT
TORSDOF 0
ENDMDL
