MODEL 1
REMARK minimizedAffinity -1.62005687
REMARK minimizedRMSD -1
REMARK  0 active torsions:
REMARK  status: ('A' for Active; 'I' for Inactive)
ROOT
ATOM      1  C   UNL d   1       0.309  -1.909   0.657  0.00  0.00     0.124 A 
ATOM      2  C1  UNL d   1       0.882  -0.666   0.889  0.00  0.00     0.062 A 
ATOM      3  C2  UNL d   1       0.076   0.453   1.076  0.00  0.00     0.162 A 
ATOM      4  C3  UNL d   1      -1.313   0.335   1.033  0.00  0.00    -0.034 A 
ATOM      5  C4  UNL d   1      -1.882  -0.918   0.798  0.00  0.00     0.162 A 
ATOM      6  C5  UNL d   1      -1.072  -2.034   0.612  0.00  0.00     0.062 A 
ATOM      7  F   UNL d   1      -1.628  -3.233   0.388  0.00  0.00    -0.097 F 
ATOM      8  F1  UNL d   1      -3.215  -1.068   0.750  0.00  0.00    -0.096 F 
ATOM      9  I   UNL d   1      -2.522   2.006   1.311  0.00  0.00    -0.060 I 
ATOM     10  F2  UNL d   1       0.657   1.641   1.298  0.00  0.00    -0.096 F 
ATOM     11  F3  UNL d   1       2.217  -0.543   0.932  0.00  0.00    -0.097 F 
ATOM     12  F4  UNL d   1       1.087  -2.984   0.477  0.00  0.00    -0.092 F 
ENDROOT
TORSDOF 0
ENDMDL
