MODEL 1
REMARK minimizedAffinity -5.5558362
REMARK minimizedRMSD -1
REMARK  0 active torsions:
REMARK  status: ('A' for Active; 'I' for Inactive)
ROOT
ATOM      1  C   UNL d   1      -2.189   2.097   0.650  0.00  0.00     0.020 A 
ATOM      2  C1  UNL d   1      -1.660   2.137  -0.640  0.00  0.00     0.020 A 
ATOM      3  C2  UNL d   1      -0.754   1.159  -1.053  0.00  0.00     0.034 A 
ATOM      4  C3  UNL d   1      -0.373   0.137  -0.177  0.00  0.00     0.017 A 
ATOM      5  C4  UNL d   1      -0.904   0.097   1.117  0.00  0.00     0.017 A 
ATOM      6  C5  UNL d   1      -1.812   1.079   1.526  0.00  0.00     0.034 A 
ATOM      7 Cl   UNL d   1      -0.482  -1.133   2.255  0.00  0.00    -0.070 Cl
ATOM      8 Cl1  UNL d   1       0.753  -1.040  -0.756  0.00  0.00    -0.070 Cl
ENDROOT
TORSDOF 0
ENDMDL
