MODEL 1
REMARK minimizedAffinity -3.13833976
REMARK minimizedRMSD -1
REMARK  0 active torsions:
REMARK  status: ('A' for Active; 'I' for Inactive)
ROOT
ATOM      1  C   UNL d   1       0.512   1.219  -1.573  0.00  0.00     0.020 A 
ATOM      2  C1  UNL d   1       1.128  -0.022  -1.414  0.00  0.00     0.020 A 
ATOM      3  C2  UNL d   1       0.924  -0.757  -0.245  0.00  0.00     0.034 A 
ATOM      4  C3  UNL d   1       0.102  -0.253   0.770  0.00  0.00     0.017 A 
ATOM      5  C4  UNL d   1      -0.516   0.992   0.609  0.00  0.00     0.017 A 
ATOM      6  C5  UNL d   1      -0.308   1.725  -0.564  0.00  0.00     0.034 A 
ATOM      7 Cl   UNL d   1      -1.544   1.680   1.816  0.00  0.00    -0.070 Cl
ATOM      8 Cl1  UNL d   1      -0.106  -1.217   2.189  0.00  0.00    -0.070 Cl
ENDROOT
TORSDOF 0
ENDMDL
