MODEL 1
REMARK minimizedAffinity -3.81532192
REMARK minimizedRMSD -1
REMARK  0 active torsions:
REMARK  status: ('A' for Active; 'I' for Inactive)
ROOT
ATOM      1  C   UNL d   1      -0.482  -3.264  -3.017  0.00  0.00     0.020 A 
ATOM      2  C1  UNL d   1      -0.192  -4.588  -2.687  0.00  0.00     0.020 A 
ATOM      3  C2  UNL d   1       0.725  -4.870  -1.672  0.00  0.00     0.034 A 
ATOM      4  C3  UNL d   1       1.355  -3.827  -0.983  0.00  0.00     0.017 A 
ATOM      5  C4  UNL d   1       1.063  -2.499  -1.315  0.00  0.00     0.017 A 
ATOM      6  C5  UNL d   1       0.145  -2.222  -2.332  0.00  0.00     0.034 A 
ATOM      7 Cl   UNL d   1       1.801  -1.159  -0.509  0.00  0.00    -0.070 Cl
ATOM      8 Cl1  UNL d   1       2.478  -4.249   0.261  0.00  0.00    -0.070 Cl
ENDROOT
TORSDOF 0
ENDMDL
