MODEL 1
REMARK minimizedAffinity -5.18255615
REMARK minimizedRMSD -1
REMARK  0 active torsions:
REMARK  status: ('A' for Active; 'I' for Inactive)
ROOT
ATOM      1  C   UNL d   1       0.406   0.221  -1.144  0.00  0.00     0.020 A 
ATOM      2  C1  UNL d   1      -0.264   1.443  -1.188  0.00  0.00     0.020 A 
ATOM      3  C2  UNL d   1      -0.956   1.901  -0.064  0.00  0.00     0.034 A 
ATOM      4  C3  UNL d   1      -0.979   1.136   1.108  0.00  0.00     0.017 A 
ATOM      5  C4  UNL d   1      -0.307  -0.091   1.150  0.00  0.00     0.017 A 
ATOM      6  C5  UNL d   1       0.384  -0.544   0.023  0.00  0.00     0.034 A 
ATOM      7 Cl   UNL d   1      -0.290  -1.090   2.560  0.00  0.00    -0.070 Cl
ATOM      8 Cl1  UNL d   1      -1.854   1.763   2.459  0.00  0.00    -0.070 Cl
ENDROOT
TORSDOF 0
ENDMDL
