MODEL 1
REMARK minimizedAffinity -2.18062162
REMARK minimizedRMSD -1
REMARK  0 active torsions:
REMARK  status: ('A' for Active; 'I' for Inactive)
ROOT
ATOM      1  C   UNL d   1      -1.240   0.795   2.101  0.00  0.00     0.020 A 
ATOM      2  C1  UNL d   1      -1.333   2.099   1.614  0.00  0.00     0.020 A 
ATOM      3  C2  UNL d   1      -0.734   2.435   0.399  0.00  0.00     0.034 A 
ATOM      4  C3  UNL d   1      -0.038   1.466  -0.334  0.00  0.00     0.017 A 
ATOM      5  C4  UNL d   1       0.055   0.158   0.155  0.00  0.00     0.017 A 
ATOM      6  C5  UNL d   1      -0.547  -0.172   1.373  0.00  0.00     0.034 A 
ATOM      7 Cl   UNL d   1       0.897  -1.091  -0.693  0.00  0.00    -0.070 Cl
ATOM      8 Cl1  UNL d   1       0.678   1.952  -1.830  0.00  0.00    -0.070 Cl
ENDROOT
TORSDOF 0
ENDMDL
