MODEL 1
REMARK minimizedAffinity -3.79489446
REMARK minimizedRMSD -1
REMARK  0 active torsions:
REMARK  status: ('A' for Active; 'I' for Inactive)
ROOT
ATOM      1  C   UNL d   1      -1.881   1.527   1.539  0.00  0.00     0.020 A 
ATOM      2  C1  UNL d   1      -1.638   0.182   1.813  0.00  0.00     0.020 A 
ATOM      3  C2  UNL d   1      -0.715  -0.531   1.044  0.00  0.00     0.034 A 
ATOM      4  C3  UNL d   1      -0.033   0.101  -0.002  0.00  0.00     0.017 A 
ATOM      5  C4  UNL d   1      -0.278   1.451  -0.275  0.00  0.00     0.017 A 
ATOM      6  C5  UNL d   1      -1.202   2.160   0.497  0.00  0.00     0.034 A 
ATOM      7 Cl   UNL d   1       0.526   2.299  -1.549  0.00  0.00    -0.070 Cl
ATOM      8 Cl1  UNL d   1       1.094  -0.842  -0.911  0.00  0.00    -0.070 Cl
ENDROOT
TORSDOF 0
ENDMDL
