MODEL 1
REMARK minimizedAffinity -2.8849473
REMARK minimizedRMSD -1
REMARK  0 active torsions:
REMARK  status: ('A' for Active; 'I' for Inactive)
ROOT
ATOM      1  C   UNL d   1       0.279  -1.417   0.585  0.00  0.00     0.020 A 
ATOM      2  C1  UNL d   1       0.976  -1.084  -0.576  0.00  0.00     0.020 A 
ATOM      3  C2  UNL d   1       0.995   0.238  -1.023  0.00  0.00     0.034 A 
ATOM      4  C3  UNL d   1       0.316   1.233  -0.310  0.00  0.00     0.017 A 
ATOM      5  C4  UNL d   1      -0.383   0.898   0.855  0.00  0.00     0.017 A 
ATOM      6  C5  UNL d   1      -0.399  -0.428   1.299  0.00  0.00     0.034 A 
ATOM      7 Cl   UNL d   1      -1.244   2.070   1.789  0.00  0.00    -0.070 Cl
ATOM      8 Cl1  UNL d   1       0.383   2.848  -0.921  0.00  0.00    -0.070 Cl
ENDROOT
TORSDOF 0
ENDMDL
