MODEL 1
REMARK minimizedAffinity 0.385595083
REMARK minimizedRMSD -1
REMARK  0 active torsions:
REMARK  status: ('A' for Active; 'I' for Inactive)
ROOT
ATOM      1  C   UNL d   1       0.083  -0.589   2.839  0.00  0.00     0.020 A 
ATOM      2  C1  UNL d   1       1.219  -0.218   2.121  0.00  0.00     0.020 A 
ATOM      3  C2  UNL d   1       1.111   0.127   0.772  0.00  0.00     0.034 A 
ATOM      4  C3  UNL d   1      -0.136   0.103   0.137  0.00  0.00     0.017 A 
ATOM      5  C4  UNL d   1      -1.276  -0.269   0.859  0.00  0.00     0.017 A 
ATOM      6  C5  UNL d   1      -1.162  -0.615   2.209  0.00  0.00     0.034 A 
ATOM      7 Cl   UNL d   1      -2.849  -0.323   0.145  0.00  0.00    -0.070 Cl
ATOM      8 Cl1  UNL d   1      -0.197   0.543  -1.532  0.00  0.00    -0.070 Cl
ENDROOT
TORSDOF 0
ENDMDL
