MODEL 1
REMARK minimizedAffinity 1.8847717
REMARK minimizedRMSD -1
REMARK  0 active torsions:
REMARK  status: ('A' for Active; 'I' for Inactive)
ROOT
ATOM      1  C   UNL d   1       4.311  -3.696  -2.627  0.00  0.00     0.020 A 
ATOM      2  C1  UNL d   1       5.500  -3.055  -2.280  0.00  0.00     0.020 A 
ATOM      3  C2  UNL d   1       6.000  -2.029  -3.084  0.00  0.00     0.034 A 
ATOM      4  C3  UNL d   1       5.312  -1.641  -4.240  0.00  0.00     0.017 A 
ATOM      5  C4  UNL d   1       4.119  -2.285  -4.587  0.00  0.00     0.017 A 
ATOM      6  C5  UNL d   1       3.622  -3.312  -3.778  0.00  0.00     0.034 A 
ATOM      7 Cl   UNL d   1       3.213  -1.862  -5.997  0.00  0.00    -0.070 Cl
ATOM      8 Cl1  UNL d   1       5.988  -0.364  -5.187  0.00  0.00    -0.070 Cl
ENDROOT
TORSDOF 0
ENDMDL
