MODEL 1
REMARK minimizedAffinity -2.66313982
REMARK minimizedRMSD -1
REMARK  0 active torsions:
REMARK  status: ('A' for Active; 'I' for Inactive)
ROOT
ATOM      1  C   UNL d   1      -0.025  -1.937  -2.966  0.00  0.00     0.020 A 
ATOM      2  C1  UNL d   1       0.058  -2.845  -1.911  0.00  0.00     0.020 A 
ATOM      3  C2  UNL d   1       0.235  -2.384  -0.605  0.00  0.00     0.034 A 
ATOM      4  C3  UNL d   1       0.328  -1.011  -0.350  0.00  0.00     0.017 A 
ATOM      5  C4  UNL d   1       0.245  -0.100  -1.409  0.00  0.00     0.017 A 
ATOM      6  C5  UNL d   1       0.068  -0.567  -2.715  0.00  0.00     0.034 A 
ATOM      7 Cl   UNL d   1       0.352   1.609  -1.173  0.00  0.00    -0.070 Cl
ATOM      8 Cl1  UNL d   1       0.546  -0.511   1.290  0.00  0.00    -0.070 Cl
ENDROOT
TORSDOF 0
ENDMDL
