MODEL 1
REMARK minimizedAffinity -5.79859209
REMARK minimizedRMSD -1
REMARK  0 active torsions:
REMARK  status: ('A' for Active; 'I' for Inactive)
ROOT
ATOM      1  C   UNL d   1      -1.512   2.331  -0.506  0.00  0.00     0.020 A 
ATOM      2  C1  UNL d   1      -1.882   2.297   0.838  0.00  0.00     0.020 A 
ATOM      3  C2  UNL d   1      -1.329   1.339   1.691  0.00  0.00     0.034 A 
ATOM      4  C3  UNL d   1      -0.403   0.412   1.200  0.00  0.00     0.017 A 
ATOM      5  C4  UNL d   1      -0.032   0.447  -0.149  0.00  0.00     0.017 A 
ATOM      6  C5  UNL d   1      -0.589   1.408  -0.998  0.00  0.00     0.034 A 
ATOM      7 Cl   UNL d   1       1.105  -0.664  -0.827  0.00  0.00    -0.070 Cl
ATOM      8 Cl1  UNL d   1       0.242  -0.745   2.311  0.00  0.00    -0.070 Cl
ENDROOT
TORSDOF 0
ENDMDL
