MODEL 1
REMARK minimizedAffinity -5.36860275
REMARK minimizedRMSD -1
REMARK  0 active torsions:
REMARK  status: ('A' for Active; 'I' for Inactive)
ROOT
ATOM      1  C   UNL d   1       0.614   2.059  -1.603  0.00  0.00     0.020 A 
ATOM      2  C1  UNL d   1       1.406   0.931  -1.395  0.00  0.00     0.020 A 
ATOM      3  C2  UNL d   1       1.088   0.033  -0.373  0.00  0.00     0.034 A 
ATOM      4  C3  UNL d   1      -0.025   0.262   0.444  0.00  0.00     0.017 A 
ATOM      5  C4  UNL d   1      -0.820   1.395   0.234  0.00  0.00     0.017 A 
ATOM      6  C5  UNL d   1      -0.497   2.291  -0.790  0.00  0.00     0.034 A 
ATOM      7 Cl   UNL d   1      -2.209   1.745   1.201  0.00  0.00    -0.070 Cl
ATOM      8 Cl1  UNL d   1      -0.360  -0.890   1.687  0.00  0.00    -0.070 Cl
ENDROOT
TORSDOF 0
ENDMDL
