MODEL 1
REMARK minimizedAffinity -3.1197207
REMARK minimizedRMSD -1
REMARK  0 active torsions:
REMARK  status: ('A' for Active; 'I' for Inactive)
ROOT
ATOM      1  C   UNL d   1      -2.077   1.717   1.990  0.00  0.00     0.020 A 
ATOM      2  C1  UNL d   1      -2.144   1.775   0.599  0.00  0.00     0.020 A 
ATOM      3  C2  UNL d   1      -1.266   1.011  -0.174  0.00  0.00     0.034 A 
ATOM      4  C3  UNL d   1      -0.319   0.187   0.444  0.00  0.00     0.017 A 
ATOM      5  C4  UNL d   1      -0.253   0.130   1.841  0.00  0.00     0.017 A 
ATOM      6  C5  UNL d   1      -1.134   0.897   2.610  0.00  0.00     0.034 A 
ATOM      7 Cl   UNL d   1       0.889  -0.864   2.675  0.00  0.00    -0.070 Cl
ATOM      8 Cl1  UNL d   1       0.734  -0.731  -0.574  0.00  0.00    -0.070 Cl
ENDROOT
TORSDOF 0
ENDMDL
