MODEL 1
REMARK minimizedAffinity -3.14988971
REMARK minimizedRMSD -1
REMARK  0 active torsions:
REMARK  status: ('A' for Active; 'I' for Inactive)
ROOT
ATOM      1  C   UNL d   1      -1.131   1.393   1.923  0.00  0.00     0.020 A 
ATOM      2  C1  UNL d   1      -1.467   0.050   2.089  0.00  0.00     0.020 A 
ATOM      3  C2  UNL d   1      -0.929  -0.915   1.234  0.00  0.00     0.034 A 
ATOM      4  C3  UNL d   1      -0.052  -0.538   0.210  0.00  0.00     0.017 A 
ATOM      5  C4  UNL d   1       0.284   0.811   0.044  0.00  0.00     0.017 A 
ATOM      6  C5  UNL d   1      -0.258   1.772   0.903  0.00  0.00     0.034 A 
ATOM      7 Cl   UNL d   1       1.358   1.353  -1.196  0.00  0.00    -0.070 Cl
ATOM      8 Cl1  UNL d   1       0.576  -1.783  -0.810  0.00  0.00    -0.070 Cl
ENDROOT
TORSDOF 0
ENDMDL
