MODEL 1
REMARK minimizedAffinity -4.92622805
REMARK minimizedRMSD -1
REMARK  0 active torsions:
REMARK  status: ('A' for Active; 'I' for Inactive)
ROOT
ATOM      1  C   UNL d   1      -0.999   2.009   1.966  0.00  0.00     0.020 A 
ATOM      2  C1  UNL d   1      -1.051   0.621   2.085  0.00  0.00     0.020 A 
ATOM      3  C2  UNL d   1      -0.531  -0.186   1.071  0.00  0.00     0.034 A 
ATOM      4  C3  UNL d   1       0.041   0.394  -0.067  0.00  0.00     0.017 A 
ATOM      5  C4  UNL d   1       0.093   1.787  -0.185  0.00  0.00     0.017 A 
ATOM      6  C5  UNL d   1      -0.429   2.591   0.833  0.00  0.00     0.034 A 
ATOM      7 Cl   UNL d   1       0.784   2.576  -1.559  0.00  0.00    -0.070 Cl
ATOM      8 Cl1  UNL d   1       0.664  -0.666  -1.282  0.00  0.00    -0.070 Cl
ENDROOT
TORSDOF 0
ENDMDL
