MODEL 1
REMARK minimizedAffinity -3.06329656
REMARK minimizedRMSD -1
REMARK  0 active torsions:
REMARK  status: ('A' for Active; 'I' for Inactive)
ROOT
ATOM      1  C   UNL d   1      -0.294  -2.338  -2.757  0.00  0.00     0.020 A 
ATOM      2  C1  UNL d   1      -0.132  -3.224  -1.693  0.00  0.00     0.020 A 
ATOM      3  C2  UNL d   1       0.117  -2.736  -0.409  0.00  0.00     0.034 A 
ATOM      4  C3  UNL d   1       0.205  -1.357  -0.185  0.00  0.00     0.017 A 
ATOM      5  C4  UNL d   1       0.042  -0.468  -1.253  0.00  0.00     0.017 A 
ATOM      6  C5  UNL d   1      -0.207  -0.962  -2.537  0.00  0.00     0.034 A 
ATOM      7 Cl   UNL d   1       0.137   1.247  -1.055  0.00  0.00    -0.070 Cl
ATOM      8 Cl1  UNL d   1       0.515  -0.823   1.429  0.00  0.00    -0.070 Cl
ENDROOT
TORSDOF 0
ENDMDL
