MODEL 1
REMARK minimizedAffinity 1.68182635
REMARK minimizedRMSD -1
REMARK  0 active torsions:
REMARK  status: ('A' for Active; 'I' for Inactive)
ROOT
ATOM      1  C   UNL d   1      -2.225   1.343  -1.344  0.00  0.00     0.020 A 
ATOM      2  C1  UNL d   1      -1.710   2.600  -1.655  0.00  0.00     0.020 A 
ATOM      3  C2  UNL d   1      -2.317   3.379  -2.643  0.00  0.00     0.034 A 
ATOM      4  C3  UNL d   1      -3.442   2.900  -3.324  0.00  0.00     0.017 A 
ATOM      5  C4  UNL d   1      -3.959   1.638  -3.011  0.00  0.00     0.017 A 
ATOM      6  C5  UNL d   1      -3.347   0.862  -2.021  0.00  0.00     0.034 A 
ATOM      7 Cl   UNL d   1      -5.344   0.979  -3.808  0.00  0.00    -0.070 Cl
ATOM      8 Cl1  UNL d   1      -4.142   3.916  -4.533  0.00  0.00    -0.070 Cl
ENDROOT
TORSDOF 0
ENDMDL
