MODEL 1
REMARK minimizedAffinity -2.96879077
REMARK minimizedRMSD -1
REMARK  0 active torsions:
REMARK  status: ('A' for Active; 'I' for Inactive)
ROOT
ATOM      1  C   UNL d   1       0.361   0.443  -0.949  0.00  0.00     0.020 A 
ATOM      2  C1  UNL d   1      -0.304   1.461  -1.631  0.00  0.00     0.020 A 
ATOM      3  C2  UNL d   1      -1.160   2.321  -0.940  0.00  0.00     0.034 A 
ATOM      4  C3  UNL d   1      -1.354   2.164   0.437  0.00  0.00     0.017 A 
ATOM      5  C4  UNL d   1      -0.686   1.142   1.121  0.00  0.00     0.017 A 
ATOM      6  C5  UNL d   1       0.170   0.283   0.424  0.00  0.00     0.034 A 
ATOM      7 Cl   UNL d   1      -0.875   0.886   2.820  0.00  0.00    -0.070 Cl
ATOM      8 Cl1  UNL d   1      -2.427   3.264   1.228  0.00  0.00    -0.070 Cl
ENDROOT
TORSDOF 0
ENDMDL
