MODEL 1
REMARK minimizedAffinity 6.13554668
REMARK minimizedRMSD -1
REMARK  2 active torsions:
REMARK  status: ('A' for Active; 'I' for Inactive)
REMARK    1  A    between atoms: C1_2  and  C2_3 
REMARK    2  A    between atoms: C2_3  and  C3_4 
ROOT
ATOM      1  C3  UNL d   1      -0.684  -0.272   2.363  0.00  0.00    -0.075 A 
ATOM      2  C4  UNL d   1       0.221  -1.157   1.759  0.00  0.00     0.002 A 
ATOM      3  C5  UNL d   1       1.558  -1.184   2.158  0.00  0.00     0.002 A 
ATOM      4  C6  UNL d   1       2.008  -0.322   3.156  0.00  0.00    -0.004 A 
ATOM      5  C7  UNL d   1       1.121   0.572   3.751  0.00  0.00     0.002 A 
ATOM      6  C8  UNL d   1      -0.218   0.599   3.357  0.00  0.00     0.002 A 
ENDROOT
BRANCH   1   7
ATOM      7  C2  UNL d   1      -2.139  -0.258   1.956  0.00  0.00     0.056 C 
BRANCH   7   8
ATOM      8  C1  UNL d   1      -2.655  -1.606   1.442  0.00  0.00     0.007 C 
ATOM      9  C   UNL d   1      -4.071  -1.923   1.905  0.00  0.00     0.009 C 
ENDBRANCH   7   8
ENDBRANCH   1   7
TORSDOF 2
ENDMDL
