MODEL 1
REMARK minimizedAffinity 11.2761106
REMARK minimizedRMSD -1
REMARK  2 active torsions:
REMARK  status: ('A' for Active; 'I' for Inactive)
REMARK    1  A    between atoms: C1_2  and  C2_3 
REMARK    2  A    between atoms: C2_3  and  C3_4 
ROOT
ATOM      1  C3  UNL d   1       2.149   0.081   3.325  0.00  0.00    -0.075 A 
ATOM      2  C4  UNL d   1       1.900  -1.223   3.779  0.00  0.00     0.002 A 
ATOM      3  C5  UNL d   1       0.737  -1.895   3.400  0.00  0.00     0.002 A 
ATOM      4  C6  UNL d   1      -0.194  -1.270   2.574  0.00  0.00    -0.004 A 
ATOM      5  C7  UNL d   1       0.035   0.031   2.131  0.00  0.00     0.002 A 
ATOM      6  C8  UNL d   1       1.199   0.704   2.504  0.00  0.00     0.002 A 
ENDROOT
BRANCH   1   7
ATOM      7  C2  UNL d   1       3.419   0.802   3.707  0.00  0.00     0.056 C 
BRANCH   7   8
ATOM      8  C1  UNL d   1       4.700   0.070   3.294  0.00  0.00     0.007 C 
ATOM      9  C   UNL d   1       5.427  -0.575   4.467  0.00  0.00     0.009 C 
ENDBRANCH   7   8
ENDBRANCH   1   7
TORSDOF 2
ENDMDL
