MODEL 1
REMARK minimizedAffinity 12.9861317
REMARK minimizedRMSD -1
REMARK  2 active torsions:
REMARK  status: ('A' for Active; 'I' for Inactive)
REMARK    1  A    between atoms: C1_2  and  C2_3 
REMARK    2  A    between atoms: C2_3  and  C3_4 
ROOT
ATOM      1  C3  UNL d   1       2.167  -0.135  -4.819  0.00  0.00    -0.075 A 
ATOM      2  C4  UNL d   1       2.635  -1.451  -4.946  0.00  0.00     0.002 A 
ATOM      3  C5  UNL d   1       1.752  -2.528  -4.859  0.00  0.00     0.002 A 
ATOM      4  C6  UNL d   1       0.396  -2.305  -4.634  0.00  0.00    -0.004 A 
ATOM      5  C7  UNL d   1      -0.078  -1.002  -4.490  0.00  0.00     0.002 A 
ATOM      6  C8  UNL d   1       0.802   0.078  -4.581  0.00  0.00     0.002 A 
ENDROOT
BRANCH   1   7
ATOM      7  C2  UNL d   1       3.112   1.036  -4.942  0.00  0.00     0.056 C 
BRANCH   7   8
ATOM      8  C1  UNL d   1       4.465   0.683  -5.569  0.00  0.00     0.007 C 
ATOM      9  C   UNL d   1       5.279   1.906  -5.969  0.00  0.00     0.009 C 
ENDBRANCH   7   8
ENDBRANCH   1   7
TORSDOF 2
ENDMDL
