MODEL 1
REMARK minimizedAffinity 8.18983841
REMARK minimizedRMSD -1
REMARK  2 active torsions:
REMARK  status: ('A' for Active; 'I' for Inactive)
REMARK    1  A    between atoms: C1_2  and  C2_3 
REMARK    2  A    between atoms: C2_3  and  C3_4 
ROOT
ATOM      1  C3  UNL d   1      -3.690  -0.710  -1.333  0.00  0.00    -0.075 A 
ATOM      2  C4  UNL d   1      -2.678  -0.661  -2.302  0.00  0.00     0.002 A 
ATOM      3  C5  UNL d   1      -1.493  -1.375  -2.125  0.00  0.00     0.002 A 
ATOM      4  C6  UNL d   1      -1.301  -2.139  -0.976  0.00  0.00    -0.004 A 
ATOM      5  C7  UNL d   1      -2.293  -2.182   0.001  0.00  0.00     0.002 A 
ATOM      6  C8  UNL d   1      -3.482  -1.471  -0.175  0.00  0.00     0.002 A 
ENDROOT
BRANCH   1   7
ATOM      7  C2  UNL d   1      -4.987   0.038  -1.531  0.00  0.00     0.056 C 
BRANCH   7   8
ATOM      8  C1  UNL d   1      -5.008   1.431  -0.894  0.00  0.00     0.007 C 
ATOM      9  C   UNL d   1      -4.167   1.525   0.372  0.00  0.00     0.009 C 
ENDBRANCH   7   8
ENDBRANCH   1   7
TORSDOF 2
ENDMDL
