MODEL 1
REMARK minimizedAffinity 8.9593935
REMARK minimizedRMSD -1
REMARK  2 active torsions:
REMARK  status: ('A' for Active; 'I' for Inactive)
REMARK    1  A    between atoms: C1_2  and  C2_3 
REMARK    2  A    between atoms: C2_3  and  C3_4 
ROOT
ATOM      1  C3  UNL d   1      -0.141  -0.855   2.649  0.00  0.00    -0.075 A 
ATOM      2  C4  UNL d   1      -1.356  -1.320   2.125  0.00  0.00     0.002 A 
ATOM      3  C5  UNL d   1      -2.428  -0.446   1.940  0.00  0.00     0.002 A 
ATOM      4  C6  UNL d   1      -2.302   0.898   2.284  0.00  0.00    -0.004 A 
ATOM      5  C7  UNL d   1      -1.105   1.367   2.821  0.00  0.00     0.002 A 
ATOM      6  C8  UNL d   1      -0.030   0.496   3.003  0.00  0.00     0.002 A 
ENDROOT
BRANCH   1   7
ATOM      7  C2  UNL d   1       1.033  -1.789   2.824  0.00  0.00     0.056 C 
BRANCH   7   8
ATOM      8  C1  UNL d   1       1.306  -2.180   4.281  0.00  0.00     0.007 C 
ATOM      9  C   UNL d   1       0.566  -3.439   4.713  0.00  0.00     0.009 C 
ENDBRANCH   7   8
ENDBRANCH   1   7
TORSDOF 2
ENDMDL
