MODEL 1
REMARK minimizedAffinity -3.80048704
REMARK minimizedRMSD -1
REMARK  0 active torsions:
REMARK  status: ('A' for Active; 'I' for Inactive)
ROOT
ATOM      1  C   UNL d   1      -1.136   0.109   3.046  0.00  0.00     0.020 A 
ATOM      2  C1  UNL d   1      -2.022  -0.362   2.077  0.00  0.00     0.020 A 
ATOM      3  C2  UNL d   1      -1.627  -0.418   0.738  0.00  0.00     0.034 A 
ATOM      4  C3  UNL d   1      -0.344  -0.003   0.365  0.00  0.00     0.017 A 
ATOM      5  C4  UNL d   1       0.545   0.469   1.338  0.00  0.00     0.017 A 
ATOM      6  C5  UNL d   1       0.144   0.523   2.677  0.00  0.00     0.034 A 
ATOM      7 Cl   UNL d   1       2.144   0.999   0.954  0.00  0.00    -0.070 Cl
ATOM      8 Cl1  UNL d   1       0.077  -0.101  -1.308  0.00  0.00    -0.070 Cl
ENDROOT
TORSDOF 0
ENDMDL
