MODEL 1
REMARK minimizedAffinity -5.57767487
REMARK minimizedRMSD -1
REMARK  0 active torsions:
REMARK  status: ('A' for Active; 'I' for Inactive)
ROOT
ATOM      1  C   UNL d   1      -1.843  -0.027   2.651  0.00  0.00     0.020 A 
ATOM      2  C1  UNL d   1      -2.648   0.124   1.523  0.00  0.00     0.020 A 
ATOM      3  C2  UNL d   1      -2.066   0.201   0.256  0.00  0.00     0.034 A 
ATOM      4  C3  UNL d   1      -0.676   0.125   0.114  0.00  0.00     0.017 A 
ATOM      5  C4  UNL d   1       0.131  -0.027   1.247  0.00  0.00     0.017 A 
ATOM      6  C5  UNL d   1      -0.456  -0.103   2.513  0.00  0.00     0.034 A 
ATOM      7 Cl   UNL d   1       1.854  -0.127   1.151  0.00  0.00    -0.070 Cl
ATOM      8 Cl1  UNL d   1      -0.025   0.226  -1.484  0.00  0.00    -0.070 Cl
ENDROOT
TORSDOF 0
ENDMDL
