MODEL 1
REMARK minimizedAffinity -5.98449469
REMARK minimizedRMSD -1
REMARK  0 active torsions:
REMARK  status: ('A' for Active; 'I' for Inactive)
ROOT
ATOM      1  C   UNL d   1      -2.421  -0.137   2.417  0.00  0.00     0.020 A 
ATOM      2  C1  UNL d   1      -1.379  -0.137   3.343  0.00  0.00     0.020 A 
ATOM      3  C2  UNL d   1      -0.055  -0.078   2.904  0.00  0.00     0.034 A 
ATOM      4  C3  UNL d   1       0.231  -0.019   1.536  0.00  0.00     0.017 A 
ATOM      5  C4  UNL d   1      -0.816  -0.019   0.607  0.00  0.00     0.017 A 
ATOM      6  C5  UNL d   1      -2.140  -0.078   1.052  0.00  0.00     0.034 A 
ATOM      7 Cl   UNL d   1      -0.542   0.053  -1.098  0.00  0.00    -0.070 Cl
ATOM      8 Cl1  UNL d   1       1.892   0.052   1.064  0.00  0.00    -0.070 Cl
ENDROOT
TORSDOF 0
ENDMDL
