MODEL 1
REMARK minimizedAffinity -4.89334726
REMARK minimizedRMSD -1
REMARK  0 active torsions:
REMARK  status: ('A' for Active; 'I' for Inactive)
ROOT
ATOM      1  C   UNL d   1      -1.247  -0.402   3.211  0.00  0.00     0.020 A 
ATOM      2  C1  UNL d   1      -2.200  -0.700   2.238  0.00  0.00     0.020 A 
ATOM      3  C2  UNL d   1      -1.865  -0.622   0.885  0.00  0.00     0.034 A 
ATOM      4  C3  UNL d   1      -0.573  -0.245   0.501  0.00  0.00     0.017 A 
ATOM      5  C4  UNL d   1       0.383   0.054   1.478  0.00  0.00     0.017 A 
ATOM      6  C5  UNL d   1       0.042  -0.026   2.832  0.00  0.00     0.034 A 
ATOM      7 Cl   UNL d   1       1.998   0.526   1.081  0.00  0.00    -0.070 Cl
ATOM      8 Cl1  UNL d   1      -0.228  -0.169  -1.191  0.00  0.00    -0.070 Cl
ENDROOT
TORSDOF 0
ENDMDL
