MODEL 1
REMARK minimizedAffinity -4.93367863
REMARK minimizedRMSD -1
REMARK  0 active torsions:
REMARK  status: ('A' for Active; 'I' for Inactive)
ROOT
ATOM      1  C   UNL d   1      -2.944   0.241   1.311  0.00  0.00     0.020 A 
ATOM      2  C1  UNL d   1      -2.575  -0.043   2.625  0.00  0.00     0.020 A 
ATOM      3  C2  UNL d   1      -1.237  -0.292   2.937  0.00  0.00     0.034 A 
ATOM      4  C3  UNL d   1      -0.262  -0.257   1.933  0.00  0.00     0.017 A 
ATOM      5  C4  UNL d   1      -0.633   0.028   0.614  0.00  0.00     0.017 A 
ATOM      6  C5  UNL d   1      -1.975   0.276   0.307  0.00  0.00     0.034 A 
ATOM      7 Cl   UNL d   1       0.512   0.089  -0.679  0.00  0.00    -0.070 Cl
ATOM      8 Cl1  UNL d   1       1.374  -0.574   2.390  0.00  0.00    -0.070 Cl
ENDROOT
TORSDOF 0
ENDMDL
