MODEL 1
REMARK minimizedAffinity -3.82130814
REMARK minimizedRMSD -1
REMARK  0 active torsions:
REMARK  status: ('A' for Active; 'I' for Inactive)
ROOT
ATOM      1  C   UNL d   1      -1.900  -0.097   3.138  0.00  0.00     0.020 A 
ATOM      2  C1  UNL d   1      -2.829   0.001   2.103  0.00  0.00     0.020 A 
ATOM      3  C2  UNL d   1      -2.393   0.096   0.780  0.00  0.00     0.034 A 
ATOM      4  C3  UNL d   1      -1.024   0.092   0.488  0.00  0.00     0.017 A 
ATOM      5  C4  UNL d   1      -0.092  -0.007   1.528  0.00  0.00     0.017 A 
ATOM      6  C5  UNL d   1      -0.535  -0.101   2.851  0.00  0.00     0.034 A 
ATOM      7 Cl   UNL d   1       1.613  -0.018   1.246  0.00  0.00    -0.070 Cl
ATOM      8 Cl1  UNL d   1      -0.555   0.211  -1.171  0.00  0.00    -0.070 Cl
ENDROOT
TORSDOF 0
ENDMDL
