MODEL 1
REMARK minimizedAffinity -5.46011496
REMARK minimizedRMSD -1
REMARK  0 active torsions:
REMARK  status: ('A' for Active; 'I' for Inactive)
ROOT
ATOM      1  C   UNL d   1       0.956   0.164  -0.538  0.00  0.00     0.020 A 
ATOM      2  C1  UNL d   1       1.552  -0.101   0.695  0.00  0.00     0.020 A 
ATOM      3  C2  UNL d   1       0.759  -0.275   1.831  0.00  0.00     0.034 A 
ATOM      4  C3  UNL d   1      -0.635  -0.185   1.737  0.00  0.00     0.017 A 
ATOM      5  C4  UNL d   1      -1.232   0.080   0.499  0.00  0.00     0.017 A 
ATOM      6  C5  UNL d   1      -0.433   0.254  -0.635  0.00  0.00     0.034 A 
ATOM      7 Cl   UNL d   1      -2.945   0.206   0.304  0.00  0.00    -0.070 Cl
ATOM      8 Cl1  UNL d   1      -1.554  -0.411   3.182  0.00  0.00    -0.070 Cl
ENDROOT
TORSDOF 0
ENDMDL
