MODEL 1
REMARK minimizedAffinity -0.728708267
REMARK minimizedRMSD -1
REMARK  0 active torsions:
REMARK  status: ('A' for Active; 'I' for Inactive)
ROOT
ATOM      1  C   UNL d   1       0.347  -1.552  -3.228  0.00  0.00     0.020 A 
ATOM      2  C1  UNL d   1       1.633  -1.068  -2.994  0.00  0.00     0.020 A 
ATOM      3  C2  UNL d   1       1.883  -0.262  -1.881  0.00  0.00     0.034 A 
ATOM      4  C3  UNL d   1       0.846   0.062  -0.999  0.00  0.00     0.017 A 
ATOM      5  C4  UNL d   1      -0.445  -0.424  -1.236  0.00  0.00     0.017 A 
ATOM      6  C5  UNL d   1      -0.690  -1.231  -2.351  0.00  0.00     0.034 A 
ATOM      7 Cl   UNL d   1      -1.776  -0.067  -0.192  0.00  0.00    -0.070 Cl
ATOM      8 Cl1  UNL d   1       1.228   1.063   0.357  0.00  0.00    -0.070 Cl
ENDROOT
TORSDOF 0
ENDMDL
