MODEL 1
REMARK minimizedAffinity 1.30642128
REMARK minimizedRMSD -1
REMARK  0 active torsions:
REMARK  status: ('A' for Active; 'I' for Inactive)
ROOT
ATOM      1  C   UNL d   1       1.459   0.176   1.962  0.00  0.00     0.020 A 
ATOM      2  C1  UNL d   1       0.316   0.319   2.747  0.00  0.00     0.020 A 
ATOM      3  C2  UNL d   1      -0.942   0.384   2.144  0.00  0.00     0.034 A 
ATOM      4  C3  UNL d   1      -1.060   0.305   0.752  0.00  0.00     0.017 A 
ATOM      5  C4  UNL d   1       0.088   0.162  -0.036  0.00  0.00     0.017 A 
ATOM      6  C5  UNL d   1       1.345   0.097   0.573  0.00  0.00     0.034 A 
ATOM      7 Cl   UNL d   1       0.022   0.058  -1.760  0.00  0.00    -0.070 Cl
ATOM      8 Cl1  UNL d   1      -2.647   0.392   0.074  0.00  0.00    -0.070 Cl
ENDROOT
TORSDOF 0
ENDMDL
