MODEL 1
REMARK minimizedAffinity -0.411396474
REMARK minimizedRMSD -1
REMARK  0 active torsions:
REMARK  status: ('A' for Active; 'I' for Inactive)
ROOT
ATOM      1  C   UNL d   1       0.790   0.259   2.768  0.00  0.00     0.020 A 
ATOM      2  C1  UNL d   1       1.870  -0.127   1.975  0.00  0.00     0.020 A 
ATOM      3  C2  UNL d   1       1.705  -0.279   0.597  0.00  0.00     0.034 A 
ATOM      4  C3  UNL d   1       0.457  -0.045   0.008  0.00  0.00     0.017 A 
ATOM      5  C4  UNL d   1      -0.626   0.343   0.805  0.00  0.00     0.017 A 
ATOM      6  C5  UNL d   1      -0.455   0.493   2.184  0.00  0.00     0.034 A 
ATOM      7 Cl   UNL d   1      -2.196   0.650   0.150  0.00  0.00    -0.070 Cl
ATOM      8 Cl1  UNL d   1       0.325  -0.251  -1.703  0.00  0.00    -0.070 Cl
ENDROOT
TORSDOF 0
ENDMDL
