MODEL 1
REMARK minimizedAffinity -4.8190465
REMARK minimizedRMSD -1
REMARK  0 active torsions:
REMARK  status: ('A' for Active; 'I' for Inactive)
ROOT
ATOM      1  C   UNL d   1      -1.151  -0.597   3.695  0.00  0.00     0.020 A 
ATOM      2  C1  UNL d   1       0.095  -0.422   3.094  0.00  0.00     0.020 A 
ATOM      3  C2  UNL d   1       0.178   0.036   1.778  0.00  0.00     0.034 A 
ATOM      4  C3  UNL d   1      -0.988   0.322   1.058  0.00  0.00     0.017 A 
ATOM      5  C4  UNL d   1      -2.238   0.146   1.661  0.00  0.00     0.017 A 
ATOM      6  C5  UNL d   1      -2.315  -0.313   2.980  0.00  0.00     0.034 A 
ATOM      7 Cl   UNL d   1      -3.721   0.477   0.836  0.00  0.00    -0.070 Cl
ATOM      8 Cl1  UNL d   1      -0.811   0.885  -0.566  0.00  0.00    -0.070 Cl
ENDROOT
TORSDOF 0
ENDMDL
