MODEL 1
REMARK minimizedAffinity -4.74349785
REMARK minimizedRMSD -1
REMARK  0 active torsions:
REMARK  status: ('A' for Active; 'I' for Inactive)
ROOT
ATOM      1  C   UNL d   1      -1.524  -0.089   3.132  0.00  0.00     0.020 A 
ATOM      2  C1  UNL d   1      -2.467  -0.175   2.109  0.00  0.00     0.020 A 
ATOM      3  C2  UNL d   1      -2.058  -0.119   0.776  0.00  0.00     0.034 A 
ATOM      4  C3  UNL d   1      -0.701   0.022   0.461  0.00  0.00     0.017 A 
ATOM      5  C4  UNL d   1       0.245   0.107   1.488  0.00  0.00     0.017 A 
ATOM      6  C5  UNL d   1      -0.170   0.051   2.822  0.00  0.00     0.034 A 
ATOM      7 Cl   UNL d   1       1.937   0.282   1.178  0.00  0.00    -0.070 Cl
ATOM      8 Cl1  UNL d   1      -0.266   0.083  -1.210  0.00  0.00    -0.070 Cl
ENDROOT
TORSDOF 0
ENDMDL
