MODEL 1
REMARK minimizedAffinity -2.58201337
REMARK minimizedRMSD -1
REMARK  0 active torsions:
REMARK  status: ('A' for Active; 'I' for Inactive)
ROOT
ATOM      1  C   UNL d   1      -1.295  -0.394   2.601  0.00  0.00     0.020 A 
ATOM      2  C1  UNL d   1      -2.588   0.084   2.393  0.00  0.00     0.020 A 
ATOM      3  C2  UNL d   1      -2.953   0.589   1.143  0.00  0.00     0.034 A 
ATOM      4  C3  UNL d   1      -2.024   0.616   0.096  0.00  0.00     0.017 A 
ATOM      5  C4  UNL d   1      -0.727   0.136   0.306  0.00  0.00     0.017 A 
ATOM      6  C5  UNL d   1      -0.367  -0.369   1.560  0.00  0.00     0.034 A 
ATOM      7 Cl   UNL d   1       0.474   0.136  -0.936  0.00  0.00    -0.070 Cl
ATOM      8 Cl1  UNL d   1      -2.545   1.254  -1.423  0.00  0.00    -0.070 Cl
ENDROOT
TORSDOF 0
ENDMDL
