MODEL 1
REMARK minimizedAffinity -5.93967009
REMARK minimizedRMSD -1
REMARK  0 active torsions:
REMARK  status: ('A' for Active; 'I' for Inactive)
ROOT
ATOM      1  C   UNL d   1      -2.673  -0.041   1.823  0.00  0.00     0.020 A 
ATOM      2  C1  UNL d   1      -1.854  -0.200   2.940  0.00  0.00     0.020 A 
ATOM      3  C2  UNL d   1      -0.466  -0.235   2.789  0.00  0.00     0.034 A 
ATOM      4  C3  UNL d   1       0.107  -0.110   1.518  0.00  0.00     0.017 A 
ATOM      5  C4  UNL d   1      -0.716   0.050   0.397  0.00  0.00     0.017 A 
ATOM      6  C5  UNL d   1      -2.105   0.084   0.554  0.00  0.00     0.034 A 
ATOM      7 Cl   UNL d   1      -0.082   0.211  -1.203  0.00  0.00    -0.070 Cl
ATOM      8 Cl1  UNL d   1       1.831  -0.161   1.406  0.00  0.00    -0.070 Cl
ENDROOT
TORSDOF 0
ENDMDL
