MODEL 1
REMARK minimizedAffinity 21.5406971
REMARK minimizedRMSD -1
REMARK  0 active torsions:
REMARK  status: ('A' for Active; 'I' for Inactive)
ROOT
ATOM      1  O1  BZF d   1      -4.125   0.930  -4.459  0.00  0.00    -0.204 OA
ATOM      2  C2  BZF d   1      -5.497   1.091  -4.468  0.00  0.00     0.174 A 
ATOM      3  C3  BZF d   1      -5.829   2.378  -4.244  0.00  0.00    -0.012 A 
ATOM      4  C3A BZF d   1      -4.585   3.081  -4.176  0.00  0.00    -0.107 A 
ATOM      5  C4  BZF d   1      -4.257   4.394  -3.988  0.00  0.00     0.055 A 
ATOM      6  C5  BZF d   1      -2.946   4.741  -3.901  0.00  0.00    -0.016 A 
ATOM      7  C6  BZF d   1      -1.939   3.803  -3.992  0.00  0.00     0.022 A 
ATOM      8  C7  BZF d   1      -2.214   2.490  -4.184  0.00  0.00     0.029 A 
ATOM      9  C7A BZF d   1      -3.537   2.140  -4.305  0.00  0.00     0.058 A 
ENDROOT
TORSDOF 0
ENDMDL
