MODEL 1
REMARK minimizedAffinity 14.6223097
REMARK minimizedRMSD -1
REMARK  0 active torsions:
REMARK  status: ('A' for Active; 'I' for Inactive)
ROOT
ATOM      1  O1  BZF d   1      -5.213   4.956   1.601  0.00  0.00    -0.204 OA
ATOM      2  C2  BZF d   1      -4.464   6.000   1.095  0.00  0.00     0.174 A 
ATOM      3  C3  BZF d   1      -3.331   5.543   0.524  0.00  0.00    -0.012 A 
ATOM      4  C3A BZF d   1      -3.419   4.117   0.601  0.00  0.00    -0.107 A 
ATOM      5  C4  BZF d   1      -2.604   3.102   0.189  0.00  0.00     0.055 A 
ATOM      6  C5  BZF d   1      -2.945   1.820   0.483  0.00  0.00    -0.016 A 
ATOM      7  C6  BZF d   1      -4.090   1.517   1.190  0.00  0.00     0.022 A 
ATOM      8  C7  BZF d   1      -4.933   2.490   1.615  0.00  0.00     0.029 A 
ATOM      9  C7A BZF d   1      -4.608   3.784   1.292  0.00  0.00     0.058 A 
ENDROOT
TORSDOF 0
ENDMDL
