MODEL 1
REMARK minimizedAffinity 29.5695477
REMARK minimizedRMSD -1
REMARK  0 active torsions:
REMARK  status: ('A' for Active; 'I' for Inactive)
ROOT
ATOM      1  O1  BZF d   1       5.098  -5.632  -0.744  0.00  0.00    -0.204 OA
ATOM      2  C2  BZF d   1       6.000  -5.116   0.167  0.00  0.00     0.174 A 
ATOM      3  C3  BZF d   1       5.514  -3.995   0.738  0.00  0.00    -0.012 A 
ATOM      4  C3A BZF d   1       4.190  -3.850   0.216  0.00  0.00    -0.107 A 
ATOM      5  C4  BZF d   1       3.196  -2.936   0.419  0.00  0.00     0.055 A 
ATOM      6  C5  BZF d   1       2.048  -3.038  -0.302  0.00  0.00    -0.016 A 
ATOM      7  C6  BZF d   1       1.863  -4.036  -1.236  0.00  0.00     0.022 A 
ATOM      8  C7  BZF d   1       2.819  -4.969  -1.468  0.00  0.00     0.029 A 
ATOM      9  C7A BZF d   1       3.967  -4.888  -0.718  0.00  0.00     0.058 A 
ENDROOT
TORSDOF 0
ENDMDL
