MODEL 1
REMARK minimizedAffinity 9.66608429
REMARK minimizedRMSD -1
REMARK  0 active torsions:
REMARK  status: ('A' for Active; 'I' for Inactive)
ROOT
ATOM      1  O1  BZF d   1      -4.769  -5.449   4.575  0.00  0.00    -0.204 OA
ATOM      2  C2  BZF d   1      -5.998  -5.227   5.166  0.00  0.00     0.174 A 
ATOM      3  C3  BZF d   1      -5.996  -4.067   5.853  0.00  0.00    -0.012 A 
ATOM      4  C3A BZF d   1      -4.713  -3.484   5.604  0.00  0.00    -0.107 A 
ATOM      5  C4  BZF d   1      -4.118  -2.321   5.999  0.00  0.00     0.055 A 
ATOM      6  C5  BZF d   1      -2.828  -2.084   5.642  0.00  0.00    -0.016 A 
ATOM      7  C6  BZF d   1      -2.104  -2.990   4.896  0.00  0.00     0.022 A 
ATOM      8  C7  BZF d   1      -2.653  -4.156   4.476  0.00  0.00     0.029 A 
ATOM      9  C7A BZF d   1      -3.967  -4.383   4.808  0.00  0.00     0.058 A 
ENDROOT
TORSDOF 0
ENDMDL
