MODEL 1
REMARK minimizedAffinity -2.86355019
REMARK minimizedRMSD -1
REMARK  0 active torsions:
REMARK  status: ('A' for Active; 'I' for Inactive)
ROOT
ATOM      1  O1  BZF d   1      -5.002   2.978  -5.818  0.00  0.00    -0.204 OA
ATOM      2  C2  BZF d   1      -5.022   1.839  -5.037  0.00  0.00     0.174 A 
ATOM      3  C3  BZF d   1      -4.037   1.873  -4.116  0.00  0.00    -0.012 A 
ATOM      4  C3A BZF d   1      -3.417   3.152  -4.275  0.00  0.00    -0.107 A 
ATOM      5  C4  BZF d   1      -2.386   3.782  -3.638  0.00  0.00     0.055 A 
ATOM      6  C5  BZF d   1      -1.979   4.999  -4.085  0.00  0.00    -0.016 A 
ATOM      7  C6  BZF d   1      -2.575   5.613  -5.167  0.00  0.00     0.022 A 
ATOM      8  C7  BZF d   1      -3.605   5.030  -5.827  0.00  0.00     0.029 A 
ATOM      9  C7A BZF d   1      -4.040   3.814  -5.358  0.00  0.00     0.058 A 
ENDROOT
TORSDOF 0
ENDMDL
