MODEL 1
REMARK minimizedAffinity -0.487858683
REMARK minimizedRMSD -1
REMARK  0 active torsions:
REMARK  status: ('A' for Active; 'I' for Inactive)
ROOT
ATOM      1  O1  BZF d   1      -5.126   3.192  -5.900  0.00  0.00    -0.204 OA
ATOM      2  C2  BZF d   1      -4.973   2.015  -5.194  0.00  0.00     0.174 A 
ATOM      3  C3  BZF d   1      -3.907   2.086  -4.371  0.00  0.00    -0.012 A 
ATOM      4  C3A BZF d   1      -3.414   3.422  -4.508  0.00  0.00    -0.107 A 
ATOM      5  C4  BZF d   1      -2.380   4.105  -3.933  0.00  0.00     0.055 A 
ATOM      6  C5  BZF d   1      -2.123   5.376  -4.339  0.00  0.00    -0.016 A 
ATOM      7  C6  BZF d   1      -2.874   5.993  -5.318  0.00  0.00     0.022 A 
ATOM      8  C7  BZF d   1      -3.913   5.357  -5.913  0.00  0.00     0.029 A 
ATOM      9  C7A BZF d   1      -4.196   4.084  -5.482  0.00  0.00     0.058 A 
ENDROOT
TORSDOF 0
ENDMDL
