MODEL 1
REMARK minimizedAffinity 18.4386692
REMARK minimizedRMSD -1
REMARK  0 active torsions:
REMARK  status: ('A' for Active; 'I' for Inactive)
ROOT
ATOM      1  O1  BZF d   1      -3.352   4.854  -5.954  0.00  0.00    -0.204 OA
ATOM      2  C2  BZF d   1      -2.582   6.000  -5.999  0.00  0.00     0.174 A 
ATOM      3  C3  BZF d   1      -1.663   5.998  -5.013  0.00  0.00    -0.012 A 
ATOM      4  C3A BZF d   1      -1.810   4.731  -4.363  0.00  0.00    -0.107 A 
ATOM      5  C4  BZF d   1      -1.169   4.132  -3.317  0.00  0.00     0.055 A 
ATOM      6  C5  BZF d   1      -1.604   2.920  -2.883  0.00  0.00    -0.016 A 
ATOM      7  C6  BZF d   1      -2.678   2.282  -3.467  0.00  0.00     0.022 A 
ATOM      8  C7  BZF d   1      -3.343   2.835  -4.511  0.00  0.00     0.029 A 
ATOM      9  C7A BZF d   1      -2.886   4.044  -4.973  0.00  0.00     0.058 A 
ENDROOT
TORSDOF 0
ENDMDL
