MODEL 1
REMARK minimizedAffinity 7.99984407
REMARK minimizedRMSD -1
REMARK  0 active torsions:
REMARK  status: ('A' for Active; 'I' for Inactive)
ROOT
ATOM      1  O1  BZF d   1      -5.048  -4.492   4.271  0.00  0.00    -0.204 OA
ATOM      2  C2  BZF d   1      -5.994  -3.952   5.120  0.00  0.00     0.174 A 
ATOM      3  C3  BZF d   1      -5.430  -3.062   5.962  0.00  0.00    -0.012 A 
ATOM      4  C3A BZF d   1      -4.060  -2.977   5.557  0.00  0.00    -0.107 A 
ATOM      5  C4  BZF d   1      -2.994  -2.248   6.000  0.00  0.00     0.055 A 
ATOM      6  C5  BZF d   1      -1.775  -2.452   5.435  0.00  0.00    -0.016 A 
ATOM      7  C6  BZF d   1      -1.585  -3.378   4.431  0.00  0.00     0.022 A 
ATOM      8  C7  BZF d   1      -2.614  -4.121   3.955  0.00  0.00     0.029 A 
ATOM      9  C7A BZF d   1      -3.854  -3.894   4.500  0.00  0.00     0.058 A 
ENDROOT
TORSDOF 0
ENDMDL
