MODEL 1
REMARK minimizedAffinity 15.4081774
REMARK minimizedRMSD -1
REMARK  0 active torsions:
REMARK  status: ('A' for Active; 'I' for Inactive)
ROOT
ATOM      1  O1  BZF d   1      -2.634   2.627  -3.683  0.00  0.00    -0.204 OA
ATOM      2  C2  BZF d   1      -2.211   3.815  -4.247  0.00  0.00     0.174 A 
ATOM      3  C3  BZF d   1      -3.036   4.192  -5.245  0.00  0.00    -0.012 A 
ATOM      4  C3A BZF d   1      -4.089   3.223  -5.248  0.00  0.00    -0.107 A 
ATOM      5  C4  BZF d   1      -5.218   3.066  -6.000  0.00  0.00     0.055 A 
ATOM      6  C5  BZF d   1      -6.000   1.973  -5.797  0.00  0.00    -0.016 A 
ATOM      7  C6  BZF d   1      -5.680   1.016  -4.856  0.00  0.00     0.022 A 
ATOM      8  C7  BZF d   1      -4.574   1.131  -4.083  0.00  0.00     0.029 A 
ATOM      9  C7A BZF d   1      -3.799   2.252  -4.262  0.00  0.00     0.058 A 
ENDROOT
TORSDOF 0
ENDMDL
