MODEL 1
REMARK minimizedAffinity 2.07124376
REMARK minimizedRMSD -1
REMARK  0 active torsions:
REMARK  status: ('A' for Active; 'I' for Inactive)
ROOT
ATOM      1  O1  BZF d   1      -3.742   2.027  -4.532  0.00  0.00    -0.204 OA
ATOM      2  C2  BZF d   1      -4.851   1.864  -5.340  0.00  0.00     0.174 A 
ATOM      3  C3  BZF d   1      -5.134   3.006  -6.000  0.00  0.00    -0.012 A 
ATOM      4  C3A BZF d   1      -4.084   3.913  -5.649  0.00  0.00    -0.107 A 
ATOM      5  C4  BZF d   1      -3.801   5.202  -6.000  0.00  0.00     0.055 A 
ATOM      6  C5  BZF d   1      -2.739   5.825  -5.424  0.00  0.00    -0.016 A 
ATOM      7  C6  BZF d   1      -1.945   5.192  -4.490  0.00  0.00     0.022 A 
ATOM      8  C7  BZF d   1      -2.183   3.912  -4.114  0.00  0.00     0.029 A 
ATOM      9  C7A BZF d   1      -3.235   3.269  -4.720  0.00  0.00     0.058 A 
ENDROOT
TORSDOF 0
ENDMDL
