MODEL 1
REMARK minimizedAffinity 0.950632751
REMARK minimizedRMSD -1
REMARK  0 active torsions:
REMARK  status: ('A' for Active; 'I' for Inactive)
ROOT
ATOM      1  O1  BZF d   1      -0.326   2.024   0.603  0.00  0.00    -0.204 OA
ATOM      2  C2  BZF d   1       0.205   3.125   1.247  0.00  0.00     0.174 A 
ATOM      3  C3  BZF d   1       0.182   4.207   0.442  0.00  0.00    -0.012 A 
ATOM      4  C3A BZF d   1      -0.483   3.776  -0.749  0.00  0.00    -0.107 A 
ATOM      5  C4  BZF d   1      -0.824   4.403  -1.913  0.00  0.00     0.055 A 
ATOM      6  C5  BZF d   1      -1.403   3.680  -2.908  0.00  0.00    -0.016 A 
ATOM      7  C6  BZF d   1      -1.650   2.329  -2.775  0.00  0.00     0.022 A 
ATOM      8  C7  BZF d   1      -1.334   1.665  -1.636  0.00  0.00     0.029 A 
ATOM      9  C7A BZF d   1      -0.779   2.400  -0.617  0.00  0.00     0.058 A 
ENDROOT
TORSDOF 0
ENDMDL
