MODEL 1
REMARK minimizedAffinity 22.7566357
REMARK minimizedRMSD -1
REMARK  0 active torsions:
REMARK  status: ('A' for Active; 'I' for Inactive)
ROOT
ATOM      1  O1  BZF d   1       3.679  -2.626   0.371  0.00  0.00    -0.204 OA
ATOM      2  C2  BZF d   1       2.835  -1.669   0.900  0.00  0.00     0.174 A 
ATOM      3  C3  BZF d   1       1.597  -1.780   0.376  0.00  0.00    -0.012 A 
ATOM      4  C3A BZF d   1       1.648  -2.934  -0.469  0.00  0.00    -0.107 A 
ATOM      5  C4  BZF d   1       0.725  -3.566  -1.251  0.00  0.00     0.055 A 
ATOM      6  C5  BZF d   1       1.115  -4.625  -2.008  0.00  0.00    -0.016 A 
ATOM      7  C6  BZF d   1       2.419  -5.075  -2.011  0.00  0.00     0.022 A 
ATOM      8  C7  BZF d   1       3.370  -4.483  -1.247  0.00  0.00     0.029 A 
ATOM      9  C7A BZF d   1       2.971  -3.433  -0.456  0.00  0.00     0.058 A 
ENDROOT
TORSDOF 0
ENDMDL
