MODEL 1
REMARK minimizedAffinity 16.8892574
REMARK minimizedRMSD -1
REMARK  0 active torsions:
REMARK  status: ('A' for Active; 'I' for Inactive)
ROOT
ATOM      1  O1  BZF d   1      -2.098   1.153   3.618  0.00  0.00    -0.204 OA
ATOM      2  C2  BZF d   1      -2.987   1.305   2.571  0.00  0.00     0.174 A 
ATOM      3  C3  BZF d   1      -2.445   2.052   1.588  0.00  0.00    -0.012 A 
ATOM      4  C3A BZF d   1      -1.102   2.310   2.008  0.00  0.00    -0.107 A 
ATOM      5  C4  BZF d   1      -0.057   2.988   1.448  0.00  0.00     0.055 A 
ATOM      6  C5  BZF d   1       1.099   3.117   2.151  0.00  0.00    -0.016 A 
ATOM      7  C6  BZF d   1       1.243   2.586   3.416  0.00  0.00     0.022 A 
ATOM      8  C7  BZF d   1       0.236   1.901   4.011  0.00  0.00     0.029 A 
ATOM      9  C7A BZF d   1      -0.923   1.741   3.290  0.00  0.00     0.058 A 
ENDROOT
TORSDOF 0
ENDMDL
