MODEL 1
REMARK minimizedAffinity 26.0487537
REMARK minimizedRMSD -1
REMARK  0 active torsions:
REMARK  status: ('A' for Active; 'I' for Inactive)
ROOT
ATOM      1  O1  BZF d   1      -4.329   0.430  -4.566  0.00  0.00    -0.204 OA
ATOM      2  C2  BZF d   1      -5.680   0.659  -4.738  0.00  0.00     0.174 A 
ATOM      3  C3  BZF d   1      -5.993   1.934  -4.428  0.00  0.00    -0.012 A 
ATOM      4  C3A BZF d   1      -4.744   2.565  -4.125  0.00  0.00    -0.107 A 
ATOM      5  C4  BZF d   1      -4.398   3.834  -3.761  0.00  0.00     0.055 A 
ATOM      6  C5  BZF d   1      -3.099   4.106  -3.467  0.00  0.00    -0.016 A 
ATOM      7  C6  BZF d   1      -2.123   3.133  -3.522  0.00  0.00     0.022 A 
ATOM      8  C7  BZF d   1      -2.418   1.860  -3.883  0.00  0.00     0.029 A 
ATOM      9  C7A BZF d   1      -3.724   1.590  -4.212  0.00  0.00     0.058 A 
ENDROOT
TORSDOF 0
ENDMDL
