MODEL 1
REMARK minimizedAffinity 8.915905
REMARK minimizedRMSD -1
REMARK  0 active torsions:
REMARK  status: ('A' for Active; 'I' for Inactive)
ROOT
ATOM      1  O1  BZF d   1      -5.913  -3.533  -0.314  0.00  0.00    -0.204 OA
ATOM      2  C2  BZF d   1      -5.912  -2.152  -0.369  0.00  0.00     0.174 A 
ATOM      3  C3  BZF d   1      -5.988  -1.624   0.869  0.00  0.00    -0.012 A 
ATOM      4  C3A BZF d   1      -5.947  -2.743   1.759  0.00  0.00    -0.107 A 
ATOM      5  C4  BZF d   1      -5.971  -2.862   3.119  0.00  0.00     0.055 A 
ATOM      6  C5  BZF d   1      -5.991  -4.103   3.673  0.00  0.00    -0.016 A 
ATOM      7  C6  BZF d   1      -5.992  -5.244   2.899  0.00  0.00     0.022 A 
ATOM      8  C7  BZF d   1      -5.963  -5.177   1.545  0.00  0.00     0.029 A 
ATOM      9  C7A BZF d   1      -5.910  -3.924   0.983  0.00  0.00     0.058 A 
ENDROOT
TORSDOF 0
ENDMDL
