MODEL 1
REMARK minimizedAffinity -2.79429078
REMARK minimizedRMSD -1
REMARK  0 active torsions:
REMARK  status: ('A' for Active; 'I' for Inactive)
ROOT
ATOM      1  C1  BNZ d   1       6.000  -2.650   3.977  0.00  0.00     0.000 A 
ATOM      2  C2  BNZ d   1       5.966  -2.956   5.312  0.00  0.00     0.000 A 
ATOM      3  C3  BNZ d   1       5.582  -4.197   5.736  0.00  0.00     0.000 A 
ATOM      4  C4  BNZ d   1       5.193  -5.116   4.829  0.00  0.00     0.000 A 
ATOM      5  C5  BNZ d   1       5.212  -4.820   3.481  0.00  0.00     0.000 A 
ATOM      6  C6  BNZ d   1       5.637  -3.583   3.055  0.00  0.00     0.000 A 
ENDROOT
TORSDOF 0
ENDMDL
