MODEL 1
REMARK minimizedAffinity -3.3250401
REMARK minimizedRMSD -1
REMARK  0 active torsions:
REMARK  status: ('A' for Active; 'I' for Inactive)
ROOT
ATOM      1  C1  BNZ d   1       5.675  -2.326   4.377  0.00  0.00     0.000 A 
ATOM      2  C2  BNZ d   1       5.156  -3.520   4.800  0.00  0.00     0.000 A 
ATOM      3  C3  BNZ d   1       4.947  -4.544   3.919  0.00  0.00     0.000 A 
ATOM      4  C4  BNZ d   1       5.220  -4.359   2.611  0.00  0.00     0.000 A 
ATOM      5  C5  BNZ d   1       5.735  -3.158   2.168  0.00  0.00     0.000 A 
ATOM      6  C6  BNZ d   1       5.980  -2.143   3.064  0.00  0.00     0.000 A 
ENDROOT
TORSDOF 0
ENDMDL
