MODEL 1
REMARK minimizedAffinity -3.09379935
REMARK minimizedRMSD -1
REMARK  0 active torsions:
REMARK  status: ('A' for Active; 'I' for Inactive)
ROOT
ATOM      1  C1  BNZ d   1       5.945  -2.868   5.118  0.00  0.00     0.000 A 
ATOM      2  C2  BNZ d   1       5.999  -4.232   5.219  0.00  0.00     0.000 A 
ATOM      3  C3  BNZ d   1       5.774  -5.025   4.128  0.00  0.00     0.000 A 
ATOM      4  C4  BNZ d   1       5.457  -4.454   2.948  0.00  0.00     0.000 A 
ATOM      5  C5  BNZ d   1       5.390  -3.079   2.832  0.00  0.00     0.000 A 
ATOM      6  C6  BNZ d   1       5.655  -2.284   3.923  0.00  0.00     0.000 A 
ENDROOT
TORSDOF 0
ENDMDL
