MODEL 1
REMARK minimizedAffinity -3.09294176
REMARK minimizedRMSD -1
REMARK  0 active torsions:
REMARK  status: ('A' for Active; 'I' for Inactive)
ROOT
ATOM      1  C1  BNZ d   1       5.999  -4.148   2.706  0.00  0.00     0.000 A 
ATOM      2  C2  BNZ d   1       5.932  -2.845   3.122  0.00  0.00     0.000 A 
ATOM      3  C3  BNZ d   1       5.508  -2.533   4.383  0.00  0.00     0.000 A 
ATOM      4  C4  BNZ d   1       5.113  -3.520   5.213  0.00  0.00     0.000 A 
ATOM      5  C5  BNZ d   1       5.165  -4.838   4.805  0.00  0.00     0.000 A 
ATOM      6  C6  BNZ d   1       5.629  -5.151   3.548  0.00  0.00     0.000 A 
ENDROOT
TORSDOF 0
ENDMDL
