MODEL 1
REMARK minimizedAffinity -2.31534147
REMARK minimizedRMSD -1
REMARK  0 active torsions:
REMARK  status: ('A' for Active; 'I' for Inactive)
ROOT
ATOM      1  C1  BNZ d   1       5.649  -5.061   4.666  0.00  0.00     0.000 A 
ATOM      2  C2  BNZ d   1       5.947  -4.471   3.466  0.00  0.00     0.000 A 
ATOM      3  C3  BNZ d   1       5.756  -3.131   3.278  0.00  0.00     0.000 A 
ATOM      4  C4  BNZ d   1       5.229  -2.390   4.275  0.00  0.00     0.000 A 
ATOM      5  C5  BNZ d   1       4.914  -2.972   5.487  0.00  0.00     0.000 A 
ATOM      6  C6  BNZ d   1       5.145  -4.314   5.685  0.00  0.00     0.000 A 
ENDROOT
TORSDOF 0
ENDMDL
