MODEL 1
REMARK minimizedAffinity -2.99755263
REMARK minimizedRMSD -1
REMARK  0 active torsions:
REMARK  status: ('A' for Active; 'I' for Inactive)
ROOT
ATOM      1  C1  BNZ d   1       6.000  -2.065   4.102  0.00  0.00     0.000 A 
ATOM      2  C2  BNZ d   1       5.765  -3.275   4.698  0.00  0.00     0.000 A 
ATOM      3  C3  BNZ d   1       5.536  -4.393   3.946  0.00  0.00     0.000 A 
ATOM      4  C4  BNZ d   1       5.502  -4.292   2.602  0.00  0.00     0.000 A 
ATOM      5  C5  BNZ d   1       5.727  -3.078   1.986  0.00  0.00     0.000 A 
ATOM      6  C6  BNZ d   1       5.997  -1.962   2.745  0.00  0.00     0.000 A 
ENDROOT
TORSDOF 0
ENDMDL
