MODEL 1
REMARK minimizedAffinity -1.02656734
REMARK minimizedRMSD -1
REMARK  0 active torsions:
REMARK  status: ('A' for Active; 'I' for Inactive)
ROOT
ATOM      1  C1  BNZ d   1       6.000  -4.551   4.326  0.00  0.00     0.000 A 
ATOM      2  C2  BNZ d   1       5.999  -5.264   5.495  0.00  0.00     0.000 A 
ATOM      3  C3  BNZ d   1       4.843  -5.807   5.983  0.00  0.00     0.000 A 
ATOM      4  C4  BNZ d   1       3.685  -5.602   5.324  0.00  0.00     0.000 A 
ATOM      5  C5  BNZ d   1       3.667  -4.878   4.149  0.00  0.00     0.000 A 
ATOM      6  C6  BNZ d   1       4.839  -4.366   3.640  0.00  0.00     0.000 A 
ENDROOT
TORSDOF 0
ENDMDL
