MODEL 1
REMARK minimizedAffinity -2.80707049
REMARK minimizedRMSD -1
REMARK  0 active torsions:
REMARK  status: ('A' for Active; 'I' for Inactive)
ROOT
ATOM      1  C1  BNZ d   1       4.972  -2.482   4.948  0.00  0.00     0.000 A 
ATOM      2  C2  BNZ d   1       4.256  -3.106   5.935  0.00  0.00     0.000 A 
ATOM      3  C3  BNZ d   1       4.182  -4.469   5.992  0.00  0.00     0.000 A 
ATOM      4  C4  BNZ d   1       4.790  -5.206   5.040  0.00  0.00     0.000 A 
ATOM      5  C5  BNZ d   1       5.508  -4.592   4.033  0.00  0.00     0.000 A 
ATOM      6  C6  BNZ d   1       5.613  -3.221   4.002  0.00  0.00     0.000 A 
ENDROOT
TORSDOF 0
ENDMDL
