MODEL 1
REMARK minimizedAffinity -2.70272565
REMARK minimizedRMSD -1
REMARK  0 active torsions:
REMARK  status: ('A' for Active; 'I' for Inactive)
ROOT
ATOM      1  C1  BNZ d   1       5.632  -2.677   4.854  0.00  0.00     0.000 A 
ATOM      2  C2  BNZ d   1       5.996  -3.373   3.733  0.00  0.00     0.000 A 
ATOM      3  C3  BNZ d   1       5.988  -4.740   3.724  0.00  0.00     0.000 A 
ATOM      4  C4  BNZ d   1       5.655  -5.408   4.847  0.00  0.00     0.000 A 
ATOM      5  C5  BNZ d   1       5.295  -4.721   5.988  0.00  0.00     0.000 A 
ATOM      6  C6  BNZ d   1       5.267  -3.345   5.982  0.00  0.00     0.000 A 
ENDROOT
TORSDOF 0
ENDMDL
