MODEL 1
REMARK minimizedAffinity -3.14775753
REMARK minimizedRMSD -1
REMARK  0 active torsions:
REMARK  status: ('A' for Active; 'I' for Inactive)
ROOT
ATOM      1  C1  BNZ d   1       5.312  -4.694   3.112  0.00  0.00     0.000 A 
ATOM      2  C2  BNZ d   1       5.304  -3.337   3.295  0.00  0.00     0.000 A 
ATOM      3  C3  BNZ d   1       5.162  -2.800   4.544  0.00  0.00     0.000 A 
ATOM      4  C4  BNZ d   1       4.987  -3.618   5.602  0.00  0.00     0.000 A 
ATOM      5  C5  BNZ d   1       4.983  -4.988   5.432  0.00  0.00     0.000 A 
ATOM      6  C6  BNZ d   1       5.166  -5.526   4.179  0.00  0.00     0.000 A 
ENDROOT
TORSDOF 0
ENDMDL
