MODEL 1
REMARK minimizedAffinity -2.95480108
REMARK minimizedRMSD -1
REMARK  0 active torsions:
REMARK  status: ('A' for Active; 'I' for Inactive)
ROOT
ATOM      1  C1  BNZ d   1       5.619  -2.209   4.880  0.00  0.00     0.000 A 
ATOM      2  C2  BNZ d   1       6.000  -1.806   3.628  0.00  0.00     0.000 A 
ATOM      3  C3  BNZ d   1       5.958  -2.672   2.571  0.00  0.00     0.000 A 
ATOM      4  C4  BNZ d   1       5.575  -3.949   2.775  0.00  0.00     0.000 A 
ATOM      5  C5  BNZ d   1       5.197  -4.373   4.034  0.00  0.00     0.000 A 
ATOM      6  C6  BNZ d   1       5.203  -3.488   5.088  0.00  0.00     0.000 A 
ENDROOT
TORSDOF 0
ENDMDL
