MODEL 1
REMARK minimizedAffinity -2.93518758
REMARK minimizedRMSD -1
REMARK  0 active torsions:
REMARK  status: ('A' for Active; 'I' for Inactive)
ROOT
ATOM      1  C1  BNZ d   1       5.876  -4.094   3.056  0.00  0.00     0.000 A 
ATOM      2  C2  BNZ d   1       5.867  -2.762   3.372  0.00  0.00     0.000 A 
ATOM      3  C3  BNZ d   1       5.462  -2.338   4.607  0.00  0.00     0.000 A 
ATOM      4  C4  BNZ d   1       5.031  -3.242   5.510  0.00  0.00     0.000 A 
ATOM      5  C5  BNZ d   1       5.026  -4.588   5.204  0.00  0.00     0.000 A 
ATOM      6  C6  BNZ d   1       5.470  -5.014   3.973  0.00  0.00     0.000 A 
ENDROOT
TORSDOF 0
ENDMDL
