MODEL 1
REMARK minimizedAffinity -3.13935447
REMARK minimizedRMSD -1
REMARK  0 active torsions:
REMARK  status: ('A' for Active; 'I' for Inactive)
ROOT
ATOM      1  C1  BNZ d   1       5.202  -2.233   4.242  0.00  0.00     0.000 A 
ATOM      2  C2  BNZ d   1       4.998  -3.447   4.843  0.00  0.00     0.000 A 
ATOM      3  C3  BNZ d   1       5.274  -4.611   4.181  0.00  0.00     0.000 A 
ATOM      4  C4  BNZ d   1       5.714  -4.561   2.907  0.00  0.00     0.000 A 
ATOM      5  C5  BNZ d   1       5.916  -3.345   2.285  0.00  0.00     0.000 A 
ATOM      6  C6  BNZ d   1       5.674  -2.175   2.967  0.00  0.00     0.000 A 
ENDROOT
TORSDOF 0
ENDMDL
