MODEL 1
REMARK minimizedAffinity -2.67345309
REMARK minimizedRMSD -1
REMARK  0 active torsions:
REMARK  status: ('A' for Active; 'I' for Inactive)
ROOT
ATOM      1  C1  BNZ d   1       4.515  -3.340   5.992  0.00  0.00     0.000 A 
ATOM      2  C2  BNZ d   1       4.521  -4.709   6.000  0.00  0.00     0.000 A 
ATOM      3  C3  BNZ d   1       5.280  -5.411   5.106  0.00  0.00     0.000 A 
ATOM      4  C4  BNZ d   1       6.000  -4.745   4.180  0.00  0.00     0.000 A 
ATOM      5  C5  BNZ d   1       5.997  -3.365   4.153  0.00  0.00     0.000 A 
ATOM      6  C6  BNZ d   1       5.262  -2.661   5.079  0.00  0.00     0.000 A 
ENDROOT
TORSDOF 0
ENDMDL
