MODEL 1
REMARK minimizedAffinity -3.10519886
REMARK minimizedRMSD -1
REMARK  0 active torsions:
REMARK  status: ('A' for Active; 'I' for Inactive)
ROOT
ATOM      1  C1  BNZ d   1       5.625  -4.608   2.636  0.00  0.00     0.000 A 
ATOM      2  C2  BNZ d   1       5.561  -4.443   3.994  0.00  0.00     0.000 A 
ATOM      3  C3  BNZ d   1       5.430  -3.198   4.542  0.00  0.00     0.000 A 
ATOM      4  C4  BNZ d   1       5.402  -2.118   3.735  0.00  0.00     0.000 A 
ATOM      5  C5  BNZ d   1       5.474  -2.267   2.364  0.00  0.00     0.000 A 
ATOM      6  C6  BNZ d   1       5.568  -3.525   1.814  0.00  0.00     0.000 A 
ENDROOT
TORSDOF 0
ENDMDL
