MODEL 1
REMARK minimizedAffinity -3.10932016
REMARK minimizedRMSD -1
REMARK  0 active torsions:
REMARK  status: ('A' for Active; 'I' for Inactive)
ROOT
ATOM      1  C1  BNZ d   1       5.135  -2.919   4.867  0.00  0.00     0.000 A 
ATOM      2  C2  BNZ d   1       3.769  -3.022   4.864  0.00  0.00     0.000 A 
ATOM      3  C3  BNZ d   1       3.146  -4.089   5.448  0.00  0.00     0.000 A 
ATOM      4  C4  BNZ d   1       3.889  -5.071   5.997  0.00  0.00     0.000 A 
ATOM      5  C5  BNZ d   1       5.268  -4.987   6.000  0.00  0.00     0.000 A 
ATOM      6  C6  BNZ d   1       5.890  -3.892   5.446  0.00  0.00     0.000 A 
ENDROOT
TORSDOF 0
ENDMDL
