MODEL 1
REMARK minimizedAffinity -2.84370613
REMARK minimizedRMSD -1
REMARK  0 active torsions:
REMARK  status: ('A' for Active; 'I' for Inactive)
ROOT
ATOM      1  C1  BNZ d   1      -4.087   1.061  -3.512  0.00  0.00     0.000 A 
ATOM      2  C2  BNZ d   1      -5.126   1.946  -3.394  0.00  0.00     0.000 A 
ATOM      3  C3  BNZ d   1      -4.894   3.289  -3.299  0.00  0.00     0.000 A 
ATOM      4  C4  BNZ d   1      -3.624   3.743  -3.280  0.00  0.00     0.000 A 
ATOM      5  C5  BNZ d   1      -2.566   2.863  -3.388  0.00  0.00     0.000 A 
ATOM      6  C6  BNZ d   1      -2.804   1.515  -3.523  0.00  0.00     0.000 A 
ENDROOT
TORSDOF 0
ENDMDL
