MODEL 1
REMARK minimizedAffinity 1.34203529
REMARK minimizedRMSD -1
REMARK  0 active torsions:
REMARK  status: ('A' for Active; 'I' for Inactive)
ROOT
ATOM      1  C1  BNZ d   1       5.520  -2.147  -6.000  0.00  0.00     0.000 A 
ATOM      2  C2  BNZ d   1       4.741  -1.513  -5.069  0.00  0.00     0.000 A 
ATOM      3  C3  BNZ d   1       4.057  -2.226  -4.125  0.00  0.00     0.000 A 
ATOM      4  C4  BNZ d   1       4.122  -3.574  -4.138  0.00  0.00     0.000 A 
ATOM      5  C5  BNZ d   1       4.896  -4.228  -5.075  0.00  0.00     0.000 A 
ATOM      6  C6  BNZ d   1       5.613  -3.504  -6.000  0.00  0.00     0.000 A 
ENDROOT
TORSDOF 0
ENDMDL
