MODEL 1
REMARK minimizedAffinity 2.46039701
REMARK minimizedRMSD -1
REMARK  0 active torsions:
REMARK  status: ('A' for Active; 'I' for Inactive)
ROOT
ATOM      1  C1  BNZ d   1       5.023  -3.268  -5.251  0.00  0.00     0.000 A 
ATOM      2  C2  BNZ d   1       4.108  -3.992  -4.534  0.00  0.00     0.000 A 
ATOM      3  C3  BNZ d   1       4.147  -5.358  -4.526  0.00  0.00     0.000 A 
ATOM      4  C4  BNZ d   1       5.075  -5.999  -5.265  0.00  0.00     0.000 A 
ATOM      5  C5  BNZ d   1       6.000  -5.284  -6.000  0.00  0.00     0.000 A 
ATOM      6  C6  BNZ d   1       5.981  -3.909  -5.975  0.00  0.00     0.000 A 
ENDROOT
TORSDOF 0
ENDMDL
