MODEL 1
REMARK minimizedAffinity 3.13602471
REMARK minimizedRMSD -1
REMARK  0 active torsions:
REMARK  status: ('A' for Active; 'I' for Inactive)
ROOT
ATOM      1  C1  BNZ d   1       4.879  -5.626  -5.257  0.00  0.00     0.000 A 
ATOM      2  C2  BNZ d   1       5.064  -4.311  -5.591  0.00  0.00     0.000 A 
ATOM      3  C3  BNZ d   1       4.166  -3.357  -5.202  0.00  0.00     0.000 A 
ATOM      4  C4  BNZ d   1       3.065  -3.724  -4.515  0.00  0.00     0.000 A 
ATOM      5  C5  BNZ d   1       2.859  -5.047  -4.179  0.00  0.00     0.000 A 
ATOM      6  C6  BNZ d   1       3.785  -5.999  -4.538  0.00  0.00     0.000 A 
ENDROOT
TORSDOF 0
ENDMDL
