MODEL 1
REMARK minimizedAffinity 5.93011665
REMARK minimizedRMSD -1
REMARK  0 active torsions:
REMARK  status: ('A' for Active; 'I' for Inactive)
ROOT
ATOM      1  C1  BNZ d   1      -3.101   2.273  -1.383  0.00  0.00     0.000 A 
ATOM      2  C2  BNZ d   1      -3.364   1.590  -2.541  0.00  0.00     0.000 A 
ATOM      3  C3  BNZ d   1      -2.413   0.795  -3.117  0.00  0.00     0.000 A 
ATOM      4  C4  BNZ d   1      -1.189   0.715  -2.557  0.00  0.00     0.000 A 
ATOM      5  C5  BNZ d   1      -0.905   1.404  -1.395  0.00  0.00     0.000 A 
ATOM      6  C6  BNZ d   1      -1.877   2.173  -0.797  0.00  0.00     0.000 A 
ENDROOT
TORSDOF 0
ENDMDL
