MODEL 1
REMARK minimizedAffinity 0.489312619
REMARK minimizedRMSD -1
REMARK  0 active torsions:
REMARK  status: ('A' for Active; 'I' for Inactive)
ROOT
ATOM      1  C1  BNZ d   1       5.910  -3.903  -5.999  0.00  0.00     0.000 A 
ATOM      2  C2  BNZ d   1       5.999  -5.267  -5.919  0.00  0.00     0.000 A 
ATOM      3  C3  BNZ d   1       5.004  -6.000  -5.334  0.00  0.00     0.000 A 
ATOM      4  C4  BNZ d   1       3.943  -5.366  -4.796  0.00  0.00     0.000 A 
ATOM      5  C5  BNZ d   1       3.843  -3.990  -4.861  0.00  0.00     0.000 A 
ATOM      6  C6  BNZ d   1       4.827  -3.259  -5.485  0.00  0.00     0.000 A 
ENDROOT
TORSDOF 0
ENDMDL
