MODEL 1
REMARK minimizedAffinity 4.13585186
REMARK minimizedRMSD -1
REMARK  0 active torsions:
REMARK  status: ('A' for Active; 'I' for Inactive)
ROOT
ATOM      1  C1  BNZ d   1       4.284  -4.908   0.687  0.00  0.00     0.000 A 
ATOM      2  C2  BNZ d   1       3.360  -4.048   1.219  0.00  0.00     0.000 A 
ATOM      3  C3  BNZ d   1       3.711  -3.159   2.196  0.00  0.00     0.000 A 
ATOM      4  C4  BNZ d   1       4.974  -3.159   2.668  0.00  0.00     0.000 A 
ATOM      5  C5  BNZ d   1       5.915  -4.025   2.150  0.00  0.00     0.000 A 
ATOM      6  C6  BNZ d   1       5.567  -4.892   1.139  0.00  0.00     0.000 A 
ENDROOT
TORSDOF 0
ENDMDL
