MODEL 1
REMARK minimizedAffinity 5.12581778
REMARK minimizedRMSD -1
REMARK  0 active torsions:
REMARK  status: ('A' for Active; 'I' for Inactive)
ROOT
ATOM      1  C1  BNZ d   1       4.267  -2.729   1.887  0.00  0.00     0.000 A 
ATOM      2  C2  BNZ d   1       5.520  -3.269   1.775  0.00  0.00     0.000 A 
ATOM      3  C3  BNZ d   1       5.705  -4.623   1.814  0.00  0.00     0.000 A 
ATOM      4  C4  BNZ d   1       4.642  -5.432   2.005  0.00  0.00     0.000 A 
ATOM      5  C5  BNZ d   1       3.373  -4.901   2.129  0.00  0.00     0.000 A 
ATOM      6  C6  BNZ d   1       3.187  -3.540   2.050  0.00  0.00     0.000 A 
ENDROOT
TORSDOF 0
ENDMDL
