MODEL 1
REMARK minimizedAffinity 5.03411627
REMARK minimizedRMSD -1
REMARK  0 active torsions:
REMARK  status: ('A' for Active; 'I' for Inactive)
ROOT
ATOM      1  C1  BNZ d   1       4.080  -3.856  -4.583  0.00  0.00     0.000 A 
ATOM      2  C2  BNZ d   1       4.083  -5.214  -4.405  0.00  0.00     0.000 A 
ATOM      3  C3  BNZ d   1       5.053  -5.992  -4.973  0.00  0.00     0.000 A 
ATOM      4  C4  BNZ d   1       5.994  -5.417  -5.749  0.00  0.00     0.000 A 
ATOM      5  C5  BNZ d   1       5.999  -4.051  -5.946  0.00  0.00     0.000 A 
ATOM      6  C6  BNZ d   1       5.044  -3.266  -5.341  0.00  0.00     0.000 A 
ENDROOT
TORSDOF 0
ENDMDL
