MODEL 1
REMARK minimizedAffinity -1.49053133
REMARK minimizedRMSD -1
REMARK  0 active torsions:
REMARK  status: ('A' for Active; 'I' for Inactive)
ROOT
ATOM      1  C1  BNZ d   1       6.000  -2.486  -3.627  0.00  0.00     0.000 A 
ATOM      2  C2  BNZ d   1       5.936  -3.171  -4.811  0.00  0.00     0.000 A 
ATOM      3  C3  BNZ d   1       5.825  -2.504  -6.000  0.00  0.00     0.000 A 
ATOM      4  C4  BNZ d   1       5.738  -1.159  -6.000  0.00  0.00     0.000 A 
ATOM      5  C5  BNZ d   1       5.792  -0.455  -4.813  0.00  0.00     0.000 A 
ATOM      6  C6  BNZ d   1       5.942  -1.127  -3.622  0.00  0.00     0.000 A 
ENDROOT
TORSDOF 0
ENDMDL
