MODEL 1
REMARK minimizedAffinity 3.51285791
REMARK minimizedRMSD -1
REMARK  0 active torsions:
REMARK  status: ('A' for Active; 'I' for Inactive)
ROOT
ATOM      1  C   UNL d   1       5.712  -5.972  -4.981  0.00  0.00     0.078 C 
ATOM      2  C1  UNL d   1       5.030  -5.974  -3.646  0.00  0.00    -0.077 A 
ATOM      3  C2  UNL d   1       5.770  -5.973  -2.457  0.00  0.00    -0.001 A 
ATOM      4  C3  UNL d   1       5.122  -5.985  -1.221  0.00  0.00     0.003 A 
ATOM      5  C4  UNL d   1       3.730  -5.997  -1.161  0.00  0.00    -0.005 A 
ATOM      6  C5  UNL d   1       2.984  -6.000  -2.338  0.00  0.00     0.003 A 
ATOM      7  C6  UNL d   1       3.631  -5.989  -3.575  0.00  0.00    -0.001 A 
ENDROOT
TORSDOF 0
ENDMDL
