MODEL 1
REMARK minimizedAffinity 0.802296162
REMARK minimizedRMSD -1
REMARK  0 active torsions:
REMARK  status: ('A' for Active; 'I' for Inactive)
ROOT
ATOM      1  C   UNL d   1       3.026  -2.423  -5.049  0.00  0.00     0.078 C 
ATOM      2  C1  UNL d   1       3.829  -3.643  -5.389  0.00  0.00    -0.077 A 
ATOM      3  C2  UNL d   1       3.204  -4.869  -5.647  0.00  0.00    -0.001 A 
ATOM      4  C3  UNL d   1       3.964  -5.999  -5.951  0.00  0.00     0.003 A 
ATOM      5  C4  UNL d   1       5.354  -5.915  -6.000  0.00  0.00    -0.005 A 
ATOM      6  C5  UNL d   1       5.985  -4.699  -5.742  0.00  0.00     0.003 A 
ATOM      7  C6  UNL d   1       5.226  -3.568  -5.437  0.00  0.00    -0.001 A 
ENDROOT
TORSDOF 0
ENDMDL
