MODEL 1
REMARK minimizedAffinity -4.78369522
REMARK minimizedRMSD -1
REMARK  0 active torsions:
REMARK  status: ('A' for Active; 'I' for Inactive)
ROOT
ATOM      1  C1  BNZ d   1      -0.754   0.079   1.880  0.00  0.00     0.000 A 
ATOM      2  C2  BNZ d   1      -0.233   0.024   0.615  0.00  0.00     0.000 A 
ATOM      3  C3  BNZ d   1      -0.426   1.051  -0.266  0.00  0.00     0.000 A 
ATOM      4  C4  BNZ d   1      -1.171   2.112   0.104  0.00  0.00     0.000 A 
ATOM      5  C5  BNZ d   1      -1.711   2.178   1.373  0.00  0.00     0.000 A 
ATOM      6  C6  BNZ d   1      -1.483   1.160   2.271  0.00  0.00     0.000 A 
ENDROOT
TORSDOF 0
ENDMDL
