MODEL 1
REMARK minimizedAffinity -4.33751154
REMARK minimizedRMSD -1
REMARK  0 active torsions:
REMARK  status: ('A' for Active; 'I' for Inactive)
ROOT
ATOM      1  C1  BNZ d   1      -1.042   1.601   0.056  0.00  0.00     0.000 A 
ATOM      2  C2  BNZ d   1       0.054   1.313  -0.713  0.00  0.00     0.000 A 
ATOM      3  C3  BNZ d   1       0.827   0.218  -0.446  0.00  0.00     0.000 A 
ATOM      4  C4  BNZ d   1       0.529  -0.563   0.613  0.00  0.00     0.000 A 
ATOM      5  C5  BNZ d   1      -0.567  -0.280   1.403  0.00  0.00     0.000 A 
ATOM      6  C6  BNZ d   1      -1.367   0.801   1.108  0.00  0.00     0.000 A 
ENDROOT
TORSDOF 0
ENDMDL
