MODEL 1
REMARK minimizedAffinity -3.35228062
REMARK minimizedRMSD -1
REMARK  0 active torsions:
REMARK  status: ('A' for Active; 'I' for Inactive)
ROOT
ATOM      1  C1  BNZ d   1       0.764  -0.247  -0.051  0.00  0.00     0.000 A 
ATOM      2  C2  BNZ d   1       1.235   0.507  -1.092  0.00  0.00     0.000 A 
ATOM      3  C3  BNZ d   1       0.550   1.607  -1.526  0.00  0.00     0.000 A 
ATOM      4  C4  BNZ d   1      -0.624   1.929  -0.946  0.00  0.00     0.000 A 
ATOM      5  C5  BNZ d   1      -1.118   1.173   0.099  0.00  0.00     0.000 A 
ATOM      6  C6  BNZ d   1      -0.406   0.089   0.559  0.00  0.00     0.000 A 
ENDROOT
TORSDOF 0
ENDMDL
