MODEL 1
REMARK minimizedAffinity -4.23855448
REMARK minimizedRMSD -1
REMARK  0 active torsions:
REMARK  status: ('A' for Active; 'I' for Inactive)
ROOT
ATOM      1  C1  BNZ d   1      -1.558   1.487  -0.000  0.00  0.00     0.000 A 
ATOM      2  C2  BNZ d   1      -0.575   0.685  -0.515  0.00  0.00     0.000 A 
ATOM      3  C3  BNZ d   1       0.093  -0.203   0.282  0.00  0.00     0.000 A 
ATOM      4  C4  BNZ d   1      -0.195  -0.259   1.598  0.00  0.00     0.000 A 
ATOM      5  C5  BNZ d   1      -1.178   0.550   2.134  0.00  0.00     0.000 A 
ATOM      6  C6  BNZ d   1      -1.874   1.415   1.322  0.00  0.00     0.000 A 
ENDROOT
TORSDOF 0
ENDMDL
