MODEL 1
REMARK minimizedAffinity -3.77878666
REMARK minimizedRMSD -1
REMARK  0 active torsions:
REMARK  status: ('A' for Active; 'I' for Inactive)
ROOT
ATOM      1  C1  BNZ d   1      -0.090  -0.400   0.766  0.00  0.00     0.000 A 
ATOM      2  C2  BNZ d   1       0.898  -0.320  -0.178  0.00  0.00     0.000 A 
ATOM      3  C3  BNZ d   1       0.892   0.674  -1.116  0.00  0.00     0.000 A 
ATOM      4  C4  BNZ d   1      -0.123   1.562  -1.134  0.00  0.00     0.000 A 
ATOM      5  C5  BNZ d   1      -1.132   1.490  -0.195  0.00  0.00     0.000 A 
ATOM      6  C6  BNZ d   1      -1.102   0.511   0.772  0.00  0.00     0.000 A 
ENDROOT
TORSDOF 0
ENDMDL
