MODEL 1
REMARK minimizedAffinity -4.23377657
REMARK minimizedRMSD -1
REMARK  0 active torsions:
REMARK  status: ('A' for Active; 'I' for Inactive)
ROOT
ATOM      1  C1  BNZ d   1      -1.635   1.719   1.231  0.00  0.00     0.000 A 
ATOM      2  C2  BNZ d   1      -0.790   1.646   0.155  0.00  0.00     0.000 A 
ATOM      3  C3  BNZ d   1      -0.070   0.512  -0.094  0.00  0.00     0.000 A 
ATOM      4  C4  BNZ d   1      -0.164  -0.533   0.753  0.00  0.00     0.000 A 
ATOM      5  C5  BNZ d   1      -1.004  -0.472   1.847  0.00  0.00     0.000 A 
ATOM      6  C6  BNZ d   1      -1.757   0.657   2.073  0.00  0.00     0.000 A 
ENDROOT
TORSDOF 0
ENDMDL
