MODEL 1
REMARK minimizedAffinity -3.28294516
REMARK minimizedRMSD -1
REMARK  0 active torsions:
REMARK  status: ('A' for Active; 'I' for Inactive)
ROOT
ATOM      1  C1  BNZ d   1       0.124  -0.882   1.590  0.00  0.00     0.000 A 
ATOM      2  C2  BNZ d   1      -0.643   0.252   1.637  0.00  0.00     0.000 A 
ATOM      3  C3  BNZ d   1      -0.768   1.059   0.541  0.00  0.00     0.000 A 
ATOM      4  C4  BNZ d   1      -0.096   0.752  -0.588  0.00  0.00     0.000 A 
ATOM      5  C5  BNZ d   1       0.688  -0.382  -0.648  0.00  0.00     0.000 A 
ATOM      6  C6  BNZ d   1       0.781  -1.212   0.445  0.00  0.00     0.000 A 
ENDROOT
TORSDOF 0
ENDMDL
