MODEL 1
REMARK minimizedAffinity 7.37889957
REMARK minimizedRMSD -1
REMARK  1 active torsions:
REMARK  status: ('A' for Active; 'I' for Inactive)
REMARK    1  A    between atoms: N_2  and  C1_3 
ROOT
ATOM      1  C1  UNL d   1      -0.480   3.968   1.323  0.00  0.00     0.143 A 
ATOM      2  C2  UNL d   1      -0.075   5.013   0.486  0.00  0.00    -0.057 A 
ATOM      3  C3  UNL d   1      -0.977   5.999   0.068  0.00  0.00     0.033 A 
ATOM      4  C4  UNL d   1      -2.311   5.941   0.457  0.00  0.00    -0.042 A 
ATOM      5  C5  UNL d   1      -2.741   4.898   1.269  0.00  0.00     0.033 A 
ATOM      6  C6  UNL d   1      -1.835   3.919   1.689  0.00  0.00    -0.057 A 
ENDROOT
BRANCH   1   7
ATOM      7  N   UNL d   1       0.345   2.903   1.693  0.00  0.00    -0.732 N 
ATOM      8  C   UNL d   1       0.647   1.844   0.754  0.00  0.00     0.284 C 
ATOM      9  H3  UNL d   1       1.141   3.204   2.250  0.00  0.00     0.395 HD
ENDBRANCH   1   7
TORSDOF 1
ENDMDL
