MODEL 1
REMARK minimizedAffinity 8.06944561
REMARK minimizedRMSD -1
REMARK  1 active torsions:
REMARK  status: ('A' for Active; 'I' for Inactive)
REMARK    1  A    between atoms: N_2  and  C1_3 
ROOT
ATOM      1  C1  UNL d   1      -5.604  -3.151  -4.850  0.00  0.00     0.143 A 
ATOM      2  C2  UNL d   1      -5.319  -3.872  -3.686  0.00  0.00    -0.057 A 
ATOM      3  C3  UNL d   1      -5.342  -5.272  -3.675  0.00  0.00     0.033 A 
ATOM      4  C4  UNL d   1      -5.679  -5.977  -4.826  0.00  0.00    -0.042 A 
ATOM      5  C5  UNL d   1      -5.990  -5.280  -5.988  0.00  0.00     0.033 A 
ATOM      6  C6  UNL d   1      -5.959  -3.882  -5.994  0.00  0.00    -0.057 A 
ENDROOT
BRANCH   1   7
ATOM      7  N   UNL d   1      -5.694  -1.757  -4.899  0.00  0.00    -0.732 N 
ATOM      8  C   UNL d   1      -4.616  -0.931  -4.401  0.00  0.00     0.284 C 
ATOM      9  H3  UNL d   1      -6.105  -1.425  -5.768  0.00  0.00     0.395 HD
ENDBRANCH   1   7
TORSDOF 1
ENDMDL
