MODEL 1
REMARK minimizedAffinity 5.39783955
REMARK minimizedRMSD -1
REMARK  1 active torsions:
REMARK  status: ('A' for Active; 'I' for Inactive)
REMARK    1  A    between atoms: N_2  and  C1_3 
ROOT
ATOM      1  C1  UNL d   1      -3.663   2.168  -3.123  0.00  0.00     0.143 A 
ATOM      2  C2  UNL d   1      -4.195   3.109  -2.235  0.00  0.00    -0.057 A 
ATOM      3  C3  UNL d   1      -4.539   4.397  -2.662  0.00  0.00     0.033 A 
ATOM      4  C4  UNL d   1      -4.327   4.778  -3.983  0.00  0.00    -0.042 A 
ATOM      5  C5  UNL d   1      -3.776   3.867  -4.877  0.00  0.00     0.033 A 
ATOM      6  C6  UNL d   1      -3.442   2.580  -4.446  0.00  0.00    -0.057 A 
ENDROOT
BRANCH   1   7
ATOM      7  N   UNL d   1      -3.210   0.904  -2.737  0.00  0.00    -0.732 N 
ATOM      8  C   UNL d   1      -2.391   0.743  -1.555  0.00  0.00     0.284 C 
ATOM      9  H3  UNL d   1      -3.921   0.185  -2.852  0.00  0.00     0.395 HD
ENDBRANCH   1   7
TORSDOF 1
ENDMDL
