MODEL 1
REMARK minimizedAffinity 0.839618981
REMARK minimizedRMSD -1
REMARK  1 active torsions:
REMARK  status: ('A' for Active; 'I' for Inactive)
REMARK    1  A    between atoms: N_2  and  C1_3 
ROOT
ATOM      1  C1  UNL d   1       1.696  -2.305   3.438  0.00  0.00     0.143 A 
ATOM      2  C2  UNL d   1       2.597  -3.358   3.628  0.00  0.00    -0.057 A 
ATOM      3  C3  UNL d   1       2.796  -3.925   4.893  0.00  0.00     0.033 A 
ATOM      4  C4  UNL d   1       2.116  -3.426   6.000  0.00  0.00    -0.042 A 
ATOM      5  C5  UNL d   1       1.234  -2.363   5.839  0.00  0.00     0.033 A 
ATOM      6  C6  UNL d   1       1.035  -1.807   4.572  0.00  0.00    -0.057 A 
ENDROOT
BRANCH   1   7
ATOM      7  N   UNL d   1       1.527  -1.635   2.224  0.00  0.00    -0.732 N 
ATOM      8  C   UNL d   1       2.461  -1.833   1.137  0.00  0.00     0.284 C 
ATOM      9  H3  UNL d   1       0.553  -1.597   1.934  0.00  0.00     0.395 HD
ENDBRANCH   1   7
TORSDOF 1
ENDMDL
