MODEL 1
REMARK minimizedAffinity 3.93788648
REMARK minimizedRMSD -1
REMARK  1 active torsions:
REMARK  status: ('A' for Active; 'I' for Inactive)
REMARK    1  A    between atoms: N_2  and  C1_3 
ROOT
ATOM      1  C1  UNL d   1       1.124  -2.251   3.975  0.00  0.00     0.143 A 
ATOM      2  C2  UNL d   1       1.757  -3.370   3.423  0.00  0.00    -0.057 A 
ATOM      3  C3  UNL d   1       2.232  -3.360   2.106  0.00  0.00     0.033 A 
ATOM      4  C4  UNL d   1       2.056  -2.236   1.306  0.00  0.00    -0.042 A 
ATOM      5  C5  UNL d   1       1.408  -1.121   1.826  0.00  0.00     0.033 A 
ATOM      6  C6  UNL d   1       0.942  -1.135   3.144  0.00  0.00    -0.057 A 
ENDROOT
BRANCH   1   7
ATOM      7  N   UNL d   1       0.543  -2.234   5.245  0.00  0.00    -0.732 N 
ATOM      8  C   UNL d   1       0.382  -3.459   5.999  0.00  0.00     0.284 C 
ATOM      9  H3  UNL d   1       0.851  -1.440   5.803  0.00  0.00     0.395 HD
ENDBRANCH   1   7
TORSDOF 1
ENDMDL
