MODEL 1
REMARK minimizedAffinity 6.77079582
REMARK minimizedRMSD -1
REMARK  1 active torsions:
REMARK  status: ('A' for Active; 'I' for Inactive)
REMARK    1  A    between atoms: N_2  and  C1_3 
ROOT
ATOM      1  C1  UNL d   1       0.986  -5.180  -1.534  0.00  0.00     0.143 A 
ATOM      2  C2  UNL d   1      -0.379  -4.981  -1.763  0.00  0.00    -0.057 A 
ATOM      3  C3  UNL d   1      -1.285  -4.867  -0.701  0.00  0.00     0.033 A 
ATOM      4  C4  UNL d   1      -0.843  -4.979   0.613  0.00  0.00    -0.042 A 
ATOM      5  C5  UNL d   1       0.507  -5.201   0.864  0.00  0.00     0.033 A 
ATOM      6  C6  UNL d   1       1.407  -5.308  -0.201  0.00  0.00    -0.057 A 
ENDROOT
BRANCH   1   7
ATOM      7  N   UNL d   1       1.922  -5.399  -2.548  0.00  0.00    -0.732 N 
ATOM      8  C   UNL d   1       2.871  -4.369  -2.911  0.00  0.00     0.284 C 
ATOM      9  H3  UNL d   1       2.317  -6.336  -2.516  0.00  0.00     0.395 HD
ENDBRANCH   1   7
TORSDOF 1
ENDMDL
