MODEL 1
REMARK minimizedAffinity 6.39267969
REMARK minimizedRMSD -1
REMARK  1 active torsions:
REMARK  status: ('A' for Active; 'I' for Inactive)
REMARK    1  A    between atoms: N_2  and  C1_3 
ROOT
ATOM      1  C1  UNL d   1       2.520  -3.426   1.529  0.00  0.00     0.143 A 
ATOM      2  C2  UNL d   1       1.587  -2.859   2.404  0.00  0.00    -0.057 A 
ATOM      3  C3  UNL d   1       1.330  -1.483   2.399  0.00  0.00     0.033 A 
ATOM      4  C4  UNL d   1       2.025  -0.643   1.535  0.00  0.00    -0.042 A 
ATOM      5  C5  UNL d   1       2.975  -1.181   0.675  0.00  0.00     0.033 A 
ATOM      6  C6  UNL d   1       3.222  -2.557   0.680  0.00  0.00    -0.057 A 
ENDROOT
BRANCH   1   7
ATOM      7  N   UNL d   1       2.891  -4.773   1.554  0.00  0.00    -0.732 N 
ATOM      8  C   UNL d   1       2.018  -5.768   2.139  0.00  0.00     0.284 C 
ATOM      9  H3  UNL d   1       3.338  -5.069   0.689  0.00  0.00     0.395 HD
ENDBRANCH   1   7
TORSDOF 1
ENDMDL
