MODEL 1
REMARK minimizedAffinity 9.84663677
REMARK minimizedRMSD -1
REMARK  1 active torsions:
REMARK  status: ('A' for Active; 'I' for Inactive)
REMARK    1  A    between atoms: N_2  and  C1_3 
ROOT
ATOM      1  C1  UNL d   1       1.081  -2.337   3.556  0.00  0.00     0.143 A 
ATOM      2  C2  UNL d   1       1.926  -3.452   3.580  0.00  0.00    -0.057 A 
ATOM      3  C3  UNL d   1       2.364  -4.005   4.789  0.00  0.00     0.033 A 
ATOM      4  C4  UNL d   1       1.987  -3.433   6.000  0.00  0.00    -0.042 A 
ATOM      5  C5  UNL d   1       1.167  -2.310   6.000  0.00  0.00     0.033 A 
ATOM      6  C6  UNL d   1       0.728  -1.766   4.789  0.00  0.00    -0.057 A 
ENDROOT
BRANCH   1   7
ATOM      7  N   UNL d   1       0.690  -1.682   2.386  0.00  0.00    -0.732 N 
ATOM      8  C   UNL d   1       1.678  -1.228   1.431  0.00  0.00     0.284 C 
ATOM      9  H3  UNL d   1      -0.135  -2.100   1.963  0.00  0.00     0.395 HD
ENDBRANCH   1   7
TORSDOF 1
ENDMDL
