MODEL 1
REMARK minimizedAffinity 7.22200871
REMARK minimizedRMSD -1
REMARK  1 active torsions:
REMARK  status: ('A' for Active; 'I' for Inactive)
REMARK    1  A    between atoms: N_2  and  C1_3 
ROOT
ATOM      1  C1  UNL d   1       1.301  -1.916   3.296  0.00  0.00     0.143 A 
ATOM      2  C2  UNL d   1       1.063  -0.879   2.387  0.00  0.00    -0.057 A 
ATOM      3  C3  UNL d   1       1.573  -0.925   1.084  0.00  0.00     0.033 A 
ATOM      4  C4  UNL d   1       2.357  -1.999   0.674  0.00  0.00    -0.042 A 
ATOM      5  C5  UNL d   1       2.626  -3.029   1.569  0.00  0.00     0.033 A 
ATOM      6  C6  UNL d   1       2.109  -2.981   2.866  0.00  0.00    -0.057 A 
ENDROOT
BRANCH   1   7
ATOM      7  N   UNL d   1       0.904  -1.882   4.635  0.00  0.00    -0.732 N 
ATOM      8  C   UNL d   1       1.540  -2.738   5.614  0.00  0.00     0.284 C 
ATOM      9  H3  UNL d   1       0.725  -0.936   4.963  0.00  0.00     0.395 HD
ENDBRANCH   1   7
TORSDOF 1
ENDMDL
