MODEL 1
REMARK minimizedAffinity -2.01441765
REMARK minimizedRMSD -1
REMARK  1 active torsions:
REMARK  status: ('A' for Active; 'I' for Inactive)
REMARK    1  A    between atoms: C1_2  and  C2_3 
ROOT
ATOM      1  C2  UNL d   1       0.681   0.476  -1.955  0.00  0.00    -0.077 A 
ATOM      2  C3  UNL d   1       0.712  -0.768  -1.310  0.00  0.00     0.002 A 
ATOM      3  C4  UNL d   1       0.021  -0.960  -0.112  0.00  0.00     0.002 A 
ATOM      4  C5  UNL d   1      -0.709   0.087   0.448  0.00  0.00    -0.004 A 
ATOM      5  C6  UNL d   1      -0.744   1.329  -0.185  0.00  0.00     0.002 A 
ATOM      6  C7  UNL d   1      -0.053   1.522  -1.382  0.00  0.00     0.002 A 
ENDROOT
BRANCH   1   7
ATOM      7  C1  UNL d   1       1.386   0.670  -3.273  0.00  0.00     0.055 C 
ATOM      8  C   UNL d   1       0.423   1.149  -4.350  0.00  0.00     0.019 C 
ENDBRANCH   1   7
TORSDOF 1
ENDMDL
