MODEL 1
REMARK minimizedAffinity -3.73278928
REMARK minimizedRMSD -1
REMARK  1 active torsions:
REMARK  status: ('A' for Active; 'I' for Inactive)
REMARK    1  A    between atoms: C1_2  and  C2_3 
ROOT
ATOM      1  C2  UNL d   1       0.090  -0.186   0.068  0.00  0.00    -0.077 A 
ATOM      2  C3  UNL d   1       0.408  -0.105   1.431  0.00  0.00     0.002 A 
ATOM      3  C4  UNL d   1      -0.567   0.257   2.363  0.00  0.00     0.002 A 
ATOM      4  C5  UNL d   1      -1.865   0.537   1.943  0.00  0.00    -0.004 A 
ATOM      5  C6  UNL d   1      -2.191   0.461   0.590  0.00  0.00     0.002 A 
ATOM      6  C7  UNL d   1      -1.218   0.100  -0.344  0.00  0.00     0.002 A 
ENDROOT
BRANCH   1   7
ATOM      7  C1  UNL d   1       1.127  -0.625  -0.933  0.00  0.00     0.055 C 
ATOM      8  C   UNL d   1       0.742  -0.211  -2.346  0.00  0.00     0.019 C 
ENDBRANCH   1   7
TORSDOF 1
ENDMDL
