MODEL 1
REMARK minimizedAffinity 2.69915867
REMARK minimizedRMSD -1
REMARK  0 active torsions:
REMARK  status: ('A' for Active; 'I' for Inactive)
ROOT
ATOM      1  C   UNL d   1       0.404  -0.389   1.953  0.00  0.00    -0.002 A 
ATOM      2  C1  UNL d   1      -0.122  -0.489   0.673  0.00  0.00     0.010 A 
ATOM      3  C2  UNL d   1      -0.169   0.626  -0.166  0.00  0.00     0.041 A 
ATOM      4  C3  UNL d   1       0.329   1.856   0.308  0.00  0.00    -0.075 A 
ATOM      5  S   UNL d   1       0.375   3.355  -0.542  0.00  0.00     0.015 SA
ATOM      6  C4  UNL d   1       1.096   4.164   0.773  0.00  0.00     0.022 A 
ATOM      7  C5  UNL d   1       1.303   3.326   1.844  0.00  0.00     0.026 A 
ATOM      8  C6  UNL d   1       0.864   1.982   1.593  0.00  0.00    -0.082 A 
ATOM      9  C7  UNL d   1       0.897   0.833   2.419  0.00  0.00     0.045 A 
ENDROOT
TORSDOF 0
ENDMDL
