MODEL 1
REMARK minimizedAffinity -3.25926161
REMARK minimizedRMSD -1
REMARK  0 active torsions:
REMARK  status: ('A' for Active; 'I' for Inactive)
ROOT
ATOM      1  C   UNL d   1      -2.429   4.204   2.509  0.00  0.00    -0.002 A 
ATOM      2  C1  UNL d   1      -2.276   4.711   1.227  0.00  0.00     0.010 A 
ATOM      3  C2  UNL d   1      -1.481   4.048   0.290  0.00  0.00     0.041 A 
ATOM      4  C3  UNL d   1      -0.836   2.853   0.668  0.00  0.00    -0.075 A 
ATOM      5  S   UNL d   1       0.186   1.870  -0.311  0.00  0.00     0.015 SA
ATOM      6  C4  UNL d   1       0.444   0.752   0.950  0.00  0.00     0.022 A 
ATOM      7  C5  UNL d   1      -0.226   1.105   2.097  0.00  0.00     0.026 A 
ATOM      8  C6  UNL d   1      -0.976   2.322   1.953  0.00  0.00    -0.082 A 
ATOM      9  C7  UNL d   1      -1.788   3.018   2.880  0.00  0.00     0.045 A 
ENDROOT
TORSDOF 0
ENDMDL
