MODEL 1
REMARK minimizedAffinity 9.89744949
REMARK minimizedRMSD -1
REMARK  0 active torsions:
REMARK  status: ('A' for Active; 'I' for Inactive)
ROOT
ATOM      1  C   UNL d   1      -2.056   4.116   1.810  0.00  0.00    -0.002 A 
ATOM      2  C1  UNL d   1      -1.548   2.986   2.435  0.00  0.00     0.010 A 
ATOM      3  C2  UNL d   1      -0.847   2.025   1.704  0.00  0.00     0.041 A 
ATOM      4  C3  UNL d   1      -0.661   2.222   0.321  0.00  0.00    -0.075 A 
ATOM      5  S   UNL d   1       0.166   1.180  -0.776  0.00  0.00     0.015 SA
ATOM      6  C4  UNL d   1      -0.135   2.211  -2.099  0.00  0.00     0.022 A 
ATOM      7  C5  UNL d   1      -0.848   3.328  -1.731  0.00  0.00     0.026 A 
ATOM      8  C6  UNL d   1      -1.162   3.353  -0.330  0.00  0.00    -0.082 A 
ATOM      9  C7  UNL d   1      -1.870   4.308   0.438  0.00  0.00     0.045 A 
ENDROOT
TORSDOF 0
ENDMDL
