MODEL 1
REMARK minimizedAffinity 7.9548769
REMARK minimizedRMSD -1
REMARK  0 active torsions:
REMARK  status: ('A' for Active; 'I' for Inactive)
ROOT
ATOM      1  C   UNL d   1      -1.436   4.301  -0.780  0.00  0.00    -0.002 A 
ATOM      2  C1  UNL d   1      -0.250   3.850  -1.341  0.00  0.00     0.010 A 
ATOM      3  C2  UNL d   1       0.504   2.861  -0.707  0.00  0.00     0.041 A 
ATOM      4  C3  UNL d   1       0.041   2.326   0.512  0.00  0.00    -0.075 A 
ATOM      5  S   UNL d   1       0.798   1.107   1.466  0.00  0.00     0.015 SA
ATOM      6  C4  UNL d   1      -0.436   1.156   2.641  0.00  0.00     0.022 A 
ATOM      7  C5  UNL d   1      -1.409   2.075   2.329  0.00  0.00     0.026 A 
ATOM      8  C6  UNL d   1      -1.151   2.764   1.096  0.00  0.00    -0.082 A 
ATOM      9  C7  UNL d   1      -1.892   3.769   0.429  0.00  0.00     0.045 A 
ENDROOT
TORSDOF 0
ENDMDL
