MODEL 1
REMARK minimizedAffinity 4.67223072
REMARK minimizedRMSD -1
REMARK  0 active torsions:
REMARK  status: ('A' for Active; 'I' for Inactive)
ROOT
ATOM      1  C   UNL d   1      -0.221   0.855   3.041  0.00  0.00    -0.002 A 
ATOM      2  C1  UNL d   1       0.281   0.477   1.804  0.00  0.00     0.010 A 
ATOM      3  C2  UNL d   1       0.124   1.306   0.691  0.00  0.00     0.041 A 
ATOM      4  C3  UNL d   1      -0.551   2.533   0.844  0.00  0.00    -0.075 A 
ATOM      5  S   UNL d   1      -0.861   3.709  -0.378  0.00  0.00     0.015 SA
ATOM      6  C4  UNL d   1      -1.665   4.741   0.714  0.00  0.00     0.022 A 
ATOM      7  C5  UNL d   1      -1.706   4.216   1.984  0.00  0.00     0.026 A 
ATOM      8  C6  UNL d   1      -1.064   2.935   2.081  0.00  0.00    -0.082 A 
ATOM      9  C7  UNL d   1      -0.889   2.073   3.190  0.00  0.00     0.045 A 
ENDROOT
TORSDOF 0
ENDMDL
