MODEL 1
REMARK minimizedAffinity 0.66936785
REMARK minimizedRMSD -1
REMARK  0 active torsions:
REMARK  status: ('A' for Active; 'I' for Inactive)
ROOT
ATOM      1  C   UNL d   1      -1.383   2.589  -2.132  0.00  0.00    -0.002 A 
ATOM      2  C1  UNL d   1      -0.753   1.356  -2.229  0.00  0.00     0.010 A 
ATOM      3  C2  UNL d   1      -0.249   0.725  -1.090  0.00  0.00     0.041 A 
ATOM      4  C3  UNL d   1      -0.392   1.359   0.160  0.00  0.00    -0.075 A 
ATOM      5  S   UNL d   1       0.146   0.773   1.690  0.00  0.00     0.015 SA
ATOM      6  C4  UNL d   1      -0.449   2.145   2.508  0.00  0.00     0.022 A 
ATOM      7  C5  UNL d   1      -1.046   3.039   1.650  0.00  0.00     0.026 A 
ATOM      8  C6  UNL d   1      -1.023   2.600   0.283  0.00  0.00    -0.082 A 
ATOM      9  C7  UNL d   1      -1.523   3.215  -0.891  0.00  0.00     0.045 A 
ENDROOT
TORSDOF 0
ENDMDL
