MODEL 1
REMARK minimizedAffinity 6.19967031
REMARK minimizedRMSD -1
REMARK  0 active torsions:
REMARK  status: ('A' for Active; 'I' for Inactive)
ROOT
ATOM      1  C   UNL d   1       4.222  -4.862  -2.201  0.00  0.00    -0.002 A 
ATOM      2  C1  UNL d   1       2.965  -5.447  -2.258  0.00  0.00     0.010 A 
ATOM      3  C2  UNL d   1       1.822  -4.705  -1.954  0.00  0.00     0.041 A 
ATOM      4  C3  UNL d   1       1.964  -3.351  -1.591  0.00  0.00    -0.075 A 
ATOM      5  S   UNL d   1       0.705  -2.248  -1.179  0.00  0.00     0.015 SA
ATOM      6  C4  UNL d   1       1.807  -0.973  -0.919  0.00  0.00     0.022 A 
ATOM      7  C5  UNL d   1       3.107  -1.363  -1.136  0.00  0.00     0.026 A 
ATOM      8  C6  UNL d   1       3.219  -2.740  -1.528  0.00  0.00    -0.082 A 
ATOM      9  C7  UNL d   1       4.359  -3.519  -1.840  0.00  0.00     0.045 A 
ENDROOT
TORSDOF 0
ENDMDL
