MODEL 1
REMARK minimizedAffinity 6.79424524
REMARK minimizedRMSD -1
REMARK  0 active torsions:
REMARK  status: ('A' for Active; 'I' for Inactive)
ROOT
ATOM      1  C   UNL d   1       1.872  -1.117  -1.321  0.00  0.00    -0.002 A 
ATOM      2  C1  UNL d   1       1.064  -0.108  -1.824  0.00  0.00     0.010 A 
ATOM      3  C2  UNL d   1       0.279   0.668  -0.969  0.00  0.00     0.041 A 
ATOM      4  C3  UNL d   1       0.322   0.411   0.416  0.00  0.00    -0.075 A 
ATOM      5  S   UNL d   1      -0.552   1.234   1.654  0.00  0.00     0.015 SA
ATOM      6  C4  UNL d   1       0.128   0.265   2.881  0.00  0.00     0.022 A 
ATOM      7  C5  UNL d   1       1.002  -0.668   2.376  0.00  0.00     0.026 A 
ATOM      8  C6  UNL d   1       1.129  -0.599   0.947  0.00  0.00    -0.082 A 
ATOM      9  C7  UNL d   1       1.912  -1.369   0.053  0.00  0.00     0.045 A 
ENDROOT
TORSDOF 0
ENDMDL
