MODEL 1
REMARK minimizedAffinity -6.09060526
REMARK minimizedRMSD -1
REMARK  2 active torsions:
REMARK  status: ('A' for Active; 'I' for Inactive)
REMARK    1  A    between atoms: C1_2  and  C2_3 
REMARK    2  A    between atoms: C2_3  and  C3_4 
ROOT
ATOM      1  C3  UNL d   1       0.003  -0.021   0.323  0.00  0.00    -0.075 A 
ATOM      2  C4  UNL d   1       0.144   0.153   1.707  0.00  0.00     0.002 A 
ATOM      3  C5  UNL d   1      -0.422   1.257   2.344  0.00  0.00     0.002 A 
ATOM      4  C6  UNL d   1      -1.127   2.205   1.605  0.00  0.00    -0.004 A 
ATOM      5  C7  UNL d   1      -1.259   2.051   0.226  0.00  0.00     0.002 A 
ATOM      6  C8  UNL d   1      -0.697   0.944  -0.412  0.00  0.00     0.002 A 
ENDROOT
BRANCH   1   7
ATOM      7  C2  UNL d   1       0.589  -1.230  -0.368  0.00  0.00     0.056 C 
BRANCH   7   8
ATOM      8  C1  UNL d   1      -0.456  -2.249  -0.834  0.00  0.00     0.007 C 
ATOM      9  C   UNL d   1       0.087  -3.669  -0.922  0.00  0.00     0.009 C 
ENDBRANCH   7   8
ENDBRANCH   1   7
TORSDOF 2
ENDMDL
