MODEL 1
REMARK minimizedAffinity -5.08744764
REMARK minimizedRMSD -1
REMARK  2 active torsions:
REMARK  status: ('A' for Active; 'I' for Inactive)
REMARK    1  A    between atoms: C1_2  and  C2_3 
REMARK    2  A    between atoms: C2_3  and  C3_4 
ROOT
ATOM      1  C3  UNL d   1      -0.373   0.803  -0.131  0.00  0.00    -0.075 A 
ATOM      2  C4  UNL d   1      -1.055   1.902  -0.674  0.00  0.00     0.002 A 
ATOM      3  C5  UNL d   1      -1.416   2.981   0.133  0.00  0.00     0.002 A 
ATOM      4  C6  UNL d   1      -1.110   2.972   1.492  0.00  0.00    -0.004 A 
ATOM      5  C7  UNL d   1      -0.447   1.878   2.045  0.00  0.00     0.002 A 
ATOM      6  C8  UNL d   1      -0.081   0.799   1.239  0.00  0.00     0.002 A 
ENDROOT
BRANCH   1   7
ATOM      7  C2  UNL d   1       0.046  -0.355  -1.005  0.00  0.00     0.056 C 
BRANCH   7   8
ATOM      8  C1  UNL d   1       0.078  -1.704  -0.279  0.00  0.00     0.007 C 
ATOM      9  C   UNL d   1      -0.724  -2.786  -0.989  0.00  0.00     0.009 C 
ENDBRANCH   7   8
ENDBRANCH   1   7
TORSDOF 2
ENDMDL
