MODEL 1
REMARK minimizedAffinity -6.59243965
REMARK minimizedRMSD -1
REMARK  2 active torsions:
REMARK  status: ('A' for Active; 'I' for Inactive)
REMARK    1  A    between atoms: C1_2  and  C2_3 
REMARK    2  A    between atoms: C2_3  and  C3_4 
ROOT
ATOM      1  C3  UNL d   1      -0.365   0.872   0.334  0.00  0.00    -0.075 A 
ATOM      2  C4  UNL d   1      -0.718   1.695  -0.745  0.00  0.00     0.002 A 
ATOM      3  C5  UNL d   1      -1.278   2.953  -0.523  0.00  0.00     0.002 A 
ATOM      4  C6  UNL d   1      -1.502   3.400   0.777  0.00  0.00    -0.004 A 
ATOM      5  C7  UNL d   1      -1.171   2.583   1.857  0.00  0.00     0.002 A 
ATOM      6  C8  UNL d   1      -0.606   1.326   1.637  0.00  0.00     0.002 A 
ENDROOT
BRANCH   1   7
ATOM      7  C2  UNL d   1       0.269  -0.478   0.101  0.00  0.00     0.056 C 
BRANCH   7   8
ATOM      8  C1  UNL d   1       0.272  -0.921  -1.366  0.00  0.00     0.007 C 
ATOM      9  C   UNL d   1      -0.120  -2.381  -1.554  0.00  0.00     0.009 C 
ENDBRANCH   7   8
ENDBRANCH   1   7
TORSDOF 2
ENDMDL
