MODEL 1
REMARK minimizedAffinity -5.15474939
REMARK minimizedRMSD -1
REMARK  2 active torsions:
REMARK  status: ('A' for Active; 'I' for Inactive)
REMARK    1  A    between atoms: C1_2  and  C2_3 
REMARK    2  A    between atoms: C2_3  and  C3_4 
ROOT
ATOM      1  C3  UNL d   1      -0.364   0.707   0.867  0.00  0.00    -0.075 A 
ATOM      2  C4  UNL d   1      -0.502   0.919  -0.512  0.00  0.00     0.002 A 
ATOM      3  C5  UNL d   1      -0.906   2.162  -1.001  0.00  0.00     0.002 A 
ATOM      4  C6  UNL d   1      -1.187   3.203  -0.118  0.00  0.00    -0.004 A 
ATOM      5  C7  UNL d   1      -1.069   2.998   1.255  0.00  0.00     0.002 A 
ATOM      6  C8  UNL d   1      -0.661   1.757   1.746  0.00  0.00     0.002 A 
ENDROOT
BRANCH   1   7
ATOM      7  C2  UNL d   1       0.101  -0.627   1.401  0.00  0.00     0.056 C 
BRANCH   7   8
ATOM      8  C1  UNL d   1       1.535  -0.618   1.939  0.00  0.00     0.007 C 
ATOM      9  C   UNL d   1       1.660  -1.234   3.326  0.00  0.00     0.009 C 
ENDBRANCH   7   8
ENDBRANCH   1   7
TORSDOF 2
ENDMDL
