MODEL 1
REMARK minimizedAffinity -6.07378912
REMARK minimizedRMSD -1
REMARK  2 active torsions:
REMARK  status: ('A' for Active; 'I' for Inactive)
REMARK    1  A    between atoms: C1_2  and  C2_3 
REMARK    2  A    between atoms: C2_3  and  C3_4 
ROOT
ATOM      1  C3  UNL d   1      -0.033   1.408  -0.497  0.00  0.00    -0.075 A 
ATOM      2  C4  UNL d   1      -0.058   2.481  -1.399  0.00  0.00     0.002 A 
ATOM      3  C5  UNL d   1      -0.616   3.705  -1.030  0.00  0.00     0.002 A 
ATOM      4  C6  UNL d   1      -1.164   3.869   0.241  0.00  0.00    -0.004 A 
ATOM      5  C7  UNL d   1      -1.160   2.804   1.140  0.00  0.00     0.002 A 
ATOM      6  C8  UNL d   1      -0.598   1.580   0.774  0.00  0.00     0.002 A 
ENDROOT
BRANCH   1   7
ATOM      7  C2  UNL d   1       0.596   0.090  -0.881  0.00  0.00     0.056 C 
BRANCH   7   8
ATOM      8  C1  UNL d   1      -0.001  -1.121  -0.157  0.00  0.00     0.007 C 
ATOM      9  C   UNL d   1      -0.108  -2.356  -1.041  0.00  0.00     0.009 C 
ENDBRANCH   7   8
ENDBRANCH   1   7
TORSDOF 2
ENDMDL
