MODEL 1
REMARK minimizedAffinity -4.2142334
REMARK minimizedRMSD -1
REMARK  2 active torsions:
REMARK  status: ('A' for Active; 'I' for Inactive)
REMARK    1  A    between atoms: C1_2  and  C2_3 
REMARK    2  A    between atoms: C2_3  and  C3_4 
ROOT
ATOM      1  C3  UNL d   1      -0.631   1.548   1.392  0.00  0.00    -0.075 A 
ATOM      2  C4  UNL d   1      -0.889   1.364   0.026  0.00  0.00     0.002 A 
ATOM      3  C5  UNL d   1      -1.401   2.407  -0.745  0.00  0.00     0.002 A 
ATOM      4  C6  UNL d   1      -1.670   3.643  -0.160  0.00  0.00    -0.004 A 
ATOM      5  C7  UNL d   1      -1.433   3.832   1.200  0.00  0.00     0.002 A 
ATOM      6  C8  UNL d   1      -0.916   2.791   1.973  0.00  0.00     0.002 A 
ENDROOT
BRANCH   1   7
ATOM      7  C2  UNL d   1      -0.049   0.431   2.226  0.00  0.00     0.056 C 
BRANCH   7   8
ATOM      8  C1  UNL d   1       1.206  -0.208   1.624  0.00  0.00     0.007 C 
ATOM      9  C   UNL d   1       0.979  -0.780   0.231  0.00  0.00     0.009 C 
ENDBRANCH   7   8
ENDBRANCH   1   7
TORSDOF 2
ENDMDL
