MODEL 1
REMARK minimizedAffinity -3.81474113
REMARK minimizedRMSD -1
REMARK  0 active torsions:
REMARK  status: ('A' for Active; 'I' for Inactive)
ROOT
ATOM      1  C   UNL d   1       0.762   0.580   0.398  0.00  0.00     0.078 C 
ATOM      2  C1  UNL d   1      -0.450  -0.289   0.559  0.00  0.00    -0.077 A 
ATOM      3  C2  UNL d   1      -1.717   0.163   0.170  0.00  0.00    -0.001 A 
ATOM      4  C3  UNL d   1      -2.838  -0.653   0.335  0.00  0.00     0.003 A 
ATOM      5  C4  UNL d   1      -2.703  -1.924   0.890  0.00  0.00    -0.005 A 
ATOM      6  C5  UNL d   1      -1.447  -2.380   1.282  0.00  0.00     0.003 A 
ATOM      7  C6  UNL d   1      -0.325  -1.567   1.118  0.00  0.00    -0.001 A 
ENDROOT
TORSDOF 0
ENDMDL
