MODEL 1
REMARK minimizedAffinity -5.10005999
REMARK minimizedRMSD -1
REMARK  0 active torsions:
REMARK  status: ('A' for Active; 'I' for Inactive)
ROOT
ATOM      1  C   UNL d   1      -0.718   0.855  -1.423  0.00  0.00     0.078 C 
ATOM      2  C1  UNL d   1      -1.213  -0.246  -0.535  0.00  0.00    -0.077 A 
ATOM      3  C2  UNL d   1      -0.440  -0.713   0.536  0.00  0.00    -0.001 A 
ATOM      4  C3  UNL d   1      -0.910  -1.745   1.349  0.00  0.00     0.003 A 
ATOM      5  C4  UNL d   1      -2.154  -2.322   1.099  0.00  0.00    -0.005 A 
ATOM      6  C5  UNL d   1      -2.929  -1.866   0.035  0.00  0.00     0.003 A 
ATOM      7  C6  UNL d   1      -2.461  -0.833  -0.779  0.00  0.00    -0.001 A 
ENDROOT
TORSDOF 0
ENDMDL
