MODEL 1
REMARK minimizedAffinity -3.5040791
REMARK minimizedRMSD -1
REMARK  0 active torsions:
REMARK  status: ('A' for Active; 'I' for Inactive)
ROOT
ATOM      1  C   UNL d   1       1.234   0.827   0.148  0.00  0.00     0.078 C 
ATOM      2  C1  UNL d   1      -0.143   0.311  -0.147  0.00  0.00    -0.077 A 
ATOM      3  C2  UNL d   1      -1.170   0.416   0.799  0.00  0.00    -0.001 A 
ATOM      4  C3  UNL d   1      -2.444  -0.078   0.515  0.00  0.00     0.003 A 
ATOM      5  C4  UNL d   1      -2.703  -0.680  -0.715  0.00  0.00    -0.005 A 
ATOM      6  C5  UNL d   1      -1.687  -0.791  -1.661  0.00  0.00     0.003 A 
ATOM      7  C6  UNL d   1      -0.412  -0.298  -1.379  0.00  0.00    -0.001 A 
ENDROOT
TORSDOF 0
ENDMDL
