MODEL 1
REMARK minimizedAffinity -0.323998809
REMARK minimizedRMSD -1
REMARK  0 active torsions:
REMARK  status: ('A' for Active; 'I' for Inactive)
ROOT
ATOM      1  C   UNL d   1      -0.149   0.494  -1.837  0.00  0.00     0.078 C 
ATOM      2  C1  UNL d   1      -1.085  -0.316  -0.991  0.00  0.00    -0.077 A 
ATOM      3  C2  UNL d   1      -2.093  -1.095  -1.573  0.00  0.00    -0.001 A 
ATOM      4  C3  UNL d   1      -2.964  -1.836  -0.773  0.00  0.00     0.003 A 
ATOM      5  C4  UNL d   1      -2.836  -1.805   0.614  0.00  0.00    -0.005 A 
ATOM      6  C5  UNL d   1      -1.838  -1.032   1.203  0.00  0.00     0.003 A 
ATOM      7  C6  UNL d   1      -0.966  -0.290   0.404  0.00  0.00    -0.001 A 
ENDROOT
TORSDOF 0
ENDMDL
