MODEL 1
REMARK minimizedAffinity -5.58440351
REMARK minimizedRMSD -1
REMARK  0 active torsions:
REMARK  status: ('A' for Active; 'I' for Inactive)
ROOT
ATOM      1  C   UNL d   1       0.802  -0.233   0.075  0.00  0.00     0.078 C 
ATOM      2  C1  UNL d   1      -0.645  -0.623   0.035  0.00  0.00    -0.077 A 
ATOM      3  C2  UNL d   1      -1.182  -1.499   0.987  0.00  0.00    -0.001 A 
ATOM      4  C3  UNL d   1      -2.529  -1.861   0.932  0.00  0.00     0.003 A 
ATOM      5  C4  UNL d   1      -3.350  -1.353  -0.072  0.00  0.00    -0.005 A 
ATOM      6  C5  UNL d   1      -2.824  -0.483  -1.025  0.00  0.00     0.003 A 
ATOM      7  C6  UNL d   1      -1.478  -0.119  -0.972  0.00  0.00    -0.001 A 
ENDROOT
TORSDOF 0
ENDMDL
