MODEL 1
REMARK minimizedAffinity -3.67460108
REMARK minimizedRMSD -1
REMARK  0 active torsions:
REMARK  status: ('A' for Active; 'I' for Inactive)
ROOT
ATOM      1  C   UNL d   1      -3.018  -0.986  -0.341  0.00  0.00     0.078 C 
ATOM      2  C1  UNL d   1      -1.551  -0.735  -0.156  0.00  0.00    -0.077 A 
ATOM      3  C2  UNL d   1      -0.847   0.106  -1.026  0.00  0.00    -0.001 A 
ATOM      4  C3  UNL d   1       0.520   0.322  -0.847  0.00  0.00     0.003 A 
ATOM      5  C4  UNL d   1       1.196  -0.300   0.201  0.00  0.00    -0.005 A 
ATOM      6  C5  UNL d   1       0.504  -1.141   1.071  0.00  0.00     0.003 A 
ATOM      7  C6  UNL d   1      -0.863  -1.358   0.893  0.00  0.00    -0.001 A 
ENDROOT
TORSDOF 0
ENDMDL
