MODEL 1
REMARK minimizedAffinity -1.93640983
REMARK minimizedRMSD -1
REMARK  0 active torsions:
REMARK  status: ('A' for Active; 'I' for Inactive)
ROOT
ATOM      1  C   UNL d   1       0.275  -0.018  -1.590  0.00  0.00     0.078 C 
ATOM      2  C1  UNL d   1       0.838   0.461  -0.284  0.00  0.00    -0.077 A 
ATOM      3  C2  UNL d   1       0.384  -0.064   0.932  0.00  0.00    -0.001 A 
ATOM      4  C3  UNL d   1       0.910   0.397   2.140  0.00  0.00     0.003 A 
ATOM      5  C4  UNL d   1       1.891   1.387   2.143  0.00  0.00    -0.005 A 
ATOM      6  C5  UNL d   1       2.347   1.917   0.938  0.00  0.00     0.003 A 
ATOM      7  C6  UNL d   1       1.822   1.457  -0.271  0.00  0.00    -0.001 A 
ENDROOT
TORSDOF 0
ENDMDL
