MODEL 1
REMARK minimizedAffinity -4.72853327
REMARK minimizedRMSD -1
REMARK  0 active torsions:
REMARK  status: ('A' for Active; 'I' for Inactive)
ROOT
ATOM      1  C   UNL d   1       0.238   0.427   0.532  0.00  0.00     0.078 C 
ATOM      2  C1  UNL d   1      -0.949  -0.489   0.546  0.00  0.00    -0.077 A 
ATOM      3  C2  UNL d   1      -0.947  -1.660   1.313  0.00  0.00    -0.001 A 
ATOM      4  C3  UNL d   1      -2.055  -2.509   1.309  0.00  0.00     0.003 A 
ATOM      5  C4  UNL d   1      -3.173  -2.195   0.538  0.00  0.00    -0.005 A 
ATOM      6  C5  UNL d   1      -3.183  -1.033  -0.231  0.00  0.00     0.003 A 
ATOM      7  C6  UNL d   1      -2.076  -0.184  -0.228  0.00  0.00    -0.001 A 
ENDROOT
TORSDOF 0
ENDMDL
