MODEL 1
REMARK minimizedAffinity -3.99412227
REMARK minimizedRMSD -1
REMARK  0 active torsions:
REMARK  status: ('A' for Active; 'I' for Inactive)
ROOT
ATOM      1  C   UNL d   1       0.795  -1.140   0.396  0.00  0.00     0.078 C 
ATOM      2  C1  UNL d   1      -0.435  -0.787  -0.384  0.00  0.00    -0.077 A 
ATOM      3  C2  UNL d   1      -0.467   0.346  -1.207  0.00  0.00    -0.001 A 
ATOM      4  C3  UNL d   1      -1.622   0.668  -1.921  0.00  0.00     0.003 A 
ATOM      5  C4  UNL d   1      -2.756  -0.136  -1.818  0.00  0.00    -0.005 A 
ATOM      6  C5  UNL d   1      -2.735  -1.264  -0.999  0.00  0.00     0.003 A 
ATOM      7  C6  UNL d   1      -1.580  -1.588  -0.285  0.00  0.00    -0.001 A 
ENDROOT
TORSDOF 0
ENDMDL
