MODEL 1
REMARK minimizedAffinity -3.63688278
REMARK minimizedRMSD -1
REMARK  0 active torsions:
REMARK  status: ('A' for Active; 'I' for Inactive)
ROOT
ATOM      1  C   UNL d   1      -1.942  -2.993   1.514  0.00  0.00     0.078 C 
ATOM      2  C1  UNL d   1      -1.696  -1.773   0.678  0.00  0.00    -0.077 A 
ATOM      3  C2  UNL d   1      -2.570  -1.420  -0.359  0.00  0.00    -0.001 A 
ATOM      4  C3  UNL d   1      -2.323  -0.287  -1.135  0.00  0.00     0.003 A 
ATOM      5  C4  UNL d   1      -1.203   0.503  -0.883  0.00  0.00    -0.005 A 
ATOM      6  C5  UNL d   1      -0.327   0.159   0.144  0.00  0.00     0.003 A 
ATOM      7  C6  UNL d   1      -0.572  -0.974   0.922  0.00  0.00    -0.001 A 
ENDROOT
TORSDOF 0
ENDMDL
