MODEL 1
REMARK minimizedAffinity -5.23902416
REMARK minimizedRMSD -1
REMARK  0 active torsions:
REMARK  status: ('A' for Active; 'I' for Inactive)
ROOT
ATOM      1  C   UNL d   1       0.944   0.088   0.332  0.00  0.00     0.078 C 
ATOM      2  C1  UNL d   1      -0.430  -0.512   0.288  0.00  0.00    -0.077 A 
ATOM      3  C2  UNL d   1      -0.799  -1.534   1.171  0.00  0.00    -0.001 A 
ATOM      4  C3  UNL d   1      -2.078  -2.091   1.112  0.00  0.00     0.003 A 
ATOM      5  C4  UNL d   1      -2.997  -1.633   0.171  0.00  0.00    -0.005 A 
ATOM      6  C5  UNL d   1      -2.638  -0.618  -0.713  0.00  0.00     0.003 A 
ATOM      7  C6  UNL d   1      -1.360  -0.060  -0.656  0.00  0.00    -0.001 A 
ENDROOT
TORSDOF 0
ENDMDL
