MODEL 1
REMARK minimizedAffinity -5.54194641
REMARK minimizedRMSD -1
REMARK  0 active torsions:
REMARK  status: ('A' for Active; 'I' for Inactive)
ROOT
ATOM      1  C   UNL d   1       0.655  -0.013   0.264  0.00  0.00     0.078 C 
ATOM      2  C1  UNL d   1      -0.603  -0.812   0.430  0.00  0.00    -0.077 A 
ATOM      3  C2  UNL d   1      -0.593  -2.042   1.099  0.00  0.00    -0.001 A 
ATOM      4  C3  UNL d   1      -1.770  -2.780   1.237  0.00  0.00     0.003 A 
ATOM      5  C4  UNL d   1      -2.965  -2.297   0.708  0.00  0.00    -0.005 A 
ATOM      6  C5  UNL d   1      -2.984  -1.075   0.039  0.00  0.00     0.003 A 
ATOM      7  C6  UNL d   1      -1.808  -0.335  -0.100  0.00  0.00    -0.001 A 
ENDROOT
TORSDOF 0
ENDMDL
