MODEL 1
REMARK minimizedAffinity -4.41753054
REMARK minimizedRMSD -1
REMARK  0 active torsions:
REMARK  status: ('A' for Active; 'I' for Inactive)
ROOT
ATOM      1  C   UNL d   1      -0.577   0.713  -0.690  0.00  0.00     0.078 C 
ATOM      2  C1  UNL d   1      -1.332  -0.475  -0.173  0.00  0.00    -0.077 A 
ATOM      3  C2  UNL d   1      -0.876  -1.189   0.942  0.00  0.00    -0.001 A 
ATOM      4  C3  UNL d   1      -1.584  -2.299   1.407  0.00  0.00     0.003 A 
ATOM      5  C4  UNL d   1      -2.750  -2.705   0.762  0.00  0.00    -0.005 A 
ATOM      6  C5  UNL d   1      -3.210  -2.002  -0.349  0.00  0.00     0.003 A 
ATOM      7  C6  UNL d   1      -2.504  -0.892  -0.816  0.00  0.00    -0.001 A 
ENDROOT
TORSDOF 0
ENDMDL
