MODEL 1
REMARK minimizedAffinity -5.84119892
REMARK minimizedRMSD -1
REMARK  0 active torsions:
REMARK  status: ('A' for Active; 'I' for Inactive)
ROOT
ATOM      1  C   UNL d   1       0.768   0.169   0.294  0.00  0.00     0.078 C 
ATOM      2  C1  UNL d   1      -0.570  -0.506   0.248  0.00  0.00    -0.077 A 
ATOM      3  C2  UNL d   1      -1.604  -0.005  -0.551  0.00  0.00    -0.001 A 
ATOM      4  C3  UNL d   1      -2.848  -0.639  -0.577  0.00  0.00     0.003 A 
ATOM      5  C4  UNL d   1      -3.069  -1.776   0.197  0.00  0.00    -0.005 A 
ATOM      6  C5  UNL d   1      -2.047  -2.281   0.998  0.00  0.00     0.003 A 
ATOM      7  C6  UNL d   1      -0.803  -1.649   1.024  0.00  0.00    -0.001 A 
ENDROOT
TORSDOF 0
ENDMDL
