MODEL 1
REMARK minimizedAffinity -4.1364069
REMARK minimizedRMSD -1
REMARK  0 active torsions:
REMARK  status: ('A' for Active; 'I' for Inactive)
ROOT
ATOM      1  C   UNL d   1       1.184   0.839   0.409  0.00  0.00     0.078 C 
ATOM      2  C1  UNL d   1      -0.169   0.374  -0.039  0.00  0.00    -0.077 A 
ATOM      3  C2  UNL d   1      -0.531   0.403  -1.392  0.00  0.00    -0.001 A 
ATOM      4  C3  UNL d   1      -1.797  -0.024  -1.794  0.00  0.00     0.003 A 
ATOM      5  C4  UNL d   1      -2.713  -0.482  -0.849  0.00  0.00    -0.005 A 
ATOM      6  C5  UNL d   1      -2.364  -0.513   0.500  0.00  0.00     0.003 A 
ATOM      7  C6  UNL d   1      -1.097  -0.086   0.903  0.00  0.00    -0.001 A 
ENDROOT
TORSDOF 0
ENDMDL
