MODEL 1
REMARK minimizedAffinity -4.61549425
REMARK minimizedRMSD -1
REMARK  0 active torsions:
REMARK  status: ('A' for Active; 'I' for Inactive)
ROOT
ATOM      1  C   UNL d   1       0.867  -0.004   0.723  0.00  0.00     0.078 C 
ATOM      2  C1  UNL d   1      -0.439  -0.723   0.562  0.00  0.00    -0.077 A 
ATOM      3  C2  UNL d   1      -0.716  -1.886   1.291  0.00  0.00    -0.001 A 
ATOM      4  C3  UNL d   1      -1.932  -2.551   1.124  0.00  0.00     0.003 A 
ATOM      5  C4  UNL d   1      -2.880  -2.062   0.227  0.00  0.00    -0.005 A 
ATOM      6  C5  UNL d   1      -2.612  -0.907  -0.505  0.00  0.00     0.003 A 
ATOM      7  C6  UNL d   1      -1.396  -0.240  -0.339  0.00  0.00    -0.001 A 
ENDROOT
TORSDOF 0
ENDMDL
