MODEL 1
REMARK minimizedAffinity -5.80444241
REMARK minimizedRMSD -1
REMARK  0 active torsions:
REMARK  status: ('A' for Active; 'I' for Inactive)
ROOT
ATOM      1  C   UNL d   1       0.017   0.200  -0.389  0.00  0.00     0.078 C 
ATOM      2  C1  UNL d   1      -0.932  -0.876   0.049  0.00  0.00    -0.077 A 
ATOM      3  C2  UNL d   1      -2.240  -0.929  -0.448  0.00  0.00    -0.001 A 
ATOM      4  C3  UNL d   1      -3.115  -1.930  -0.025  0.00  0.00     0.003 A 
ATOM      5  C4  UNL d   1      -2.693  -2.885   0.898  0.00  0.00    -0.005 A 
ATOM      6  C5  UNL d   1      -1.394  -2.839   1.399  0.00  0.00     0.003 A 
ATOM      7  C6  UNL d   1      -0.517  -1.839   0.977  0.00  0.00    -0.001 A 
ENDROOT
TORSDOF 0
ENDMDL
