MODEL 1
REMARK minimizedAffinity -3.99930239
REMARK minimizedRMSD -1
REMARK  0 active torsions:
REMARK  status: ('A' for Active; 'I' for Inactive)
ROOT
ATOM      1  C   UNL d   1      -3.141  -1.357  -0.357  0.00  0.00     0.078 C 
ATOM      2  C1  UNL d   1      -1.817  -0.686  -0.572  0.00  0.00    -0.077 A 
ATOM      3  C2  UNL d   1      -0.861  -0.633   0.449  0.00  0.00    -0.001 A 
ATOM      4  C3  UNL d   1       0.363   0.004   0.238  0.00  0.00     0.003 A 
ATOM      5  C4  UNL d   1       0.642   0.594  -0.993  0.00  0.00    -0.005 A 
ATOM      6  C5  UNL d   1      -0.305   0.548  -2.015  0.00  0.00     0.003 A 
ATOM      7  C6  UNL d   1      -1.529  -0.088  -1.806  0.00  0.00    -0.001 A 
ENDROOT
TORSDOF 0
ENDMDL
