MODEL 1
REMARK minimizedAffinity -0.196151659
REMARK minimizedRMSD -1
REMARK  1 active torsions:
REMARK  status: ('A' for Active; 'I' for Inactive)
REMARK    1  A    between atoms: C3_4  and  O_7 
ROOT
ATOM      1  C   UNL d   1       0.924   1.353   0.378  0.00  0.00    -0.033 A 
ATOM      2  C1  UNL d   1       2.082   1.414  -0.400  0.00  0.00     0.039 A 
ATOM      3  C2  UNL d   1       2.071   0.930  -1.710  0.00  0.00    -0.080 A 
ATOM      4  C3  UNL d   1       0.898   0.389  -2.229  0.00  0.00     0.150 A 
ATOM      5  C4  UNL d   1      -0.260   0.329  -1.460  0.00  0.00    -0.007 A 
ATOM      6  C5  UNL d   1      -0.247   0.812  -0.153  0.00  0.00     0.039 A 
ENDROOT
BRANCH   4   7
ATOM      7  O   UNL d   1       0.840  -0.100  -3.500  0.00  0.00    -0.526 OA
ATOM      8  H5  UNL d   1       1.722  -0.018  -3.901  0.00  0.00     0.418 HD
ENDBRANCH   4   7
TORSDOF 1
ENDMDL
