MODEL 1
REMARK minimizedAffinity -2.99354076
REMARK minimizedRMSD -1
REMARK  1 active torsions:
REMARK  status: ('A' for Active; 'I' for Inactive)
REMARK    1  A    between atoms: C3_4  and  O_7 
ROOT
ATOM      1  C   UNL d   1      -0.330   1.179  -0.579  0.00  0.00    -0.033 A 
ATOM      2  C1  UNL d   1      -1.090   0.947   0.569  0.00  0.00     0.039 A 
ATOM      3  C2  UNL d   1      -1.215  -0.348   1.076  0.00  0.00    -0.080 A 
ATOM      4  C3  UNL d   1      -0.574  -1.400   0.428  0.00  0.00     0.150 A 
ATOM      5  C4  UNL d   1       0.188  -1.176  -0.714  0.00  0.00    -0.007 A 
ATOM      6  C5  UNL d   1       0.310   0.117  -1.220  0.00  0.00     0.039 A 
ENDROOT
BRANCH   4   7
ATOM      7  O   UNL d   1      -0.670  -2.682   0.883  0.00  0.00    -0.526 OA
ATOM      8  H5  UNL d   1      -1.251  -2.689   1.662  0.00  0.00     0.418 HD
ENDBRANCH   4   7
TORSDOF 1
ENDMDL
