MODEL 1
REMARK minimizedAffinity -1.64545655
REMARK minimizedRMSD -1
REMARK  1 active torsions:
REMARK  status: ('A' for Active; 'I' for Inactive)
REMARK    1  A    between atoms: C3_4  and  O_7 
ROOT
ATOM      1  C   UNL d   1      -0.674  -0.764   1.258  0.00  0.00    -0.033 A 
ATOM      2  C1  UNL d   1      -0.900  -1.919   0.506  0.00  0.00     0.039 A 
ATOM      3  C2  UNL d   1      -0.479  -1.982  -0.824  0.00  0.00    -0.080 A 
ATOM      4  C3  UNL d   1       0.167  -0.885  -1.389  0.00  0.00     0.150 A 
ATOM      5  C4  UNL d   1       0.398   0.267  -0.645  0.00  0.00    -0.007 A 
ATOM      6  C5  UNL d   1      -0.024   0.328   0.683  0.00  0.00     0.039 A 
ENDROOT
BRANCH   4   7
ATOM      7  O   UNL d   1       0.591  -0.898  -2.684  0.00  0.00    -0.526 OA
ATOM      8  H5  UNL d   1       0.338  -1.747  -3.083  0.00  0.00     0.418 HD
ENDBRANCH   4   7
TORSDOF 1
ENDMDL
