MODEL 1
REMARK minimizedAffinity 2.29395247
REMARK minimizedRMSD -1
REMARK  1 active torsions:
REMARK  status: ('A' for Active; 'I' for Inactive)
REMARK    1  A    between atoms: C3_4  and  O_7 
ROOT
ATOM      1  C   UNL d   1       3.516   1.697  -0.751  0.00  0.00    -0.033 A 
ATOM      2  C1  UNL d   1       4.168   2.801  -0.198  0.00  0.00     0.039 A 
ATOM      3  C2  UNL d   1       3.579   3.506   0.854  0.00  0.00    -0.080 A 
ATOM      4  C3  UNL d   1       2.342   3.096   1.343  0.00  0.00     0.150 A 
ATOM      5  C4  UNL d   1       1.689   1.995   0.799  0.00  0.00    -0.007 A 
ATOM      6  C5  UNL d   1       2.278   1.293  -0.252  0.00  0.00     0.039 A 
ENDROOT
BRANCH   4   7
ATOM      7  O   UNL d   1       1.726   3.756   2.365  0.00  0.00    -0.526 OA
ATOM      8  H5  UNL d   1       2.280   4.512   2.621  0.00  0.00     0.418 HD
ENDBRANCH   4   7
TORSDOF 1
ENDMDL
