MODEL 1
REMARK minimizedAffinity 2.41618156
REMARK minimizedRMSD -1
REMARK  1 active torsions:
REMARK  status: ('A' for Active; 'I' for Inactive)
REMARK    1  A    between atoms: C3_4  and  O_7 
ROOT
ATOM      1  C   UNL d   1      -0.513   0.763  -0.427  0.00  0.00    -0.033 A 
ATOM      2  C1  UNL d   1       0.221   0.134  -1.435  0.00  0.00     0.039 A 
ATOM      3  C2  UNL d   1       1.567   0.453  -1.625  0.00  0.00    -0.080 A 
ATOM      4  C3  UNL d   1       2.167   1.401  -0.800  0.00  0.00     0.150 A 
ATOM      5  C4  UNL d   1       1.443   2.028   0.209  0.00  0.00    -0.007 A 
ATOM      6  C5  UNL d   1       0.099   1.709   0.396  0.00  0.00     0.039 A 
ENDROOT
BRANCH   4   7
ATOM      7  O   UNL d   1       3.476   1.748  -0.949  0.00  0.00    -0.526 OA
ATOM      8  H5  UNL d   1       3.842   1.256  -1.703  0.00  0.00     0.418 HD
ENDBRANCH   4   7
TORSDOF 1
ENDMDL
