MODEL 1
REMARK minimizedAffinity -0.305596173
REMARK minimizedRMSD -1
REMARK  1 active torsions:
REMARK  status: ('A' for Active; 'I' for Inactive)
REMARK    1  A    between atoms: C3_4  and  O_7 
ROOT
ATOM      1  C   UNL d   1      -1.292  -1.974   1.741  0.00  0.00    -0.033 A 
ATOM      2  C1  UNL d   1      -1.097  -0.606   1.546  0.00  0.00     0.039 A 
ATOM      3  C2  UNL d   1      -0.636  -0.132   0.316  0.00  0.00    -0.080 A 
ATOM      4  C3  UNL d   1      -0.377  -1.037  -0.710  0.00  0.00     0.150 A 
ATOM      5  C4  UNL d   1      -0.573  -2.401  -0.525  0.00  0.00    -0.007 A 
ATOM      6  C5  UNL d   1      -1.032  -2.872   0.705  0.00  0.00     0.039 A 
ENDROOT
BRANCH   4   7
ATOM      7  O   UNL d   1       0.079  -0.622  -1.927  0.00  0.00    -0.526 OA
ATOM      8  H5  UNL d   1       0.194   0.342  -1.900  0.00  0.00     0.418 HD
ENDBRANCH   4   7
TORSDOF 1
ENDMDL
