MODEL 1
REMARK minimizedAffinity -5.32311916
REMARK minimizedRMSD -1
REMARK  1 active torsions:
REMARK  status: ('A' for Active; 'I' for Inactive)
REMARK    1  A    between atoms: C3_4  and  O_7 
ROOT
ATOM      1  C   UNL d   1      -0.383   0.706   0.005  0.00  0.00    -0.033 A 
ATOM      2  C1  UNL d   1       0.337  -0.083  -0.894  0.00  0.00     0.039 A 
ATOM      3  C2  UNL d   1       0.372  -1.469  -0.736  0.00  0.00    -0.080 A 
ATOM      4  C3  UNL d   1      -0.318  -2.054   0.323  0.00  0.00     0.150 A 
ATOM      5  C4  UNL d   1      -1.041  -1.275   1.220  0.00  0.00    -0.007 A 
ATOM      6  C5  UNL d   1      -1.074   0.110   1.061  0.00  0.00     0.039 A 
ENDROOT
BRANCH   4   7
ATOM      7  O   UNL d   1      -0.310  -3.403   0.520  0.00  0.00    -0.526 OA
ATOM      8  H5  UNL d   1       0.254  -3.810  -0.159  0.00  0.00     0.418 HD
ENDBRANCH   4   7
TORSDOF 1
ENDMDL
