MODEL 1
REMARK minimizedAffinity -2.95297384
REMARK minimizedRMSD -1
REMARK  1 active torsions:
REMARK  status: ('A' for Active; 'I' for Inactive)
REMARK    1  A    between atoms: C3_4  and  O_7 
ROOT
ATOM      1  C   UNL d   1       6.000  -2.334   3.705  0.00  0.00    -0.033 A 
ATOM      2  C1  UNL d   1       5.998  -1.964   5.051  0.00  0.00     0.039 A 
ATOM      3  C2  UNL d   1       4.870  -2.198   5.840  0.00  0.00    -0.080 A 
ATOM      4  C3  UNL d   1       3.752  -2.803   5.271  0.00  0.00     0.150 A 
ATOM      5  C4  UNL d   1       3.748  -3.177   3.932  0.00  0.00    -0.007 A 
ATOM      6  C5  UNL d   1       4.875  -2.942   3.145  0.00  0.00     0.039 A 
ENDROOT
BRANCH   4   7
ATOM      7  O   UNL d   1       2.626  -3.047   6.000  0.00  0.00    -0.526 OA
ATOM      8  H5  UNL d   1       2.763  -2.710   6.901  0.00  0.00     0.418 HD
ENDBRANCH   4   7
TORSDOF 1
ENDMDL
