MODEL 1
REMARK minimizedAffinity -5.26538563
REMARK minimizedRMSD -1
REMARK  1 active torsions:
REMARK  status: ('A' for Active; 'I' for Inactive)
REMARK    1  A    between atoms: C3_4  and  O_7 
ROOT
ATOM      1  C   UNL d   1      -0.415   0.059   0.051  0.00  0.00    -0.033 A 
ATOM      2  C1  UNL d   1       0.467  -0.647  -0.770  0.00  0.00     0.039 A 
ATOM      3  C2  UNL d   1       0.722  -1.997  -0.525  0.00  0.00    -0.080 A 
ATOM      4  C3  UNL d   1       0.091  -2.629   0.543  0.00  0.00     0.150 A 
ATOM      5  C4  UNL d   1      -0.791  -1.933   1.363  0.00  0.00    -0.007 A 
ATOM      6  C5  UNL d   1      -1.045  -0.584   1.117  0.00  0.00     0.039 A 
ENDROOT
BRANCH   4   7
ATOM      7  O   UNL d   1       0.312  -3.945   0.824  0.00  0.00    -0.526 OA
ATOM      8  H5  UNL d   1       0.965  -4.289   0.192  0.00  0.00     0.418 HD
ENDBRANCH   4   7
TORSDOF 1
ENDMDL
