MODEL 1
REMARK minimizedAffinity -0.671087384
REMARK minimizedRMSD -1
REMARK  1 active torsions:
REMARK  status: ('A' for Active; 'I' for Inactive)
REMARK    1  A    between atoms: C3_4  and  O_7 
ROOT
ATOM      1  C   UNL d   1       0.073   0.655  -0.087  0.00  0.00    -0.033 A 
ATOM      2  C1  UNL d   1       0.521   0.291  -1.359  0.00  0.00     0.039 A 
ATOM      3  C2  UNL d   1       0.213  -0.969  -1.875  0.00  0.00    -0.080 A 
ATOM      4  C3  UNL d   1      -0.542  -1.854  -1.111  0.00  0.00     0.150 A 
ATOM      5  C4  UNL d   1      -0.995  -1.497   0.155  0.00  0.00    -0.007 A 
ATOM      6  C5  UNL d   1      -0.686  -0.238   0.669  0.00  0.00     0.039 A 
ENDROOT
BRANCH   4   7
ATOM      7  O   UNL d   1      -0.864  -3.097  -1.570  0.00  0.00    -0.526 OA
ATOM      8  H5  UNL d   1      -0.460  -3.215  -2.446  0.00  0.00     0.418 HD
ENDBRANCH   4   7
TORSDOF 1
ENDMDL
