MODEL 1
REMARK minimizedAffinity -0.209401727
REMARK minimizedRMSD -1
REMARK  1 active torsions:
REMARK  status: ('A' for Active; 'I' for Inactive)
REMARK    1  A    between atoms: C3_4  and  O_7 
ROOT
ATOM      1  C   UNL d   1      -1.039  -0.187   1.057  0.00  0.00    -0.033 A 
ATOM      2  C1  UNL d   1      -0.772   1.056   0.479  0.00  0.00     0.039 A 
ATOM      3  C2  UNL d   1      -0.292   1.129  -0.830  0.00  0.00    -0.080 A 
ATOM      4  C3  UNL d   1      -0.085  -0.045  -1.549  0.00  0.00     0.150 A 
ATOM      5  C4  UNL d   1      -0.352  -1.286  -0.980  0.00  0.00    -0.007 A 
ATOM      6  C5  UNL d   1      -0.831  -1.357   0.327  0.00  0.00     0.039 A 
ENDROOT
BRANCH   4   7
ATOM      7  O   UNL d   1       0.387  -0.023  -2.828  0.00  0.00    -0.526 OA
ATOM      8  H5  UNL d   1       0.554   0.900  -3.079  0.00  0.00     0.418 HD
ENDBRANCH   4   7
TORSDOF 1
ENDMDL
