MODEL 1
REMARK minimizedAffinity -3.16074181
REMARK minimizedRMSD -1
REMARK  1 active torsions:
REMARK  status: ('A' for Active; 'I' for Inactive)
REMARK    1  A    between atoms: C3_4  and  O_7 
ROOT
ATOM      1  C   UNL d   1       1.052  -1.732  -0.789  0.00  0.00    -0.033 A 
ATOM      2  C1  UNL d   1       0.986  -3.006  -0.223  0.00  0.00     0.039 A 
ATOM      3  C2  UNL d   1      -0.159  -3.406   0.469  0.00  0.00    -0.080 A 
ATOM      4  C3  UNL d   1      -1.229  -2.523   0.587  0.00  0.00     0.150 A 
ATOM      5  C4  UNL d   1      -1.171  -1.253   0.023  0.00  0.00    -0.007 A 
ATOM      6  C5  UNL d   1      -0.027  -0.856  -0.667  0.00  0.00     0.039 A 
ENDROOT
BRANCH   4   7
ATOM      7  O   UNL d   1      -2.365  -2.867   1.257  0.00  0.00    -0.526 OA
ATOM      8  H5  UNL d   1      -2.251  -3.762   1.618  0.00  0.00     0.418 HD
ENDBRANCH   4   7
TORSDOF 1
ENDMDL
