MODEL 1
REMARK minimizedAffinity -4.57146454
REMARK minimizedRMSD -1
REMARK  1 active torsions:
REMARK  status: ('A' for Active; 'I' for Inactive)
REMARK    1  A    between atoms: C3_4  and  O_7 
ROOT
ATOM      1  C   UNL d   1      -0.073  -3.857   0.263  0.00  0.00    -0.033 A 
ATOM      2  C1  UNL d   1      -0.158  -3.872  -1.131  0.00  0.00     0.039 A 
ATOM      3  C2  UNL d   1      -0.184  -2.672  -1.844  0.00  0.00    -0.080 A 
ATOM      4  C3  UNL d   1      -0.123  -1.465  -1.152  0.00  0.00     0.150 A 
ATOM      5  C4  UNL d   1      -0.034  -1.443   0.236  0.00  0.00    -0.007 A 
ATOM      6  C5  UNL d   1      -0.009  -2.642   0.946  0.00  0.00     0.039 A 
ENDROOT
BRANCH   4   7
ATOM      7  O   UNL d   1      -0.150  -0.268  -1.804  0.00  0.00    -0.526 OA
ATOM      8  H5  UNL d   1      -0.242  -0.438  -2.756  0.00  0.00     0.418 HD
ENDBRANCH   4   7
TORSDOF 1
ENDMDL
