MODEL 1
REMARK minimizedAffinity 3.97791743
REMARK minimizedRMSD -1
REMARK  1 active torsions:
REMARK  status: ('A' for Active; 'I' for Inactive)
REMARK    1  A    between atoms: C3_4  and  O_7 
ROOT
ATOM      1  C   UNL d   1      -0.942   1.024   1.661  0.00  0.00    -0.033 A 
ATOM      2  C1  UNL d   1      -0.124  -0.022   1.231  0.00  0.00     0.039 A 
ATOM      3  C2  UNL d   1      -0.639  -1.316   1.126  0.00  0.00    -0.080 A 
ATOM      4  C3  UNL d   1      -1.972  -1.549   1.452  0.00  0.00     0.150 A 
ATOM      5  C4  UNL d   1      -2.794  -0.511   1.877  0.00  0.00    -0.007 A 
ATOM      6  C5  UNL d   1      -2.277   0.780   1.983  0.00  0.00     0.039 A 
ENDROOT
BRANCH   4   7
ATOM      7  O   UNL d   1      -2.518  -2.795   1.369  0.00  0.00    -0.526 OA
ATOM      8  H5  UNL d   1      -1.825  -3.417   1.090  0.00  0.00     0.418 HD
ENDBRANCH   4   7
TORSDOF 1
ENDMDL
