MODEL 1
REMARK minimizedAffinity -5.17856312
REMARK minimizedRMSD -1
REMARK  1 active torsions:
REMARK  status: ('A' for Active; 'I' for Inactive)
REMARK    1  A    between atoms: C3_4  and  O_7 
ROOT
ATOM      1  C   UNL d   1       0.700  -3.367  -0.610  0.00  0.00    -0.033 A 
ATOM      2  C1  UNL d   1       1.113  -3.078  -1.912  0.00  0.00     0.039 A 
ATOM      3  C2  UNL d   1       1.038  -1.770  -2.396  0.00  0.00    -0.080 A 
ATOM      4  C3  UNL d   1       0.551  -0.762  -1.568  0.00  0.00     0.150 A 
ATOM      5  C4  UNL d   1       0.141  -1.043  -0.269  0.00  0.00    -0.007 A 
ATOM      6  C5  UNL d   1       0.215  -2.349   0.212  0.00  0.00     0.039 A 
ENDROOT
BRANCH   4   7
ATOM      7  O   UNL d   1       0.454   0.528  -1.997  0.00  0.00    -0.526 OA
ATOM      8  H5  UNL d   1       0.746   0.567  -2.924  0.00  0.00     0.418 HD
ENDBRANCH   4   7
TORSDOF 1
ENDMDL
