MODEL 1
REMARK minimizedAffinity -4.45887566
REMARK minimizedRMSD -1
REMARK  1 active torsions:
REMARK  status: ('A' for Active; 'I' for Inactive)
REMARK    1  A    between atoms: C3_4  and  O_7 
ROOT
ATOM      1  C   UNL d   1       0.255   2.035   0.073  0.00  0.00    -0.033 A 
ATOM      2  C1  UNL d   1      -0.194   2.426  -1.190  0.00  0.00     0.039 A 
ATOM      3  C2  UNL d   1      -0.278   1.490  -2.223  0.00  0.00    -0.080 A 
ATOM      4  C3  UNL d   1       0.089   0.169  -1.981  0.00  0.00     0.150 A 
ATOM      5  C4  UNL d   1       0.533  -0.228  -0.724  0.00  0.00    -0.007 A 
ATOM      6  C5  UNL d   1       0.617   0.708   0.306  0.00  0.00     0.039 A 
ENDROOT
BRANCH   4   7
ATOM      7  O   UNL d   1       0.029  -0.779  -2.959  0.00  0.00    -0.526 OA
ATOM      8  H5  UNL d   1      -0.269  -0.354  -3.781  0.00  0.00     0.418 HD
ENDBRANCH   4   7
TORSDOF 1
ENDMDL
