MODEL 1
REMARK minimizedAffinity -1.616979
REMARK minimizedRMSD -1
REMARK  1 active torsions:
REMARK  status: ('A' for Active; 'I' for Inactive)
REMARK    1  A    between atoms: C3_4  and  O_7 
ROOT
ATOM      1  C   UNL d   1      -0.446   2.304   1.143  0.00  0.00    -0.033 A 
ATOM      2  C1  UNL d   1      -0.031   1.175   1.852  0.00  0.00     0.039 A 
ATOM      3  C2  UNL d   1       0.305   0.004   1.169  0.00  0.00    -0.080 A 
ATOM      4  C3  UNL d   1       0.224  -0.024  -0.221  0.00  0.00     0.150 A 
ATOM      5  C4  UNL d   1      -0.185   1.099  -0.933  0.00  0.00    -0.007 A 
ATOM      6  C5  UNL d   1      -0.522   2.266  -0.249  0.00  0.00     0.039 A 
ENDROOT
BRANCH   4   7
ATOM      7  O   UNL d   1       0.537  -1.144  -0.931  0.00  0.00    -0.526 OA
ATOM      8  H5  UNL d   1       0.775  -1.849  -0.305  0.00  0.00     0.418 HD
ENDBRANCH   4   7
TORSDOF 1
ENDMDL
