MODEL 1
REMARK minimizedAffinity 2.65576434
REMARK minimizedRMSD -1
REMARK  1 active torsions:
REMARK  status: ('A' for Active; 'I' for Inactive)
REMARK    1  A    between atoms: C3_4  and  O_7 
ROOT
ATOM      1  C   UNL d   1       3.901  -5.896  -0.793  0.00  0.00    -0.033 A 
ATOM      2  C1  UNL d   1       5.291  -5.987  -0.697  0.00  0.00     0.039 A 
ATOM      3  C2  UNL d   1       5.907  -5.995   0.556  0.00  0.00    -0.080 A 
ATOM      4  C3  UNL d   1       5.123  -5.912   1.704  0.00  0.00     0.150 A 
ATOM      5  C4  UNL d   1       3.737  -5.825   1.616  0.00  0.00    -0.007 A 
ATOM      6  C5  UNL d   1       3.124  -5.816   0.364  0.00  0.00     0.039 A 
ENDROOT
BRANCH   4   7
ATOM      7  O   UNL d   1       5.679  -5.912   2.948  0.00  0.00    -0.526 OA
ATOM      8  H5  UNL d   1       6.646  -5.948   2.853  0.00  0.00     0.418 HD
ENDBRANCH   4   7
TORSDOF 1
ENDMDL
