MODEL 1
REMARK minimizedAffinity -3.32001948
REMARK minimizedRMSD -1
REMARK  1 active torsions:
REMARK  status: ('A' for Active; 'I' for Inactive)
REMARK    1  A    between atoms: C3_4  and  O_7 
ROOT
ATOM      1  C   UNL d   1       0.225   0.504   0.019  0.00  0.00    -0.033 A 
ATOM      2  C1  UNL d   1       0.515  -0.317  -1.072  0.00  0.00     0.039 A 
ATOM      3  C2  UNL d   1       0.060  -1.637  -1.096  0.00  0.00    -0.080 A 
ATOM      4  C3  UNL d   1      -0.684  -2.122  -0.024  0.00  0.00     0.150 A 
ATOM      5  C4  UNL d   1      -0.980  -1.309   1.065  0.00  0.00    -0.007 A 
ATOM      6  C5  UNL d   1      -0.524   0.008   1.087  0.00  0.00     0.039 A 
ENDROOT
BRANCH   4   7
ATOM      7  O   UNL d   1      -1.146  -3.405  -0.000  0.00  0.00    -0.526 OA
ATOM      8  H5  UNL d   1      -0.841  -3.857  -0.804  0.00  0.00     0.418 HD
ENDBRANCH   4   7
TORSDOF 1
ENDMDL
