MODEL 1
REMARK minimizedAffinity -3.07244635
REMARK minimizedRMSD -1
REMARK  1 active torsions:
REMARK  status: ('A' for Active; 'I' for Inactive)
REMARK    1  A    between atoms: C3_4  and  O_7 
ROOT
ATOM      1  C   UNL d   1      -0.290   0.064  -1.492  0.00  0.00    -0.033 A 
ATOM      2  C1  UNL d   1       0.608  -0.486  -0.576  0.00  0.00     0.039 A 
ATOM      3  C2  UNL d   1       0.616  -1.862  -0.343  0.00  0.00    -0.080 A 
ATOM      4  C3  UNL d   1      -0.277  -2.677  -1.033  0.00  0.00     0.150 A 
ATOM      5  C4  UNL d   1      -1.172  -2.137  -1.950  0.00  0.00    -0.007 A 
ATOM      6  C5  UNL d   1      -1.180  -0.762  -2.181  0.00  0.00     0.039 A 
ENDROOT
BRANCH   4   7
ATOM      7  O   UNL d   1      -0.310  -4.026  -0.836  0.00  0.00    -0.526 OA
ATOM      8  H5  UNL d   1       0.344  -4.253  -0.154  0.00  0.00     0.418 HD
ENDBRANCH   4   7
TORSDOF 1
ENDMDL
