MODEL 1
REMARK minimizedAffinity -2.0241015
REMARK minimizedRMSD -1
REMARK  1 active torsions:
REMARK  status: ('A' for Active; 'I' for Inactive)
REMARK    1  A    between atoms: C3_4  and  O_7 
ROOT
ATOM      1  C   UNL d   1       0.601  -0.611  -0.964  0.00  0.00    -0.033 A 
ATOM      2  C1  UNL d   1       0.862  -0.931   0.370  0.00  0.00     0.039 A 
ATOM      3  C2  UNL d   1       0.449  -0.071   1.389  0.00  0.00    -0.080 A 
ATOM      4  C3  UNL d   1      -0.223   1.104   1.062  0.00  0.00     0.150 A 
ATOM      5  C4  UNL d   1      -0.489   1.427  -0.264  0.00  0.00    -0.007 A 
ATOM      6  C5  UNL d   1      -0.075   0.567  -1.281  0.00  0.00     0.039 A 
ENDROOT
BRANCH   4   7
ATOM      7  O   UNL d   1      -0.640   1.977   2.022  0.00  0.00    -0.526 OA
ATOM      8  H5  UNL d   1      -0.362   1.637   2.889  0.00  0.00     0.418 HD
ENDBRANCH   4   7
TORSDOF 1
ENDMDL
