MODEL 1
REMARK minimizedAffinity -2.11976218
REMARK minimizedRMSD -1
REMARK  1 active torsions:
REMARK  status: ('A' for Active; 'I' for Inactive)
REMARK    1  A    between atoms: C3_4  and  O_7 
ROOT
ATOM      1  C   UNL d   1       0.563  -0.439   1.244  0.00  0.00    -0.033 A 
ATOM      2  C1  UNL d   1       0.283   0.928   1.276  0.00  0.00     0.039 A 
ATOM      3  C2  UNL d   1       0.085   1.630   0.085  0.00  0.00    -0.080 A 
ATOM      4  C3  UNL d   1       0.169   0.954  -1.128  0.00  0.00     0.150 A 
ATOM      5  C4  UNL d   1       0.444  -0.409  -1.167  0.00  0.00    -0.007 A 
ATOM      6  C5  UNL d   1       0.642  -1.108   0.023  0.00  0.00     0.039 A 
ENDROOT
BRANCH   4   7
ATOM      7  O   UNL d   1      -0.012   1.597  -2.317  0.00  0.00    -0.526 OA
ATOM      8  H5  UNL d   1      -0.166   2.539  -2.136  0.00  0.00     0.418 HD
ENDBRANCH   4   7
TORSDOF 1
ENDMDL
