MODEL 1
REMARK minimizedAffinity -3.64822555
REMARK minimizedRMSD -1
REMARK  1 active torsions:
REMARK  status: ('A' for Active; 'I' for Inactive)
REMARK    1  A    between atoms: C3_4  and  O_7 
ROOT
ATOM      1  C   UNL d   1       0.524  -0.019   1.192  0.00  0.00    -0.033 A 
ATOM      2  C1  UNL d   1      -0.675  -0.656   1.516  0.00  0.00     0.039 A 
ATOM      3  C2  UNL d   1      -1.283  -1.513   0.596  0.00  0.00    -0.080 A 
ATOM      4  C3  UNL d   1      -0.681  -1.724  -0.641  0.00  0.00     0.150 A 
ATOM      5  C4  UNL d   1       0.516  -1.096  -0.969  0.00  0.00    -0.007 A 
ATOM      6  C5  UNL d   1       1.121  -0.240  -0.049  0.00  0.00     0.039 A 
ENDROOT
BRANCH   4   7
ATOM      7  O   UNL d   1      -1.239  -2.548  -1.573  0.00  0.00    -0.526 OA
ATOM      8  H5  UNL d   1      -2.077  -2.890  -1.220  0.00  0.00     0.418 HD
ENDBRANCH   4   7
TORSDOF 1
ENDMDL
