MODEL 1
REMARK minimizedAffinity -5.09741163
REMARK minimizedRMSD -1
REMARK  1 active torsions:
REMARK  status: ('A' for Active; 'I' for Inactive)
REMARK    1  A    between atoms: C3_4  and  O_7 
ROOT
ATOM      1  C   UNL d   1      -0.905   3.795   0.323  0.00  0.00    -0.033 A 
ATOM      2  C1  UNL d   1      -0.625   2.933   1.385  0.00  0.00     0.039 A 
ATOM      3  C2  UNL d   1      -0.266   1.607   1.134  0.00  0.00    -0.080 A 
ATOM      4  C3  UNL d   1      -0.189   1.157  -0.181  0.00  0.00     0.150 A 
ATOM      5  C4  UNL d   1      -0.463   2.011  -1.244  0.00  0.00    -0.007 A 
ATOM      6  C5  UNL d   1      -0.822   3.335  -0.992  0.00  0.00     0.039 A 
ENDROOT
BRANCH   4   7
ATOM      7  O   UNL d   1       0.153  -0.130  -0.475  0.00  0.00    -0.526 OA
ATOM      8  H5  UNL d   1       0.286  -0.611   0.359  0.00  0.00     0.418 HD
ENDBRANCH   4   7
TORSDOF 1
ENDMDL
