MODEL 1
REMARK minimizedAffinity -2.90161562
REMARK minimizedRMSD -1
REMARK  1 active torsions:
REMARK  status: ('A' for Active; 'I' for Inactive)
REMARK    1  A    between atoms: C3_4  and  O_7 
ROOT
ATOM      1  C   UNL d   1       1.148  -0.608  -0.467  0.00  0.00    -0.033 A 
ATOM      2  C1  UNL d   1       1.491  -0.530   0.884  0.00  0.00     0.039 A 
ATOM      3  C2  UNL d   1       0.741   0.265   1.753  0.00  0.00    -0.080 A 
ATOM      4  C3  UNL d   1      -0.349   0.976   1.258  0.00  0.00     0.150 A 
ATOM      5  C4  UNL d   1      -0.699   0.900  -0.086  0.00  0.00    -0.007 A 
ATOM      6  C5  UNL d   1       0.052   0.106  -0.952  0.00  0.00     0.039 A 
ENDROOT
BRANCH   4   7
ATOM      7  O   UNL d   1      -1.108   1.769   2.066  0.00  0.00    -0.526 OA
ATOM      8  H5  UNL d   1      -0.732   1.747   2.961  0.00  0.00     0.418 HD
ENDBRANCH   4   7
TORSDOF 1
ENDMDL
