MODEL 1
REMARK minimizedAffinity 6.38704872
REMARK minimizedRMSD -1
REMARK  1 active torsions:
REMARK  status: ('A' for Active; 'I' for Inactive)
REMARK    1  A    between atoms: C1_2  and  C2_3 
ROOT
ATOM      1  C2  UNL d   1      -5.307   1.508  -2.606  0.00  0.00    -0.077 A 
ATOM      2  C3  UNL d   1      -5.999   0.465  -1.974  0.00  0.00     0.002 A 
ATOM      3  C4  UNL d   1      -5.419  -0.800  -1.862  0.00  0.00     0.002 A 
ATOM      4  C5  UNL d   1      -4.144  -1.032  -2.375  0.00  0.00    -0.004 A 
ATOM      5  C6  UNL d   1      -3.450  -0.001  -3.007  0.00  0.00     0.002 A 
ATOM      6  C7  UNL d   1      -4.028   1.263  -3.121  0.00  0.00     0.002 A 
ENDROOT
BRANCH   1   7
ATOM      7  C1  UNL d   1      -5.911   2.886  -2.685  0.00  0.00     0.055 C 
ATOM      8  C   UNL d   1      -5.998   3.371  -4.124  0.00  0.00     0.019 C 
ENDBRANCH   1   7
TORSDOF 1
ENDMDL
