MODEL 1
REMARK minimizedAffinity 8.72694588
REMARK minimizedRMSD -1
REMARK  1 active torsions:
REMARK  status: ('A' for Active; 'I' for Inactive)
REMARK    1  A    between atoms: C1_2  and  C2_3 
ROOT
ATOM      1  C2  UNL d   1       1.442  -5.955  -1.452  0.00  0.00    -0.077 A 
ATOM      2  C3  UNL d   1       0.287  -5.972  -2.248  0.00  0.00     0.002 A 
ATOM      3  C4  UNL d   1       0.389  -5.980  -3.640  0.00  0.00     0.002 A 
ATOM      4  C5  UNL d   1       1.643  -5.975  -4.249  0.00  0.00    -0.004 A 
ATOM      5  C6  UNL d   1       2.797  -5.955  -3.466  0.00  0.00     0.002 A 
ATOM      6  C7  UNL d   1       2.697  -5.946  -2.074  0.00  0.00     0.002 A 
ENDROOT
BRANCH   1   7
ATOM      7  C1  UNL d   1       1.334  -5.996   0.050  0.00  0.00     0.055 C 
ATOM      8  C   UNL d   1       2.709  -6.000   0.703  0.00  0.00     0.019 C 
ENDBRANCH   1   7
TORSDOF 1
ENDMDL
