MODEL 1
REMARK minimizedAffinity 0.539738655
REMARK minimizedRMSD -1
REMARK  1 active torsions:
REMARK  status: ('A' for Active; 'I' for Inactive)
REMARK    1  A    between atoms: C1_2  and  C2_3 
ROOT
ATOM      1  C2  UNL d   1       1.787  -2.390   3.421  0.00  0.00    -0.077 A 
ATOM      2  C3  UNL d   1       2.561  -3.241   2.619  0.00  0.00     0.002 A 
ATOM      3  C4  UNL d   1       2.445  -4.627   2.742  0.00  0.00     0.002 A 
ATOM      4  C5  UNL d   1       1.552  -5.174   3.661  0.00  0.00    -0.004 A 
ATOM      5  C6  UNL d   1       0.779  -4.337   4.464  0.00  0.00     0.002 A 
ATOM      6  C7  UNL d   1       0.895  -2.951   4.344  0.00  0.00     0.002 A 
ENDROOT
BRANCH   1   7
ATOM      7  C1  UNL d   1       1.875  -0.896   3.256  0.00  0.00     0.055 C 
ATOM      8  C   UNL d   1       2.611  -0.522   1.977  0.00  0.00     0.019 C 
ENDBRANCH   1   7
TORSDOF 1
ENDMDL
