MODEL 1
REMARK minimizedAffinity 0.29243812
REMARK minimizedRMSD -1
REMARK  1 active torsions:
REMARK  status: ('A' for Active; 'I' for Inactive)
REMARK    1  A    between atoms: C1_2  and  C2_3 
ROOT
ATOM      1  C2  UNL d   1       1.596  -0.817   3.252  0.00  0.00    -0.077 A 
ATOM      2  C3  UNL d   1       2.389  -0.761   2.097  0.00  0.00     0.002 A 
ATOM      3  C4  UNL d   1       2.962   0.446   1.692  0.00  0.00     0.002 A 
ATOM      4  C5  UNL d   1       2.751   1.604   2.437  0.00  0.00    -0.004 A 
ATOM      5  C6  UNL d   1       1.963   1.559   3.586  0.00  0.00     0.002 A 
ATOM      6  C7  UNL d   1       1.388   0.354   3.992  0.00  0.00     0.002 A 
ENDROOT
BRANCH   1   7
ATOM      7  C1  UNL d   1       1.017  -2.127   3.718  0.00  0.00     0.055 C 
ATOM      8  C   UNL d   1       1.746  -3.308   3.092  0.00  0.00     0.019 C 
ENDBRANCH   1   7
TORSDOF 1
ENDMDL
