MODEL 1
REMARK minimizedAffinity 1.08287871
REMARK minimizedRMSD -1
REMARK  1 active torsions:
REMARK  status: ('A' for Active; 'I' for Inactive)
REMARK    1  A    between atoms: C1_2  and  C2_3 
ROOT
ATOM      1  C2  UNL d   1       3.750  -5.786  -3.232  0.00  0.00    -0.077 A 
ATOM      2  C3  UNL d   1       4.450  -5.790  -4.447  0.00  0.00     0.002 A 
ATOM      3  C4  UNL d   1       3.762  -5.899  -5.657  0.00  0.00     0.002 A 
ATOM      4  C5  UNL d   1       2.373  -6.000  -5.665  0.00  0.00    -0.004 A 
ATOM      5  C6  UNL d   1       1.668  -5.999  -4.461  0.00  0.00     0.002 A 
ATOM      6  C7  UNL d   1       2.354  -5.891  -3.251  0.00  0.00     0.002 A 
ENDROOT
BRANCH   1   7
ATOM      7  C1  UNL d   1       4.486  -5.620  -1.928  0.00  0.00     0.055 C 
ATOM      8  C   UNL d   1       3.598  -5.970  -0.743  0.00  0.00     0.019 C 
ENDBRANCH   1   7
TORSDOF 1
ENDMDL
