MODEL 1
REMARK minimizedAffinity 4.72968721
REMARK minimizedRMSD -1
REMARK  1 active torsions:
REMARK  status: ('A' for Active; 'I' for Inactive)
REMARK    1  A    between atoms: C1_2  and  C2_3 
ROOT
ATOM      1  C2  UNL d   1       2.065  -2.485   3.400  0.00  0.00    -0.077 A 
ATOM      2  C3  UNL d   1       2.932  -2.074   4.423  0.00  0.00     0.002 A 
ATOM      3  C4  UNL d   1       3.809  -2.986   5.013  0.00  0.00     0.002 A 
ATOM      4  C5  UNL d   1       3.832  -4.312   4.585  0.00  0.00    -0.004 A 
ATOM      5  C6  UNL d   1       2.972  -4.730   3.570  0.00  0.00     0.002 A 
ATOM      6  C7  UNL d   1       2.094  -3.820   2.979  0.00  0.00     0.002 A 
ENDROOT
BRANCH   1   7
ATOM      7  C1  UNL d   1       1.153  -1.492   2.729  0.00  0.00     0.055 C 
ATOM      8  C   UNL d   1       1.945  -0.446   1.958  0.00  0.00     0.019 C 
ENDBRANCH   1   7
TORSDOF 1
ENDMDL
