MODEL 1
REMARK minimizedAffinity 1.05703235
REMARK minimizedRMSD -1
REMARK  1 active torsions:
REMARK  status: ('A' for Active; 'I' for Inactive)
REMARK    1  A    between atoms: C1_2  and  C2_3 
ROOT
ATOM      1  C2  UNL d   1       3.676  -2.992   3.516  0.00  0.00    -0.077 A 
ATOM      2  C3  UNL d   1       2.753  -4.041   3.639  0.00  0.00     0.002 A 
ATOM      3  C4  UNL d   1       1.399  -3.824   3.375  0.00  0.00     0.002 A 
ATOM      4  C5  UNL d   1       0.957  -2.562   2.983  0.00  0.00    -0.004 A 
ATOM      5  C6  UNL d   1       1.866  -1.513   2.861  0.00  0.00     0.002 A 
ATOM      6  C7  UNL d   1       3.220  -1.727   3.125  0.00  0.00     0.002 A 
ENDROOT
BRANCH   1   7
ATOM      7  C1  UNL d   1       5.143  -3.235   3.752  0.00  0.00     0.055 C 
ATOM      8  C   UNL d   1       5.998  -2.196   3.042  0.00  0.00     0.019 C 
ENDBRANCH   1   7
TORSDOF 1
ENDMDL
