MODEL 1
REMARK minimizedAffinity 2.32736731
REMARK minimizedRMSD -1
REMARK  1 active torsions:
REMARK  status: ('A' for Active; 'I' for Inactive)
REMARK    1  A    between atoms: C1_2  and  C2_3 
ROOT
ATOM      1  C2  UNL d   1       3.633  -2.788   3.645  0.00  0.00    -0.077 A 
ATOM      2  C3  UNL d   1       2.945  -1.644   3.216  0.00  0.00     0.002 A 
ATOM      3  C4  UNL d   1       1.604  -1.728   2.837  0.00  0.00     0.002 A 
ATOM      4  C5  UNL d   1       0.938  -2.951   2.887  0.00  0.00    -0.004 A 
ATOM      5  C6  UNL d   1       1.615  -4.094   3.311  0.00  0.00     0.002 A 
ATOM      6  C7  UNL d   1       2.956  -4.013   3.689  0.00  0.00     0.002 A 
ENDROOT
BRANCH   1   7
ATOM      7  C1  UNL d   1       5.065  -2.690   4.101  0.00  0.00     0.055 C 
ATOM      8  C   UNL d   1       5.998  -2.391   2.936  0.00  0.00     0.019 C 
ENDBRANCH   1   7
TORSDOF 1
ENDMDL
