MODEL 1
REMARK minimizedAffinity 5.73871565
REMARK minimizedRMSD -1
REMARK  0 active torsions:
REMARK  status: ('A' for Active; 'I' for Inactive)
ROOT
ATOM      1  C2' OXE d   1       1.390  -1.958   3.381  0.00  0.00     0.078 C 
ATOM      2  C1' OXE d   1       0.794  -0.375   1.140  0.00  0.00     0.078 C 
ATOM      3  C1  OXE d   1       1.623   0.243   2.237  0.00  0.00    -0.078 A 
ATOM      4  C2  OXE d   1       1.871  -0.523   3.351  0.00  0.00    -0.078 A 
ATOM      5  C3  OXE d   1       2.676  -0.020   4.368  0.00  0.00     0.003 A 
ATOM      6  C4  OXE d   1       3.109   1.311   4.338  0.00  0.00    -0.002 A 
ATOM      7  C5  OXE d   1       2.834   2.122   3.231  0.00  0.00    -0.002 A 
ATOM      8  C6  OXE d   1       2.130   1.591   2.156  0.00  0.00     0.003 A 
ENDROOT
TORSDOF 0
ENDMDL
