MODEL 1
REMARK minimizedAffinity -4.63979053
REMARK minimizedRMSD -1
REMARK  0 active torsions:
REMARK  status: ('A' for Active; 'I' for Inactive)
ROOT
ATOM      1  C2' OXE d   1       3.170   0.099   0.251  0.00  0.00     0.078 C 
ATOM      2  C1' OXE d   1       1.755   2.431  -0.413  0.00  0.00     0.078 C 
ATOM      3  C1  OXE d   1       0.964   1.162  -0.208  0.00  0.00    -0.078 A 
ATOM      4  C2  OXE d   1       1.669   0.016   0.070  0.00  0.00    -0.078 A 
ATOM      5  C3  OXE d   1       0.985  -1.170   0.322  0.00  0.00     0.003 A 
ATOM      6  C4  OXE d   1      -0.402  -1.240   0.143  0.00  0.00    -0.002 A 
ATOM      7  C5  OXE d   1      -1.135  -0.093  -0.180  0.00  0.00    -0.002 A 
ATOM      8  C6  OXE d   1      -0.473   1.123  -0.317  0.00  0.00     0.003 A 
ENDROOT
TORSDOF 0
ENDMDL
