MODEL 1
REMARK minimizedAffinity -3.83533025
REMARK minimizedRMSD -1
REMARK  0 active torsions:
REMARK  status: ('A' for Active; 'I' for Inactive)
ROOT
ATOM      1  C2' OXE d   1      -1.331   0.001  -0.748  0.00  0.00     0.078 C 
ATOM      2  C1' OXE d   1       0.284   2.266  -0.368  0.00  0.00     0.078 C 
ATOM      3  C1  OXE d   1       0.890   0.914  -0.085  0.00  0.00    -0.078 A 
ATOM      4  C2  OXE d   1       0.078  -0.185  -0.229  0.00  0.00    -0.078 A 
ATOM      5  C3  OXE d   1       0.602  -1.460  -0.033  0.00  0.00     0.003 A 
ATOM      6  C4  OXE d   1       1.904  -1.623   0.456  0.00  0.00    -0.002 A 
ATOM      7  C5  OXE d   1       2.735  -0.515   0.648  0.00  0.00    -0.002 A 
ATOM      8  C6  OXE d   1       2.258   0.755   0.341  0.00  0.00     0.003 A 
ENDROOT
TORSDOF 0
ENDMDL
