MODEL 1
REMARK minimizedAffinity -2.03976369
REMARK minimizedRMSD -1
REMARK  0 active torsions:
REMARK  status: ('A' for Active; 'I' for Inactive)
ROOT
ATOM      1  C2' OXE d   1       1.269  -2.721   1.025  0.00  0.00     0.078 C 
ATOM      2  C1' OXE d   1       3.059  -0.591   0.650  0.00  0.00     0.078 C 
ATOM      3  C1  OXE d   1       1.593  -0.329   0.410  0.00  0.00    -0.078 A 
ATOM      4  C2  OXE d   1       0.730  -1.389   0.550  0.00  0.00    -0.078 A 
ATOM      5  C3  OXE d   1      -0.639  -1.190   0.393  0.00  0.00     0.003 A 
ATOM      6  C4  OXE d   1      -1.128   0.043  -0.056  0.00  0.00    -0.002 A 
ATOM      7  C5  OXE d   1      -0.262   1.125  -0.244  0.00  0.00    -0.002 A 
ATOM      8  C6  OXE d   1       1.093   0.968   0.025  0.00  0.00     0.003 A 
ENDROOT
TORSDOF 0
ENDMDL
