MODEL 1
REMARK minimizedAffinity -1.72736597
REMARK minimizedRMSD -1
REMARK  0 active torsions:
REMARK  status: ('A' for Active; 'I' for Inactive)
ROOT
ATOM      1  C2' OXE d   1      -1.242  -0.140   0.006  0.00  0.00     0.078 C 
ATOM      2  C1' OXE d   1       0.092  -2.116   1.489  0.00  0.00     0.078 C 
ATOM      3  C1  OXE d   1       0.881  -0.903   1.063  0.00  0.00    -0.078 A 
ATOM      4  C2  OXE d   1       0.233   0.037   0.298  0.00  0.00    -0.078 A 
ATOM      5  C3  OXE d   1       0.899   1.201  -0.075  0.00  0.00     0.003 A 
ATOM      6  C4  OXE d   1       2.265   1.352   0.191  0.00  0.00    -0.002 A 
ATOM      7  C5  OXE d   1       2.954   0.388   0.935  0.00  0.00    -0.002 A 
ATOM      8  C6  OXE d   1       2.268  -0.722   1.414  0.00  0.00     0.003 A 
ENDROOT
TORSDOF 0
ENDMDL
