MODEL 1
REMARK minimizedAffinity -2.19311142
REMARK minimizedRMSD -1
REMARK  0 active torsions:
REMARK  status: ('A' for Active; 'I' for Inactive)
ROOT
ATOM      1  C2' OXE d   1      -1.437   0.514  -0.577  0.00  0.00     0.078 C 
ATOM      2  C1' OXE d   1      -0.228   2.830   0.450  0.00  0.00     0.078 C 
ATOM      3  C1  OXE d   1       0.613   1.581   0.352  0.00  0.00    -0.078 A 
ATOM      4  C2  OXE d   1      -0.000   0.441  -0.108  0.00  0.00    -0.078 A 
ATOM      5  C3  OXE d   1       0.744  -0.725  -0.269  0.00  0.00     0.003 A 
ATOM      6  C4  OXE d   1       2.069  -0.787   0.177  0.00  0.00    -0.002 A 
ATOM      7  C5  OXE d   1       2.701   0.353   0.686  0.00  0.00    -0.002 A 
ATOM      8  C6  OXE d   1       2.002   1.553   0.740  0.00  0.00     0.003 A 
ENDROOT
TORSDOF 0
ENDMDL
