MODEL 1
REMARK minimizedAffinity -3.63724637
REMARK minimizedRMSD -1
REMARK  0 active torsions:
REMARK  status: ('A' for Active; 'I' for Inactive)
ROOT
ATOM      1  C2' OXE d   1       3.091  -0.564   0.552  0.00  0.00     0.078 C 
ATOM      2  C1' OXE d   1       1.789   1.856  -0.022  0.00  0.00     0.078 C 
ATOM      3  C1  OXE d   1       0.936   0.669   0.351  0.00  0.00    -0.078 A 
ATOM      4  C2  OXE d   1       1.579  -0.523   0.584  0.00  0.00    -0.078 A 
ATOM      5  C3  OXE d   1       0.844  -1.636   0.985  0.00  0.00     0.003 A 
ATOM      6  C4  OXE d   1      -0.555  -1.592   1.002  0.00  0.00    -0.002 A 
ATOM      7  C5  OXE d   1      -1.232  -0.398   0.729  0.00  0.00    -0.002 A 
ATOM      8  C6  OXE d   1      -0.501   0.750   0.444  0.00  0.00     0.003 A 
ENDROOT
TORSDOF 0
ENDMDL
