MODEL 1
REMARK minimizedAffinity 13.3422928
REMARK minimizedRMSD -1
REMARK  0 active torsions:
REMARK  status: ('A' for Active; 'I' for Inactive)
ROOT
ATOM      1  C2' OXE d   1      -5.998   1.796  -1.114  0.00  0.00     0.078 C 
ATOM      2  C1' OXE d   1      -3.464   1.855  -2.320  0.00  0.00     0.078 C 
ATOM      3  C1  OXE d   1      -4.116   3.174  -1.988  0.00  0.00    -0.078 A 
ATOM      4  C2  OXE d   1      -5.376   3.137  -1.441  0.00  0.00    -0.078 A 
ATOM      5  C3  OXE d   1      -6.000   4.323  -1.065  0.00  0.00     0.003 A 
ATOM      6  C4  OXE d   1      -5.422   5.559  -1.381  0.00  0.00    -0.002 A 
ATOM      7  C5  OXE d   1      -4.157   5.620  -1.974  0.00  0.00    -0.002 A 
ATOM      8  C6  OXE d   1      -3.473   4.439  -2.245  0.00  0.00     0.003 A 
ENDROOT
TORSDOF 0
ENDMDL
