MODEL 1
REMARK minimizedAffinity -2.76031303
REMARK minimizedRMSD -1
REMARK  0 active torsions:
REMARK  status: ('A' for Active; 'I' for Inactive)
ROOT
ATOM      1  C2' OXE d   1      -0.970  -0.232  -0.175  0.00  0.00     0.078 C 
ATOM      2  C1' OXE d   1       0.535  -2.306   0.970  0.00  0.00     0.078 C 
ATOM      3  C1  OXE d   1       1.196  -0.959   0.816  0.00  0.00    -0.078 A 
ATOM      4  C2  OXE d   1       0.468   0.038   0.213  0.00  0.00    -0.078 A 
ATOM      5  C3  OXE d   1       1.010   1.314   0.096  0.00  0.00     0.003 A 
ATOM      6  C4  OXE d   1       2.344   1.553   0.447  0.00  0.00    -0.002 A 
ATOM      7  C5  OXE d   1       3.117   0.541   1.028  0.00  0.00    -0.002 A 
ATOM      8  C6  OXE d   1       2.546  -0.706   1.258  0.00  0.00     0.003 A 
ENDROOT
TORSDOF 0
ENDMDL
