MODEL 1
REMARK minimizedAffinity -3.1633389
REMARK minimizedRMSD -1
REMARK  0 active torsions:
REMARK  status: ('A' for Active; 'I' for Inactive)
ROOT
ATOM      1  C2' OXE d   1       2.506  -1.360   0.034  0.00  0.00     0.078 C 
ATOM      2  C1' OXE d   1       0.514  -2.845   1.341  0.00  0.00     0.078 C 
ATOM      3  C1  OXE d   1       0.077  -1.681   0.487  0.00  0.00    -0.078 A 
ATOM      4  C2  OXE d   1       1.062  -0.932  -0.111  0.00  0.00    -0.078 A 
ATOM      5  C3  OXE d   1       0.711   0.120  -0.954  0.00  0.00     0.003 A 
ATOM      6  C4  OXE d   1      -0.626   0.516  -1.075  0.00  0.00    -0.002 A 
ATOM      7  C5  OXE d   1      -1.641  -0.210  -0.443  0.00  0.00    -0.002 A 
ATOM      8  C6  OXE d   1      -1.311  -1.334   0.306  0.00  0.00     0.003 A 
ENDROOT
TORSDOF 0
ENDMDL
