MODEL 1
REMARK minimizedAffinity 5.40150499
REMARK minimizedRMSD -1
REMARK  0 active torsions:
REMARK  status: ('A' for Active; 'I' for Inactive)
ROOT
ATOM      1  C   UNL d   1      -1.435   1.208   1.991  0.00  0.00     0.023 A 
ATOM      2  C1  UNL d   1      -2.395   0.303   2.443  0.00  0.00     0.003 A 
ATOM      3  C2  UNL d   1      -3.356   0.707   3.371  0.00  0.00     0.048 A 
ATOM      4  C3  UNL d   1      -3.353   2.020   3.842  0.00  0.00     0.023 A 
ATOM      5  C4  UNL d   1      -2.395   2.930   3.392  0.00  0.00     0.048 A 
ATOM      6  C5  UNL d   1      -1.435   2.520   2.465  0.00  0.00     0.003 A 
ATOM      7  I   UNL d   1      -4.784   2.625   5.223  0.00  0.00    -0.146 I 
ENDROOT
TORSDOF 0
ENDMDL
