MODEL 1
REMARK minimizedAffinity -5.39699507
REMARK minimizedRMSD -1
REMARK  0 active torsions:
REMARK  status: ('A' for Active; 'I' for Inactive)
ROOT
ATOM      1  C   UNL d   1       0.314  -0.177   0.659  0.00  0.00     0.023 A 
ATOM      2  C1  UNL d   1      -0.793  -0.993   0.890  0.00  0.00     0.003 A 
ATOM      3  C2  UNL d   1      -1.852  -0.531   1.673  0.00  0.00     0.048 A 
ATOM      4  C3  UNL d   1      -1.799   0.750   2.222  0.00  0.00     0.023 A 
ATOM      5  C4  UNL d   1      -0.693   1.571   1.994  0.00  0.00     0.048 A 
ATOM      6  C5  UNL d   1       0.364   1.103   1.211  0.00  0.00     0.003 A 
ATOM      7  I   UNL d   1      -3.374   1.440   3.388  0.00  0.00    -0.146 I 
ENDROOT
TORSDOF 0
ENDMDL
