MODEL 1
REMARK minimizedAffinity -0.967671037
REMARK minimizedRMSD -1
REMARK  0 active torsions:
REMARK  status: ('A' for Active; 'I' for Inactive)
ROOT
ATOM      1  C   UNL d   1      -3.352   0.170   3.134  0.00  0.00     0.023 A 
ATOM      2  C1  UNL d   1      -3.009   1.480   2.798  0.00  0.00     0.003 A 
ATOM      3  C2  UNL d   1      -1.771   1.750   2.211  0.00  0.00     0.048 A 
ATOM      4  C3  UNL d   1      -0.881   0.706   1.961  0.00  0.00     0.023 A 
ATOM      5  C4  UNL d   1      -1.221  -0.607   2.295  0.00  0.00     0.048 A 
ATOM      6  C5  UNL d   1      -2.459  -0.872   2.882  0.00  0.00     0.003 A 
ATOM      7  I   UNL d   1       0.961   1.106   1.087  0.00  0.00    -0.146 I 
ENDROOT
TORSDOF 0
ENDMDL
