MODEL 1
REMARK minimizedAffinity -2.78090477
REMARK minimizedRMSD -1
REMARK  0 active torsions:
REMARK  status: ('A' for Active; 'I' for Inactive)
ROOT
ATOM      1  C   UNL d   1       0.566   0.133   0.713  0.00  0.00     0.023 A 
ATOM      2  C1  UNL d   1       0.360   1.513   0.739  0.00  0.00     0.003 A 
ATOM      3  C2  UNL d   1      -0.677   2.051   1.504  0.00  0.00     0.048 A 
ATOM      4  C3  UNL d   1      -1.504   1.204   2.240  0.00  0.00     0.023 A 
ATOM      5  C4  UNL d   1      -1.302  -0.177   2.218  0.00  0.00     0.048 A 
ATOM      6  C5  UNL d   1      -0.264  -0.711   1.452  0.00  0.00     0.003 A 
ATOM      7  I   UNL d   1      -3.049   2.002   3.379  0.00  0.00    -0.146 I 
ENDROOT
TORSDOF 0
ENDMDL
