MODEL 1
REMARK minimizedAffinity -3.57725596
REMARK minimizedRMSD -1
REMARK  0 active torsions:
REMARK  status: ('A' for Active; 'I' for Inactive)
ROOT
ATOM      1  C   UNL d   1       0.134   1.940   0.969  0.00  0.00     0.023 A 
ATOM      2  C1  UNL d   1      -0.606   3.106   1.163  0.00  0.00     0.003 A 
ATOM      3  C2  UNL d   1      -1.673   3.115   2.064  0.00  0.00     0.048 A 
ATOM      4  C3  UNL d   1      -1.994   1.955   2.768  0.00  0.00     0.023 A 
ATOM      5  C4  UNL d   1      -1.255   0.786   2.577  0.00  0.00     0.048 A 
ATOM      6  C5  UNL d   1      -0.190   0.781   1.675  0.00  0.00     0.003 A 
ATOM      7  I   UNL d   1      -3.581   1.966   4.109  0.00  0.00    -0.146 I 
ENDROOT
TORSDOF 0
ENDMDL
