MODEL 1
REMARK minimizedAffinity -1.4757551
REMARK minimizedRMSD -1
REMARK  0 active torsions:
REMARK  status: ('A' for Active; 'I' for Inactive)
ROOT
ATOM      1  C   UNL d   1      -1.628   0.902   1.734  0.00  0.00     0.023 A 
ATOM      2  C1  UNL d   1      -1.421   2.155   2.310  0.00  0.00     0.003 A 
ATOM      3  C2  UNL d   1      -2.279   2.616   3.311  0.00  0.00     0.048 A 
ATOM      4  C3  UNL d   1      -3.342   1.818   3.731  0.00  0.00     0.023 A 
ATOM      5  C4  UNL d   1      -3.553   0.563   3.158  0.00  0.00     0.048 A 
ATOM      6  C5  UNL d   1      -2.693   0.107   2.157  0.00  0.00     0.003 A 
ATOM      7  I   UNL d   1      -4.620   2.501   5.221  0.00  0.00    -0.146 I 
ENDROOT
TORSDOF 0
ENDMDL
