MODEL 1
REMARK minimizedAffinity 3.70543623
REMARK minimizedRMSD -1
REMARK  0 active torsions:
REMARK  status: ('A' for Active; 'I' for Inactive)
ROOT
ATOM      1  C   UNL d   1       1.080   1.738   0.699  0.00  0.00     0.023 A 
ATOM      2  C1  UNL d   1       1.459   0.401   0.577  0.00  0.00     0.003 A 
ATOM      3  C2  UNL d   1       0.696  -0.601   1.180  0.00  0.00     0.048 A 
ATOM      4  C3  UNL d   1      -0.446  -0.259   1.904  0.00  0.00     0.023 A 
ATOM      5  C4  UNL d   1      -0.830   1.077   2.028  0.00  0.00     0.048 A 
ATOM      6  C5  UNL d   1      -0.063   2.075   1.424  0.00  0.00     0.003 A 
ATOM      7  I   UNL d   1      -1.584  -1.748   2.802  0.00  0.00    -0.146 I 
ENDROOT
TORSDOF 0
ENDMDL
