MODEL 1
REMARK minimizedAffinity 6.03089333
REMARK minimizedRMSD -1
REMARK  0 active torsions:
REMARK  status: ('A' for Active; 'I' for Inactive)
ROOT
ATOM      1  C   UNL d   1      -0.076   3.184   1.427  0.00  0.00     0.023 A 
ATOM      2  C1  UNL d   1       0.743   2.129   1.025  0.00  0.00     0.003 A 
ATOM      3  C2  UNL d   1       0.338   0.810   1.236  0.00  0.00     0.048 A 
ATOM      4  C3  UNL d   1      -0.888   0.552   1.848  0.00  0.00     0.023 A 
ATOM      5  C4  UNL d   1      -1.712   1.604   2.251  0.00  0.00     0.048 A 
ATOM      6  C5  UNL d   1      -1.302   2.922   2.039  0.00  0.00     0.003 A 
ATOM      7  I   UNL d   1      -1.493  -1.411   2.162  0.00  0.00    -0.146 I 
ENDROOT
TORSDOF 0
ENDMDL
