MODEL 1
REMARK minimizedAffinity 0.765273869
REMARK minimizedRMSD -1
REMARK  0 active torsions:
REMARK  status: ('A' for Active; 'I' for Inactive)
ROOT
ATOM      1  C   UNL d   1      -4.106  -3.655  -3.027  0.00  0.00     0.023 A 
ATOM      2  C1  UNL d   1      -3.647  -3.098  -4.220  0.00  0.00     0.003 A 
ATOM      3  C2  UNL d   1      -2.343  -3.349  -4.653  0.00  0.00     0.048 A 
ATOM      4  C3  UNL d   1      -1.505  -4.160  -3.888  0.00  0.00     0.023 A 
ATOM      5  C4  UNL d   1      -1.960  -4.720  -2.694  0.00  0.00     0.048 A 
ATOM      6  C5  UNL d   1      -3.264  -4.465  -2.265  0.00  0.00     0.003 A 
ATOM      7  I   UNL d   1       0.436  -4.535  -4.531  0.00  0.00    -0.146 I 
ENDROOT
TORSDOF 0
ENDMDL
