MODEL 1
REMARK minimizedAffinity -3.81764364
REMARK minimizedRMSD -1
REMARK  0 active torsions:
REMARK  status: ('A' for Active; 'I' for Inactive)
ROOT
ATOM      1  C   UNL d   1      -2.705   1.044   2.368  0.00  0.00     0.023 A 
ATOM      2  C1  UNL d   1      -1.769   2.056   2.154  0.00  0.00     0.003 A 
ATOM      3  C2  UNL d   1      -0.541   1.760   1.559  0.00  0.00     0.048 A 
ATOM      4  C3  UNL d   1      -0.256   0.449   1.178  0.00  0.00     0.023 A 
ATOM      5  C4  UNL d   1      -1.189  -0.567   1.389  0.00  0.00     0.048 A 
ATOM      6  C5  UNL d   1      -2.415  -0.266   1.986  0.00  0.00     0.003 A 
ATOM      7  I   UNL d   1       1.570   0.005   0.291  0.00  0.00    -0.146 I 
ENDROOT
TORSDOF 0
ENDMDL
