MODEL 1
REMARK minimizedAffinity -2.71378279
REMARK minimizedRMSD -1
REMARK  0 active torsions:
REMARK  status: ('A' for Active; 'I' for Inactive)
ROOT
ATOM      1  C   UNL d   1      -3.157   0.984   2.981  0.00  0.00     0.023 A 
ATOM      2  C1  UNL d   1      -2.523  -0.112   2.396  0.00  0.00     0.003 A 
ATOM      3  C2  UNL d   1      -1.389   0.076   1.603  0.00  0.00     0.048 A 
ATOM      4  C3  UNL d   1      -0.894   1.364   1.399  0.00  0.00     0.023 A 
ATOM      5  C4  UNL d   1      -1.525   2.464   1.982  0.00  0.00     0.048 A 
ATOM      6  C5  UNL d   1      -2.658   2.271   2.774  0.00  0.00     0.003 A 
ATOM      7  I   UNL d   1       0.793   1.646   0.219  0.00  0.00    -0.146 I 
ENDROOT
TORSDOF 0
ENDMDL
