MODEL 1
REMARK minimizedAffinity -1.46585667
REMARK minimizedRMSD -1
REMARK  0 active torsions:
REMARK  status: ('A' for Active; 'I' for Inactive)
ROOT
ATOM      1  C   UNL d   1      -2.568  -2.818  -1.833  0.00  0.00     0.023 A 
ATOM      2  C1  UNL d   1      -2.235  -2.464  -3.141  0.00  0.00     0.003 A 
ATOM      3  C2  UNL d   1      -1.076  -2.973  -3.729  0.00  0.00     0.048 A 
ATOM      4  C3  UNL d   1      -0.255  -3.837  -3.005  0.00  0.00     0.023 A 
ATOM      5  C4  UNL d   1      -0.585  -4.194  -1.697  0.00  0.00     0.048 A 
ATOM      6  C5  UNL d   1      -1.744  -3.682  -1.112  0.00  0.00     0.003 A 
ATOM      7  I   UNL d   1       1.471  -4.596  -3.879  0.00  0.00    -0.146 I 
ENDROOT
TORSDOF 0
ENDMDL
