MODEL 1
REMARK minimizedAffinity 0.347611964
REMARK minimizedRMSD -1
REMARK  0 active torsions:
REMARK  status: ('A' for Active; 'I' for Inactive)
ROOT
ATOM      1  C   UNL d   1      -0.296   1.834   0.771  0.00  0.00     0.023 A 
ATOM      2  C1  UNL d   1      -0.592   0.689   1.510  0.00  0.00     0.003 A 
ATOM      3  C2  UNL d   1      -1.595   0.722   2.481  0.00  0.00     0.048 A 
ATOM      4  C3  UNL d   1      -2.299   1.905   2.707  0.00  0.00     0.023 A 
ATOM      5  C4  UNL d   1      -2.007   3.053   1.970  0.00  0.00     0.048 A 
ATOM      6  C5  UNL d   1      -1.002   3.015   1.001  0.00  0.00     0.003 A 
ATOM      7  I   UNL d   1      -3.793   1.957   4.151  0.00  0.00    -0.146 I 
ENDROOT
TORSDOF 0
ENDMDL
