MODEL 1
REMARK minimizedAffinity 10.5315962
REMARK minimizedRMSD -1
REMARK  1 active torsions:
REMARK  status: ('A' for Active; 'I' for Inactive)
REMARK    1  A    between atoms: C1_2  and  C2_3 
ROOT
ATOM      1  C2  UNL d   1       0.548  -3.807   5.335  0.00  0.00    -0.081 A 
ATOM      2  C3  UNL d   1      -0.048  -3.623   4.082  0.00  0.00     0.006 A 
ATOM      3  C4  UNL d   1       0.009  -2.381   3.446  0.00  0.00     0.002 A 
ATOM      4  C5  UNL d   1       0.668  -1.304   4.049  0.00  0.00    -0.080 A 
ATOM      5  C6  UNL d   1       0.763   0.026   3.363  0.00  0.00     0.076 C 
ATOM      6  C7  UNL d   1       1.249  -1.483   5.309  0.00  0.00     0.002 A 
ATOM      7  C8  UNL d   1       1.192  -2.725   5.946  0.00  0.00     0.006 A 
ENDROOT
BRANCH   1   8
ATOM      8  C1  UNL d   1       0.545  -5.163   5.994  0.00  0.00     0.054 C 
ATOM      9  C   UNL d   1       1.936  -5.780   5.996  0.00  0.00     0.018 C 
ENDBRANCH   1   8
TORSDOF 1
ENDMDL
