MODEL 1
REMARK minimizedAffinity 12.7129803
REMARK minimizedRMSD -1
REMARK  1 active torsions:
REMARK  status: ('A' for Active; 'I' for Inactive)
REMARK    1  A    between atoms: C1_2  and  C2_3 
ROOT
ATOM      1  C2  UNL d   1      -2.496   0.277  -2.062  0.00  0.00    -0.081 A 
ATOM      2  C3  UNL d   1      -3.747  -0.031  -1.513  0.00  0.00     0.006 A 
ATOM      3  C4  UNL d   1      -4.257   0.717  -0.449  0.00  0.00     0.002 A 
ATOM      4  C5  UNL d   1      -3.529   1.788   0.079  0.00  0.00    -0.080 A 
ATOM      5  C6  UNL d   1      -4.079   2.617   1.202  0.00  0.00     0.076 C 
ATOM      6  C7  UNL d   1      -2.272   2.085  -0.457  0.00  0.00     0.002 A 
ATOM      7  C8  UNL d   1      -1.761   1.338  -1.521  0.00  0.00     0.006 A 
ENDROOT
BRANCH   1   8
ATOM      8  C1  UNL d   1      -1.972  -0.485  -3.252  0.00  0.00     0.054 C 
ATOM      9  C   UNL d   1      -2.638  -0.026  -4.541  0.00  0.00     0.018 C 
ENDBRANCH   1   8
TORSDOF 1
ENDMDL
