MODEL 1
REMARK minimizedAffinity 9.76656628
REMARK minimizedRMSD -1
REMARK  1 active torsions:
REMARK  status: ('A' for Active; 'I' for Inactive)
REMARK    1  A    between atoms: C1_2  and  C2_3 
ROOT
ATOM      1  C2  UNL d   1       3.583   0.334  -1.598  0.00  0.00    -0.081 A 
ATOM      2  C3  UNL d   1       3.658   0.633  -0.232  0.00  0.00     0.006 A 
ATOM      3  C4  UNL d   1       3.391  -0.351   0.723  0.00  0.00     0.002 A 
ATOM      4  C5  UNL d   1       3.053  -1.650   0.329  0.00  0.00    -0.080 A 
ATOM      5  C6  UNL d   1       2.794  -2.723   1.345  0.00  0.00     0.076 C 
ATOM      6  C7  UNL d   1       2.962  -1.944  -1.035  0.00  0.00     0.002 A 
ATOM      7  C8  UNL d   1       3.228  -0.961  -1.991  0.00  0.00     0.006 A 
ENDROOT
BRANCH   1   8
ATOM      8  C1  UNL d   1       3.934   1.375  -2.631  0.00  0.00     0.054 C 
ATOM      9  C   UNL d   1       4.032   2.760  -2.008  0.00  0.00     0.018 C 
ENDBRANCH   1   8
TORSDOF 1
ENDMDL
