MODEL 1
REMARK minimizedAffinity 13.3132353
REMARK minimizedRMSD -1
REMARK  1 active torsions:
REMARK  status: ('A' for Active; 'I' for Inactive)
REMARK    1  A    between atoms: C1_2  and  C2_3 
ROOT
ATOM      1  C2  UNL d   1       3.427   1.779   0.885  0.00  0.00    -0.081 A 
ATOM      2  C3  UNL d   1       2.931   0.484   1.083  0.00  0.00     0.006 A 
ATOM      3  C4  UNL d   1       2.652  -0.341  -0.009  0.00  0.00     0.002 A 
ATOM      4  C5  UNL d   1       2.871   0.111  -1.315  0.00  0.00    -0.080 A 
ATOM      5  C6  UNL d   1       2.603  -0.776  -2.495  0.00  0.00     0.076 C 
ATOM      6  C7  UNL d   1       3.349   1.410  -1.513  0.00  0.00     0.002 A 
ATOM      7  C8  UNL d   1       3.628   2.236  -0.422  0.00  0.00     0.006 A 
ENDROOT
BRANCH   1   8
ATOM      8  C1  UNL d   1       3.790   2.649   2.061  0.00  0.00     0.054 C 
ATOM      9  C   UNL d   1       2.950   2.305   3.284  0.00  0.00     0.018 C 
ENDBRANCH   1   8
TORSDOF 1
ENDMDL
