MODEL 1
REMARK minimizedAffinity 14.973074
REMARK minimizedRMSD -1
REMARK  1 active torsions:
REMARK  status: ('A' for Active; 'I' for Inactive)
REMARK    1  A    between atoms: C1_2  and  C2_3 
ROOT
ATOM      1  C2  UNL d   1       2.947  -1.807  -0.840  0.00  0.00    -0.081 A 
ATOM      2  C3  UNL d   1       3.510  -0.524  -0.845  0.00  0.00     0.006 A 
ATOM      3  C4  UNL d   1       4.449  -0.159   0.122  0.00  0.00     0.002 A 
ATOM      4  C5  UNL d   1       4.848  -1.072   1.104  0.00  0.00    -0.080 A 
ATOM      5  C6  UNL d   1       5.878  -0.702   2.130  0.00  0.00     0.076 C 
ATOM      6  C7  UNL d   1       4.273  -2.347   1.120  0.00  0.00     0.002 A 
ATOM      7  C8  UNL d   1       3.333  -2.713   0.154  0.00  0.00     0.006 A 
ENDROOT
BRANCH   1   8
ATOM      8  C1  UNL d   1       1.982  -2.225  -1.920  0.00  0.00     0.054 C 
ATOM      9  C   UNL d   1       2.686  -2.383  -3.260  0.00  0.00     0.018 C 
ENDBRANCH   1   8
TORSDOF 1
ENDMDL
