MODEL 1
REMARK minimizedAffinity 12.6805429
REMARK minimizedRMSD -1
REMARK  1 active torsions:
REMARK  status: ('A' for Active; 'I' for Inactive)
REMARK    1  A    between atoms: C1_2  and  C2_3 
ROOT
ATOM      1  C2  UNL d   1       4.922   3.930  -0.086  0.00  0.00    -0.081 A 
ATOM      2  C3  UNL d   1       4.864   3.383   1.202  0.00  0.00     0.006 A 
ATOM      3  C4  UNL d   1       4.339   2.104   1.406  0.00  0.00     0.002 A 
ATOM      4  C5  UNL d   1       3.871   1.349   0.325  0.00  0.00    -0.080 A 
ATOM      5  C6  UNL d   1       3.333  -0.037   0.526  0.00  0.00     0.076 C 
ATOM      6  C7  UNL d   1       3.913   1.902  -0.959  0.00  0.00     0.002 A 
ATOM      7  C8  UNL d   1       4.437   3.180  -1.163  0.00  0.00     0.006 A 
ENDROOT
BRANCH   1   8
ATOM      8  C1  UNL d   1       5.546   5.282  -0.317  0.00  0.00     0.054 C 
ATOM      9  C   UNL d   1       5.995   5.915   0.993  0.00  0.00     0.018 C 
ENDBRANCH   1   8
TORSDOF 1
ENDMDL
