MODEL 1
REMARK minimizedAffinity 5.89334679
REMARK minimizedRMSD -1
REMARK  1 active torsions:
REMARK  status: ('A' for Active; 'I' for Inactive)
REMARK    1  A    between atoms: C1_2  and  C2_3 
ROOT
ATOM      1  C2  UNL d   1       4.418   2.083   0.730  0.00  0.00    -0.081 A 
ATOM      2  C3  UNL d   1       3.573   0.982   0.914  0.00  0.00     0.006 A 
ATOM      3  C4  UNL d   1       3.128   0.239  -0.183  0.00  0.00     0.002 A 
ATOM      4  C5  UNL d   1       3.528   0.580  -1.479  0.00  0.00    -0.080 A 
ATOM      5  C6  UNL d   1       3.082  -0.228  -2.662  0.00  0.00     0.076 C 
ATOM      6  C7  UNL d   1       4.358   1.690  -1.665  0.00  0.00     0.002 A 
ATOM      7  C8  UNL d   1       4.802   2.434  -0.569  0.00  0.00     0.006 A 
ENDROOT
BRANCH   1   8
ATOM      8  C1  UNL d   1       4.950   2.847   1.915  0.00  0.00     0.054 C 
ATOM      9  C   UNL d   1       3.982   2.795   3.088  0.00  0.00     0.018 C 
ENDBRANCH   1   8
TORSDOF 1
ENDMDL
