MODEL 1
REMARK minimizedAffinity 13.4846792
REMARK minimizedRMSD -1
REMARK  1 active torsions:
REMARK  status: ('A' for Active; 'I' for Inactive)
REMARK    1  A    between atoms: C1_2  and  C2_3 
ROOT
ATOM      1  C2  UNL d   1      -3.957   0.314  -1.110  0.00  0.00    -0.081 A 
ATOM      2  C3  UNL d   1      -3.015   0.517  -0.095  0.00  0.00     0.006 A 
ATOM      3  C4  UNL d   1      -1.654   0.317  -0.340  0.00  0.00     0.002 A 
ATOM      4  C5  UNL d   1      -1.213  -0.083  -1.606  0.00  0.00    -0.080 A 
ATOM      5  C6  UNL d   1       0.247  -0.273  -1.892  0.00  0.00     0.076 C 
ATOM      6  C7  UNL d   1      -2.156  -0.304  -2.616  0.00  0.00     0.002 A 
ATOM      7  C8  UNL d   1      -3.516  -0.104  -2.371  0.00  0.00     0.006 A 
ENDROOT
BRANCH   1   8
ATOM      8  C1  UNL d   1      -5.419   0.592  -0.867  0.00  0.00     0.054 C 
ATOM      9  C   UNL d   1      -5.998   1.493  -1.948  0.00  0.00     0.018 C 
ENDBRANCH   1   8
TORSDOF 1
ENDMDL
