MODEL 1
REMARK minimizedAffinity 8.6654253
REMARK minimizedRMSD -1
REMARK  0 active torsions:
REMARK  status: ('A' for Active; 'I' for Inactive)
ROOT
ATOM      1  N1  IND d   1      -0.738  -5.444   1.568  0.00  0.00    -0.196 N 
ATOM      2  C2  IND d   1      -1.975  -6.000   1.744  0.00  0.00     0.054 A 
ATOM      3  C3  IND d   1      -2.941  -5.099   1.456  0.00  0.00    -0.031 A 
ATOM      4  C4  IND d   1      -2.720  -2.688   0.581  0.00  0.00     0.051 A 
ATOM      5  C5  IND d   1      -1.791  -1.725   0.299  0.00  0.00    -0.031 A 
ATOM      6  C6  IND d   1      -0.437  -1.958   0.425  0.00  0.00     0.015 A 
ATOM      7  C7  IND d   1       0.042  -3.172   0.830  0.00  0.00    -0.016 A 
ATOM      8  C8  IND d   1      -0.898  -4.150   1.124  0.00  0.00    -0.047 A 
ATOM      9  C9  IND d   1      -2.275  -3.906   1.038  0.00  0.00    -0.096 A 
ATOM     10  HN1 IND d   1       0.013  -5.837   1.712  0.00  0.00     0.298 HD
ENDROOT
TORSDOF 0
ENDMDL
