MODEL 1
REMARK minimizedAffinity 14.0677023
REMARK minimizedRMSD -1
REMARK  0 active torsions:
REMARK  status: ('A' for Active; 'I' for Inactive)
ROOT
ATOM      1  N1  IND d   1       1.420   2.362   0.727  0.00  0.00    -0.196 N 
ATOM      2  C2  IND d   1       0.844   1.645   1.738  0.00  0.00     0.054 A 
ATOM      3  C3  IND d   1       1.603   0.568   2.043  0.00  0.00    -0.031 A 
ATOM      4  C4  IND d   1       3.879  -0.154   1.081  0.00  0.00     0.051 A 
ATOM      5  C5  IND d   1       4.789   0.164   0.112  0.00  0.00    -0.031 A 
ATOM      6  C6  IND d   1       4.620   1.255  -0.717  0.00  0.00     0.015 A 
ATOM      7  C7  IND d   1       3.536   2.078  -0.599  0.00  0.00    -0.016 A 
ATOM      8  C8  IND d   1       2.607   1.754   0.380  0.00  0.00    -0.047 A 
ATOM      9  C9  IND d   1       2.751   0.624   1.195  0.00  0.00    -0.096 A 
ATOM     10  HN1 IND d   1       1.096   3.073   0.368  0.00  0.00     0.298 HD
ENDROOT
TORSDOF 0
ENDMDL
