MODEL 1
REMARK minimizedAffinity 0.489008844
REMARK minimizedRMSD -1
REMARK  0 active torsions:
REMARK  status: ('A' for Active; 'I' for Inactive)
ROOT
ATOM      1  N1  IND d   1      -4.565   3.993   4.621  0.00  0.00    -0.196 N 
ATOM      2  C2  IND d   1      -5.332   4.120   5.746  0.00  0.00     0.054 A 
ATOM      3  C3  IND d   1      -5.997   2.970   5.993  0.00  0.00    -0.031 A 
ATOM      4  C4  IND d   1      -5.897   0.721   4.744  0.00  0.00     0.051 A 
ATOM      5  C5  IND d   1      -5.364   0.128   3.634  0.00  0.00    -0.031 A 
ATOM      6  C6  IND d   1      -4.518   0.807   2.780  0.00  0.00     0.015 A 
ATOM      7  C7  IND d   1      -4.163   2.105   3.012  0.00  0.00    -0.016 A 
ATOM      8  C8  IND d   1      -4.708   2.712   4.135  0.00  0.00    -0.047 A 
ATOM      9  C9  IND d   1      -5.601   2.042   4.982  0.00  0.00    -0.096 A 
ATOM     10  HN1 IND d   1      -4.075   4.610   4.276  0.00  0.00     0.298 HD
ENDROOT
TORSDOF 0
ENDMDL
