MODEL 1
REMARK minimizedAffinity 8.55933475
REMARK minimizedRMSD -1
REMARK  0 active torsions:
REMARK  status: ('A' for Active; 'I' for Inactive)
ROOT
ATOM      1  N1  IND d   1       4.673  -1.117   2.451  0.00  0.00    -0.196 N 
ATOM      2  C2  IND d   1       3.522  -0.413   2.675  0.00  0.00     0.054 A 
ATOM      3  C3  IND d   1       3.046   0.092   1.514  0.00  0.00    -0.031 A 
ATOM      4  C4  IND d   1       3.939  -0.197  -0.883  0.00  0.00     0.051 A 
ATOM      5  C5  IND d   1       4.985  -0.725  -1.587  0.00  0.00    -0.031 A 
ATOM      6  C6  IND d   1       6.000  -1.427  -0.968  0.00  0.00     0.015 A 
ATOM      7  C7  IND d   1       6.000  -1.638   0.382  0.00  0.00    -0.016 A 
ATOM      8  C8  IND d   1       4.943  -1.097   1.100  0.00  0.00    -0.047 A 
ATOM      9  C9  IND d   1       3.933  -0.348   0.483  0.00  0.00    -0.096 A 
ATOM     10  HN1 IND d   1       5.148  -1.506   3.053  0.00  0.00     0.298 HD
ENDROOT
TORSDOF 0
ENDMDL
