MODEL 1
REMARK minimizedAffinity 12.2829266
REMARK minimizedRMSD -1
REMARK  0 active torsions:
REMARK  status: ('A' for Active; 'I' for Inactive)
ROOT
ATOM      1  N1  IND d   1      -5.090   2.487   2.316  0.00  0.00    -0.196 N 
ATOM      2  C2  IND d   1      -4.507   1.734   3.297  0.00  0.00     0.054 A 
ATOM      3  C3  IND d   1      -4.344   2.469   4.420  0.00  0.00    -0.031 A 
ATOM      4  C4  IND d   1      -5.056   4.895   4.905  0.00  0.00     0.051 A 
ATOM      5  C5  IND d   1      -5.593   6.000   4.306  0.00  0.00    -0.031 A 
ATOM      6  C6  IND d   1      -6.000   5.990   2.987  0.00  0.00     0.015 A 
ATOM      7  C7  IND d   1      -5.896   4.865   2.218  0.00  0.00    -0.016 A 
ATOM      8  C8  IND d   1      -5.345   3.743   2.821  0.00  0.00    -0.047 A 
ATOM      9  C9  IND d   1      -4.891   3.760   4.146  0.00  0.00    -0.096 A 
ATOM     10  HN1 IND d   1      -5.268   2.221   1.518  0.00  0.00     0.298 HD
ENDROOT
TORSDOF 0
ENDMDL
