MODEL 1
REMARK minimizedAffinity 4.35513544
REMARK minimizedRMSD -1
REMARK  0 active torsions:
REMARK  status: ('A' for Active; 'I' for Inactive)
ROOT
ATOM      1  N1  IND d   1      -5.186   1.246   2.642  0.00  0.00    -0.196 N 
ATOM      2  C2  IND d   1      -5.647   0.042   3.096  0.00  0.00     0.054 A 
ATOM      3  C3  IND d   1      -6.000   0.134   4.397  0.00  0.00    -0.031 A 
ATOM      4  C4  IND d   1      -5.999   2.186   5.952  0.00  0.00     0.051 A 
ATOM      5  C5  IND d   1      -5.629   3.501   6.000  0.00  0.00    -0.031 A 
ATOM      6  C6  IND d   1      -5.084   4.145   4.908  0.00  0.00     0.015 A 
ATOM      7  C7  IND d   1      -4.898   3.498   3.719  0.00  0.00    -0.016 A 
ATOM      8  C8  IND d   1      -5.266   2.161   3.669  0.00  0.00    -0.047 A 
ATOM      9  C9  IND d   1      -5.780   1.491   4.786  0.00  0.00    -0.096 A 
ATOM     10  HN1 IND d   1      -4.894   1.405   1.849  0.00  0.00     0.298 HD
ENDROOT
TORSDOF 0
ENDMDL
