MODEL 1
REMARK minimizedAffinity 1.7301017
REMARK minimizedRMSD -1
REMARK  0 active torsions:
REMARK  status: ('A' for Active; 'I' for Inactive)
ROOT
ATOM      1  N1  IND d   1      -4.523   0.651   2.443  0.00  0.00    -0.196 N 
ATOM      2  C2  IND d   1      -5.376  -0.410   2.565  0.00  0.00     0.054 A 
ATOM      3  C3  IND d   1      -6.000  -0.376   3.764  0.00  0.00    -0.031 A 
ATOM      4  C4  IND d   1      -5.849   1.384   5.637  0.00  0.00     0.051 A 
ATOM      5  C5  IND d   1      -5.176   2.516   5.999  0.00  0.00    -0.031 A 
ATOM      6  C6  IND d   1      -4.233   3.099   5.176  0.00  0.00     0.015 A 
ATOM      7  C7  IND d   1      -3.936   2.574   3.951  0.00  0.00    -0.016 A 
ATOM      8  C8  IND d   1      -4.612   1.419   3.582  0.00  0.00    -0.047 A 
ATOM      9  C9  IND d   1      -5.539   0.800   4.431  0.00  0.00    -0.096 A 
ATOM     10  HN1 IND d   1      -4.015   0.812   1.767  0.00  0.00     0.298 HD
ENDROOT
TORSDOF 0
ENDMDL
