MODEL 1
REMARK minimizedAffinity 17.907053
REMARK minimizedRMSD -1
REMARK  0 active torsions:
REMARK  status: ('A' for Active; 'I' for Inactive)
ROOT
ATOM      1  N1  IND d   1      -3.028  -2.621  -3.036  0.00  0.00    -0.196 N 
ATOM      2  C2  IND d   1      -1.766  -2.963  -2.636  0.00  0.00     0.054 A 
ATOM      3  C3  IND d   1      -1.766  -4.197  -2.084  0.00  0.00    -0.031 A 
ATOM      4  C4  IND d   1      -3.701  -5.874  -1.827  0.00  0.00     0.051 A 
ATOM      5  C5  IND d   1      -5.050  -6.000  -2.010  0.00  0.00    -0.031 A 
ATOM      6  C6  IND d   1      -5.808  -4.986  -2.558  0.00  0.00     0.015 A 
ATOM      7  C7  IND d   1      -5.242  -3.808  -2.956  0.00  0.00    -0.016 A 
ATOM      8  C8  IND d   1      -3.874  -3.674  -2.765  0.00  0.00    -0.047 A 
ATOM      9  C9  IND d   1      -3.106  -4.684  -2.169  0.00  0.00    -0.096 A 
ATOM     10  HN1 IND d   1      -3.255  -1.874  -3.396  0.00  0.00     0.298 HD
ENDROOT
TORSDOF 0
ENDMDL
