MODEL 1
REMARK minimizedAffinity 21.5404854
REMARK minimizedRMSD -1
REMARK  0 active torsions:
REMARK  status: ('A' for Active; 'I' for Inactive)
ROOT
ATOM      1  N1  IND d   1      -3.105  -2.703  -3.382  0.00  0.00    -0.196 N 
ATOM      2  C2  IND d   1      -1.841  -3.156  -3.120  0.00  0.00     0.054 A 
ATOM      3  C3  IND d   1      -1.884  -4.422  -2.648  0.00  0.00    -0.031 A 
ATOM      4  C4  IND d   1      -3.908  -5.979  -2.321  0.00  0.00     0.051 A 
ATOM      5  C5  IND d   1      -5.272  -6.000  -2.390  0.00  0.00    -0.031 A 
ATOM      6  C6  IND d   1      -5.999  -4.902  -2.803  0.00  0.00     0.015 A 
ATOM      7  C7  IND d   1      -5.384  -3.741  -3.176  0.00  0.00    -0.016 A 
ATOM      8  C8  IND d   1      -3.999  -3.713  -3.102  0.00  0.00    -0.047 A 
ATOM      9  C9  IND d   1      -3.258  -4.810  -2.642  0.00  0.00    -0.096 A 
ATOM     10  HN1 IND d   1      -3.307  -1.920  -3.673  0.00  0.00     0.298 HD
ENDROOT
TORSDOF 0
ENDMDL
