MODEL 1
REMARK minimizedAffinity 12.0835857
REMARK minimizedRMSD -1
REMARK  0 active torsions:
REMARK  status: ('A' for Active; 'I' for Inactive)
ROOT
ATOM      1  N1  IND d   1      -5.100  -3.456  -1.935  0.00  0.00    -0.196 N 
ATOM      2  C2  IND d   1      -5.713  -3.771  -3.115  0.00  0.00     0.054 A 
ATOM      3  C3  IND d   1      -4.900  -3.487  -4.158  0.00  0.00    -0.031 A 
ATOM      4  C4  IND d   1      -2.486  -2.594  -4.154  0.00  0.00     0.051 A 
ATOM      5  C5  IND d   1      -1.513  -2.123  -3.317  0.00  0.00    -0.031 A 
ATOM      6  C6  IND d   1      -1.688  -2.074  -1.950  0.00  0.00     0.015 A 
ATOM      7  C7  IND d   1      -2.844  -2.507  -1.364  0.00  0.00    -0.016 A 
ATOM      8  C8  IND d   1      -3.837  -2.979  -2.210  0.00  0.00    -0.047 A 
ATOM      9  C9  IND d   1      -3.681  -2.992  -3.602  0.00  0.00    -0.096 A 
ATOM     10  HN1 IND d   1      -5.444  -3.542  -1.152  0.00  0.00     0.298 HD
ENDROOT
TORSDOF 0
ENDMDL
