MODEL 1
REMARK minimizedAffinity 15.6895809
REMARK minimizedRMSD -1
REMARK  0 active torsions:
REMARK  status: ('A' for Active; 'I' for Inactive)
ROOT
ATOM      1  N1  IND d   1      -0.984  -2.740   1.504  0.00  0.00    -0.196 N 
ATOM      2  C2  IND d   1      -1.550  -2.035   0.479  0.00  0.00     0.054 A 
ATOM      3  C3  IND d   1      -2.596  -2.718  -0.040  0.00  0.00    -0.031 A 
ATOM      4  C4  IND d   1      -3.617  -4.961   0.705  0.00  0.00     0.051 A 
ATOM      5  C5  IND d   1      -3.421  -5.997   1.575  0.00  0.00    -0.031 A 
ATOM      6  C6  IND d   1      -2.384  -6.000   2.485  0.00  0.00     0.015 A 
ATOM      7  C7  IND d   1      -1.506  -4.956   2.568  0.00  0.00    -0.016 A 
ATOM      8  C8  IND d   1      -1.697  -3.905   1.682  0.00  0.00    -0.047 A 
ATOM      9  C9  IND d   1      -2.723  -3.916   0.727  0.00  0.00    -0.096 A 
ATOM     10  HN1 IND d   1      -0.297  -2.497   1.960  0.00  0.00     0.298 HD
ENDROOT
TORSDOF 0
ENDMDL
