MODEL 1
REMARK minimizedAffinity 21.605032
REMARK minimizedRMSD -1
REMARK  0 active torsions:
REMARK  status: ('A' for Active; 'I' for Inactive)
ROOT
ATOM      1  N1  IND d   1      -0.831  -1.947  -2.898  0.00  0.00    -0.196 N 
ATOM      2  C2  IND d   1      -1.938  -2.457  -3.518  0.00  0.00     0.054 A 
ATOM      3  C3  IND d   1      -2.886  -2.767  -2.606  0.00  0.00    -0.031 A 
ATOM      4  C4  IND d   1      -2.875  -2.426  -0.054  0.00  0.00     0.051 A 
ATOM      5  C5  IND d   1      -2.070  -2.028   0.976  0.00  0.00    -0.031 A 
ATOM      6  C6  IND d   1      -0.786  -1.571   0.763  0.00  0.00     0.015 A 
ATOM      7  C7  IND d   1      -0.261  -1.484  -0.495  0.00  0.00    -0.016 A 
ATOM      8  C8  IND d   1      -1.073  -1.894  -1.543  0.00  0.00    -0.047 A 
ATOM      9  C9  IND d   1      -2.362  -2.399  -1.329  0.00  0.00    -0.096 A 
ATOM     10  HN1 IND d   1      -0.106  -1.701  -3.289  0.00  0.00     0.298 HD
ENDROOT
TORSDOF 0
ENDMDL
