MODEL 1
REMARK minimizedAffinity 16.3500385
REMARK minimizedRMSD -1
REMARK  0 active torsions:
REMARK  status: ('A' for Active; 'I' for Inactive)
ROOT
ATOM      1  N1  IND d   1      -5.912   5.304   3.795  0.00  0.00    -0.196 N 
ATOM      2  C2  IND d   1      -6.000   5.998   4.970  0.00  0.00     0.054 A 
ATOM      3  C3  IND d   1      -5.539   5.248   5.995  0.00  0.00    -0.031 A 
ATOM      4  C4  IND d   1      -4.501   2.892   5.961  0.00  0.00     0.051 A 
ATOM      5  C5  IND d   1      -4.242   1.841   5.126  0.00  0.00    -0.031 A 
ATOM      6  C6  IND d   1      -4.529   1.893   3.777  0.00  0.00     0.015 A 
ATOM      7  C7  IND d   1      -5.079   3.007   3.209  0.00  0.00    -0.016 A 
ATOM      8  C8  IND d   1      -5.350   4.073   4.054  0.00  0.00    -0.047 A 
ATOM      9  C9  IND d   1      -5.099   4.011   5.431  0.00  0.00    -0.096 A 
ATOM     10  HN1 IND d   1      -6.166   5.588   3.024  0.00  0.00     0.298 HD
ENDROOT
TORSDOF 0
ENDMDL
