MODEL 1
REMARK minimizedAffinity 18.9868145
REMARK minimizedRMSD -1
REMARK  0 active torsions:
REMARK  status: ('A' for Active; 'I' for Inactive)
ROOT
ATOM      1  N1  IND d   1      -0.364  -5.765  -3.671  0.00  0.00    -0.196 N 
ATOM      2  C2  IND d   1       0.502  -4.855  -4.212  0.00  0.00     0.054 A 
ATOM      3  C3  IND d   1       0.022  -3.601  -4.057  0.00  0.00    -0.031 A 
ATOM      4  C4  IND d   1      -2.111  -2.801  -2.859  0.00  0.00     0.051 A 
ATOM      5  C5  IND d   1      -3.238  -3.266  -2.240  0.00  0.00    -0.031 A 
ATOM      6  C6  IND d   1      -3.467  -4.615  -2.061  0.00  0.00     0.015 A 
ATOM      7  C7  IND d   1      -2.569  -5.553  -2.485  0.00  0.00    -0.016 A 
ATOM      8  C8  IND d   1      -1.427  -5.085  -3.120  0.00  0.00    -0.047 A 
ATOM      9  C9  IND d   1      -1.209  -3.719  -3.343  0.00  0.00    -0.096 A 
ATOM     10  HN1 IND d   1      -0.261  -6.619  -3.675  0.00  0.00     0.298 HD
ENDROOT
TORSDOF 0
ENDMDL
