MODEL 1
REMARK minimizedAffinity 7.74048233
REMARK minimizedRMSD -1
REMARK  0 active torsions:
REMARK  status: ('A' for Active; 'I' for Inactive)
ROOT
ATOM      1  N1  IND d   1      -1.122  -5.874   1.639  0.00  0.00    -0.196 N 
ATOM      2  C2  IND d   1      -2.440  -6.000   1.982  0.00  0.00     0.054 A 
ATOM      3  C3  IND d   1      -3.156  -4.968   1.483  0.00  0.00    -0.031 A 
ATOM      4  C4  IND d   1      -2.389  -3.015  -0.010  0.00  0.00     0.051 A 
ATOM      5  C5  IND d   1      -1.270  -2.453  -0.558  0.00  0.00    -0.031 A 
ATOM      6  C6  IND d   1      -0.020  -3.016  -0.401  0.00  0.00     0.015 A 
ATOM      7  C7  IND d   1       0.157  -4.173   0.304  0.00  0.00    -0.016 A 
ATOM      8  C8  IND d   1      -0.976  -4.742   0.868  0.00  0.00    -0.047 A 
ATOM      9  C9  IND d   1      -2.241  -4.153   0.748  0.00  0.00    -0.096 A 
ATOM     10  HN1 IND d   1      -0.491  -6.412   1.867  0.00  0.00     0.298 HD
ENDROOT
TORSDOF 0
ENDMDL
