MODEL 1
REMARK minimizedAffinity 13.5132036
REMARK minimizedRMSD -1
REMARK  0 active torsions:
REMARK  status: ('A' for Active; 'I' for Inactive)
ROOT
ATOM      1  N1  IND d   1       1.983   1.321   2.604  0.00  0.00    -0.196 N 
ATOM      2  C2  IND d   1       1.370   1.828   1.493  0.00  0.00     0.054 A 
ATOM      3  C3  IND d   1       2.027   1.443   0.376  0.00  0.00    -0.031 A 
ATOM      4  C4  IND d   1       4.070  -0.104   0.132  0.00  0.00     0.051 A 
ATOM      5  C5  IND d   1       5.001  -0.782   0.867  0.00  0.00    -0.031 A 
ATOM      6  C6  IND d   1       4.972  -0.797   2.247  0.00  0.00     0.015 A 
ATOM      7  C7  IND d   1       3.998  -0.140   2.945  0.00  0.00    -0.016 A 
ATOM      8  C8  IND d   1       3.055   0.556   2.202  0.00  0.00    -0.047 A 
ATOM      9  C9  IND d   1       3.105   0.609   0.804  0.00  0.00    -0.096 A 
ATOM     10  HN1 IND d   1       1.739   1.457   3.418  0.00  0.00     0.298 HD
ENDROOT
TORSDOF 0
ENDMDL
