MODEL 1
REMARK minimizedAffinity 19.3984299
REMARK minimizedRMSD -1
REMARK  0 active torsions:
REMARK  status: ('A' for Active; 'I' for Inactive)
ROOT
ATOM      1  N1  IND d   1      -2.339  -2.849  -5.360  0.00  0.00    -0.196 N 
ATOM      2  C2  IND d   1      -1.287  -2.212  -5.957  0.00  0.00     0.054 A 
ATOM      3  C3  IND d   1      -0.589  -1.500  -5.044  0.00  0.00    -0.031 A 
ATOM      4  C4  IND d   1      -0.935  -1.318  -2.499  0.00  0.00     0.051 A 
ATOM      5  C5  IND d   1      -1.787  -1.692  -1.499  0.00  0.00    -0.031 A 
ATOM      6  C6  IND d   1      -2.888  -2.489  -1.739  0.00  0.00     0.015 A 
ATOM      7  C7  IND d   1      -3.172  -2.953  -2.992  0.00  0.00    -0.016 A 
ATOM      8  C8  IND d   1      -2.313  -2.570  -4.011  0.00  0.00    -0.047 A 
ATOM      9  C9  IND d   1      -1.218  -1.726  -3.781  0.00  0.00    -0.096 A 
ATOM     10  HN1 IND d   1      -2.920  -3.341  -5.760  0.00  0.00     0.298 HD
ENDROOT
TORSDOF 0
ENDMDL
