MODEL 1
REMARK minimizedAffinity 10.0966816
REMARK minimizedRMSD -1
REMARK  0 active torsions:
REMARK  status: ('A' for Active; 'I' for Inactive)
ROOT
ATOM      1  C4' PXY d   1      -2.304   0.614   1.685  0.00  0.00     0.077 C 
ATOM      2  C1' PXY d   1       3.379  -0.318   2.176  0.00  0.00     0.077 C 
ATOM      3  C1  PXY d   1       1.888  -0.070   2.060  0.00  0.00    -0.082 A 
ATOM      4  C2  PXY d   1       1.192  -0.695   1.124  0.00  0.00     0.003 A 
ATOM      5  C3  PXY d   1      -0.151  -0.458   0.984  0.00  0.00     0.003 A 
ATOM      6  C4  PXY d   1      -0.799   0.387   1.845  0.00  0.00    -0.082 A 
ATOM      7  C5  PXY d   1      -0.098   1.020   2.809  0.00  0.00     0.003 A 
ATOM      8  C6  PXY d   1       1.273   0.797   2.908  0.00  0.00     0.003 A 
ENDROOT
TORSDOF 0
ENDMDL
