MODEL 1
REMARK minimizedAffinity 10.5458336
REMARK minimizedRMSD -1
REMARK  0 active torsions:
REMARK  status: ('A' for Active; 'I' for Inactive)
ROOT
ATOM      1  C4' PXY d   1       4.077  -0.345  -1.395  0.00  0.00     0.077 C 
ATOM      2  C1' PXY d   1      -0.317   0.364   2.293  0.00  0.00     0.077 C 
ATOM      3  C1  PXY d   1       0.829   0.184   1.317  0.00  0.00    -0.082 A 
ATOM      4  C2  PXY d   1       1.688  -0.807   1.492  0.00  0.00     0.003 A 
ATOM      5  C3  PXY d   1       2.748  -0.964   0.637  0.00  0.00     0.003 A 
ATOM      6  C4  PXY d   1       2.900  -0.132  -0.439  0.00  0.00    -0.082 A 
ATOM      7  C5  PXY d   1       2.021   0.875  -0.631  0.00  0.00     0.003 A 
ATOM      8  C6  PXY d   1       0.976   1.043   0.272  0.00  0.00     0.003 A 
ENDROOT
TORSDOF 0
ENDMDL
