MODEL 1
REMARK minimizedAffinity 7.56122923
REMARK minimizedRMSD -1
REMARK  0 active torsions:
REMARK  status: ('A' for Active; 'I' for Inactive)
ROOT
ATOM      1  C4' PXY d   1       0.092  -0.530   1.876  0.00  0.00     0.077 C 
ATOM      2  C1' PXY d   1       5.285  -0.989  -0.622  0.00  0.00     0.077 C 
ATOM      3  C1  PXY d   1       3.928  -0.874   0.044  0.00  0.00    -0.082 A 
ATOM      4  C2  PXY d   1       2.837  -0.801  -0.702  0.00  0.00     0.003 A 
ATOM      5  C3  PXY d   1       1.605  -0.665  -0.117  0.00  0.00     0.003 A 
ATOM      6  C4  PXY d   1       1.482  -0.656   1.247  0.00  0.00    -0.082 A 
ATOM      7  C5  PXY d   1       2.589  -0.741   2.015  0.00  0.00     0.003 A 
ATOM      8  C6  PXY d   1       3.835  -0.838   1.401  0.00  0.00     0.003 A 
ENDROOT
TORSDOF 0
ENDMDL
