MODEL 1
REMARK minimizedAffinity 11.8861008
REMARK minimizedRMSD -1
REMARK  0 active torsions:
REMARK  status: ('A' for Active; 'I' for Inactive)
ROOT
ATOM      1  C4' PXY d   1      -0.789   2.393   1.925  0.00  0.00     0.077 C 
ATOM      2  C1' PXY d   1       2.008  -2.234   3.970  0.00  0.00     0.077 C 
ATOM      3  C1  PXY d   1       1.270  -1.027   3.424  0.00  0.00    -0.082 A 
ATOM      4  C2  PXY d   1       1.661   0.189   3.767  0.00  0.00     0.003 A 
ATOM      5  C3  PXY d   1       0.986   1.290   3.308  0.00  0.00     0.003 A 
ATOM      6  C4  PXY d   1      -0.068   1.147   2.445  0.00  0.00    -0.082 A 
ATOM      7  C5  PXY d   1      -0.466  -0.091   2.082  0.00  0.00     0.003 A 
ATOM      8  C6  PXY d   1       0.207  -1.197   2.592  0.00  0.00     0.003 A 
ENDROOT
TORSDOF 0
ENDMDL
