MODEL 1
REMARK minimizedAffinity 12.0965681
REMARK minimizedRMSD -1
REMARK  0 active torsions:
REMARK  status: ('A' for Active; 'I' for Inactive)
ROOT
ATOM      1  C4' PXY d   1       0.944  -2.711   4.531  0.00  0.00     0.077 C 
ATOM      2  C1' PXY d   1       0.336   2.176   1.503  0.00  0.00     0.077 C 
ATOM      3  C1  PXY d   1       0.493   0.887   2.287  0.00  0.00    -0.082 A 
ATOM      4  C2  PXY d   1       0.361   0.902   3.603  0.00  0.00     0.003 A 
ATOM      5  C3  PXY d   1       0.531  -0.248   4.330  0.00  0.00     0.003 A 
ATOM      6  C4  PXY d   1       0.785  -1.436   3.698  0.00  0.00    -0.082 A 
ATOM      7  C5  PXY d   1       0.911  -1.461   2.354  0.00  0.00     0.003 A 
ATOM      8  C6  PXY d   1       0.776  -0.275   1.638  0.00  0.00     0.003 A 
ENDROOT
TORSDOF 0
ENDMDL
