MODEL 1
REMARK minimizedAffinity 5.92618942
REMARK minimizedRMSD -1
REMARK  0 active torsions:
REMARK  status: ('A' for Active; 'I' for Inactive)
ROOT
ATOM      1  C4' PXY d   1       2.509  -2.742   4.950  0.00  0.00     0.077 C 
ATOM      2  C1' PXY d   1      -0.698   1.425   2.546  0.00  0.00     0.077 C 
ATOM      3  C1  PXY d   1       0.132   0.327   3.182  0.00  0.00    -0.082 A 
ATOM      4  C2  PXY d   1       1.414   0.538   3.433  0.00  0.00     0.003 A 
ATOM      5  C3  PXY d   1       2.187  -0.455   3.977  0.00  0.00     0.003 A 
ATOM      6  C4  PXY d   1       1.630  -1.659   4.318  0.00  0.00    -0.082 A 
ATOM      7  C5  PXY d   1       0.320  -1.878   4.075  0.00  0.00     0.003 A 
ATOM      8  C6  PXY d   1      -0.438  -0.872   3.483  0.00  0.00     0.003 A 
ENDROOT
TORSDOF 0
ENDMDL
