MODEL 1
REMARK minimizedAffinity 7.54573107
REMARK minimizedRMSD -1
REMARK  0 active torsions:
REMARK  status: ('A' for Active; 'I' for Inactive)
ROOT
ATOM      1  C4' PXY d   1       4.539  -0.285  -1.651  0.00  0.00     0.077 C 
ATOM      2  C1' PXY d   1       0.995  -0.056   2.910  0.00  0.00     0.077 C 
ATOM      3  C1  PXY d   1       1.914  -0.116   1.706  0.00  0.00    -0.082 A 
ATOM      4  C2  PXY d   1       3.147  -0.577   1.846  0.00  0.00     0.003 A 
ATOM      5  C3  PXY d   1       4.001  -0.608   0.774  0.00  0.00     0.003 A 
ATOM      6  C4  PXY d   1       3.573  -0.214  -0.465  0.00  0.00    -0.082 A 
ATOM      7  C5  PXY d   1       2.314   0.247  -0.619  0.00  0.00     0.003 A 
ATOM      8  C6  PXY d   1       1.475   0.309   0.490  0.00  0.00     0.003 A 
ENDROOT
TORSDOF 0
ENDMDL
