MODEL 1
REMARK minimizedAffinity 9.79549694
REMARK minimizedRMSD -1
REMARK  0 active torsions:
REMARK  status: ('A' for Active; 'I' for Inactive)
ROOT
ATOM      1  C4' PXY d   1      -5.852  -2.628  -5.999  0.00  0.00     0.077 C 
ATOM      2  C1' PXY d   1      -1.028  -5.037  -3.915  0.00  0.00     0.077 C 
ATOM      3  C1  PXY d   1      -2.293  -4.397  -4.452  0.00  0.00    -0.082 A 
ATOM      4  C2  PXY d   1      -3.096  -5.094  -5.239  0.00  0.00     0.003 A 
ATOM      5  C3  PXY d   1      -4.228  -4.520  -5.759  0.00  0.00     0.003 A 
ATOM      6  C4  PXY d   1      -4.569  -3.237  -5.427  0.00  0.00    -0.082 A 
ATOM      7  C5  PXY d   1      -3.760  -2.522  -4.615  0.00  0.00     0.003 A 
ATOM      8  C6  PXY d   1      -2.595  -3.110  -4.131  0.00  0.00     0.003 A 
ENDROOT
TORSDOF 0
ENDMDL
