MODEL 1
REMARK minimizedAffinity 7.71871614
REMARK minimizedRMSD -1
REMARK  0 active torsions:
REMARK  status: ('A' for Active; 'I' for Inactive)
ROOT
ATOM      1  C4' PXY d   1      -0.519  -2.995  -0.838  0.00  0.00     0.077 C 
ATOM      2  C1' PXY d   1      -2.904  -4.041  -5.999  0.00  0.00     0.077 C 
ATOM      3  C1  PXY d   1      -2.280  -3.779  -4.642  0.00  0.00    -0.082 A 
ATOM      4  C2  PXY d   1      -2.286  -2.553  -4.145  0.00  0.00     0.003 A 
ATOM      5  C3  PXY d   1      -1.698  -2.293  -2.934  0.00  0.00     0.003 A 
ATOM      6  C4  PXY d   1      -1.146  -3.308  -2.200  0.00  0.00    -0.082 A 
ATOM      7  C5  PXY d   1      -1.145  -4.563  -2.695  0.00  0.00     0.003 A 
ATOM      8  C6  PXY d   1      -1.711  -4.799  -3.945  0.00  0.00     0.003 A 
ENDROOT
TORSDOF 0
ENDMDL
