MODEL 1
REMARK minimizedAffinity 7.58168936
REMARK minimizedRMSD -1
REMARK  0 active torsions:
REMARK  status: ('A' for Active; 'I' for Inactive)
ROOT
ATOM      1  C4' PXY d   1       0.716  -1.403  -0.829  0.00  0.00     0.077 C 
ATOM      2  C1' PXY d   1       2.993   3.782   0.330  0.00  0.00     0.077 C 
ATOM      3  C1  PXY d   1       2.401   2.418   0.037  0.00  0.00    -0.082 A 
ATOM      4  C2  PXY d   1       2.163   2.063  -1.215  0.00  0.00     0.003 A 
ATOM      5  C3  PXY d   1       1.598   0.845  -1.496  0.00  0.00     0.003 A 
ATOM      6  C4  PXY d   1       1.322  -0.039  -0.487  0.00  0.00    -0.082 A 
ATOM      7  C5  PXY d   1       1.571   0.312   0.792  0.00  0.00     0.003 A 
ATOM      8  C6  PXY d   1       2.107   1.568   1.059  0.00  0.00     0.003 A 
ENDROOT
TORSDOF 0
ENDMDL
