MODEL 1
REMARK minimizedAffinity 13.2937565
REMARK minimizedRMSD -1
REMARK  0 active torsions:
REMARK  status: ('A' for Active; 'I' for Inactive)
ROOT
ATOM      1  C4' PXY d   1      -1.900  -3.230  -0.693  0.00  0.00     0.077 C 
ATOM      2  C1' PXY d   1      -0.606  -5.783  -5.714  0.00  0.00     0.077 C 
ATOM      3  C1  PXY d   1      -0.945  -5.102  -4.403  0.00  0.00    -0.082 A 
ATOM      4  C2  PXY d   1      -0.726  -5.735  -3.262  0.00  0.00     0.003 A 
ATOM      5  C3  PXY d   1      -1.056  -5.146  -2.068  0.00  0.00     0.003 A 
ATOM      6  C4  PXY d   1      -1.565  -3.875  -2.040  0.00  0.00    -0.082 A 
ATOM      7  C5  PXY d   1      -1.781  -3.219  -3.200  0.00  0.00     0.003 A 
ATOM      8  C6  PXY d   1      -1.478  -3.850  -4.403  0.00  0.00     0.003 A 
ENDROOT
TORSDOF 0
ENDMDL
