MODEL 1
REMARK minimizedAffinity 14.7768688
REMARK minimizedRMSD -1
REMARK  0 active torsions:
REMARK  status: ('A' for Active; 'I' for Inactive)
ROOT
ATOM      1  C4' PXY d   1      -1.362  -0.905   1.955  0.00  0.00     0.077 C 
ATOM      2  C1' PXY d   1       3.889  -0.603  -0.443  0.00  0.00     0.077 C 
ATOM      3  C1  PXY d   1       2.517  -0.684   0.197  0.00  0.00    -0.082 A 
ATOM      4  C2  PXY d   1       1.477  -1.059  -0.529  0.00  0.00     0.003 A 
ATOM      5  C3  PXY d   1       0.225  -1.107   0.026  0.00  0.00     0.003 A 
ATOM      6  C4  PXY d   1       0.043  -0.819   1.352  0.00  0.00    -0.082 A 
ATOM      7  C5  PXY d   1       1.101  -0.445   2.103  0.00  0.00     0.003 A 
ATOM      8  C6  PXY d   1       2.358  -0.363   1.510  0.00  0.00     0.003 A 
ENDROOT
TORSDOF 0
ENDMDL
