MODEL 1
REMARK minimizedAffinity 6.92678118
REMARK minimizedRMSD -1
REMARK  0 active torsions:
REMARK  status: ('A' for Active; 'I' for Inactive)
ROOT
ATOM      1  C4' PXY d   1      -5.483   0.865  -1.559  0.00  0.00     0.077 C 
ATOM      2  C1' PXY d   1      -6.000   5.998   1.049  0.00  0.00     0.077 C 
ATOM      3  C1  PXY d   1      -5.861   4.647   0.376  0.00  0.00    -0.082 A 
ATOM      4  C2  PXY d   1      -5.616   4.584  -0.923  0.00  0.00     0.003 A 
ATOM      5  C3  PXY d   1      -5.520   3.370  -1.553  0.00  0.00     0.003 A 
ATOM      6  C4  PXY d   1      -5.622   2.208  -0.836  0.00  0.00    -0.082 A 
ATOM      7  C5  PXY d   1      -5.861   2.263   0.491  0.00  0.00     0.003 A 
ATOM      8  C6  PXY d   1      -5.997   3.505   1.104  0.00  0.00     0.003 A 
ENDROOT
TORSDOF 0
ENDMDL
