MODEL 1
REMARK minimizedAffinity 6.25289392
REMARK minimizedRMSD -1
REMARK  1 active torsions:
REMARK  status: ('A' for Active; 'I' for Inactive)
REMARK    1  A    between atoms: C3_4  and  O_7 
ROOT
ATOM      1  C   UNL d   1       4.087  -0.386   0.690  0.00  0.00    -0.033 A 
ATOM      2  C1  UNL d   1       3.486   0.802   0.270  0.00  0.00     0.039 A 
ATOM      3  C2  UNL d   1       4.117   2.026   0.503  0.00  0.00    -0.080 A 
ATOM      4  C3  UNL d   1       5.347   2.047   1.155  0.00  0.00     0.150 A 
ATOM      5  C4  UNL d   1       5.953   0.867   1.573  0.00  0.00    -0.007 A 
ATOM      6  C5  UNL d   1       5.321  -0.354   1.340  0.00  0.00     0.039 A 
ENDROOT
BRANCH   4   7
ATOM      7  O   UNL d   1       5.999   3.217   1.409  0.00  0.00    -0.526 OA
ATOM      8  H5  UNL d   1       5.449   3.952   1.089  0.00  0.00     0.418 HD
ENDBRANCH   4   7
TORSDOF 1
ENDMDL
