MODEL 1
REMARK minimizedAffinity 8.48272228
REMARK minimizedRMSD -1
REMARK  1 active torsions:
REMARK  status: ('A' for Active; 'I' for Inactive)
REMARK    1  A    between atoms: C3_4  and  O_7 
ROOT
ATOM      1  C   UNL d   1       5.998   0.207   1.867  0.00  0.00    -0.033 A 
ATOM      2  C1  UNL d   1       5.042  -0.676   1.363  0.00  0.00     0.039 A 
ATOM      3  C2  UNL d   1       3.810  -0.194   0.915  0.00  0.00    -0.080 A 
ATOM      4  C3  UNL d   1       3.549   1.172   0.975  0.00  0.00     0.150 A 
ATOM      5  C4  UNL d   1       4.498   2.059   1.473  0.00  0.00    -0.007 A 
ATOM      6  C5  UNL d   1       5.727   1.575   1.921  0.00  0.00     0.039 A 
ENDROOT
BRANCH   4   7
ATOM      7  O   UNL d   1       2.360   1.690   0.554  0.00  0.00    -0.526 OA
ATOM      8  H5  UNL d   1       1.791   0.957   0.263  0.00  0.00     0.418 HD
ENDBRANCH   4   7
TORSDOF 1
ENDMDL
