MODEL 1
REMARK minimizedAffinity 1.99318552
REMARK minimizedRMSD -1
REMARK  1 active torsions:
REMARK  status: ('A' for Active; 'I' for Inactive)
REMARK    1  A    between atoms: C3_4  and  O_7 
ROOT
ATOM      1  C   UNL d   1       2.275   0.814  -0.366  0.00  0.00    -0.033 A 
ATOM      2  C1  UNL d   1       3.153  -0.259  -0.535  0.00  0.00     0.039 A 
ATOM      3  C2  UNL d   1       3.774  -0.837   0.574  0.00  0.00    -0.080 A 
ATOM      4  C3  UNL d   1       3.509  -0.333   1.845  0.00  0.00     0.150 A 
ATOM      5  C4  UNL d   1       2.633   0.733   2.021  0.00  0.00    -0.007 A 
ATOM      6  C5  UNL d   1       2.014   1.309   0.912  0.00  0.00     0.039 A 
ENDROOT
BRANCH   4   7
ATOM      7  O   UNL d   1       4.095  -0.861   2.957  0.00  0.00    -0.526 OA
ATOM      8  H5  UNL d   1       4.696  -1.572   2.679  0.00  0.00     0.418 HD
ENDBRANCH   4   7
TORSDOF 1
ENDMDL
