MODEL 1
REMARK minimizedAffinity 4.56602812
REMARK minimizedRMSD -1
REMARK  1 active torsions:
REMARK  status: ('A' for Active; 'I' for Inactive)
REMARK    1  A    between atoms: C3_4  and  O_7 
ROOT
ATOM      1  C   UNL d   1      -0.032  -3.668  -0.857  0.00  0.00    -0.033 A 
ATOM      2  C1  UNL d   1      -0.842  -2.708  -0.246  0.00  0.00     0.039 A 
ATOM      3  C2  UNL d   1      -2.049  -2.332  -0.837  0.00  0.00    -0.080 A 
ATOM      4  C3  UNL d   1      -2.435  -2.921  -2.038  0.00  0.00     0.150 A 
ATOM      5  C4  UNL d   1      -1.635  -3.880  -2.651  0.00  0.00    -0.007 A 
ATOM      6  C5  UNL d   1      -0.429  -4.254  -2.059  0.00  0.00     0.039 A 
ENDROOT
BRANCH   4   7
ATOM      7  O   UNL d   1      -3.602  -2.582  -2.656  0.00  0.00    -0.526 OA
ATOM      8  H5  UNL d   1      -4.036  -1.888  -2.133  0.00  0.00     0.418 HD
ENDBRANCH   4   7
TORSDOF 1
ENDMDL
