MODEL 1
REMARK minimizedAffinity 4.44710302
REMARK minimizedRMSD -1
REMARK  1 active torsions:
REMARK  status: ('A' for Active; 'I' for Inactive)
REMARK    1  A    between atoms: C3_4  and  O_7 
ROOT
ATOM      1  C   UNL d   1      -3.054  -4.766  -3.466  0.00  0.00    -0.033 A 
ATOM      2  C1  UNL d   1      -4.000  -4.196  -2.611  0.00  0.00     0.039 A 
ATOM      3  C2  UNL d   1      -3.717  -2.998  -1.952  0.00  0.00    -0.080 A 
ATOM      4  C3  UNL d   1      -2.486  -2.380  -2.157  0.00  0.00     0.150 A 
ATOM      5  C4  UNL d   1      -1.541  -2.940  -3.010  0.00  0.00    -0.007 A 
ATOM      6  C5  UNL d   1      -1.825  -4.136  -3.667  0.00  0.00     0.039 A 
ENDROOT
BRANCH   4   7
ATOM      7  O   UNL d   1      -2.163  -1.213  -1.532  0.00  0.00    -0.526 OA
ATOM      8  H5  UNL d   1      -2.900  -0.959  -0.952  0.00  0.00     0.418 HD
ENDBRANCH   4   7
TORSDOF 1
ENDMDL
