MODEL 1
REMARK minimizedAffinity 1.26810336
REMARK minimizedRMSD -1
REMARK  1 active torsions:
REMARK  status: ('A' for Active; 'I' for Inactive)
REMARK    1  A    between atoms: C3_4  and  O_7 
ROOT
ATOM      1  C   UNL d   1       1.392   2.024   0.739  0.00  0.00    -0.033 A 
ATOM      2  C1  UNL d   1       2.644   2.171   0.139  0.00  0.00     0.039 A 
ATOM      3  C2  UNL d   1       3.614   1.179   0.292  0.00  0.00    -0.080 A 
ATOM      4  C3  UNL d   1       3.320   0.046   1.046  0.00  0.00     0.150 A 
ATOM      5  C4  UNL d   1       2.073  -0.108   1.643  0.00  0.00    -0.007 A 
ATOM      6  C5  UNL d   1       1.106   0.884   1.490  0.00  0.00     0.039 A 
ENDROOT
BRANCH   4   7
ATOM      7  O   UNL d   1       4.236  -0.947   1.228  0.00  0.00    -0.526 OA
ATOM      8  H5  UNL d   1       5.061  -0.690   0.783  0.00  0.00     0.418 HD
ENDBRANCH   4   7
TORSDOF 1
ENDMDL
