MODEL 1
REMARK minimizedAffinity 15.0428419
REMARK minimizedRMSD -1
REMARK  1 active torsions:
REMARK  status: ('A' for Active; 'I' for Inactive)
REMARK    1  A    between atoms: C3_4  and  O_7 
ROOT
ATOM      1  C   UNL d   1      -2.017  -3.095  -1.876  0.00  0.00    -0.033 A 
ATOM      2  C1  UNL d   1      -1.445  -4.112  -2.643  0.00  0.00     0.039 A 
ATOM      3  C2  UNL d   1      -1.389  -3.993  -4.033  0.00  0.00    -0.080 A 
ATOM      4  C3  UNL d   1      -1.907  -2.854  -4.643  0.00  0.00     0.150 A 
ATOM      5  C4  UNL d   1      -2.474  -1.835  -3.885  0.00  0.00    -0.007 A 
ATOM      6  C5  UNL d   1      -2.530  -1.956  -2.497  0.00  0.00     0.039 A 
ENDROOT
BRANCH   4   7
ATOM      7  O   UNL d   1      -1.879  -2.695  -5.996  0.00  0.00    -0.526 OA
ATOM      8  H5  UNL d   1      -1.484  -3.490  -6.392  0.00  0.00     0.418 HD
ENDBRANCH   4   7
TORSDOF 1
ENDMDL
