MODEL 1
REMARK minimizedAffinity -0.586432993
REMARK minimizedRMSD -1
REMARK  1 active torsions:
REMARK  status: ('A' for Active; 'I' for Inactive)
REMARK    1  A    between atoms: C3_4  and  O_7 
ROOT
ATOM      1  C   UNL d   1       2.906   0.779   0.540  0.00  0.00    -0.033 A 
ATOM      2  C1  UNL d   1       3.116  -0.383   1.286  0.00  0.00     0.039 A 
ATOM      3  C2  UNL d   1       2.444  -0.570   2.495  0.00  0.00    -0.080 A 
ATOM      4  C3  UNL d   1       1.565   0.411   2.946  0.00  0.00     0.150 A 
ATOM      5  C4  UNL d   1       1.348   1.569   2.207  0.00  0.00    -0.007 A 
ATOM      6  C5  UNL d   1       2.021   1.754   1.000  0.00  0.00     0.039 A 
ENDROOT
BRANCH   4   7
ATOM      7  O   UNL d   1       0.889   0.275   4.123  0.00  0.00    -0.526 OA
ATOM      8  H5  UNL d   1       1.160  -0.560   4.539  0.00  0.00     0.418 HD
ENDBRANCH   4   7
TORSDOF 1
ENDMDL
