MODEL 1
REMARK minimizedAffinity 4.05291605
REMARK minimizedRMSD -1
REMARK  1 active torsions:
REMARK  status: ('A' for Active; 'I' for Inactive)
REMARK    1  A    between atoms: C3_4  and  O_7 
ROOT
ATOM      1  C   UNL d   1      -5.262   0.516   4.512  0.00  0.00    -0.033 A 
ATOM      2  C1  UNL d   1      -4.413   1.311   3.741  0.00  0.00     0.039 A 
ATOM      3  C2  UNL d   1      -4.185   2.642   4.096  0.00  0.00    -0.080 A 
ATOM      4  C3  UNL d   1      -4.812   3.165   5.224  0.00  0.00     0.150 A 
ATOM      5  C4  UNL d   1      -5.657   2.377   6.000  0.00  0.00    -0.007 A 
ATOM      6  C5  UNL d   1      -5.883   1.049   5.643  0.00  0.00     0.039 A 
ENDROOT
BRANCH   4   7
ATOM      7  O   UNL d   1      -4.625   4.460   5.608  0.00  0.00    -0.526 OA
ATOM      8  H5  UNL d   1      -4.040   4.890   4.962  0.00  0.00     0.418 HD
ENDBRANCH   4   7
TORSDOF 1
ENDMDL
