MODEL 1
REMARK minimizedAffinity 4.29791021
REMARK minimizedRMSD -1
REMARK  1 active torsions:
REMARK  status: ('A' for Active; 'I' for Inactive)
REMARK    1  A    between atoms: C3_4  and  O_7 
ROOT
ATOM      1  C   UNL d   1       6.000  -0.995   1.117  0.00  0.00    -0.033 A 
ATOM      2  C1  UNL d   1       5.526  -0.770  -0.177  0.00  0.00     0.039 A 
ATOM      3  C2  UNL d   1       4.217  -0.328  -0.376  0.00  0.00    -0.080 A 
ATOM      4  C3  UNL d   1       3.393  -0.114   0.725  0.00  0.00     0.150 A 
ATOM      5  C4  UNL d   1       3.860  -0.333   2.018  0.00  0.00    -0.007 A 
ATOM      6  C5  UNL d   1       5.167  -0.775   2.214  0.00  0.00     0.039 A 
ENDROOT
BRANCH   4   7
ATOM      7  O   UNL d   1       2.107   0.313   0.581  0.00  0.00    -0.526 OA
ATOM      8  H5  UNL d   1       1.914   0.393  -0.368  0.00  0.00     0.418 HD
ENDBRANCH   4   7
TORSDOF 1
ENDMDL
