MODEL 1
REMARK minimizedAffinity 0.449819833
REMARK minimizedRMSD -1
REMARK  1 active torsions:
REMARK  status: ('A' for Active; 'I' for Inactive)
REMARK    1  A    between atoms: C3_4  and  O_7 
ROOT
ATOM      1  C   UNL d   1      -5.587   0.126   4.253  0.00  0.00    -0.033 A 
ATOM      2  C1  UNL d   1      -4.779   0.942   3.459  0.00  0.00     0.039 A 
ATOM      3  C2  UNL d   1      -4.360   2.187   3.933  0.00  0.00    -0.080 A 
ATOM      4  C3  UNL d   1      -4.755   2.602   5.202  0.00  0.00     0.150 A 
ATOM      5  C4  UNL d   1      -5.556   1.793   6.000  0.00  0.00    -0.007 A 
ATOM      6  C5  UNL d   1      -5.974   0.551   5.524  0.00  0.00     0.039 A 
ENDROOT
BRANCH   4   7
ATOM      7  O   UNL d   1      -4.375   3.811   5.706  0.00  0.00    -0.526 OA
ATOM      8  H5  UNL d   1      -3.848   4.273   5.033  0.00  0.00     0.418 HD
ENDBRANCH   4   7
TORSDOF 1
ENDMDL
