MODEL 1
REMARK minimizedAffinity -0.467317075
REMARK minimizedRMSD -1
REMARK  1 active torsions:
REMARK  status: ('A' for Active; 'I' for Inactive)
REMARK    1  A    between atoms: C3_4  and  O_7 
ROOT
ATOM      1  C   UNL d   1       2.113   1.105   0.483  0.00  0.00    -0.033 A 
ATOM      2  C1  UNL d   1       1.765   1.313   1.819  0.00  0.00     0.039 A 
ATOM      3  C2  UNL d   1       2.499   0.701   2.837  0.00  0.00    -0.080 A 
ATOM      4  C3  UNL d   1       3.579  -0.114   2.506  0.00  0.00     0.150 A 
ATOM      5  C4  UNL d   1       3.933  -0.322   1.178  0.00  0.00    -0.007 A 
ATOM      6  C5  UNL d   1       3.198   0.289   0.162  0.00  0.00     0.039 A 
ENDROOT
BRANCH   4   7
ATOM      7  O   UNL d   1       4.322  -0.736   3.465  0.00  0.00    -0.526 OA
ATOM      8  H5  UNL d   1       3.944  -0.523   4.334  0.00  0.00     0.418 HD
ENDBRANCH   4   7
TORSDOF 1
ENDMDL
