MODEL 1
REMARK minimizedAffinity 4.69673777
REMARK minimizedRMSD -1
REMARK  1 active torsions:
REMARK  status: ('A' for Active; 'I' for Inactive)
REMARK    1  A    between atoms: C3_4  and  O_7 
ROOT
ATOM      1  C   UNL d   1      -5.385   5.998   4.496  0.00  0.00    -0.033 A 
ATOM      2  C1  UNL d   1      -4.547   5.182   5.259  0.00  0.00     0.039 A 
ATOM      3  C2  UNL d   1      -4.325   3.857   4.879  0.00  0.00    -0.080 A 
ATOM      4  C3  UNL d   1      -4.946   3.360   3.736  0.00  0.00     0.150 A 
ATOM      5  C4  UNL d   1      -5.779   4.168   2.969  0.00  0.00    -0.007 A 
ATOM      6  C5  UNL d   1      -6.000   5.491   3.351  0.00  0.00     0.039 A 
ENDROOT
BRANCH   4   7
ATOM      7  O   UNL d   1      -4.764   2.072   3.329  0.00  0.00    -0.526 OA
ATOM      8  H5  UNL d   1      -4.187   1.625   3.971  0.00  0.00     0.418 HD
ENDBRANCH   4   7
TORSDOF 1
ENDMDL
