MODEL 1
REMARK minimizedAffinity 3.08189392
REMARK minimizedRMSD -1
REMARK  1 active torsions:
REMARK  status: ('A' for Active; 'I' for Inactive)
REMARK    1  A    between atoms: C3_4  and  O_7 
ROOT
ATOM      1  C   UNL d   1      -1.923  -3.931  -4.046  0.00  0.00    -0.033 A 
ATOM      2  C1  UNL d   1      -2.949  -3.473  -3.217  0.00  0.00     0.039 A 
ATOM      3  C2  UNL d   1      -2.684  -3.165  -1.881  0.00  0.00    -0.080 A 
ATOM      4  C3  UNL d   1      -1.391  -3.318  -1.388  0.00  0.00     0.150 A 
ATOM      5  C4  UNL d   1      -0.364  -3.770  -2.210  0.00  0.00    -0.007 A 
ATOM      6  C5  UNL d   1      -0.630  -4.078  -3.543  0.00  0.00     0.039 A 
ENDROOT
BRANCH   4   7
ATOM      7  O   UNL d   1      -1.085  -3.035  -0.090  0.00  0.00    -0.526 OA
ATOM      8  H5  UNL d   1      -1.899  -2.761   0.365  0.00  0.00     0.418 HD
ENDBRANCH   4   7
TORSDOF 1
ENDMDL
