MODEL 1
REMARK minimizedAffinity -4.15808201
REMARK minimizedRMSD -1
REMARK  1 active torsions:
REMARK  status: ('A' for Active; 'I' for Inactive)
REMARK    1  A    between atoms: C3_4  and  O_7 
ROOT
ATOM      1  C   UNL d   1       0.618  -0.454  -0.085  0.00  0.00    -0.033 A 
ATOM      2  C1  UNL d   1      -0.744  -0.179  -0.219  0.00  0.00     0.039 A 
ATOM      3  C2  UNL d   1      -1.433   0.465   0.811  0.00  0.00    -0.080 A 
ATOM      4  C3  UNL d   1      -0.748   0.828   1.967  0.00  0.00     0.150 A 
ATOM      5  C4  UNL d   1       0.609   0.561   2.106  0.00  0.00    -0.007 A 
ATOM      6  C5  UNL d   1       1.295  -0.083   1.076  0.00  0.00     0.039 A 
ENDROOT
BRANCH   4   7
ATOM      7  O   UNL d   1      -1.379   1.454   3.001  0.00  0.00    -0.526 OA
ATOM      8  H5  UNL d   1      -2.320   1.548   2.777  0.00  0.00     0.418 HD
ENDBRANCH   4   7
TORSDOF 1
ENDMDL
