MODEL 1
REMARK minimizedAffinity -2.42004395
REMARK minimizedRMSD -1
REMARK  1 active torsions:
REMARK  status: ('A' for Active; 'I' for Inactive)
REMARK    1  A    between atoms: C3_4  and  O_7 
ROOT
ATOM      1  C   UNL d   1      -0.673   0.724   2.045  0.00  0.00    -0.033 A 
ATOM      2  C1  UNL d   1       0.559   0.530   1.416  0.00  0.00     0.039 A 
ATOM      3  C2  UNL d   1       0.607   0.076   0.097  0.00  0.00    -0.080 A 
ATOM      4  C3  UNL d   1      -0.581  -0.179  -0.582  0.00  0.00     0.150 A 
ATOM      5  C4  UNL d   1      -1.812   0.015   0.037  0.00  0.00    -0.007 A 
ATOM      6  C5  UNL d   1      -1.858   0.468   1.355  0.00  0.00     0.039 A 
ENDROOT
BRANCH   4   7
ATOM      7  O   UNL d   1      -0.584  -0.628  -1.869  0.00  0.00    -0.526 OA
ATOM      8  H5  UNL d   1       0.337  -0.743  -2.157  0.00  0.00     0.418 HD
ENDBRANCH   4   7
TORSDOF 1
ENDMDL
