MODEL 1
REMARK minimizedAffinity -2.72250748
REMARK minimizedRMSD -1
REMARK  1 active torsions:
REMARK  status: ('A' for Active; 'I' for Inactive)
REMARK    1  A    between atoms: C3_4  and  O_7 
ROOT
ATOM      1  C   UNL d   1       1.025  -0.544  -0.625  0.00  0.00    -0.033 A 
ATOM      2  C1  UNL d   1      -0.352  -0.488  -0.849  0.00  0.00     0.039 A 
ATOM      3  C2  UNL d   1      -1.199   0.043   0.126  0.00  0.00    -0.080 A 
ATOM      4  C3  UNL d   1      -0.656   0.516   1.318  0.00  0.00     0.150 A 
ATOM      5  C4  UNL d   1       0.715   0.467   1.546  0.00  0.00    -0.007 A 
ATOM      6  C5  UNL d   1       1.559  -0.065   0.572  0.00  0.00     0.039 A 
ENDROOT
BRANCH   4   7
ATOM      7  O   UNL d   1      -1.443   1.039   2.301  0.00  0.00    -0.526 OA
ATOM      8  H5  UNL d   1      -2.370   0.982   2.017  0.00  0.00     0.418 HD
ENDBRANCH   4   7
TORSDOF 1
ENDMDL
