MODEL 1
REMARK minimizedAffinity -3.79145193
REMARK minimizedRMSD -1
REMARK  1 active torsions:
REMARK  status: ('A' for Active; 'I' for Inactive)
REMARK    1  A    between atoms: C3_4  and  O_7 
ROOT
ATOM      1  C   UNL d   1       1.275  -1.178  -0.367  0.00  0.00    -0.033 A 
ATOM      2  C1  UNL d   1       0.062  -0.613  -0.765  0.00  0.00     0.039 A 
ATOM      3  C2  UNL d   1      -0.577   0.320   0.054  0.00  0.00    -0.080 A 
ATOM      4  C3  UNL d   1       0.007   0.680   1.265  0.00  0.00     0.150 A 
ATOM      5  C4  UNL d   1       1.217   0.124   1.666  0.00  0.00    -0.007 A 
ATOM      6  C5  UNL d   1       1.853  -0.809   0.848  0.00  0.00     0.039 A 
ENDROOT
BRANCH   4   7
ATOM      7  O   UNL d   1      -0.582   1.583   2.100  0.00  0.00    -0.526 OA
ATOM      8  H5  UNL d   1      -1.425   1.861   1.706  0.00  0.00     0.418 HD
ENDBRANCH   4   7
TORSDOF 1
ENDMDL
