MODEL 1
REMARK minimizedAffinity -3.18431735
REMARK minimizedRMSD -1
REMARK  1 active torsions:
REMARK  status: ('A' for Active; 'I' for Inactive)
REMARK    1  A    between atoms: C3_4  and  O_7 
ROOT
ATOM      1  C   UNL d   1      -0.613  -0.331  -0.458  0.00  0.00    -0.033 A 
ATOM      2  C1  UNL d   1       0.505   0.397  -0.045  0.00  0.00     0.039 A 
ATOM      3  C2  UNL d   1       0.444   1.178   1.110  0.00  0.00    -0.080 A 
ATOM      4  C3  UNL d   1      -0.738   1.223   1.844  0.00  0.00     0.150 A 
ATOM      5  C4  UNL d   1      -1.855   0.497   1.441  0.00  0.00    -0.007 A 
ATOM      6  C5  UNL d   1      -1.792  -0.282   0.286  0.00  0.00     0.039 A 
ENDROOT
BRANCH   4   7
ATOM      7  O   UNL d   1      -0.847   1.975   2.975  0.00  0.00    -0.526 OA
ATOM      8  H5  UNL d   1      -0.007   2.444   3.115  0.00  0.00     0.418 HD
ENDBRANCH   4   7
TORSDOF 1
ENDMDL
