MODEL 1
REMARK minimizedAffinity 2.52790093
REMARK minimizedRMSD -1
REMARK  1 active torsions:
REMARK  status: ('A' for Active; 'I' for Inactive)
REMARK    1  A    between atoms: C3_4  and  O_7 
ROOT
ATOM      1  C   UNL d   1      -2.379   0.433   0.967  0.00  0.00    -0.033 A 
ATOM      2  C1  UNL d   1      -1.698   0.088  -0.202  0.00  0.00     0.039 A 
ATOM      3  C2  UNL d   1      -0.362  -0.312  -0.141  0.00  0.00    -0.080 A 
ATOM      4  C3  UNL d   1       0.280  -0.366   1.093  0.00  0.00     0.150 A 
ATOM      5  C4  UNL d   1      -0.393  -0.028   2.262  0.00  0.00    -0.007 A 
ATOM      6  C5  UNL d   1      -1.727   0.373   2.200  0.00  0.00     0.039 A 
ENDROOT
BRANCH   4   7
ATOM      7  O   UNL d   1       1.585  -0.746   1.202  0.00  0.00    -0.526 OA
ATOM      8  H5  UNL d   1       1.929  -0.922   0.310  0.00  0.00     0.418 HD
ENDBRANCH   4   7
TORSDOF 1
ENDMDL
