MODEL 1
REMARK minimizedAffinity -5.83089685
REMARK minimizedRMSD -1
REMARK  1 active torsions:
REMARK  status: ('A' for Active; 'I' for Inactive)
REMARK    1  A    between atoms: C3_4  and  O_7 
ROOT
ATOM      1  C   UNL d   1      -0.968   1.070   2.208  0.00  0.00    -0.033 A 
ATOM      2  C1  UNL d   1      -0.763   0.462   0.968  0.00  0.00     0.039 A 
ATOM      3  C2  UNL d   1       0.376  -0.315   0.749  0.00  0.00    -0.080 A 
ATOM      4  C3  UNL d   1       1.300  -0.478   1.778  0.00  0.00     0.150 A 
ATOM      5  C4  UNL d   1       1.099   0.121   3.017  0.00  0.00    -0.007 A 
ATOM      6  C5  UNL d   1      -0.038   0.898   3.233  0.00  0.00     0.039 A 
ENDROOT
BRANCH   4   7
ATOM      7  O   UNL d   1       2.428  -1.224   1.611  0.00  0.00    -0.526 OA
ATOM      8  H5  UNL d   1       2.447  -1.553   0.696  0.00  0.00     0.418 HD
ENDBRANCH   4   7
TORSDOF 1
ENDMDL
