MODEL 1
REMARK minimizedAffinity -3.04284096
REMARK minimizedRMSD -1
REMARK  1 active torsions:
REMARK  status: ('A' for Active; 'I' for Inactive)
REMARK    1  A    between atoms: C3_4  and  O_7 
ROOT
ATOM      1  C   UNL d   1       0.072  -0.014  -0.830  0.00  0.00    -0.033 A 
ATOM      2  C1  UNL d   1       0.776   0.693   0.147  0.00  0.00     0.039 A 
ATOM      3  C2  UNL d   1       0.230   0.857   1.422  0.00  0.00    -0.080 A 
ATOM      4  C3  UNL d   1      -1.017   0.308   1.706  0.00  0.00     0.150 A 
ATOM      5  C4  UNL d   1      -1.722  -0.400   0.739  0.00  0.00    -0.007 A 
ATOM      6  C5  UNL d   1      -1.176  -0.562  -0.534  0.00  0.00     0.039 A 
ENDROOT
BRANCH   4   7
ATOM      7  O   UNL d   1      -1.593   0.446   2.935  0.00  0.00    -0.526 OA
ATOM      8  H5  UNL d   1      -1.005   0.983   3.492  0.00  0.00     0.418 HD
ENDBRANCH   4   7
TORSDOF 1
ENDMDL
