MODEL 1
REMARK minimizedAffinity -4.37306976
REMARK minimizedRMSD -1
REMARK  1 active torsions:
REMARK  status: ('A' for Active; 'I' for Inactive)
REMARK    1  A    between atoms: C3_4  and  O_7 
ROOT
ATOM      1  C   UNL d   1       0.653  -1.133  -0.363  0.00  0.00    -0.033 A 
ATOM      2  C1  UNL d   1      -0.689  -0.752  -0.421  0.00  0.00     0.039 A 
ATOM      3  C2  UNL d   1      -1.213   0.114   0.540  0.00  0.00    -0.080 A 
ATOM      4  C3  UNL d   1      -0.386   0.593   1.552  0.00  0.00     0.150 A 
ATOM      5  C4  UNL d   1       0.953   0.220   1.615  0.00  0.00    -0.007 A 
ATOM      6  C5  UNL d   1       1.474  -0.646   0.654  0.00  0.00     0.039 A 
ENDROOT
BRANCH   4   7
ATOM      7  O   UNL d   1      -0.853   1.436   2.516  0.00  0.00    -0.526 OA
ATOM      8  H5  UNL d   1      -1.802   1.583   2.362  0.00  0.00     0.418 HD
ENDBRANCH   4   7
TORSDOF 1
ENDMDL
