MODEL 1
REMARK minimizedAffinity 5.9381609
REMARK minimizedRMSD -1
REMARK  1 active torsions:
REMARK  status: ('A' for Active; 'I' for Inactive)
REMARK    1  A    between atoms: C3_4  and  O_7 
ROOT
ATOM      1  C   UNL d   1       3.924  -1.214  -1.959  0.00  0.00    -0.033 A 
ATOM      2  C1  UNL d   1       2.592  -1.131  -1.546  0.00  0.00     0.039 A 
ATOM      3  C2  UNL d   1       1.702  -0.292  -2.220  0.00  0.00    -0.080 A 
ATOM      4  C3  UNL d   1       2.155   0.456  -3.303  0.00  0.00     0.150 A 
ATOM      5  C4  UNL d   1       3.479   0.374  -3.722  0.00  0.00    -0.007 A 
ATOM      6  C5  UNL d   1       4.366  -0.463  -3.048  0.00  0.00     0.039 A 
ENDROOT
BRANCH   4   7
ATOM      7  O   UNL d   1       1.324   1.292  -3.989  0.00  0.00    -0.526 OA
ATOM      8  H5  UNL d   1       0.448   1.267  -3.569  0.00  0.00     0.418 HD
ENDBRANCH   4   7
TORSDOF 1
ENDMDL
