MODEL 1
REMARK minimizedAffinity 2.36808872
REMARK minimizedRMSD -1
REMARK  1 active torsions:
REMARK  status: ('A' for Active; 'I' for Inactive)
REMARK    1  A    between atoms: C3_4  and  O_7 
ROOT
ATOM      1  C   UNL d   1      -2.781  -1.295   2.072  0.00  0.00    -0.033 A 
ATOM      2  C1  UNL d   1      -2.228  -0.360   1.195  0.00  0.00     0.039 A 
ATOM      3  C2  UNL d   1      -1.543   0.749   1.695  0.00  0.00    -0.080 A 
ATOM      4  C3  UNL d   1      -1.418   0.911   3.072  0.00  0.00     0.150 A 
ATOM      5  C4  UNL d   1      -1.964  -0.018   3.952  0.00  0.00    -0.007 A 
ATOM      6  C5  UNL d   1      -2.648  -1.125   3.451  0.00  0.00     0.039 A 
ENDROOT
BRANCH   4   7
ATOM      7  O   UNL d   1      -0.763   1.980   3.607  0.00  0.00    -0.526 OA
ATOM      8  H5  UNL d   1      -0.464   2.553   2.881  0.00  0.00     0.418 HD
ENDBRANCH   4   7
TORSDOF 1
ENDMDL
