MODEL 1
REMARK minimizedAffinity 3.50911307
REMARK minimizedRMSD -1
REMARK  1 active torsions:
REMARK  status: ('A' for Active; 'I' for Inactive)
REMARK    1  A    between atoms: C3_4  and  O_7 
ROOT
ATOM      1  C   UNL d   1       2.411   0.505  -3.326  0.00  0.00    -0.033 A 
ATOM      2  C1  UNL d   1       3.679   0.790  -2.817  0.00  0.00     0.039 A 
ATOM      3  C2  UNL d   1       4.746  -0.074  -3.072  0.00  0.00    -0.080 A 
ATOM      4  C3  UNL d   1       4.531  -1.218  -3.837  0.00  0.00     0.150 A 
ATOM      5  C4  UNL d   1       3.270  -1.506  -4.349  0.00  0.00    -0.007 A 
ATOM      6  C5  UNL d   1       2.206  -0.642  -4.093  0.00  0.00     0.039 A 
ENDROOT
BRANCH   4   7
ATOM      7  O   UNL d   1       5.540  -2.093  -4.108  0.00  0.00    -0.526 OA
ATOM      8  H5  UNL d   1       6.346  -1.780  -3.665  0.00  0.00     0.418 HD
ENDBRANCH   4   7
TORSDOF 1
ENDMDL
