MODEL 1
REMARK minimizedAffinity 4.79588556
REMARK minimizedRMSD -1
REMARK  1 active torsions:
REMARK  status: ('A' for Active; 'I' for Inactive)
REMARK    1  A    between atoms: C1_2  and  C2_3 
ROOT
ATOM      1  C2  UNL d   1       1.517   2.557   0.652  0.00  0.00    -0.073 A 
ATOM      2  C3  UNL d   1       0.163   2.387   0.961  0.00  0.00    -0.002 A 
ATOM      3  C4  UNL d   1      -0.819   3.013   0.193  0.00  0.00     0.004 A 
ATOM      4  C5  UNL d   1      -0.458   3.809  -0.894  0.00  0.00    -0.004 A 
ATOM      5  C6  UNL d   1       0.890   3.981  -1.226  0.00  0.00    -0.075 A 
ATOM      6  C7  UNL d   1       1.295   4.836  -2.391  0.00  0.00     0.076 C 
ATOM      7  C8  UNL d   1       1.870   3.351  -0.448  0.00  0.00     0.001 A 
ENDROOT
BRANCH   1   8
ATOM      8  C1  UNL d   1       2.581   1.877   1.475  0.00  0.00     0.053 C 
ATOM      9  C   UNL d   1       2.299   1.976   2.966  0.00  0.00     0.018 C 
ENDBRANCH   1   8
TORSDOF 1
ENDMDL
