MODEL 1
REMARK minimizedAffinity 8.30881023
REMARK minimizedRMSD -1
REMARK  1 active torsions:
REMARK  status: ('A' for Active; 'I' for Inactive)
REMARK    1  A    between atoms: C1_2  and  C2_3 
ROOT
ATOM      1  C2  UNL d   1       4.189  -4.496  -0.774  0.00  0.00    -0.073 A 
ATOM      2  C3  UNL d   1       4.482  -3.180  -0.400  0.00  0.00    -0.002 A 
ATOM      3  C4  UNL d   1       3.486  -2.203  -0.417  0.00  0.00     0.004 A 
ATOM      4  C5  UNL d   1       2.186  -2.533  -0.799  0.00  0.00    -0.004 A 
ATOM      5  C6  UNL d   1       1.870  -3.846  -1.165  0.00  0.00    -0.075 A 
ATOM      6  C7  UNL d   1       0.477  -4.217  -1.581  0.00  0.00     0.076 C 
ATOM      7  C8  UNL d   1       2.877  -4.820  -1.148  0.00  0.00     0.001 A 
ENDROOT
BRANCH   1   8
ATOM      8  C1  UNL d   1       5.260  -5.555  -0.751  0.00  0.00     0.053 C 
ATOM      9  C   UNL d   1       5.996  -5.593   0.579  0.00  0.00     0.018 C 
ENDBRANCH   1   8
TORSDOF 1
ENDMDL
