MODEL 1
REMARK minimizedAffinity 12.3829451
REMARK minimizedRMSD -1
REMARK  1 active torsions:
REMARK  status: ('A' for Active; 'I' for Inactive)
REMARK    1  A    between atoms: C1_2  and  C2_3 
ROOT
ATOM      1  C2  UNL d   1      -1.919   4.980  -1.725  0.00  0.00    -0.073 A 
ATOM      2  C3  UNL d   1      -0.887   5.847  -2.101  0.00  0.00    -0.002 A 
ATOM      3  C4  UNL d   1       0.442   5.424  -2.053  0.00  0.00     0.004 A 
ATOM      4  C5  UNL d   1       0.752   4.129  -1.636  0.00  0.00    -0.004 A 
ATOM      5  C6  UNL d   1      -0.266   3.244  -1.267  0.00  0.00    -0.075 A 
ATOM      6  C7  UNL d   1       0.051   1.849  -0.814  0.00  0.00     0.076 C 
ATOM      7  C8  UNL d   1      -1.598   3.677  -1.315  0.00  0.00     0.001 A 
ENDROOT
BRANCH   1   8
ATOM      8  C1  UNL d   1      -3.356   5.430  -1.781  0.00  0.00     0.053 C 
ATOM      9  C   UNL d   1      -4.132   4.721  -2.879  0.00  0.00     0.018 C 
ENDBRANCH   1   8
TORSDOF 1
ENDMDL
