MODEL 1
REMARK minimizedAffinity 10.1669235
REMARK minimizedRMSD -1
REMARK  1 active torsions:
REMARK  status: ('A' for Active; 'I' for Inactive)
REMARK    1  A    between atoms: C1_2  and  C2_3 
ROOT
ATOM      1  C2  UNL d   1      -1.941   5.349  -0.946  0.00  0.00    -0.073 A 
ATOM      2  C3  UNL d   1      -3.124   5.406  -1.692  0.00  0.00    -0.002 A 
ATOM      3  C4  UNL d   1      -4.345   5.644  -1.060  0.00  0.00     0.004 A 
ATOM      4  C5  UNL d   1      -4.396   5.835   0.321  0.00  0.00    -0.004 A 
ATOM      5  C6  UNL d   1      -3.223   5.794   1.082  0.00  0.00    -0.075 A 
ATOM      6  C7  UNL d   1      -3.260   5.995   2.569  0.00  0.00     0.076 C 
ATOM      7  C8  UNL d   1      -2.001   5.551   0.440  0.00  0.00     0.001 A 
ENDROOT
BRANCH   1   8
ATOM      8  C1  UNL d   1      -0.620   5.098  -1.625  0.00  0.00     0.053 C 
ATOM      9  C   UNL d   1       0.024   3.803  -1.158  0.00  0.00     0.018 C 
ENDBRANCH   1   8
TORSDOF 1
ENDMDL
