MODEL 1
REMARK minimizedAffinity 9.43511772
REMARK minimizedRMSD -1
REMARK  1 active torsions:
REMARK  status: ('A' for Active; 'I' for Inactive)
REMARK    1  A    between atoms: C1_2  and  C2_3 
ROOT
ATOM      1  C2  UNL d   1       3.285  -5.122  -0.983  0.00  0.00    -0.073 A 
ATOM      2  C3  UNL d   1       4.237  -4.393  -0.263  0.00  0.00    -0.002 A 
ATOM      3  C4  UNL d   1       5.512  -4.183  -0.791  0.00  0.00     0.004 A 
ATOM      4  C5  UNL d   1       5.844  -4.693  -2.046  0.00  0.00    -0.004 A 
ATOM      5  C6  UNL d   1       4.902  -5.414  -2.786  0.00  0.00    -0.075 A 
ATOM      6  C7  UNL d   1       5.245  -5.972  -4.137  0.00  0.00     0.076 C 
ATOM      7  C8  UNL d   1       3.626  -5.623  -2.248  0.00  0.00     0.001 A 
ENDROOT
BRANCH   1   8
ATOM      8  C1  UNL d   1       1.905  -5.346  -0.420  0.00  0.00     0.053 C 
ATOM      9  C   UNL d   1       0.943  -4.235  -0.809  0.00  0.00     0.018 C 
ENDBRANCH   1   8
TORSDOF 1
ENDMDL
