MODEL 1
REMARK minimizedAffinity 10.3277941
REMARK minimizedRMSD -1
REMARK  1 active torsions:
REMARK  status: ('A' for Active; 'I' for Inactive)
REMARK    1  A    between atoms: C1_2  and  C2_3 
ROOT
ATOM      1  C2  UNL d   1      -0.729  -4.124  -3.325  0.00  0.00    -0.073 A 
ATOM      2  C3  UNL d   1       0.230  -3.761  -4.278  0.00  0.00    -0.002 A 
ATOM      3  C4  UNL d   1       1.541  -3.483  -3.888  0.00  0.00     0.004 A 
ATOM      4  C5  UNL d   1       1.908  -3.571  -2.545  0.00  0.00    -0.004 A 
ATOM      5  C6  UNL d   1       0.967  -3.943  -1.580  0.00  0.00    -0.075 A 
ATOM      6  C7  UNL d   1       1.345  -4.040  -0.131  0.00  0.00     0.076 C 
ATOM      7  C8  UNL d   1      -0.348  -4.218  -1.979  0.00  0.00     0.001 A 
ENDROOT
BRANCH   1   8
ATOM      8  C1  UNL d   1      -2.144  -4.431  -3.741  0.00  0.00     0.053 C 
ATOM      9  C   UNL d   1      -2.195  -5.290  -4.995  0.00  0.00     0.018 C 
ENDBRANCH   1   8
TORSDOF 1
ENDMDL
