MODEL 1
REMARK minimizedAffinity 8.80494118
REMARK minimizedRMSD -1
REMARK  0 active torsions:
REMARK  status: ('A' for Active; 'I' for Inactive)
ROOT
ATOM      1  C   UNL d   1       3.441   0.775  -0.343  0.00  0.00     0.023 A 
ATOM      2  C1  UNL d   1       2.515   1.808  -0.483  0.00  0.00     0.003 A 
ATOM      3  C2  UNL d   1       1.520   1.990   0.480  0.00  0.00     0.048 A 
ATOM      4  C3  UNL d   1       1.457   1.135   1.580  0.00  0.00     0.023 A 
ATOM      5  C4  UNL d   1       2.382   0.100   1.724  0.00  0.00     0.048 A 
ATOM      6  C5  UNL d   1       3.375  -0.079   0.758  0.00  0.00     0.003 A 
ATOM      7  I   UNL d   1      -0.024   1.404   3.013  0.00  0.00    -0.146 I 
ENDROOT
TORSDOF 0
ENDMDL
