MODEL 1
REMARK minimizedAffinity 7.51831913
REMARK minimizedRMSD -1
REMARK  0 active torsions:
REMARK  status: ('A' for Active; 'I' for Inactive)
ROOT
ATOM      1  C   UNL d   1       1.987   0.754  -0.238  0.00  0.00     0.023 A 
ATOM      2  C1  UNL d   1       3.256   1.111  -0.693  0.00  0.00     0.003 A 
ATOM      3  C2  UNL d   1       4.388   0.474  -0.180  0.00  0.00     0.048 A 
ATOM      4  C3  UNL d   1       4.243  -0.519   0.788  0.00  0.00     0.023 A 
ATOM      5  C4  UNL d   1       2.975  -0.880   1.246  0.00  0.00     0.048 A 
ATOM      6  C5  UNL d   1       1.846  -0.241   0.730  0.00  0.00     0.003 A 
ATOM      7  I   UNL d   1       5.926  -1.468   1.554  0.00  0.00    -0.146 I 
ENDROOT
TORSDOF 0
ENDMDL
