MODEL 1
REMARK minimizedAffinity 12.3527546
REMARK minimizedRMSD -1
REMARK  0 active torsions:
REMARK  status: ('A' for Active; 'I' for Inactive)
ROOT
ATOM      1  C   UNL d   1       3.901   2.003  -1.331  0.00  0.00     0.023 A 
ATOM      2  C1  UNL d   1       4.933   2.922  -1.137  0.00  0.00     0.003 A 
ATOM      3  C2  UNL d   1       5.332   3.262   0.157  0.00  0.00     0.048 A 
ATOM      4  C3  UNL d   1       4.695   2.680   1.252  0.00  0.00     0.023 A 
ATOM      5  C4  UNL d   1       3.663   1.759   1.063  0.00  0.00     0.048 A 
ATOM      6  C5  UNL d   1       3.267   1.423  -0.233  0.00  0.00     0.003 A 
ATOM      7  I   UNL d   1       5.288   3.185   3.179  0.00  0.00    -0.146 I 
ENDROOT
TORSDOF 0
ENDMDL
