MODEL 1
REMARK minimizedAffinity 8.10368252
REMARK minimizedRMSD -1
REMARK  0 active torsions:
REMARK  status: ('A' for Active; 'I' for Inactive)
ROOT
ATOM      1  C   UNL d   1       1.762  -0.052   0.272  0.00  0.00     0.023 A 
ATOM      2  C1  UNL d   1       1.690   0.503  -1.006  0.00  0.00     0.003 A 
ATOM      3  C2  UNL d   1       2.674   1.395  -1.438  0.00  0.00     0.048 A 
ATOM      4  C3  UNL d   1       3.727   1.728  -0.587  0.00  0.00     0.023 A 
ATOM      5  C4  UNL d   1       3.804   1.175   0.693  0.00  0.00     0.048 A 
ATOM      6  C5  UNL d   1       2.818   0.284   1.120  0.00  0.00     0.003 A 
ATOM      7  I   UNL d   1       5.192   3.056  -1.227  0.00  0.00    -0.146 I 
ENDROOT
TORSDOF 0
ENDMDL
