MODEL 1
REMARK minimizedAffinity 9.02175808
REMARK minimizedRMSD -1
REMARK  0 active torsions:
REMARK  status: ('A' for Active; 'I' for Inactive)
ROOT
ATOM      1  C   UNL d   1       3.172   0.687  -0.814  0.00  0.00     0.023 A 
ATOM      2  C1  UNL d   1       3.822   0.937  -2.023  0.00  0.00     0.003 A 
ATOM      3  C2  UNL d   1       4.550   2.115  -2.196  0.00  0.00     0.048 A 
ATOM      4  C3  UNL d   1       4.626   3.040  -1.155  0.00  0.00     0.023 A 
ATOM      5  C4  UNL d   1       3.978   2.795   0.057  0.00  0.00     0.048 A 
ATOM      6  C5  UNL d   1       3.250   1.615   0.225  0.00  0.00     0.003 A 
ATOM      7  I   UNL d   1       5.710   4.795  -1.409  0.00  0.00    -0.146 I 
ENDROOT
TORSDOF 0
ENDMDL
