MODEL 1
REMARK minimizedAffinity 13.4874735
REMARK minimizedRMSD -1
REMARK  0 active torsions:
REMARK  status: ('A' for Active; 'I' for Inactive)
ROOT
ATOM      1  C   UNL d   1      -4.844   4.985   1.133  0.00  0.00     0.023 A 
ATOM      2  C1  UNL d   1      -5.479   5.991   1.863  0.00  0.00     0.003 A 
ATOM      3  C2  UNL d   1      -5.812   5.779   3.202  0.00  0.00     0.048 A 
ATOM      4  C3  UNL d   1      -5.506   4.560   3.807  0.00  0.00     0.023 A 
ATOM      5  C4  UNL d   1      -4.870   3.552   3.081  0.00  0.00     0.048 A 
ATOM      6  C5  UNL d   1      -4.540   3.767   1.742  0.00  0.00     0.003 A 
ATOM      7  I   UNL d   1      -6.000   4.243   5.801  0.00  0.00    -0.146 I 
ENDROOT
TORSDOF 0
ENDMDL
