MODEL 1
REMARK minimizedAffinity 6.92659044
REMARK minimizedRMSD -1
REMARK  0 active torsions:
REMARK  status: ('A' for Active; 'I' for Inactive)
ROOT
ATOM      1  C   UNL d   1       2.627   1.471   1.088  0.00  0.00     0.023 A 
ATOM      2  C1  UNL d   1       2.826   0.138   1.448  0.00  0.00     0.003 A 
ATOM      3  C2  UNL d   1       2.574  -0.880   0.527  0.00  0.00     0.048 A 
ATOM      4  C3  UNL d   1       2.125  -0.559  -0.753  0.00  0.00     0.023 A 
ATOM      5  C4  UNL d   1       1.925   0.773  -1.119  0.00  0.00     0.048 A 
ATOM      6  C5  UNL d   1       2.177   1.788  -0.194  0.00  0.00     0.003 A 
ATOM      7  I   UNL d   1       1.749  -2.074  -2.126  0.00  0.00    -0.146 I 
ENDROOT
TORSDOF 0
ENDMDL
