MODEL 1
REMARK minimizedAffinity 8.31384182
REMARK minimizedRMSD -1
REMARK  0 active torsions:
REMARK  status: ('A' for Active; 'I' for Inactive)
ROOT
ATOM      1  C   UNL d   1       3.004  -0.205   0.002  0.00  0.00     0.023 A 
ATOM      2  C1  UNL d   1       4.363  -0.257   0.315  0.00  0.00     0.003 A 
ATOM      3  C2  UNL d   1       5.223   0.747  -0.135  0.00  0.00     0.048 A 
ATOM      4  C3  UNL d   1       4.718   1.800  -0.897  0.00  0.00     0.023 A 
ATOM      5  C4  UNL d   1       3.359   1.856  -1.212  0.00  0.00     0.048 A 
ATOM      6  C5  UNL d   1       2.503   0.850  -0.760  0.00  0.00     0.003 A 
ATOM      7  I   UNL d   1       5.996   3.295  -1.568  0.00  0.00    -0.146 I 
ENDROOT
TORSDOF 0
ENDMDL
