MODEL 1
REMARK minimizedAffinity 11.4288387
REMARK minimizedRMSD -1
REMARK  0 active torsions:
REMARK  status: ('A' for Active; 'I' for Inactive)
ROOT
ATOM      1  C   UNL d   1       2.803   0.646  -1.044  0.00  0.00     0.023 A 
ATOM      2  C1  UNL d   1       2.790   0.044   0.214  0.00  0.00     0.003 A 
ATOM      3  C2  UNL d   1       2.985   0.815   1.361  0.00  0.00     0.048 A 
ATOM      4  C3  UNL d   1       3.192   2.189   1.244  0.00  0.00     0.023 A 
ATOM      5  C4  UNL d   1       3.205   2.797  -0.013  0.00  0.00     0.048 A 
ATOM      6  C5  UNL d   1       3.011   2.021  -1.157  0.00  0.00     0.003 A 
ATOM      7  I   UNL d   1       3.483   3.339   2.950  0.00  0.00    -0.146 I 
ENDROOT
TORSDOF 0
ENDMDL
