MODEL 1
REMARK minimizedAffinity 20.0975361
REMARK minimizedRMSD -1
REMARK  0 active torsions:
REMARK  status: ('A' for Active; 'I' for Inactive)
ROOT
ATOM      1  C   UNL d   1      -3.330  -0.517  -1.660  0.00  0.00     0.023 A 
ATOM      2  C1  UNL d   1      -4.441  -0.392  -0.827  0.00  0.00     0.003 A 
ATOM      3  C2  UNL d   1      -4.628   0.773  -0.080  0.00  0.00     0.048 A 
ATOM      4  C3  UNL d   1      -3.699   1.809  -0.172  0.00  0.00     0.023 A 
ATOM      5  C4  UNL d   1      -2.586   1.689  -1.005  0.00  0.00     0.048 A 
ATOM      6  C5  UNL d   1      -2.403   0.522  -1.750  0.00  0.00     0.003 A 
ATOM      7  I   UNL d   1      -3.974   3.544   0.939  0.00  0.00    -0.146 I 
ENDROOT
TORSDOF 0
ENDMDL
