MODEL 1
REMARK minimizedAffinity 4.26374578
REMARK minimizedRMSD -1
REMARK  0 active torsions:
REMARK  status: ('A' for Active; 'I' for Inactive)
ROOT
ATOM      1  C   UNL d   1      -3.321   0.250  -1.078  0.00  0.00     0.023 A 
ATOM      2  C1  UNL d   1      -4.703   0.295  -0.894  0.00  0.00     0.003 A 
ATOM      3  C2  UNL d   1      -5.248   1.076   0.127  0.00  0.00     0.048 A 
ATOM      4  C3  UNL d   1      -4.405   1.810   0.960  0.00  0.00     0.023 A 
ATOM      5  C4  UNL d   1      -3.021   1.769   0.780  0.00  0.00     0.048 A 
ATOM      6  C5  UNL d   1      -2.481   0.986  -0.242  0.00  0.00     0.003 A 
ATOM      7  I   UNL d   1      -5.213   2.973   2.481  0.00  0.00    -0.146 I 
ENDROOT
TORSDOF 0
ENDMDL
