MODEL 1
REMARK minimizedAffinity -0.270179898
REMARK minimizedRMSD -1
REMARK  0 active torsions:
REMARK  status: ('A' for Active; 'I' for Inactive)
ROOT
ATOM      1  C   UNL d   1      -0.489   0.341   0.627  0.00  0.00    -0.002 A 
ATOM      2  C1  UNL d   1       0.315  -0.728   0.258  0.00  0.00     0.010 A 
ATOM      3  C2  UNL d   1      -0.085  -1.602  -0.754  0.00  0.00     0.041 A 
ATOM      4  C3  UNL d   1      -1.319  -1.381  -1.397  0.00  0.00    -0.075 A 
ATOM      5  S   UNL d   1      -2.014  -2.321  -2.664  0.00  0.00     0.015 SA
ATOM      6  C4  UNL d   1      -3.395  -1.325  -2.747  0.00  0.00     0.022 A 
ATOM      7  C5  UNL d   1      -3.344  -0.296  -1.836  0.00  0.00     0.026 A 
ATOM      8  C6  UNL d   1      -2.146  -0.311  -1.044  0.00  0.00    -0.082 A 
ATOM      9  C7  UNL d   1      -1.713   0.557  -0.013  0.00  0.00     0.045 A 
ENDROOT
TORSDOF 0
ENDMDL
