MODEL 1
REMARK minimizedAffinity -4.00283051
REMARK minimizedRMSD -1
REMARK  0 active torsions:
REMARK  status: ('A' for Active; 'I' for Inactive)
ROOT
ATOM      1  C   UNL d   1      -0.849   1.274   1.432  0.00  0.00    -0.002 A 
ATOM      2  C1  UNL d   1      -1.008   0.299   0.458  0.00  0.00     0.010 A 
ATOM      3  C2  UNL d   1       0.104  -0.275  -0.161  0.00  0.00     0.041 A 
ATOM      4  C3  UNL d   1       1.391   0.152   0.220  0.00  0.00    -0.075 A 
ATOM      5  S   UNL d   1       2.898  -0.410  -0.401  0.00  0.00     0.015 SA
ATOM      6  C4  UNL d   1       3.789   0.631   0.613  0.00  0.00     0.022 A 
ATOM      7  C5  UNL d   1       2.973   1.395   1.412  0.00  0.00     0.026 A 
ATOM      8  C6  UNL d   1       1.577   1.131   1.199  0.00  0.00    -0.082 A 
ATOM      9  C7  UNL d   1       0.430   1.694   1.808  0.00  0.00     0.045 A 
ENDROOT
TORSDOF 0
ENDMDL
