MODEL 1
REMARK minimizedAffinity -1.83074069
REMARK minimizedRMSD -1
REMARK  0 active torsions:
REMARK  status: ('A' for Active; 'I' for Inactive)
ROOT
ATOM      1  C   UNL d   1       0.030   0.264   0.958  0.00  0.00    -0.002 A 
ATOM      2  C1  UNL d   1      -0.649   1.395   0.529  0.00  0.00     0.010 A 
ATOM      3  C2  UNL d   1      -1.532   1.327  -0.550  0.00  0.00     0.041 A 
ATOM      4  C3  UNL d   1      -1.725   0.090  -1.196  0.00  0.00    -0.075 A 
ATOM      5  S   UNL d   1      -2.758  -0.231  -2.538  0.00  0.00     0.015 SA
ATOM      6  C4  UNL d   1      -2.323  -1.879  -2.574  0.00  0.00     0.022 A 
ATOM      7  C5  UNL d   1      -1.413  -2.193  -1.593  0.00  0.00     0.026 A 
ATOM      8  C6  UNL d   1      -1.053  -1.063  -0.782  0.00  0.00    -0.082 A 
ATOM      9  C7  UNL d   1      -0.164  -0.962   0.314  0.00  0.00     0.045 A 
ENDROOT
TORSDOF 0
ENDMDL
