MODEL 1
REMARK minimizedAffinity -1.63369501
REMARK minimizedRMSD -1
REMARK  0 active torsions:
REMARK  status: ('A' for Active; 'I' for Inactive)
ROOT
ATOM      1  C   UNL d   1       3.496   0.979   0.816  0.00  0.00    -0.002 A 
ATOM      2  C1  UNL d   1       3.292   0.169  -0.292  0.00  0.00     0.010 A 
ATOM      3  C2  UNL d   1       2.009  -0.267  -0.626  0.00  0.00     0.041 A 
ATOM      4  C3  UNL d   1       0.922   0.130   0.178  0.00  0.00    -0.075 A 
ATOM      5  S   UNL d   1      -0.738  -0.281  -0.040  0.00  0.00     0.015 SA
ATOM      6  C4  UNL d   1      -1.216   0.609   1.332  0.00  0.00     0.022 A 
ATOM      7  C5  UNL d   1      -0.148   1.212   1.953  0.00  0.00     0.026 A 
ATOM      8  C6  UNL d   1       1.102   0.946   1.298  0.00  0.00    -0.082 A 
ATOM      9  C7  UNL d   1       2.416   1.371   1.612  0.00  0.00     0.045 A 
ENDROOT
TORSDOF 0
ENDMDL
