MODEL 1
REMARK minimizedAffinity -1.04039681
REMARK minimizedRMSD -1
REMARK  0 active torsions:
REMARK  status: ('A' for Active; 'I' for Inactive)
ROOT
ATOM      1  C   UNL d   1       0.967  -1.085  -0.501  0.00  0.00    -0.002 A 
ATOM      2  C1  UNL d   1      -0.105  -1.108   0.381  0.00  0.00     0.010 A 
ATOM      3  C2  UNL d   1      -1.401  -1.340  -0.082  0.00  0.00     0.041 A 
ATOM      4  C3  UNL d   1      -1.605  -1.552  -1.460  0.00  0.00    -0.075 A 
ATOM      5  S   UNL d   1      -3.104  -1.856  -2.255  0.00  0.00     0.015 SA
ATOM      6  C4  UNL d   1      -2.358  -1.964  -3.783  0.00  0.00     0.022 A 
ATOM      7  C5  UNL d   1      -0.999  -1.775  -3.708  0.00  0.00     0.026 A 
ATOM      8  C6  UNL d   1      -0.542  -1.535  -2.368  0.00  0.00    -0.082 A 
ATOM      9  C7  UNL d   1       0.761  -1.296  -1.867  0.00  0.00     0.045 A 
ENDROOT
TORSDOF 0
ENDMDL
