MODEL 1
REMARK minimizedAffinity 1.21376967
REMARK minimizedRMSD -1
REMARK  0 active torsions:
REMARK  status: ('A' for Active; 'I' for Inactive)
ROOT
ATOM      1  C   UNL d   1       0.189  -0.852   0.526  0.00  0.00    -0.002 A 
ATOM      2  C1  UNL d   1      -0.463   0.357   0.332  0.00  0.00     0.010 A 
ATOM      3  C2  UNL d   1      -1.367   0.516  -0.721  0.00  0.00     0.041 A 
ATOM      4  C3  UNL d   1      -1.607  -0.572  -1.583  0.00  0.00    -0.075 A 
ATOM      5  S   UNL d   1      -2.671  -0.609  -2.938  0.00  0.00     0.015 SA
ATOM      6  C4  UNL d   1      -2.286  -2.231  -3.292  0.00  0.00     0.022 A 
ATOM      7  C5  UNL d   1      -1.369  -2.747  -2.407  0.00  0.00     0.026 A 
ATOM      8  C6  UNL d   1      -0.962  -1.800  -1.408  0.00  0.00    -0.082 A 
ATOM      9  C7  UNL d   1      -0.052  -1.929  -0.332  0.00  0.00     0.045 A 
ENDROOT
TORSDOF 0
ENDMDL
