MODEL 1
REMARK minimizedAffinity -0.0926130414
REMARK minimizedRMSD -1
REMARK  0 active torsions:
REMARK  status: ('A' for Active; 'I' for Inactive)
ROOT
ATOM      1  C   UNL d   1       0.158   1.518   1.872  0.00  0.00    -0.002 A 
ATOM      2  C1  UNL d   1      -1.229   1.522   1.815  0.00  0.00     0.010 A 
ATOM      3  C2  UNL d   1      -1.907   0.644   0.967  0.00  0.00     0.041 A 
ATOM      4  C3  UNL d   1      -1.161  -0.248   0.171  0.00  0.00    -0.075 A 
ATOM      5  S   UNL d   1      -1.777  -1.413  -0.940  0.00  0.00     0.015 SA
ATOM      6  C4  UNL d   1      -0.214  -1.944  -1.364  0.00  0.00     0.022 A 
ATOM      7  C5  UNL d   1       0.766  -1.260  -0.685  0.00  0.00     0.026 A 
ATOM      8  C6  UNL d   1       0.236  -0.271   0.212  0.00  0.00    -0.082 A 
ATOM      9  C7  UNL d   1       0.894   0.632   1.082  0.00  0.00     0.045 A 
ENDROOT
TORSDOF 0
ENDMDL
