MODEL 1
REMARK minimizedAffinity 1.38959694
REMARK minimizedRMSD -1
REMARK  0 active torsions:
REMARK  status: ('A' for Active; 'I' for Inactive)
ROOT
ATOM      1  C   UNL d   1      -2.994  -1.678  -2.568  0.00  0.00    -0.002 A 
ATOM      2  C1  UNL d   1      -2.108  -1.084  -3.455  0.00  0.00     0.010 A 
ATOM      3  C2  UNL d   1      -0.937  -0.480  -2.993  0.00  0.00     0.041 A 
ATOM      4  C3  UNL d   1      -0.668  -0.485  -1.610  0.00  0.00    -0.075 A 
ATOM      5  S   UNL d   1       0.703   0.194  -0.815  0.00  0.00     0.015 SA
ATOM      6  C4  UNL d   1       0.146  -0.289   0.721  0.00  0.00     0.022 A 
ATOM      7  C5  UNL d   1      -1.056  -0.953   0.648  0.00  0.00     0.026 A 
ATOM      8  C6  UNL d   1      -1.545  -1.077  -0.696  0.00  0.00    -0.082 A 
ATOM      9  C7  UNL d   1      -2.724  -1.680  -1.196  0.00  0.00     0.045 A 
ENDROOT
TORSDOF 0
ENDMDL
