MODEL 1
REMARK minimizedAffinity 7.12243176
REMARK minimizedRMSD -1
REMARK  0 active torsions:
REMARK  status: ('A' for Active; 'I' for Inactive)
ROOT
ATOM      1  C   UNL d   1      -3.179  -1.924  -0.849  0.00  0.00    -0.002 A 
ATOM      2  C1  UNL d   1      -3.229  -2.139  -2.219  0.00  0.00     0.010 A 
ATOM      3  C2  UNL d   1      -2.065  -2.094  -2.988  0.00  0.00     0.041 A 
ATOM      4  C3  UNL d   1      -0.837  -1.829  -2.350  0.00  0.00    -0.075 A 
ATOM      5  S   UNL d   1       0.718  -1.727  -3.089  0.00  0.00     0.015 SA
ATOM      6  C4  UNL d   1       1.485  -1.397  -1.604  0.00  0.00     0.022 A 
ATOM      7  C5  UNL d   1       0.592  -1.362  -0.559  0.00  0.00     0.026 A 
ATOM      8  C6  UNL d   1      -0.761  -1.611  -0.972  0.00  0.00    -0.082 A 
ATOM      9  C7  UNL d   1      -1.959  -1.662  -0.220  0.00  0.00     0.045 A 
ENDROOT
TORSDOF 0
ENDMDL
