MODEL 1
REMARK minimizedAffinity -3.87265301
REMARK minimizedRMSD -1
REMARK  0 active torsions:
REMARK  status: ('A' for Active; 'I' for Inactive)
ROOT
ATOM      1  C   UNL d   1      -0.873   0.965   3.132  0.00  0.00     0.023 A 
ATOM      2  C1  UNL d   1       0.385   0.371   3.028  0.00  0.00     0.003 A 
ATOM      3  C2  UNL d   1       0.785  -0.216   1.826  0.00  0.00     0.048 A 
ATOM      4  C3  UNL d   1      -0.077  -0.204   0.730  0.00  0.00     0.023 A 
ATOM      5  C4  UNL d   1      -1.336   0.390   0.829  0.00  0.00     0.048 A 
ATOM      6  C5  UNL d   1      -1.732   0.975   2.033  0.00  0.00     0.003 A 
ATOM      7  I   UNL d   1       0.516  -1.076  -1.060  0.00  0.00    -0.146 I 
ENDROOT
TORSDOF 0
ENDMDL
