MODEL 1
REMARK minimizedAffinity -0.232763007
REMARK minimizedRMSD -1
REMARK  0 active torsions:
REMARK  status: ('A' for Active; 'I' for Inactive)
ROOT
ATOM      1  C   UNL d   1       1.116   0.541  -4.365  0.00  0.00     0.023 A 
ATOM      2  C1  UNL d   1       1.736   1.246  -3.334  0.00  0.00     0.003 A 
ATOM      3  C2  UNL d   1       1.348   1.034  -2.009  0.00  0.00     0.048 A 
ATOM      4  C3  UNL d   1       0.340   0.115  -1.723  0.00  0.00     0.023 A 
ATOM      5  C4  UNL d   1      -0.283  -0.594  -2.752  0.00  0.00     0.048 A 
ATOM      6  C5  UNL d   1       0.108  -0.378  -4.075  0.00  0.00     0.003 A 
ATOM      7  I   UNL d   1      -0.240  -0.203   0.247  0.00  0.00    -0.146 I 
ENDROOT
TORSDOF 0
ENDMDL
