MODEL 1
REMARK minimizedAffinity -4.96330595
REMARK minimizedRMSD -1
REMARK  0 active torsions:
REMARK  status: ('A' for Active; 'I' for Inactive)
ROOT
ATOM      1  C   UNL d   1      -2.001  -0.108   0.308  0.00  0.00     0.023 A 
ATOM      2  C1  UNL d   1      -2.123   0.351   1.619  0.00  0.00     0.003 A 
ATOM      3  C2  UNL d   1      -0.985   0.520   2.410  0.00  0.00     0.048 A 
ATOM      4  C3  UNL d   1       0.273   0.230   1.883  0.00  0.00     0.023 A 
ATOM      5  C4  UNL d   1       0.401  -0.228   0.571  0.00  0.00     0.048 A 
ATOM      6  C5  UNL d   1      -0.740  -0.397  -0.216  0.00  0.00     0.003 A 
ATOM      7  I   UNL d   1       1.969   0.481   3.058  0.00  0.00    -0.146 I 
ENDROOT
TORSDOF 0
ENDMDL
