MODEL 1
REMARK minimizedAffinity -4.00517797
REMARK minimizedRMSD -1
REMARK  0 active torsions:
REMARK  status: ('A' for Active; 'I' for Inactive)
ROOT
ATOM      1  C   UNL d   1      -1.200   1.074   2.430  0.00  0.00     0.023 A 
ATOM      2  C1  UNL d   1       0.162   0.807   2.300  0.00  0.00     0.003 A 
ATOM      3  C2  UNL d   1       0.679   0.391   1.071  0.00  0.00     0.048 A 
ATOM      4  C3  UNL d   1      -0.173   0.247  -0.024  0.00  0.00     0.023 A 
ATOM      5  C4  UNL d   1      -1.537   0.514   0.102  0.00  0.00     0.048 A 
ATOM      6  C5  UNL d   1      -2.049   0.928   1.333  0.00  0.00     0.003 A 
ATOM      7  I   UNL d   1       0.594  -0.371  -1.854  0.00  0.00    -0.146 I 
ENDROOT
TORSDOF 0
ENDMDL
