MODEL 1
REMARK minimizedAffinity -4.24746418
REMARK minimizedRMSD -1
REMARK  0 active torsions:
REMARK  status: ('A' for Active; 'I' for Inactive)
ROOT
ATOM      1  C   UNL d   1       0.475   1.024   3.577  0.00  0.00     0.023 A 
ATOM      2  C1  UNL d   1       1.612   0.379   3.093  0.00  0.00     0.003 A 
ATOM      3  C2  UNL d   1       1.624  -0.137   1.795  0.00  0.00     0.048 A 
ATOM      4  C3  UNL d   1       0.496  -0.003   0.987  0.00  0.00     0.023 A 
ATOM      5  C4  UNL d   1      -0.644   0.643   1.468  0.00  0.00     0.048 A 
ATOM      6  C5  UNL d   1      -0.652   1.156   2.766  0.00  0.00     0.003 A 
ATOM      7  I   UNL d   1       0.512  -0.770  -0.944  0.00  0.00    -0.146 I 
ENDROOT
TORSDOF 0
ENDMDL
