MODEL 1
REMARK minimizedAffinity -3.83322811
REMARK minimizedRMSD -1
REMARK  0 active torsions:
REMARK  status: ('A' for Active; 'I' for Inactive)
ROOT
ATOM      1  C   UNL d   1      -0.611   1.102   3.154  0.00  0.00     0.023 A 
ATOM      2  C1  UNL d   1       0.605   0.463   2.907  0.00  0.00     0.003 A 
ATOM      3  C2  UNL d   1       0.932   0.060   1.611  0.00  0.00     0.048 A 
ATOM      4  C3  UNL d   1       0.039   0.298   0.567  0.00  0.00     0.023 A 
ATOM      5  C4  UNL d   1      -1.178   0.937   0.809  0.00  0.00     0.048 A 
ATOM      6  C5  UNL d   1      -1.501   1.338   2.107  0.00  0.00     0.003 A 
ATOM      7  I   UNL d   1       0.523  -0.302  -1.363  0.00  0.00    -0.146 I 
ENDROOT
TORSDOF 0
ENDMDL
