MODEL 1
REMARK minimizedAffinity -4.22617102
REMARK minimizedRMSD -1
REMARK  0 active torsions:
REMARK  status: ('A' for Active; 'I' for Inactive)
ROOT
ATOM      1  C   UNL d   1       0.688   1.088   3.604  0.00  0.00     0.023 A 
ATOM      2  C1  UNL d   1       1.676   0.334   2.971  0.00  0.00     0.003 A 
ATOM      3  C2  UNL d   1       1.494  -0.092   1.653  0.00  0.00     0.048 A 
ATOM      4  C3  UNL d   1       0.322   0.241   0.975  0.00  0.00     0.023 A 
ATOM      5  C4  UNL d   1      -0.669   0.996   1.604  0.00  0.00     0.048 A 
ATOM      6  C5  UNL d   1      -0.483   1.418   2.922  0.00  0.00     0.003 A 
ATOM      7  I   UNL d   1       0.049  -0.392  -0.986  0.00  0.00    -0.146 I 
ENDROOT
TORSDOF 0
ENDMDL
