MODEL 1
REMARK minimizedAffinity 0.467581302
REMARK minimizedRMSD -1
REMARK  0 active torsions:
REMARK  status: ('A' for Active; 'I' for Inactive)
ROOT
ATOM      1  C   UNL d   1       2.348  -1.338   0.390  0.00  0.00     0.023 A 
ATOM      2  C1  UNL d   1       1.832  -0.685   1.509  0.00  0.00     0.003 A 
ATOM      3  C2  UNL d   1       0.549  -0.135   1.469  0.00  0.00     0.048 A 
ATOM      4  C3  UNL d   1      -0.213  -0.241   0.306  0.00  0.00     0.023 A 
ATOM      5  C4  UNL d   1       0.299  -0.894  -0.817  0.00  0.00     0.048 A 
ATOM      6  C5  UNL d   1       1.582  -1.442  -0.772  0.00  0.00     0.003 A 
ATOM      7  I   UNL d   1      -2.122   0.577   0.244  0.00  0.00    -0.146 I 
ENDROOT
TORSDOF 0
ENDMDL
