MODEL 1
REMARK minimizedAffinity -4.32259941
REMARK minimizedRMSD -1
REMARK  0 active torsions:
REMARK  status: ('A' for Active; 'I' for Inactive)
ROOT
ATOM      1  C   UNL d   1      -2.032   0.437   0.443  0.00  0.00     0.023 A 
ATOM      2  C1  UNL d   1      -0.951  -0.164  -0.202  0.00  0.00     0.003 A 
ATOM      3  C2  UNL d   1       0.251  -0.359   0.482  0.00  0.00     0.048 A 
ATOM      4  C3  UNL d   1       0.365   0.050   1.811  0.00  0.00     0.023 A 
ATOM      5  C4  UNL d   1      -0.715   0.651   2.460  0.00  0.00     0.048 A 
ATOM      6  C5  UNL d   1      -1.914   0.844   1.772  0.00  0.00     0.003 A 
ATOM      7  I   UNL d   1       2.152  -0.239   2.831  0.00  0.00    -0.146 I 
ENDROOT
TORSDOF 0
ENDMDL
