MODEL 1
REMARK minimizedAffinity 2.1866529
REMARK minimizedRMSD -1
REMARK  0 active torsions:
REMARK  status: ('A' for Active; 'I' for Inactive)
ROOT
ATOM      1  C   UNL d   1       1.838  -0.027  -2.183  0.00  0.00     0.078 C 
ATOM      2  C1  UNL d   1       2.093  -1.002  -1.073  0.00  0.00    -0.077 A 
ATOM      3  C2  UNL d   1       1.767  -0.687   0.252  0.00  0.00    -0.001 A 
ATOM      4  C3  UNL d   1       2.019  -1.600   1.277  0.00  0.00     0.003 A 
ATOM      5  C4  UNL d   1       2.599  -2.834   0.988  0.00  0.00    -0.005 A 
ATOM      6  C5  UNL d   1       2.928  -3.155  -0.327  0.00  0.00     0.003 A 
ATOM      7  C6  UNL d   1       2.678  -2.243  -1.353  0.00  0.00    -0.001 A 
ENDROOT
TORSDOF 0
ENDMDL
