MODEL 1
REMARK minimizedAffinity 4.20909739
REMARK minimizedRMSD -1
REMARK  0 active torsions:
REMARK  status: ('A' for Active; 'I' for Inactive)
ROOT
ATOM      1  C   UNL d   1       1.727   1.298  -3.842  0.00  0.00     0.078 C 
ATOM      2  C1  UNL d   1       1.747   0.927  -2.389  0.00  0.00    -0.077 A 
ATOM      3  C2  UNL d   1       2.222   1.822  -1.423  0.00  0.00    -0.001 A 
ATOM      4  C3  UNL d   1       2.243   1.460  -0.075  0.00  0.00     0.003 A 
ATOM      5  C4  UNL d   1       1.792   0.202   0.319  0.00  0.00    -0.005 A 
ATOM      6  C5  UNL d   1       1.320  -0.696  -0.636  0.00  0.00     0.003 A 
ATOM      7  C6  UNL d   1       1.297  -0.336  -1.984  0.00  0.00    -0.001 A 
ENDROOT
TORSDOF 0
ENDMDL
