MODEL 1
REMARK minimizedAffinity 1.29088378
REMARK minimizedRMSD -1
REMARK  0 active torsions:
REMARK  status: ('A' for Active; 'I' for Inactive)
ROOT
ATOM      1  C   UNL d   1       2.601  -1.485  -0.046  0.00  0.00     0.078 C 
ATOM      2  C1  UNL d   1       2.588  -0.192  -0.804  0.00  0.00    -0.077 A 
ATOM      3  C2  UNL d   1       2.989   1.005  -0.196  0.00  0.00    -0.001 A 
ATOM      4  C3  UNL d   1       2.962   2.203  -0.911  0.00  0.00     0.003 A 
ATOM      5  C4  UNL d   1       2.533   2.218  -2.237  0.00  0.00    -0.005 A 
ATOM      6  C5  UNL d   1       2.130   1.033  -2.849  0.00  0.00     0.003 A 
ATOM      7  C6  UNL d   1       2.156  -0.167  -2.136  0.00  0.00    -0.001 A 
ENDROOT
TORSDOF 0
ENDMDL
