MODEL 1
REMARK minimizedAffinity 4.43263912
REMARK minimizedRMSD -1
REMARK  0 active torsions:
REMARK  status: ('A' for Active; 'I' for Inactive)
ROOT
ATOM      1  C   UNL d   1      -0.942  -0.913   2.943  0.00  0.00     0.078 C 
ATOM      2  C1  UNL d   1       0.499  -1.210   2.654  0.00  0.00    -0.077 A 
ATOM      3  C2  UNL d   1       1.512  -0.784   3.522  0.00  0.00    -0.001 A 
ATOM      4  C3  UNL d   1       2.850  -1.059   3.235  0.00  0.00     0.003 A 
ATOM      5  C4  UNL d   1       3.187  -1.761   2.079  0.00  0.00    -0.005 A 
ATOM      6  C5  UNL d   1       2.187  -2.187   1.208  0.00  0.00     0.003 A 
ATOM      7  C6  UNL d   1       0.848  -1.912   1.493  0.00  0.00    -0.001 A 
ENDROOT
TORSDOF 0
ENDMDL
