MODEL 1
REMARK minimizedAffinity -1.71125352
REMARK minimizedRMSD -1
REMARK  0 active torsions:
REMARK  status: ('A' for Active; 'I' for Inactive)
ROOT
ATOM      1  C   UNL d   1       2.464  -1.404   0.049  0.00  0.00     0.078 C 
ATOM      2  C1  UNL d   1       2.464  -0.146  -0.768  0.00  0.00    -0.077 A 
ATOM      3  C2  UNL d   1       2.484   1.112  -0.154  0.00  0.00    -0.001 A 
ATOM      4  C3  UNL d   1       2.473   2.275  -0.927  0.00  0.00     0.003 A 
ATOM      5  C4  UNL d   1       2.443   2.190  -2.318  0.00  0.00    -0.005 A 
ATOM      6  C5  UNL d   1       2.421   0.942  -2.937  0.00  0.00     0.003 A 
ATOM      7  C6  UNL d   1       2.431  -0.221  -2.166  0.00  0.00    -0.001 A 
ENDROOT
TORSDOF 0
ENDMDL
