MODEL 1
REMARK minimizedAffinity 1.49672067
REMARK minimizedRMSD -1
REMARK  0 active torsions:
REMARK  status: ('A' for Active; 'I' for Inactive)
ROOT
ATOM      1  C   UNL d   1      -0.217  -0.860   3.103  0.00  0.00     0.078 C 
ATOM      2  C1  UNL d   1       1.002  -1.299   2.348  0.00  0.00    -0.077 A 
ATOM      3  C2  UNL d   1       1.077  -1.163   0.957  0.00  0.00    -0.001 A 
ATOM      4  C3  UNL d   1       2.214  -1.586   0.267  0.00  0.00     0.003 A 
ATOM      5  C4  UNL d   1       3.284  -2.148   0.959  0.00  0.00    -0.005 A 
ATOM      6  C5  UNL d   1       3.218  -2.290   2.344  0.00  0.00     0.003 A 
ATOM      7  C6  UNL d   1       2.082  -1.868   3.036  0.00  0.00    -0.001 A 
ENDROOT
TORSDOF 0
ENDMDL
