MODEL 1
REMARK minimizedAffinity 1.60395443
REMARK minimizedRMSD -1
REMARK  1 active torsions:
REMARK  status: ('A' for Active; 'I' for Inactive)
REMARK    1  A    between atoms: C1_2  and  C2_3 
ROOT
ATOM      1  C2  UNL d   1       1.119  -3.313   1.691  0.00  0.00    -0.081 A 
ATOM      2  C3  UNL d   1       1.790  -4.362   2.332  0.00  0.00     0.006 A 
ATOM      3  C4  UNL d   1       2.100  -4.278   3.692  0.00  0.00     0.002 A 
ATOM      4  C5  UNL d   1       1.738  -3.149   4.434  0.00  0.00    -0.080 A 
ATOM      5  C6  UNL d   1       2.038  -3.060   5.901  0.00  0.00     0.076 C 
ATOM      6  C7  UNL d   1       1.084  -2.094   3.790  0.00  0.00     0.002 A 
ATOM      7  C8  UNL d   1       0.774  -2.177   2.431  0.00  0.00     0.006 A 
ENDROOT
BRANCH   1   8
ATOM      8  C1  UNL d   1       0.726  -3.428   0.241  0.00  0.00     0.054 C 
ATOM      9  C   UNL d   1       0.064  -4.768  -0.049  0.00  0.00     0.018 C 
ENDBRANCH   1   8
TORSDOF 1
ENDMDL
