MODEL 1
REMARK minimizedAffinity 9.36236382
REMARK minimizedRMSD -1
REMARK  1 active torsions:
REMARK  status: ('A' for Active; 'I' for Inactive)
REMARK    1  A    between atoms: C1_2  and  C2_3 
ROOT
ATOM      1  C2  UNL d   1       1.500  -2.217   3.798  0.00  0.00    -0.081 A 
ATOM      2  C3  UNL d   1       2.256  -3.240   3.213  0.00  0.00     0.006 A 
ATOM      3  C4  UNL d   1       2.753  -3.100   1.915  0.00  0.00     0.002 A 
ATOM      4  C5  UNL d   1       2.510  -1.932   1.184  0.00  0.00    -0.080 A 
ATOM      5  C6  UNL d   1       3.063  -1.757  -0.199  0.00  0.00     0.076 C 
ATOM      6  C7  UNL d   1       1.739  -0.917   1.761  0.00  0.00     0.002 A 
ATOM      7  C8  UNL d   1       1.241  -1.057   3.059  0.00  0.00     0.006 A 
ENDROOT
BRANCH   1   8
ATOM      8  C1  UNL d   1       1.017  -2.338   5.221  0.00  0.00     0.054 C 
ATOM      9  C   UNL d   1       1.840  -3.354   5.999  0.00  0.00     0.018 C 
ENDBRANCH   1   8
TORSDOF 1
ENDMDL
