MODEL 1
REMARK minimizedAffinity 8.10741043
REMARK minimizedRMSD -1
REMARK  1 active torsions:
REMARK  status: ('A' for Active; 'I' for Inactive)
REMARK    1  A    between atoms: C1_2  and  C2_3 
ROOT
ATOM      1  C2  UNL d   1       1.423  -2.275   3.627  0.00  0.00    -0.081 A 
ATOM      2  C3  UNL d   1       2.229  -3.346   3.222  0.00  0.00     0.006 A 
ATOM      3  C4  UNL d   1       2.866  -3.322   1.978  0.00  0.00     0.002 A 
ATOM      4  C5  UNL d   1       2.714  -2.225   1.124  0.00  0.00    -0.080 A 
ATOM      5  C6  UNL d   1       3.417  -2.173  -0.200  0.00  0.00     0.076 C 
ATOM      6  C7  UNL d   1       1.895  -1.162   1.522  0.00  0.00     0.002 A 
ATOM      7  C8  UNL d   1       1.258  -1.186   2.764  0.00  0.00     0.006 A 
ENDROOT
BRANCH   1   8
ATOM      8  C1  UNL d   1       0.787  -2.269   4.994  0.00  0.00     0.054 C 
ATOM      9  C   UNL d   1       1.630  -3.040   5.999  0.00  0.00     0.018 C 
ENDBRANCH   1   8
TORSDOF 1
ENDMDL
