MODEL 1
REMARK minimizedAffinity 9.42124176
REMARK minimizedRMSD -1
REMARK  1 active torsions:
REMARK  status: ('A' for Active; 'I' for Inactive)
REMARK    1  A    between atoms: C1_2  and  C2_3 
ROOT
ATOM      1  C2  UNL d   1       0.624  -2.026   2.651  0.00  0.00    -0.081 A 
ATOM      2  C3  UNL d   1      -0.468  -1.873   1.788  0.00  0.00     0.006 A 
ATOM      3  C4  UNL d   1      -0.553  -2.623   0.613  0.00  0.00     0.002 A 
ATOM      4  C5  UNL d   1       0.448  -3.543   0.284  0.00  0.00    -0.080 A 
ATOM      5  C6  UNL d   1       0.354  -4.377  -0.959  0.00  0.00     0.076 C 
ATOM      6  C7  UNL d   1       1.548  -3.684   1.137  0.00  0.00     0.002 A 
ATOM      7  C8  UNL d   1       1.634  -2.933   2.312  0.00  0.00     0.006 A 
ENDROOT
BRANCH   1   8
ATOM      8  C1  UNL d   1       0.687  -1.266   3.951  0.00  0.00     0.054 C 
ATOM      9  C   UNL d   1       0.602  -2.205   5.146  0.00  0.00     0.018 C 
ENDBRANCH   1   8
TORSDOF 1
ENDMDL
