MODEL 1
REMARK minimizedAffinity 10.1196423
REMARK minimizedRMSD -1
REMARK  1 active torsions:
REMARK  status: ('A' for Active; 'I' for Inactive)
REMARK    1  A    between atoms: C1_2  and  C2_3 
ROOT
ATOM      1  C2  UNL d   1       0.279  -2.734   1.942  0.00  0.00    -0.081 A 
ATOM      2  C3  UNL d   1      -1.041  -2.374   1.645  0.00  0.00     0.006 A 
ATOM      3  C4  UNL d   1      -1.871  -3.247   0.939  0.00  0.00     0.002 A 
ATOM      4  C5  UNL d   1      -1.398  -4.497   0.524  0.00  0.00    -0.080 A 
ATOM      5  C6  UNL d   1      -2.288  -5.456  -0.209  0.00  0.00     0.076 C 
ATOM      6  C7  UNL d   1      -0.074  -4.850   0.806  0.00  0.00     0.002 A 
ATOM      7  C8  UNL d   1       0.757  -3.977   1.512  0.00  0.00     0.006 A 
ENDROOT
BRANCH   1   8
ATOM      8  C1  UNL d   1       1.157  -1.821   2.761  0.00  0.00     0.054 C 
ATOM      9  C   UNL d   1       1.018  -2.109   4.249  0.00  0.00     0.018 C 
ENDBRANCH   1   8
TORSDOF 1
ENDMDL
