MODEL 1
REMARK minimizedAffinity 15.4611139
REMARK minimizedRMSD -1
REMARK  1 active torsions:
REMARK  status: ('A' for Active; 'I' for Inactive)
REMARK    1  A    between atoms: C1_2  and  C2_3 
ROOT
ATOM      1  C2  UNL d   1       1.094  -1.744   2.657  0.00  0.00    -0.081 A 
ATOM      2  C3  UNL d   1       0.709  -1.387   3.955  0.00  0.00     0.006 A 
ATOM      3  C4  UNL d   1       1.013  -2.215   5.037  0.00  0.00     0.002 A 
ATOM      4  C5  UNL d   1       1.714  -3.410   4.842  0.00  0.00    -0.080 A 
ATOM      5  C6  UNL d   1       2.073  -4.293   6.000  0.00  0.00     0.076 C 
ATOM      6  C7  UNL d   1       2.084  -3.776   3.544  0.00  0.00     0.002 A 
ATOM      7  C8  UNL d   1       1.780  -2.948   2.461  0.00  0.00     0.006 A 
ENDROOT
BRANCH   1   8
ATOM      8  C1  UNL d   1       0.825  -0.822   1.496  0.00  0.00     0.054 C 
ATOM      9  C   UNL d   1       2.118  -0.258   0.925  0.00  0.00     0.018 C 
ENDBRANCH   1   8
TORSDOF 1
ENDMDL
