MODEL 1
REMARK minimizedAffinity 6.00670338
REMARK minimizedRMSD -1
REMARK  0 active torsions:
REMARK  status: ('A' for Active; 'I' for Inactive)
ROOT
ATOM      1  C   UNL d   1       4.931   5.899   1.609  0.00  0.00     0.078 C 
ATOM      2  C1  UNL d   1       4.811   5.829   3.103  0.00  0.00    -0.077 A 
ATOM      3  C2  UNL d   1       3.569   5.967   3.734  0.00  0.00    -0.001 A 
ATOM      4  C3  UNL d   1       3.474   5.909   5.125  0.00  0.00     0.003 A 
ATOM      5  C4  UNL d   1       4.618   5.715   5.897  0.00  0.00    -0.005 A 
ATOM      6  C5  UNL d   1       5.858   5.579   5.278  0.00  0.00     0.003 A 
ATOM      7  C6  UNL d   1       5.955   5.637   3.887  0.00  0.00    -0.001 A 
ENDROOT
TORSDOF 0
ENDMDL
