MODEL 1
REMARK minimizedAffinity 6.71701956
REMARK minimizedRMSD -1
REMARK  0 active torsions:
REMARK  status: ('A' for Active; 'I' for Inactive)
ROOT
ATOM      1  C   UNL d   1      -0.423   0.706   2.423  0.00  0.00     0.078 C 
ATOM      2  C1  UNL d   1       0.990   0.635   1.926  0.00  0.00    -0.077 A 
ATOM      3  C2  UNL d   1       1.376  -0.325   0.983  0.00  0.00    -0.001 A 
ATOM      4  C3  UNL d   1       2.697  -0.386   0.536  0.00  0.00     0.003 A 
ATOM      5  C4  UNL d   1       3.644   0.510   1.030  0.00  0.00    -0.005 A 
ATOM      6  C5  UNL d   1       3.270   1.467   1.971  0.00  0.00     0.003 A 
ATOM      7  C6  UNL d   1       1.949   1.530   2.418  0.00  0.00    -0.001 A 
ENDROOT
TORSDOF 0
ENDMDL
