MODEL 1
REMARK minimizedAffinity -1.0415225
REMARK minimizedRMSD -1
REMARK  0 active torsions:
REMARK  status: ('A' for Active; 'I' for Inactive)
ROOT
ATOM      1  C   UNL d   1       1.927  -3.096  -1.493  0.00  0.00     0.078 C 
ATOM      2  C1  UNL d   1       0.696  -2.857  -0.670  0.00  0.00    -0.077 A 
ATOM      3  C2  UNL d   1       0.781  -2.659   0.713  0.00  0.00    -0.001 A 
ATOM      4  C3  UNL d   1      -0.374  -2.447   1.468  0.00  0.00     0.003 A 
ATOM      5  C4  UNL d   1      -1.622  -2.432   0.848  0.00  0.00    -0.005 A 
ATOM      6  C5  UNL d   1      -1.716  -2.630  -0.528  0.00  0.00     0.003 A 
ATOM      7  C6  UNL d   1      -0.562  -2.843  -1.284  0.00  0.00    -0.001 A 
ENDROOT
TORSDOF 0
ENDMDL
