MODEL 1
REMARK minimizedAffinity 2.15239072
REMARK minimizedRMSD -1
REMARK  0 active torsions:
REMARK  status: ('A' for Active; 'I' for Inactive)
ROOT
ATOM      1  C   UNL d   1      -1.957  -1.082   2.634  0.00  0.00     0.078 C 
ATOM      2  C1  UNL d   1      -3.367  -1.477   2.956  0.00  0.00    -0.077 A 
ATOM      3  C2  UNL d   1      -4.376  -1.402   1.988  0.00  0.00    -0.001 A 
ATOM      4  C3  UNL d   1      -5.686  -1.765   2.305  0.00  0.00     0.003 A 
ATOM      5  C4  UNL d   1      -5.999  -2.203   3.590  0.00  0.00    -0.005 A 
ATOM      6  C5  UNL d   1      -5.002  -2.279   4.561  0.00  0.00     0.003 A 
ATOM      7  C6  UNL d   1      -3.691  -1.917   4.245  0.00  0.00    -0.001 A 
ENDROOT
TORSDOF 0
ENDMDL
