MODEL 1
REMARK minimizedAffinity 0.443382084
REMARK minimizedRMSD -1
REMARK  0 active torsions:
REMARK  status: ('A' for Active; 'I' for Inactive)
ROOT
ATOM      1  C   UNL d   1       3.351   5.936   2.053  0.00  0.00     0.078 C 
ATOM      2  C1  UNL d   1       3.957   5.961   3.424  0.00  0.00    -0.077 A 
ATOM      3  C2  UNL d   1       5.347   5.947   3.598  0.00  0.00    -0.001 A 
ATOM      4  C3  UNL d   1       5.897   5.961   4.880  0.00  0.00     0.003 A 
ATOM      5  C4  UNL d   1       5.066   5.988   5.999  0.00  0.00    -0.005 A 
ATOM      6  C5  UNL d   1       3.683   5.999   5.835  0.00  0.00     0.003 A 
ATOM      7  C6  UNL d   1       3.130   5.985   4.554  0.00  0.00    -0.001 A 
ENDROOT
TORSDOF 0
ENDMDL
