MODEL 1
REMARK minimizedAffinity 3.72042441
REMARK minimizedRMSD -1
REMARK  0 active torsions:
REMARK  status: ('A' for Active; 'I' for Inactive)
ROOT
ATOM      1  C   UNL d   1      -1.257  -6.000   2.995  0.00  0.00     0.078 C 
ATOM      2  C1  UNL d   1      -1.850  -5.027   2.021  0.00  0.00    -0.077 A 
ATOM      3  C2  UNL d   1      -2.826  -5.431   1.102  0.00  0.00    -0.001 A 
ATOM      4  C3  UNL d   1      -3.363  -4.517   0.194  0.00  0.00     0.003 A 
ATOM      5  C4  UNL d   1      -2.929  -3.193   0.195  0.00  0.00    -0.005 A 
ATOM      6  C5  UNL d   1      -1.956  -2.782   1.104  0.00  0.00     0.003 A 
ATOM      7  C6  UNL d   1      -1.419  -3.695   2.013  0.00  0.00    -0.001 A 
ENDROOT
TORSDOF 0
ENDMDL
