MODEL 1
REMARK minimizedAffinity -2.45963097
REMARK minimizedRMSD -1
REMARK  0 active torsions:
REMARK  status: ('A' for Active; 'I' for Inactive)
ROOT
ATOM      1  C   UNL d   1       2.229   0.944   1.314  0.00  0.00     0.078 C 
ATOM      2  C1  UNL d   1       1.412  -0.250   0.919  0.00  0.00    -0.077 A 
ATOM      3  C2  UNL d   1       0.022  -0.261   1.088  0.00  0.00    -0.001 A 
ATOM      4  C3  UNL d   1      -0.724  -1.383   0.725  0.00  0.00     0.003 A 
ATOM      5  C4  UNL d   1      -0.090  -2.503   0.192  0.00  0.00    -0.005 A 
ATOM      6  C5  UNL d   1       1.293  -2.503   0.022  0.00  0.00     0.003 A 
ATOM      7  C6  UNL d   1       2.042  -1.382   0.385  0.00  0.00    -0.001 A 
ENDROOT
TORSDOF 0
ENDMDL
