MODEL 1
REMARK minimizedAffinity 2.59204984
REMARK minimizedRMSD -1
REMARK  0 active torsions:
REMARK  status: ('A' for Active; 'I' for Inactive)
ROOT
ATOM      1  C   UNL d   1       3.301   5.972   2.117  0.00  0.00     0.078 C 
ATOM      2  C1  UNL d   1       3.939   5.973   3.474  0.00  0.00    -0.077 A 
ATOM      3  C2  UNL d   1       3.159   5.974   4.637  0.00  0.00    -0.001 A 
ATOM      4  C3  UNL d   1       3.767   5.985   5.894  0.00  0.00     0.003 A 
ATOM      5  C4  UNL d   1       5.156   5.998   5.999  0.00  0.00    -0.005 A 
ATOM      6  C5  UNL d   1       5.940   6.000   4.847  0.00  0.00     0.003 A 
ATOM      7  C6  UNL d   1       5.334   5.988   3.590  0.00  0.00    -0.001 A 
ENDROOT
TORSDOF 0
ENDMDL
