MODEL 1
REMARK minimizedAffinity 1.98053026
REMARK minimizedRMSD -1
REMARK  0 active torsions:
REMARK  status: ('A' for Active; 'I' for Inactive)
ROOT
ATOM      1  C   UNL d   1       3.624   5.943   1.910  0.00  0.00     0.078 C 
ATOM      2  C1  UNL d   1       4.107   5.947   3.330  0.00  0.00    -0.077 A 
ATOM      3  C2  UNL d   1       3.203   5.982   4.399  0.00  0.00    -0.001 A 
ATOM      4  C3  UNL d   1       3.668   5.995   5.715  0.00  0.00     0.003 A 
ATOM      5  C4  UNL d   1       5.037   5.974   5.975  0.00  0.00    -0.005 A 
ATOM      6  C5  UNL d   1       5.943   5.941   4.917  0.00  0.00     0.003 A 
ATOM      7  C6  UNL d   1       5.481   5.928   3.600  0.00  0.00    -0.001 A 
ENDROOT
TORSDOF 0
ENDMDL
