MODEL 1
REMARK minimizedAffinity 4.92746449
REMARK minimizedRMSD -1
REMARK  0 active torsions:
REMARK  status: ('A' for Active; 'I' for Inactive)
ROOT
ATOM      1  C   UNL d   1       1.498   1.693  -4.502  0.00  0.00     0.078 C 
ATOM      2  C1  UNL d   1       0.140   2.189  -4.902  0.00  0.00    -0.077 A 
ATOM      3  C2  UNL d   1      -0.007   3.368  -5.642  0.00  0.00    -0.001 A 
ATOM      4  C3  UNL d   1      -1.278   3.824  -5.998  0.00  0.00     0.003 A 
ATOM      5  C4  UNL d   1      -2.410   3.106  -5.618  0.00  0.00    -0.005 A 
ATOM      6  C5  UNL d   1      -2.273   1.933  -4.879  0.00  0.00     0.003 A 
ATOM      7  C6  UNL d   1      -1.004   1.476  -4.522  0.00  0.00    -0.001 A 
ENDROOT
TORSDOF 0
ENDMDL
