MODEL 1
REMARK minimizedAffinity 1.59072542
REMARK minimizedRMSD -1
REMARK  0 active torsions:
REMARK  status: ('A' for Active; 'I' for Inactive)
ROOT
ATOM      1  C   UNL d   1       1.600   2.261  -4.871  0.00  0.00     0.078 C 
ATOM      2  C1  UNL d   1       0.124   2.521  -4.856  0.00  0.00    -0.077 A 
ATOM      3  C2  UNL d   1      -0.645   2.250  -3.718  0.00  0.00    -0.001 A 
ATOM      4  C3  UNL d   1      -2.020   2.488  -3.721  0.00  0.00     0.003 A 
ATOM      5  C4  UNL d   1      -2.639   2.997  -4.862  0.00  0.00    -0.005 A 
ATOM      6  C5  UNL d   1      -1.883   3.268  -6.000  0.00  0.00     0.003 A 
ATOM      7  C6  UNL d   1      -0.507   3.030  -5.998  0.00  0.00    -0.001 A 
ENDROOT
TORSDOF 0
ENDMDL
