MODEL 1
REMARK minimizedAffinity -1.25987136
REMARK minimizedRMSD -1
REMARK  0 active torsions:
REMARK  status: ('A' for Active; 'I' for Inactive)
ROOT
ATOM      1  C   UNL d   1       2.296   0.134   0.601  0.00  0.00     0.078 C 
ATOM      2  C1  UNL d   1       2.160  -1.348   0.420  0.00  0.00    -0.077 A 
ATOM      3  C2  UNL d   1       2.889  -2.024  -0.567  0.00  0.00    -0.001 A 
ATOM      4  C3  UNL d   1       2.746  -3.402  -0.732  0.00  0.00     0.003 A 
ATOM      5  C4  UNL d   1       1.873  -4.117   0.087  0.00  0.00    -0.005 A 
ATOM      6  C5  UNL d   1       1.142  -3.454   1.070  0.00  0.00     0.003 A 
ATOM      7  C6  UNL d   1       1.285  -2.075   1.236  0.00  0.00    -0.001 A 
ENDROOT
TORSDOF 0
ENDMDL
