MODEL 1
REMARK minimizedAffinity 3.3557651
REMARK minimizedRMSD -1
REMARK  0 active torsions:
REMARK  status: ('A' for Active; 'I' for Inactive)
ROOT
ATOM      1  C   UNL d   1       2.160   1.499  -4.448  0.00  0.00     0.078 C 
ATOM      2  C1  UNL d   1       0.886   2.278  -4.587  0.00  0.00    -0.077 A 
ATOM      3  C2  UNL d   1       0.122   2.618  -3.464  0.00  0.00    -0.001 A 
ATOM      4  C3  UNL d   1      -1.067   3.335  -3.609  0.00  0.00     0.003 A 
ATOM      5  C4  UNL d   1      -1.503   3.717  -4.876  0.00  0.00    -0.005 A 
ATOM      6  C5  UNL d   1      -0.750   3.382  -6.000  0.00  0.00     0.003 A 
ATOM      7  C6  UNL d   1       0.439   2.665  -5.857  0.00  0.00    -0.001 A 
ENDROOT
TORSDOF 0
ENDMDL
