MODEL 1
REMARK minimizedAffinity -2.7512846
REMARK minimizedRMSD -1
REMARK  0 active torsions:
REMARK  status: ('A' for Active; 'I' for Inactive)
ROOT
ATOM      1  C   UNL d   1      -5.929   0.898   0.028  0.00  0.00     0.078 C 
ATOM      2  C1  UNL d   1      -4.659   1.062   0.809  0.00  0.00    -0.077 A 
ATOM      3  C2  UNL d   1      -4.109  -0.009   1.523  0.00  0.00    -0.001 A 
ATOM      4  C3  UNL d   1      -2.932   0.160   2.254  0.00  0.00     0.003 A 
ATOM      5  C4  UNL d   1      -2.296   1.400   2.279  0.00  0.00    -0.005 A 
ATOM      6  C5  UNL d   1      -2.837   2.472   1.573  0.00  0.00     0.003 A 
ATOM      7  C6  UNL d   1      -4.014   2.305   0.842  0.00  0.00    -0.001 A 
ENDROOT
TORSDOF 0
ENDMDL
