MODEL 1
REMARK minimizedAffinity -4.44934607
REMARK minimizedRMSD -1
REMARK  0 active torsions:
REMARK  status: ('A' for Active; 'I' for Inactive)
ROOT
ATOM      1  C   UNL d   1      -5.289   1.538   0.845  0.00  0.00     0.078 C 
ATOM      2  C1  UNL d   1      -3.808   1.367   0.686  0.00  0.00    -0.077 A 
ATOM      3  C2  UNL d   1      -3.067   0.610   1.602  0.00  0.00    -0.001 A 
ATOM      4  C3  UNL d   1      -1.687   0.468   1.447  0.00  0.00     0.003 A 
ATOM      5  C4  UNL d   1      -1.036   1.080   0.378  0.00  0.00    -0.005 A 
ATOM      6  C5  UNL d   1      -1.764   1.838  -0.537  0.00  0.00     0.003 A 
ATOM      7  C6  UNL d   1      -3.144   1.981  -0.384  0.00  0.00    -0.001 A 
ENDROOT
TORSDOF 0
ENDMDL
