MODEL 1
REMARK minimizedAffinity -4.24673414
REMARK minimizedRMSD -1
REMARK  0 active torsions:
REMARK  status: ('A' for Active; 'I' for Inactive)
ROOT
ATOM      1  C   UNL d   1       2.254  -3.776  -1.126  0.00  0.00     0.078 C 
ATOM      2  C1  UNL d   1       0.884  -3.379  -0.665  0.00  0.00    -0.077 A 
ATOM      3  C2  UNL d   1       0.692  -2.761   0.577  0.00  0.00    -0.001 A 
ATOM      4  C3  UNL d   1      -0.590  -2.405   0.998  0.00  0.00     0.003 A 
ATOM      5  C4  UNL d   1      -1.691  -2.663   0.183  0.00  0.00    -0.005 A 
ATOM      6  C5  UNL d   1      -1.510  -3.279  -1.054  0.00  0.00     0.003 A 
ATOM      7  C6  UNL d   1      -0.229  -3.636  -1.476  0.00  0.00    -0.001 A 
ENDROOT
TORSDOF 0
ENDMDL
