MODEL 1
REMARK minimizedAffinity 2.11449051
REMARK minimizedRMSD -1
REMARK  0 active torsions:
REMARK  status: ('A' for Active; 'I' for Inactive)
ROOT
ATOM      1  C   UNL d   1       1.593   2.195  -4.869  0.00  0.00     0.078 C 
ATOM      2  C1  UNL d   1       0.297   2.950  -4.881  0.00  0.00    -0.077 A 
ATOM      3  C2  UNL d   1      -0.553   2.906  -5.993  0.00  0.00    -0.001 A 
ATOM      4  C3  UNL d   1      -1.751   3.622  -5.994  0.00  0.00     0.003 A 
ATOM      5  C4  UNL d   1      -2.110   4.387  -4.886  0.00  0.00    -0.005 A 
ATOM      6  C5  UNL d   1      -1.269   4.439  -3.776  0.00  0.00     0.003 A 
ATOM      7  C6  UNL d   1      -0.071   3.723  -3.773  0.00  0.00    -0.001 A 
ENDROOT
TORSDOF 0
ENDMDL
