MODEL 1
REMARK minimizedAffinity 0.331967205
REMARK minimizedRMSD -1
REMARK  0 active torsions:
REMARK  status: ('A' for Active; 'I' for Inactive)
ROOT
ATOM      1  C   UNL d   1      -0.474   4.766  -5.975  0.00  0.00     0.078 C 
ATOM      2  C1  UNL d   1      -1.915   4.350  -5.976  0.00  0.00    -0.077 A 
ATOM      3  C2  UNL d   1      -2.275   2.997  -5.982  0.00  0.00    -0.001 A 
ATOM      4  C3  UNL d   1      -3.620   2.625  -5.993  0.00  0.00     0.003 A 
ATOM      5  C4  UNL d   1      -4.616   3.599  -6.000  0.00  0.00    -0.005 A 
ATOM      6  C5  UNL d   1      -4.267   4.948  -5.996  0.00  0.00     0.003 A 
ATOM      7  C6  UNL d   1      -2.923   5.323  -5.985  0.00  0.00    -0.001 A 
ENDROOT
TORSDOF 0
ENDMDL
