MODEL 1
REMARK minimizedAffinity 5.9088192
REMARK minimizedRMSD -1
REMARK  1 active torsions:
REMARK  status: ('A' for Active; 'I' for Inactive)
REMARK    1  A    between atoms: C1_2  and  C2_3 
ROOT
ATOM      1  C2  UNL d   1       2.389  -3.094   3.241  0.00  0.00    -0.077 A 
ATOM      2  C3  UNL d   1       2.466  -2.540   1.955  0.00  0.00     0.002 A 
ATOM      3  C4  UNL d   1       1.998  -1.247   1.714  0.00  0.00     0.002 A 
ATOM      4  C5  UNL d   1       1.454  -0.496   2.754  0.00  0.00    -0.004 A 
ATOM      5  C6  UNL d   1       1.372  -1.039   4.036  0.00  0.00     0.002 A 
ATOM      6  C7  UNL d   1       1.838  -2.332   4.278  0.00  0.00     0.002 A 
ENDROOT
BRANCH   1   7
ATOM      7  C1  UNL d   1       2.939  -4.470   3.513  0.00  0.00     0.055 C 
ATOM      8  C   UNL d   1       2.125  -5.542   2.802  0.00  0.00     0.019 C 
ENDBRANCH   1   7
TORSDOF 1
ENDMDL
