MODEL 1
REMARK minimizedAffinity 4.8615756
REMARK minimizedRMSD -1
REMARK  1 active torsions:
REMARK  status: ('A' for Active; 'I' for Inactive)
REMARK    1  A    between atoms: C1_2  and  C2_3 
ROOT
ATOM      1  C2  UNL d   1       2.619  -2.696   3.621  0.00  0.00    -0.077 A 
ATOM      2  C3  UNL d   1       2.087  -1.406   3.491  0.00  0.00     0.002 A 
ATOM      3  C4  UNL d   1       1.586  -0.733   4.607  0.00  0.00     0.002 A 
ATOM      4  C5  UNL d   1       1.614  -1.341   5.860  0.00  0.00    -0.004 A 
ATOM      5  C6  UNL d   1       2.139  -2.625   5.999  0.00  0.00     0.002 A 
ATOM      6  C7  UNL d   1       2.640  -3.300   4.885  0.00  0.00     0.002 A 
ENDROOT
BRANCH   1   7
ATOM      7  C1  UNL d   1       3.205  -3.404   2.427  0.00  0.00     0.055 C 
ATOM      8  C   UNL d   1       2.511  -2.986   1.139  0.00  0.00     0.019 C 
ENDBRANCH   1   7
TORSDOF 1
ENDMDL
