MODEL 1
REMARK minimizedAffinity 8.90326786
REMARK minimizedRMSD -1
REMARK  1 active torsions:
REMARK  status: ('A' for Active; 'I' for Inactive)
REMARK    1  A    between atoms: C1_2  and  C2_3 
ROOT
ATOM      1  C2  UNL d   1       1.463  -2.569   3.557  0.00  0.00    -0.077 A 
ATOM      2  C3  UNL d   1       1.030  -2.011   4.768  0.00  0.00     0.002 A 
ATOM      3  C4  UNL d   1       1.357  -2.618   5.983  0.00  0.00     0.002 A 
ATOM      4  C5  UNL d   1       2.122  -3.782   5.998  0.00  0.00    -0.004 A 
ATOM      5  C6  UNL d   1       2.555  -4.346   4.799  0.00  0.00     0.002 A 
ATOM      6  C7  UNL d   1       2.228  -3.742   3.584  0.00  0.00     0.002 A 
ENDROOT
BRANCH   1   7
ATOM      7  C1  UNL d   1       1.152  -1.890   2.249  0.00  0.00     0.055 C 
ATOM      8  C   UNL d   1       1.169  -0.375   2.395  0.00  0.00     0.019 C 
ENDBRANCH   1   7
TORSDOF 1
ENDMDL
