MODEL 1
REMARK minimizedAffinity 1.33473372
REMARK minimizedRMSD -1
REMARK  1 active torsions:
REMARK  status: ('A' for Active; 'I' for Inactive)
REMARK    1  A    between atoms: C1_2  and  C2_3 
ROOT
ATOM      1  C2  UNL d   1       1.787  -2.237   4.246  0.00  0.00    -0.077 A 
ATOM      2  C3  UNL d   1       2.223  -3.078   3.213  0.00  0.00     0.002 A 
ATOM      3  C4  UNL d   1       2.231  -2.627   1.891  0.00  0.00     0.002 A 
ATOM      4  C5  UNL d   1       1.807  -1.334   1.592  0.00  0.00    -0.004 A 
ATOM      5  C6  UNL d   1       1.370  -0.491   2.613  0.00  0.00     0.002 A 
ATOM      6  C7  UNL d   1       1.361  -0.940   3.934  0.00  0.00     0.002 A 
ENDROOT
BRANCH   1   7
ATOM      7  C1  UNL d   1       1.825  -2.705   5.678  0.00  0.00     0.055 C 
ATOM      8  C   UNL d   1       3.136  -3.409   5.996  0.00  0.00     0.019 C 
ENDBRANCH   1   7
TORSDOF 1
ENDMDL
