MODEL 1
REMARK minimizedAffinity 7.71044207
REMARK minimizedRMSD -1
REMARK  1 active torsions:
REMARK  status: ('A' for Active; 'I' for Inactive)
REMARK    1  A    between atoms: C1_2  and  C2_3 
ROOT
ATOM      1  C2  UNL d   1      -3.659   3.360  -2.839  0.00  0.00    -0.077 A 
ATOM      2  C3  UNL d   1      -4.771   2.977  -2.076  0.00  0.00     0.002 A 
ATOM      3  C4  UNL d   1      -5.935   3.748  -2.089  0.00  0.00     0.002 A 
ATOM      4  C5  UNL d   1      -5.999   4.903  -2.866  0.00  0.00    -0.004 A 
ATOM      5  C6  UNL d   1      -4.898   5.293  -3.626  0.00  0.00     0.002 A 
ATOM      6  C7  UNL d   1      -3.733   4.524  -3.614  0.00  0.00     0.002 A 
ENDROOT
BRANCH   1   7
ATOM      7  C1  UNL d   1      -2.420   2.503  -2.865  0.00  0.00     0.055 C 
ATOM      8  C   UNL d   1      -2.679   1.137  -2.246  0.00  0.00     0.019 C 
ENDBRANCH   1   7
TORSDOF 1
ENDMDL
