MODEL 1
REMARK minimizedAffinity 1.70050585
REMARK minimizedRMSD -1
REMARK  2 active torsions:
REMARK  status: ('A' for Active; 'I' for Inactive)
REMARK    1  A    between atoms: C1_2  and  C2_3 
REMARK    2  A    between atoms: C2_3  and  C3_4 
ROOT
ATOM      1  C3  UNL d   1       1.847  -0.010  -0.815  0.00  0.00    -0.075 A 
ATOM      2  C4  UNL d   1       0.971   0.165  -1.896  0.00  0.00     0.002 A 
ATOM      3  C5  UNL d   1       0.720   1.439  -2.406  0.00  0.00     0.002 A 
ATOM      4  C6  UNL d   1       1.332   2.553  -1.836  0.00  0.00    -0.004 A 
ATOM      5  C7  UNL d   1       2.191   2.394  -0.751  0.00  0.00     0.002 A 
ATOM      6  C8  UNL d   1       2.448   1.120  -0.242  0.00  0.00     0.002 A 
ENDROOT
BRANCH   1   7
ATOM      7  C2  UNL d   1       2.146  -1.389  -0.277  0.00  0.00     0.056 C 
BRANCH   7   8
ATOM      8  C1  UNL d   1       1.850  -1.553   1.217  0.00  0.00     0.007 C 
ATOM      9  C   UNL d   1       2.557  -2.750   1.841  0.00  0.00     0.009 C 
ENDBRANCH   7   8
ENDBRANCH   1   7
TORSDOF 2
ENDMDL
