MODEL 1
REMARK minimizedAffinity 1.61743784
REMARK minimizedRMSD -1
REMARK  2 active torsions:
REMARK  status: ('A' for Active; 'I' for Inactive)
REMARK    1  A    between atoms: C1_2  and  C2_3 
REMARK    2  A    between atoms: C2_3  and  C3_4 
ROOT
ATOM      1  C3  UNL d   1      -4.708  -0.796  -4.463  0.00  0.00    -0.075 A 
ATOM      2  C4  UNL d   1      -3.659  -0.960  -5.380  0.00  0.00     0.002 A 
ATOM      3  C5  UNL d   1      -3.078   0.147  -5.998  0.00  0.00     0.002 A 
ATOM      4  C6  UNL d   1      -3.544   1.430  -5.717  0.00  0.00    -0.004 A 
ATOM      5  C7  UNL d   1      -4.597   1.604  -4.820  0.00  0.00     0.002 A 
ATOM      6  C8  UNL d   1      -5.177   0.498  -4.197  0.00  0.00     0.002 A 
ENDROOT
BRANCH   1   7
ATOM      7  C2  UNL d   1      -5.321  -1.988  -3.769  0.00  0.00     0.056 C 
BRANCH   7   8
ATOM      8  C1  UNL d   1      -4.319  -2.827  -2.969  0.00  0.00     0.007 C 
ATOM      9  C   UNL d   1      -3.534  -2.014  -1.948  0.00  0.00     0.009 C 
ENDBRANCH   7   8
ENDBRANCH   1   7
TORSDOF 2
ENDMDL
