MODEL 1
REMARK minimizedAffinity 18.6478901
REMARK minimizedRMSD -1
REMARK  0 active torsions:
REMARK  status: ('A' for Active; 'I' for Inactive)
ROOT
ATOM      1  C   UNL d   1       4.445   5.977   5.996  0.00  0.00     0.023 A 
ATOM      2  C1  UNL d   1       3.365   5.138   5.724  0.00  0.00     0.003 A 
ATOM      3  C2  UNL d   1       3.576   3.904   5.106  0.00  0.00     0.048 A 
ATOM      4  C3  UNL d   1       4.870   3.514   4.764  0.00  0.00     0.023 A 
ATOM      5  C4  UNL d   1       5.955   4.350   5.034  0.00  0.00     0.048 A 
ATOM      6  C5  UNL d   1       5.739   5.584   5.651  0.00  0.00     0.003 A 
ATOM      7  I   UNL d   1       5.186   1.677   3.845  0.00  0.00    -0.146 I 
ENDROOT
TORSDOF 0
ENDMDL
