MODEL 1
REMARK minimizedAffinity 13.9693098
REMARK minimizedRMSD -1
REMARK  0 active torsions:
REMARK  status: ('A' for Active; 'I' for Inactive)
ROOT
ATOM      1  C   UNL d   1       5.999   4.528  -1.202  0.00  0.00     0.023 A 
ATOM      2  C1  UNL d   1       5.297   5.325  -0.297  0.00  0.00     0.003 A 
ATOM      3  C2  UNL d   1       4.594   4.735   0.755  0.00  0.00     0.048 A 
ATOM      4  C3  UNL d   1       4.597   3.347   0.897  0.00  0.00     0.023 A 
ATOM      5  C4  UNL d   1       5.298   2.546  -0.006  0.00  0.00     0.048 A 
ATOM      6  C5  UNL d   1       5.999   3.140  -1.057  0.00  0.00     0.003 A 
ATOM      7  I   UNL d   1       3.550   2.467   2.462  0.00  0.00    -0.146 I 
ENDROOT
TORSDOF 0
ENDMDL
