MODEL 1
REMARK minimizedAffinity 12.2365484
REMARK minimizedRMSD -1
REMARK  0 active torsions:
REMARK  status: ('A' for Active; 'I' for Inactive)
ROOT
ATOM      1  C   UNL d   1      -2.109  -2.251   0.378  0.00  0.00     0.023 A 
ATOM      2  C1  UNL d   1      -2.476  -2.572   1.686  0.00  0.00     0.003 A 
ATOM      3  C2  UNL d   1      -1.870  -3.648   2.338  0.00  0.00     0.048 A 
ATOM      4  C3  UNL d   1      -0.898  -4.398   1.678  0.00  0.00     0.023 A 
ATOM      5  C4  UNL d   1      -0.527  -4.080   0.370  0.00  0.00     0.048 A 
ATOM      6  C5  UNL d   1      -1.136  -3.004  -0.279  0.00  0.00     0.003 A 
ATOM      7  I   UNL d   1       0.006  -6.000   2.647  0.00  0.00    -0.146 I 
ENDROOT
TORSDOF 0
ENDMDL
