MODEL 1
REMARK minimizedAffinity 10.886487
REMARK minimizedRMSD -1
REMARK  0 active torsions:
REMARK  status: ('A' for Active; 'I' for Inactive)
ROOT
ATOM      1  C   UNL d   1      -3.760   3.165   1.708  0.00  0.00     0.023 A 
ATOM      2  C1  UNL d   1      -3.755   4.551   1.868  0.00  0.00     0.003 A 
ATOM      3  C2  UNL d   1      -4.397   5.366   0.934  0.00  0.00     0.048 A 
ATOM      4  C3  UNL d   1      -5.043   4.788  -0.159  0.00  0.00     0.023 A 
ATOM      5  C4  UNL d   1      -5.052   3.402  -0.323  0.00  0.00     0.048 A 
ATOM      6  C5  UNL d   1      -4.408   2.592   0.614  0.00  0.00     0.003 A 
ATOM      7  I   UNL d   1      -6.000   5.999  -1.551  0.00  0.00    -0.146 I 
ENDROOT
TORSDOF 0
ENDMDL
