MODEL 1
REMARK minimizedAffinity 5.26658821
REMARK minimizedRMSD -1
REMARK  0 active torsions:
REMARK  status: ('A' for Active; 'I' for Inactive)
ROOT
ATOM      1  C   UNL d   1      -5.559   5.933  -5.484  0.00  0.00     0.023 A 
ATOM      2  C1  UNL d   1      -4.422   6.000  -4.679  0.00  0.00     0.003 A 
ATOM      3  C2  UNL d   1      -3.702   4.840  -4.387  0.00  0.00     0.048 A 
ATOM      4  C3  UNL d   1      -4.124   3.615  -4.904  0.00  0.00     0.023 A 
ATOM      5  C4  UNL d   1      -5.261   3.543  -5.711  0.00  0.00     0.048 A 
ATOM      6  C5  UNL d   1      -5.978   4.706  -6.000  0.00  0.00     0.003 A 
ATOM      7  I   UNL d   1      -3.054   1.887  -4.471  0.00  0.00    -0.146 I 
ENDROOT
TORSDOF 0
ENDMDL
