MODEL 1
REMARK minimizedAffinity 6.61952209
REMARK minimizedRMSD -1
REMARK  0 active torsions:
REMARK  status: ('A' for Active; 'I' for Inactive)
ROOT
ATOM      1  C   UNL d   1      -5.796   5.693  -5.535  0.00  0.00     0.023 A 
ATOM      2  C1  UNL d   1      -5.973   4.390  -6.000  0.00  0.00     0.003 A 
ATOM      3  C2  UNL d   1      -5.067   3.390  -5.640  0.00  0.00     0.048 A 
ATOM      4  C3  UNL d   1      -3.987   3.701  -4.814  0.00  0.00     0.023 A 
ATOM      5  C4  UNL d   1      -3.807   5.003  -4.345  0.00  0.00     0.048 A 
ATOM      6  C5  UNL d   1      -4.715   6.000  -4.709  0.00  0.00     0.003 A 
ATOM      7  I   UNL d   1      -2.637   2.214  -4.276  0.00  0.00    -0.146 I 
ENDROOT
TORSDOF 0
ENDMDL
