MODEL 1
REMARK minimizedAffinity 8.71386719
REMARK minimizedRMSD -1
REMARK  0 active torsions:
REMARK  status: ('A' for Active; 'I' for Inactive)
ROOT
ATOM      1  C   UNL d   1      -5.999   5.724  -5.271  0.00  0.00     0.023 A 
ATOM      2  C1  UNL d   1      -5.035   6.000  -4.302  0.00  0.00     0.003 A 
ATOM      3  C2  UNL d   1      -4.006   5.088  -4.059  0.00  0.00     0.048 A 
ATOM      4  C3  UNL d   1      -3.947   3.901  -4.789  0.00  0.00     0.023 A 
ATOM      5  C4  UNL d   1      -4.909   3.621  -5.760  0.00  0.00     0.048 A 
ATOM      6  C5  UNL d   1      -5.936   4.536  -5.999  0.00  0.00     0.003 A 
ATOM      7  I   UNL d   1      -2.416   2.542  -4.429  0.00  0.00    -0.146 I 
ENDROOT
TORSDOF 0
ENDMDL
