MODEL 1
REMARK minimizedAffinity 8.50271606
REMARK minimizedRMSD -1
REMARK  0 active torsions:
REMARK  status: ('A' for Active; 'I' for Inactive)
ROOT
ATOM      1  C   UNL d   1      -4.758   0.936   5.986  0.00  0.00     0.023 A 
ATOM      2  C1  UNL d   1      -3.482   1.349   5.602  0.00  0.00     0.003 A 
ATOM      3  C2  UNL d   1      -2.524   0.404   5.230  0.00  0.00     0.048 A 
ATOM      4  C3  UNL d   1      -2.848  -0.952   5.244  0.00  0.00     0.023 A 
ATOM      5  C4  UNL d   1      -4.124  -1.370   5.626  0.00  0.00     0.048 A 
ATOM      6  C5  UNL d   1      -5.079  -0.422   5.998  0.00  0.00     0.003 A 
ATOM      7  I   UNL d   1      -1.423  -2.360   4.691  0.00  0.00    -0.146 I 
ENDROOT
TORSDOF 0
ENDMDL
