MODEL 1
REMARK minimizedAffinity 12.1539879
REMARK minimizedRMSD -1
REMARK  0 active torsions:
REMARK  status: ('A' for Active; 'I' for Inactive)
ROOT
ATOM      1  C   UNL d   1      -0.998  -4.108  -3.235  0.00  0.00     0.023 A 
ATOM      2  C1  UNL d   1      -0.892  -4.137  -1.844  0.00  0.00     0.003 A 
ATOM      3  C2  UNL d   1      -1.587  -3.206  -1.070  0.00  0.00     0.048 A 
ATOM      4  C3  UNL d   1      -2.387  -2.249  -1.693  0.00  0.00     0.023 A 
ATOM      5  C4  UNL d   1      -2.497  -2.216  -3.084  0.00  0.00     0.048 A 
ATOM      6  C5  UNL d   1      -1.799  -3.149  -3.854  0.00  0.00     0.003 A 
ATOM      7  I   UNL d   1      -3.423  -0.862  -0.543  0.00  0.00    -0.146 I 
ENDROOT
TORSDOF 0
ENDMDL
