MODEL 1
REMARK minimizedAffinity -1.37766135
REMARK minimizedRMSD -1
REMARK  0 active torsions:
REMARK  status: ('A' for Active; 'I' for Inactive)
ROOT
ATOM      1  C   UNL d   1      -4.844   1.667   6.000  0.00  0.00     0.023 A 
ATOM      2  C1  UNL d   1      -3.482   1.877   5.784  0.00  0.00     0.003 A 
ATOM      3  C2  UNL d   1      -2.632   0.790   5.569  0.00  0.00     0.048 A 
ATOM      4  C3  UNL d   1      -3.151  -0.504   5.570  0.00  0.00     0.023 A 
ATOM      5  C4  UNL d   1      -4.514  -0.719   5.784  0.00  0.00     0.048 A 
ATOM      6  C5  UNL d   1      -5.359   0.371   6.000  0.00  0.00     0.003 A 
ATOM      7  I   UNL d   1      -1.889  -2.124   5.250  0.00  0.00    -0.146 I 
ENDROOT
TORSDOF 0
ENDMDL
