MODEL 1
REMARK minimizedAffinity 13.4356651
REMARK minimizedRMSD -1
REMARK  0 active torsions:
REMARK  status: ('A' for Active; 'I' for Inactive)
ROOT
ATOM      1  C   UNL d   1       4.882   4.493   6.000  0.00  0.00     0.023 A 
ATOM      2  C1  UNL d   1       6.000   4.504   5.165  0.00  0.00     0.003 A 
ATOM      3  C2  UNL d   1       5.872   4.150   3.820  0.00  0.00     0.048 A 
ATOM      4  C3  UNL d   1       4.623   3.787   3.317  0.00  0.00     0.023 A 
ATOM      5  C4  UNL d   1       3.502   3.775   4.148  0.00  0.00     0.048 A 
ATOM      6  C5  UNL d   1       3.635   4.129   5.492  0.00  0.00     0.003 A 
ATOM      7  I   UNL d   1       4.431   3.260   1.316  0.00  0.00    -0.146 I 
ENDROOT
TORSDOF 0
ENDMDL
