MODEL 1
REMARK minimizedAffinity 6.72583008
REMARK minimizedRMSD -1
REMARK  0 active torsions:
REMARK  status: ('A' for Active; 'I' for Inactive)
ROOT
ATOM      1  C   UNL d   1      -2.180  -1.459  -1.357  0.00  0.00     0.023 A 
ATOM      2  C1  UNL d   1      -3.107  -0.441  -1.134  0.00  0.00     0.003 A 
ATOM      3  C2  UNL d   1      -3.111   0.692  -1.951  0.00  0.00     0.048 A 
ATOM      4  C3  UNL d   1      -2.186   0.800  -2.989  0.00  0.00     0.023 A 
ATOM      5  C4  UNL d   1      -1.257  -0.216  -3.216  0.00  0.00     0.048 A 
ATOM      6  C5  UNL d   1      -1.256  -1.347  -2.396  0.00  0.00     0.003 A 
ATOM      7  I   UNL d   1      -2.191   2.485  -4.205  0.00  0.00    -0.146 I 
ENDROOT
TORSDOF 0
ENDMDL
