MODEL 1
REMARK minimizedAffinity 18.3732204
REMARK minimizedRMSD -1
REMARK  3 active torsions:
REMARK  status: ('A' for Active; 'I' for Inactive)
REMARK    1  A    between atoms: C3'_2  and  C2'_3 
REMARK    2  A    between atoms: C2'_3  and  C1'_4 
REMARK    3  A    between atoms: C1'_4  and  C1_5 
ROOT
ATOM      1  C1  N4B d   1      -1.917  -2.663  -1.138  0.00  0.00    -0.075 A 
ATOM      2  C2  N4B d   1      -2.663  -3.050  -0.003  0.00  0.00     0.002 A 
ATOM      3  C3  N4B d   1      -2.016  -3.474   1.131  0.00  0.00     0.002 A 
ATOM      4  C4  N4B d   1      -0.631  -3.538   1.148  0.00  0.00    -0.004 A 
ATOM      5  C5  N4B d   1       0.083  -3.138   0.056  0.00  0.00     0.002 A 
ATOM      6  C6  N4B d   1      -0.554  -2.705  -1.090  0.00  0.00     0.002 A 
ENDROOT
BRANCH   1   7
ATOM      7  C1' N4B d   1      -2.582  -2.273  -2.430  0.00  0.00     0.057 C 
BRANCH   7   8
ATOM      8  C2' N4B d   1      -2.044  -3.153  -3.555  0.00  0.00     0.009 C 
BRANCH   8   9
ATOM      9  C3' N4B d   1      -2.443  -2.631  -4.925  0.00  0.00     0.004 C 
ATOM     10  C4' N4B d   1      -1.471  -3.018  -6.000  0.00  0.00     0.003 C 
ENDBRANCH   8   9
ENDBRANCH   7   8
ENDBRANCH   1   7
TORSDOF 3
ENDMDL
