MODEL 1
REMARK minimizedAffinity 4.33155632
REMARK minimizedRMSD -1
REMARK  3 active torsions:
REMARK  status: ('A' for Active; 'I' for Inactive)
REMARK    1  A    between atoms: C3'_2  and  C2'_3 
REMARK    2  A    between atoms: C2'_3  and  C1'_4 
REMARK    3  A    between atoms: C1'_4  and  C1_5 
ROOT
ATOM      1  C1  N4B d   1       2.640   0.049   1.415  0.00  0.00    -0.075 A 
ATOM      2  C2  N4B d   1       2.677  -0.803   2.541  0.00  0.00     0.002 A 
ATOM      3  C3  N4B d   1       1.959  -0.483   3.668  0.00  0.00     0.002 A 
ATOM      4  C4  N4B d   1       1.216   0.688   3.698  0.00  0.00    -0.004 A 
ATOM      5  C5  N4B d   1       1.166   1.492   2.597  0.00  0.00     0.002 A 
ATOM      6  C6  N4B d   1       1.878   1.181   1.456  0.00  0.00     0.002 A 
ENDROOT
BRANCH   1   7
ATOM      7  C1' N4B d   1       3.475  -0.215   0.192  0.00  0.00     0.057 C 
BRANCH   7   8
ATOM      8  C2' N4B d   1       4.318  -1.466   0.422  0.00  0.00     0.009 C 
BRANCH   8   9
ATOM      9  C3' N4B d   1       5.781  -1.131   0.659  0.00  0.00     0.004 C 
ATOM     10  C4' N4B d   1       5.993  -0.299   1.889  0.00  0.00     0.003 C 
ENDBRANCH   8   9
ENDBRANCH   7   8
ENDBRANCH   1   7
TORSDOF 3
ENDMDL
