MODEL 1
REMARK minimizedAffinity 6.01745129
REMARK minimizedRMSD -1
REMARK  3 active torsions:
REMARK  status: ('A' for Active; 'I' for Inactive)
REMARK    1  A    between atoms: C3'_2  and  C2'_3 
REMARK    2  A    between atoms: C2'_3  and  C1'_4 
REMARK    3  A    between atoms: C1'_4  and  C1_5 
ROOT
ATOM      1  C1  N4B d   1       3.453  -0.008   0.815  0.00  0.00    -0.075 A 
ATOM      2  C2  N4B d   1       4.060  -0.327   2.050  0.00  0.00     0.002 A 
ATOM      3  C3  N4B d   1       5.329  -0.852   2.076  0.00  0.00     0.002 A 
ATOM      4  C4  N4B d   1       6.000  -1.083   0.884  0.00  0.00    -0.004 A 
ATOM      5  C5  N4B d   1       5.417  -0.748  -0.303  0.00  0.00     0.002 A 
ATOM      6  C6  N4B d   1       4.143  -0.216  -0.344  0.00  0.00     0.002 A 
ENDROOT
BRANCH   1   7
ATOM      7  C1' N4B d   1       2.035   0.487   0.732  0.00  0.00     0.057 C 
BRANCH   7   8
ATOM      8  C2' N4B d   1       1.169  -0.307   1.705  0.00  0.00     0.009 C 
BRANCH   8   9
ATOM      9  C3' N4B d   1       0.700   0.544   2.873  0.00  0.00     0.004 C 
ATOM     10  C4' N4B d   1       0.394  -0.267   4.097  0.00  0.00     0.003 C 
ENDBRANCH   8   9
ENDBRANCH   7   8
ENDBRANCH   1   7
TORSDOF 3
ENDMDL
