MODEL 1
REMARK minimizedAffinity 10.497611
REMARK minimizedRMSD -1
REMARK  3 active torsions:
REMARK  status: ('A' for Active; 'I' for Inactive)
REMARK    1  A    between atoms: C3'_2  and  C2'_3 
REMARK    2  A    between atoms: C2'_3  and  C1'_4 
REMARK    3  A    between atoms: C1'_4  and  C1_5 
ROOT
ATOM      1  C1  N4B d   1      -4.927   3.343   4.111  0.00  0.00    -0.075 A 
ATOM      2  C2  N4B d   1      -5.637   3.806   2.982  0.00  0.00     0.002 A 
ATOM      3  C3  N4B d   1      -5.999   5.127   2.893  0.00  0.00     0.002 A 
ATOM      4  C4  N4B d   1      -5.681   5.997   3.925  0.00  0.00    -0.004 A 
ATOM      5  C5  N4B d   1      -4.973   5.547   5.001  0.00  0.00     0.002 A 
ATOM      6  C6  N4B d   1      -4.598   4.223   5.102  0.00  0.00     0.002 A 
ENDROOT
BRANCH   1   7
ATOM      7  C1' N4B d   1      -4.583   1.890   4.293  0.00  0.00     0.057 C 
BRANCH   7   8
ATOM      8  C2' N4B d   1      -3.950   1.361   3.010  0.00  0.00     0.009 C 
BRANCH   8   9
ATOM      9  C3' N4B d   1      -3.999  -0.156   2.935  0.00  0.00     0.004 C 
ATOM     10  C4' N4B d   1      -2.782  -0.745   2.286  0.00  0.00     0.003 C 
ENDBRANCH   8   9
ENDBRANCH   7   8
ENDBRANCH   1   7
TORSDOF 3
ENDMDL
