MODEL 1
REMARK minimizedAffinity 17.4799843
REMARK minimizedRMSD -1
REMARK  3 active torsions:
REMARK  status: ('A' for Active; 'I' for Inactive)
REMARK    1  A    between atoms: C3'_2  and  C2'_3 
REMARK    2  A    between atoms: C2'_3  and  C1'_4 
REMARK    3  A    between atoms: C1'_4  and  C1_5 
ROOT
ATOM      1  C1  N4B d   1      -1.911  -2.463  -1.189  0.00  0.00    -0.075 A 
ATOM      2  C2  N4B d   1      -2.893  -2.248  -0.197  0.00  0.00     0.002 A 
ATOM      3  C3  N4B d   1      -2.597  -2.479   1.124  0.00  0.00     0.002 A 
ATOM      4  C4  N4B d   1      -1.337  -2.943   1.473  0.00  0.00    -0.004 A 
ATOM      5  C5  N4B d   1      -0.387  -3.124   0.512  0.00  0.00     0.002 A 
ATOM      6  C6  N4B d   1      -0.669  -2.892  -0.819  0.00  0.00     0.002 A 
ENDROOT
BRANCH   1   7
ATOM      7  C1' N4B d   1      -2.214  -2.306  -2.654  0.00  0.00     0.057 C 
BRANCH   7   8
ATOM      8  C2' N4B d   1      -2.722  -3.635  -3.206  0.00  0.00     0.009 C 
BRANCH   8   9
ATOM      9  C3' N4B d   1      -4.040  -4.047  -2.572  0.00  0.00     0.004 C 
ATOM     10  C4' N4B d   1      -5.148  -4.181  -3.573  0.00  0.00     0.003 C 
ENDBRANCH   8   9
ENDBRANCH   7   8
ENDBRANCH   1   7
TORSDOF 3
ENDMDL
