MODEL 1
REMARK minimizedAffinity 5.11254978
REMARK minimizedRMSD -1
REMARK  3 active torsions:
REMARK  status: ('A' for Active; 'I' for Inactive)
REMARK    1  A    between atoms: C3'_2  and  C2'_3 
REMARK    2  A    between atoms: C2'_3  and  C1'_4 
REMARK    3  A    between atoms: C1'_4  and  C1_5 
ROOT
ATOM      1  C1  N4B d   1       3.275   0.386  -0.096  0.00  0.00    -0.075 A 
ATOM      2  C2  N4B d   1       2.261   1.262   0.348  0.00  0.00     0.002 A 
ATOM      3  C3  N4B d   1       1.958   1.341   1.685  0.00  0.00     0.002 A 
ATOM      4  C4  N4B d   1       2.640   0.543   2.591  0.00  0.00    -0.004 A 
ATOM      5  C5  N4B d   1       3.636  -0.283   2.157  0.00  0.00     0.002 A 
ATOM      6  C6  N4B d   1       3.954  -0.369   0.817  0.00  0.00     0.002 A 
ENDROOT
BRANCH   1   7
ATOM      7  C1' N4B d   1       3.583   0.202  -1.557  0.00  0.00     0.057 C 
BRANCH   7   8
ATOM      8  C2' N4B d   1       3.443   1.544  -2.271  0.00  0.00     0.009 C 
BRANCH   8   9
ATOM      9  C3' N4B d   1       3.477   1.389  -3.781  0.00  0.00     0.004 C 
ATOM     10  C4' N4B d   1       4.761   0.792  -4.276  0.00  0.00     0.003 C 
ENDBRANCH   8   9
ENDBRANCH   7   8
ENDBRANCH   1   7
TORSDOF 3
ENDMDL
