MODEL 1
REMARK minimizedAffinity -1.15419507
REMARK minimizedRMSD -1
REMARK  0 active torsions:
REMARK  status: ('A' for Active; 'I' for Inactive)
ROOT
ATOM      1  C   UNL d   1       1.447  -0.199  -0.528  0.00  0.00     0.023 A 
ATOM      2  C1  UNL d   1       0.884  -1.311   0.099  0.00  0.00     0.003 A 
ATOM      3  C2  UNL d   1      -0.323  -1.188   0.790  0.00  0.00     0.048 A 
ATOM      4  C3  UNL d   1      -0.963   0.050   0.850  0.00  0.00     0.023 A 
ATOM      5  C4  UNL d   1      -0.404   1.165   0.223  0.00  0.00     0.048 A 
ATOM      6  C5  UNL d   1       0.804   1.038  -0.466  0.00  0.00     0.003 A 
ATOM      7  I   UNL d   1      -2.759   0.236   1.878  0.00  0.00    -0.146 I 
ENDROOT
TORSDOF 0
ENDMDL
