MODEL 1
REMARK minimizedAffinity -4.41160059
REMARK minimizedRMSD -1
REMARK  0 active torsions:
REMARK  status: ('A' for Active; 'I' for Inactive)
ROOT
ATOM      1  C   UNL d   1       1.139  -2.516  -1.466  0.00  0.00     0.023 A 
ATOM      2  C1  UNL d   1       1.765  -1.515  -2.209  0.00  0.00     0.003 A 
ATOM      3  C2  UNL d   1       1.746  -0.194  -1.759  0.00  0.00     0.048 A 
ATOM      4  C3  UNL d   1       1.101   0.120  -0.563  0.00  0.00     0.023 A 
ATOM      5  C4  UNL d   1       0.474  -0.878   0.185  0.00  0.00     0.048 A 
ATOM      6  C5  UNL d   1       0.494  -2.197  -0.270  0.00  0.00     0.003 A 
ATOM      7  I   UNL d   1       1.072   2.087   0.110  0.00  0.00    -0.146 I 
ENDROOT
TORSDOF 0
ENDMDL
