MODEL 1
REMARK minimizedAffinity -2.63222408
REMARK minimizedRMSD -1
REMARK  0 active torsions:
REMARK  status: ('A' for Active; 'I' for Inactive)
ROOT
ATOM      1  C   UNL d   1       1.589   0.346  -1.959  0.00  0.00     0.023 A 
ATOM      2  C1  UNL d   1       1.350   1.465  -1.162  0.00  0.00     0.003 A 
ATOM      3  C2  UNL d   1       0.378   1.416  -0.161  0.00  0.00     0.048 A 
ATOM      4  C3  UNL d   1      -0.351   0.244   0.038  0.00  0.00     0.023 A 
ATOM      5  C4  UNL d   1      -0.115  -0.878  -0.757  0.00  0.00     0.048 A 
ATOM      6  C5  UNL d   1       0.858  -0.824  -1.757  0.00  0.00     0.003 A 
ATOM      7  I   UNL d   1      -1.799   0.169   1.527  0.00  0.00    -0.146 I 
ENDROOT
TORSDOF 0
ENDMDL
