MODEL 1
REMARK minimizedAffinity -1.68526101
REMARK minimizedRMSD -1
REMARK  0 active torsions:
REMARK  status: ('A' for Active; 'I' for Inactive)
ROOT
ATOM      1  C   UNL d   1       1.857  -0.083  -2.086  0.00  0.00     0.023 A 
ATOM      2  C1  UNL d   1       0.741  -0.907  -1.938  0.00  0.00     0.003 A 
ATOM      3  C2  UNL d   1      -0.147  -0.698  -0.881  0.00  0.00     0.048 A 
ATOM      4  C3  UNL d   1       0.086   0.338   0.023  0.00  0.00     0.023 A 
ATOM      5  C4  UNL d   1       1.201   1.166  -0.122  0.00  0.00     0.048 A 
ATOM      6  C5  UNL d   1       2.086   0.952  -1.180  0.00  0.00     0.003 A 
ATOM      7  I   UNL d   1      -1.235   0.651   1.597  0.00  0.00    -0.146 I 
ENDROOT
TORSDOF 0
ENDMDL
