MODEL 1
REMARK minimizedAffinity -1.95385921
REMARK minimizedRMSD -1
REMARK  0 active torsions:
REMARK  status: ('A' for Active; 'I' for Inactive)
ROOT
ATOM      1  C   UNL d   1       1.544   0.045  -2.631  0.00  0.00     0.023 A 
ATOM      2  C1  UNL d   1       0.567  -0.906  -2.338  0.00  0.00     0.003 A 
ATOM      3  C2  UNL d   1       0.108  -1.057  -1.028  0.00  0.00     0.048 A 
ATOM      4  C3  UNL d   1       0.629  -0.251  -0.016  0.00  0.00     0.023 A 
ATOM      5  C4  UNL d   1       1.606   0.703  -0.305  0.00  0.00     0.048 A 
ATOM      6  C5  UNL d   1       2.063   0.849  -1.616  0.00  0.00     0.003 A 
ATOM      7  I   UNL d   1      -0.053  -0.473   1.934  0.00  0.00    -0.146 I 
ENDROOT
TORSDOF 0
ENDMDL
