MODEL 1
REMARK minimizedAffinity -4.73926306
REMARK minimizedRMSD -1
REMARK  0 active torsions:
REMARK  status: ('A' for Active; 'I' for Inactive)
ROOT
ATOM      1  C   UNL d   1       2.146  -0.925  -2.985  0.00  0.00     0.023 A 
ATOM      2  C1  UNL d   1       1.950   0.343  -2.438  0.00  0.00     0.003 A 
ATOM      3  C2  UNL d   1       1.202   0.493  -1.269  0.00  0.00     0.048 A 
ATOM      4  C3  UNL d   1       0.654  -0.630  -0.650  0.00  0.00     0.023 A 
ATOM      5  C4  UNL d   1       0.848  -1.901  -1.193  0.00  0.00     0.048 A 
ATOM      6  C5  UNL d   1       1.595  -2.046  -2.363  0.00  0.00     0.003 A 
ATOM      7  I   UNL d   1      -0.460  -0.409   1.091  0.00  0.00    -0.146 I 
ENDROOT
TORSDOF 0
ENDMDL
