MODEL 1
REMARK minimizedAffinity -0.909981549
REMARK minimizedRMSD -1
REMARK  0 active torsions:
REMARK  status: ('A' for Active; 'I' for Inactive)
ROOT
ATOM      1  C   UNL d   1       1.809   0.079  -3.099  0.00  0.00     0.023 A 
ATOM      2  C1  UNL d   1       0.811  -0.895  -3.120  0.00  0.00     0.003 A 
ATOM      3  C2  UNL d   1       0.015  -1.105  -1.993  0.00  0.00     0.048 A 
ATOM      4  C3  UNL d   1       0.221  -0.336  -0.848  0.00  0.00     0.023 A 
ATOM      5  C4  UNL d   1       1.217   0.641  -0.822  0.00  0.00     0.048 A 
ATOM      6  C5  UNL d   1       2.012   0.846  -1.952  0.00  0.00     0.003 A 
ATOM      7  I   UNL d   1      -0.964  -0.647   0.832  0.00  0.00    -0.146 I 
ENDROOT
TORSDOF 0
ENDMDL
