MODEL 1
REMARK minimizedAffinity -2.56530356
REMARK minimizedRMSD -1
REMARK  0 active torsions:
REMARK  status: ('A' for Active; 'I' for Inactive)
ROOT
ATOM      1  C   UNL d   1       1.008  -1.058  -1.322  0.00  0.00     0.023 A 
ATOM      2  C1  UNL d   1       0.960   0.316  -1.084  0.00  0.00     0.003 A 
ATOM      3  C2  UNL d   1       0.157   0.820  -0.059  0.00  0.00     0.048 A 
ATOM      4  C3  UNL d   1      -0.594  -0.054   0.725  0.00  0.00     0.023 A 
ATOM      5  C4  UNL d   1      -0.548  -1.430   0.491  0.00  0.00     0.048 A 
ATOM      6  C5  UNL d   1       0.255  -1.929  -0.536  0.00  0.00     0.003 A 
ATOM      7  I   UNL d   1      -1.790   0.694   2.251  0.00  0.00    -0.146 I 
ENDROOT
TORSDOF 0
ENDMDL
