MODEL 1
REMARK minimizedAffinity -2.85769582
REMARK minimizedRMSD -1
REMARK  0 active torsions:
REMARK  status: ('A' for Active; 'I' for Inactive)
ROOT
ATOM      1  C   UNL d   1       1.920  -0.242  -2.390  0.00  0.00     0.023 A 
ATOM      2  C1  UNL d   1       0.986  -1.247  -2.136  0.00  0.00     0.003 A 
ATOM      3  C2  UNL d   1       0.137  -1.151  -1.032  0.00  0.00     0.048 A 
ATOM      4  C3  UNL d   1       0.226  -0.046  -0.186  0.00  0.00     0.023 A 
ATOM      5  C4  UNL d   1       1.158   0.962  -0.436  0.00  0.00     0.048 A 
ATOM      6  C5  UNL d   1       2.006   0.861  -1.541  0.00  0.00     0.003 A 
ATOM      7  I   UNL d   1      -1.036   0.099   1.459  0.00  0.00    -0.146 I 
ENDROOT
TORSDOF 0
ENDMDL
