MODEL 1
REMARK minimizedAffinity -4.05590296
REMARK minimizedRMSD -1
REMARK  0 active torsions:
REMARK  status: ('A' for Active; 'I' for Inactive)
ROOT
ATOM      1  C   UNL d   1       1.709   0.761  -1.821  0.00  0.00     0.023 A 
ATOM      2  C1  UNL d   1       1.457   1.747  -0.867  0.00  0.00     0.003 A 
ATOM      3  C2  UNL d   1       0.521   1.518   0.144  0.00  0.00     0.048 A 
ATOM      4  C3  UNL d   1      -0.158   0.301   0.195  0.00  0.00     0.023 A 
ATOM      5  C4  UNL d   1       0.092  -0.688  -0.757  0.00  0.00     0.048 A 
ATOM      6  C5  UNL d   1       1.028  -0.454  -1.767  0.00  0.00     0.003 A 
ATOM      7  I   UNL d   1      -1.551  -0.041   1.699  0.00  0.00    -0.146 I 
ENDROOT
TORSDOF 0
ENDMDL
