MODEL 1
REMARK minimizedAffinity -3.16244149
REMARK minimizedRMSD -1
REMARK  0 active torsions:
REMARK  status: ('A' for Active; 'I' for Inactive)
ROOT
ATOM      1  C   UNL d   1       1.679   0.623  -3.084  0.00  0.00     0.023 A 
ATOM      2  C1  UNL d   1       0.556  -0.203  -3.125  0.00  0.00     0.003 A 
ATOM      3  C2  UNL d   1      -0.097  -0.554  -1.941  0.00  0.00     0.048 A 
ATOM      4  C3  UNL d   1       0.377  -0.074  -0.721  0.00  0.00     0.023 A 
ATOM      5  C4  UNL d   1       1.500   0.754  -0.676  0.00  0.00     0.048 A 
ATOM      6  C5  UNL d   1       2.151   1.101  -1.861  0.00  0.00     0.003 A 
ATOM      7  I   UNL d   1      -0.593  -0.595   1.041  0.00  0.00    -0.146 I 
ENDROOT
TORSDOF 0
ENDMDL
