MODEL 1
REMARK minimizedAffinity 13.027236
REMARK minimizedRMSD -1
REMARK  1 active torsions:
REMARK  status: ('A' for Active; 'I' for Inactive)
REMARK    1  A    between atoms: C1_2  and  C2_3 
ROOT
ATOM      1  C2  UNL d   1       5.546   1.991   3.594  0.00  0.00    -0.076 A 
ATOM      2  C3  UNL d   1       5.999   3.289   3.305  0.00  0.00     0.004 A 
ATOM      3  C4  UNL d   1       5.937   4.301   4.262  0.00  0.00    -0.003 A 
ATOM      4  C5  UNL d   1       5.420   4.029   5.524  0.00  0.00     0.000 A 
ATOM      5  C6  UNL d   1       4.982   2.742   5.834  0.00  0.00     0.000 A 
ATOM      6  C7  UNL d   1       5.053   1.707   4.886  0.00  0.00    -0.073 A 
ATOM      7  C8  UNL d   1       4.561   0.339   5.272  0.00  0.00     0.078 C 
ENDROOT
BRANCH   1   8
ATOM      8  C1  UNL d   1       5.614   0.941   2.507  0.00  0.00     0.053 C 
ATOM      9  C   UNL d   1       6.000   1.525   1.157  0.00  0.00     0.018 C 
ENDBRANCH   1   8
TORSDOF 1
ENDMDL
