MODEL 1
REMARK minimizedAffinity 21.108139
REMARK minimizedRMSD -1
REMARK  1 active torsions:
REMARK  status: ('A' for Active; 'I' for Inactive)
REMARK    1  A    between atoms: C1_2  and  C2_3 
ROOT
ATOM      1  C2  UNL d   1      -1.293  -2.577  -4.358  0.00  0.00    -0.076 A 
ATOM      2  C3  UNL d   1      -0.739  -1.991  -5.509  0.00  0.00     0.004 A 
ATOM      3  C4  UNL d   1       0.193  -0.959  -5.411  0.00  0.00    -0.003 A 
ATOM      4  C5  UNL d   1       0.586  -0.497  -4.160  0.00  0.00     0.000 A 
ATOM      5  C6  UNL d   1       0.060  -1.079  -3.007  0.00  0.00     0.000 A 
ATOM      6  C7  UNL d   1      -0.868  -2.131  -3.088  0.00  0.00    -0.073 A 
ATOM      7  C8  UNL d   1      -1.408  -2.717  -1.813  0.00  0.00     0.078 C 
ENDROOT
BRANCH   1   8
ATOM      8  C1  UNL d   1      -2.320  -3.674  -4.526  0.00  0.00     0.053 C 
ATOM      9  C   UNL d   1      -2.267  -4.315  -5.905  0.00  0.00     0.018 C 
ENDBRANCH   1   8
TORSDOF 1
ENDMDL
