MODEL 1
REMARK minimizedAffinity 17.5007935
REMARK minimizedRMSD -1
REMARK  1 active torsions:
REMARK  status: ('A' for Active; 'I' for Inactive)
REMARK    1  A    between atoms: C1_2  and  C2_3 
ROOT
ATOM      1  C2  UNL d   1       0.711  -0.669  -3.561  0.00  0.00    -0.076 A 
ATOM      2  C3  UNL d   1       0.418  -0.835  -2.197  0.00  0.00     0.004 A 
ATOM      3  C4  UNL d   1      -0.793  -1.389  -1.785  0.00  0.00    -0.003 A 
ATOM      4  C5  UNL d   1      -1.731  -1.786  -2.732  0.00  0.00     0.000 A 
ATOM      5  C6  UNL d   1      -1.450  -1.645  -4.091  0.00  0.00     0.000 A 
ATOM      6  C7  UNL d   1      -0.227  -1.103  -4.523  0.00  0.00    -0.073 A 
ATOM      7  C8  UNL d   1       0.022  -0.968  -6.000  0.00  0.00     0.078 C 
ENDROOT
BRANCH   1   8
ATOM      8  C1  UNL d   1       2.029  -0.037  -3.947  0.00  0.00     0.053 C 
ATOM      9  C   UNL d   1       3.221  -0.910  -3.587  0.00  0.00     0.018 C 
ENDBRANCH   1   8
TORSDOF 1
ENDMDL
