MODEL 1
REMARK minimizedAffinity -4.99553251
REMARK minimizedRMSD -1
REMARK  1 active torsions:
REMARK  status: ('A' for Active; 'I' for Inactive)
REMARK    1  A    between atoms: C1_2  and  C2_3 
ROOT
ATOM      1  C2  UNL d   1      -0.565  -1.119   0.564  0.00  0.00    -0.076 A 
ATOM      2  C3  UNL d   1      -1.138  -2.317   1.026  0.00  0.00     0.004 A 
ATOM      3  C4  UNL d   1      -2.286  -2.305   1.817  0.00  0.00    -0.003 A 
ATOM      4  C5  UNL d   1      -2.880  -1.095   2.158  0.00  0.00     0.000 A 
ATOM      5  C6  UNL d   1      -2.335   0.102   1.694  0.00  0.00     0.000 A 
ATOM      6  C7  UNL d   1      -1.188   0.107   0.883  0.00  0.00    -0.073 A 
ATOM      7  C8  UNL d   1      -0.640   1.427   0.415  0.00  0.00     0.078 C 
ENDROOT
BRANCH   1   8
ATOM      8  C1  UNL d   1       0.695  -1.193  -0.268  0.00  0.00     0.053 C 
ATOM      9  C   UNL d   1       1.957  -1.115   0.578  0.00  0.00     0.018 C 
ENDBRANCH   1   8
TORSDOF 1
ENDMDL
