MODEL 1
REMARK minimizedAffinity -3.20597339
REMARK minimizedRMSD -1
REMARK  1 active torsions:
REMARK  status: ('A' for Active; 'I' for Inactive)
REMARK    1  A    between atoms: C1_2  and  C2_3 
ROOT
ATOM      1  C2  UNL d   1      -0.940  -0.300   0.378  0.00  0.00    -0.076 A 
ATOM      2  C3  UNL d   1       0.141   0.533   0.039  0.00  0.00     0.004 A 
ATOM      3  C4  UNL d   1       1.428   0.016  -0.101  0.00  0.00    -0.003 A 
ATOM      4  C5  UNL d   1       1.655  -1.341   0.094  0.00  0.00     0.000 A 
ATOM      5  C6  UNL d   1       0.592  -2.185   0.413  0.00  0.00     0.000 A 
ATOM      6  C7  UNL d   1      -0.715  -1.684   0.542  0.00  0.00    -0.073 A 
ATOM      7  C8  UNL d   1      -1.823  -2.638   0.893  0.00  0.00     0.078 C 
ENDROOT
BRANCH   1   8
ATOM      8  C1  UNL d   1      -2.309   0.321   0.543  0.00  0.00     0.053 C 
ATOM      9  C   UNL d   1      -2.250   1.700   1.181  0.00  0.00     0.018 C 
ENDBRANCH   1   8
TORSDOF 1
ENDMDL
