MODEL 1
REMARK minimizedAffinity -0.153612286
REMARK minimizedRMSD -1
REMARK  1 active torsions:
REMARK  status: ('A' for Active; 'I' for Inactive)
REMARK    1  A    between atoms: C1_2  and  C2_3 
ROOT
ATOM      1  C2  UNL d   1      -0.838  -1.806   0.877  0.00  0.00    -0.076 A 
ATOM      2  C3  UNL d   1      -1.633  -0.649   0.946  0.00  0.00     0.004 A 
ATOM      3  C4  UNL d   1      -1.088   0.612   0.708  0.00  0.00    -0.003 A 
ATOM      4  C5  UNL d   1       0.262   0.736   0.397  0.00  0.00     0.000 A 
ATOM      5  C6  UNL d   1       1.061  -0.403   0.307  0.00  0.00     0.000 A 
ATOM      6  C7  UNL d   1       0.524  -1.682   0.528  0.00  0.00    -0.073 A 
ATOM      7  C8  UNL d   1       1.434  -2.876   0.424  0.00  0.00     0.078 C 
ENDROOT
BRANCH   1   8
ATOM      8  C1  UNL d   1      -1.478  -3.143   1.172  0.00  0.00     0.053 C 
ATOM      9  C   UNL d   1      -2.942  -3.015   1.565  0.00  0.00     0.018 C 
ENDBRANCH   1   8
TORSDOF 1
ENDMDL
