MODEL 1
REMARK minimizedAffinity -2.50836778
REMARK minimizedRMSD -1
REMARK  1 active torsions:
REMARK  status: ('A' for Active; 'I' for Inactive)
REMARK    1  A    between atoms: C1_2  and  C2_3 
ROOT
ATOM      1  C2  UNL d   1      -0.479   0.347   0.312  0.00  0.00    -0.076 A 
ATOM      2  C3  UNL d   1      -1.856   0.112   0.158  0.00  0.00     0.004 A 
ATOM      3  C4  UNL d   1      -2.426  -1.098   0.551  0.00  0.00    -0.003 A 
ATOM      4  C5  UNL d   1      -1.627  -2.093   1.105  0.00  0.00     0.000 A 
ATOM      5  C6  UNL d   1      -0.262  -1.870   1.281  0.00  0.00     0.000 A 
ATOM      6  C7  UNL d   1       0.326  -0.650   0.905  0.00  0.00    -0.073 A 
ATOM      7  C8  UNL d   1       1.804  -0.466   1.112  0.00  0.00     0.078 C 
ENDROOT
BRANCH   1   8
ATOM      8  C1  UNL d   1       0.088   1.668  -0.158  0.00  0.00     0.053 C 
ATOM      9  C   UNL d   1       0.381   1.679  -1.650  0.00  0.00     0.018 C 
ENDBRANCH   1   8
TORSDOF 1
ENDMDL
