MODEL 1
REMARK minimizedAffinity -2.3826654
REMARK minimizedRMSD -1
REMARK  1 active torsions:
REMARK  status: ('A' for Active; 'I' for Inactive)
REMARK    1  A    between atoms: C1_2  and  C2_3 
ROOT
ATOM      1  C2  UNL d   1      -0.999  -0.110   0.615  0.00  0.00    -0.076 A 
ATOM      2  C3  UNL d   1      -0.202  -1.264   0.527  0.00  0.00     0.004 A 
ATOM      3  C4  UNL d   1      -0.584  -2.450   1.152  0.00  0.00    -0.003 A 
ATOM      4  C5  UNL d   1      -1.772  -2.501   1.873  0.00  0.00     0.000 A 
ATOM      5  C6  UNL d   1      -2.584  -1.371   1.956  0.00  0.00     0.000 A 
ATOM      6  C7  UNL d   1      -2.221  -0.172   1.319  0.00  0.00    -0.073 A 
ATOM      7  C8  UNL d   1      -3.132   1.018   1.447  0.00  0.00     0.078 C 
ENDROOT
BRANCH   1   8
ATOM      8  C1  UNL d   1      -0.520   1.155  -0.060  0.00  0.00     0.053 C 
ATOM      9  C   UNL d   1       0.992   1.192  -0.222  0.00  0.00     0.018 C 
ENDBRANCH   1   8
TORSDOF 1
ENDMDL
