MODEL 1
REMARK minimizedAffinity -5.6328454
REMARK minimizedRMSD -1
REMARK  1 active torsions:
REMARK  status: ('A' for Active; 'I' for Inactive)
REMARK    1  A    between atoms: C1_2  and  C2_3 
ROOT
ATOM      1  C2  UNL d   1       0.243  -0.212   0.315  0.00  0.00    -0.076 A 
ATOM      2  C3  UNL d   1      -1.127  -0.080   0.601  0.00  0.00     0.004 A 
ATOM      3  C4  UNL d   1      -1.898  -1.190   0.942  0.00  0.00    -0.003 A 
ATOM      4  C5  UNL d   1      -1.312  -2.450   1.003  0.00  0.00     0.000 A 
ATOM      5  C6  UNL d   1       0.050  -2.596   0.739  0.00  0.00     0.000 A 
ATOM      6  C7  UNL d   1       0.845  -1.484   0.410  0.00  0.00    -0.073 A 
ATOM      7  C8  UNL d   1       2.307  -1.700   0.128  0.00  0.00     0.078 C 
ENDROOT
BRANCH   1   8
ATOM      8  C1  UNL d   1       1.022   1.024  -0.076  0.00  0.00     0.053 C 
ATOM      9  C   UNL d   1       0.667   1.521  -1.469  0.00  0.00     0.018 C 
ENDBRANCH   1   8
TORSDOF 1
ENDMDL
