MODEL 1
REMARK minimizedAffinity -3.54865146
REMARK minimizedRMSD -1
REMARK  1 active torsions:
REMARK  status: ('A' for Active; 'I' for Inactive)
REMARK    1  A    between atoms: C1_2  and  C2_3 
ROOT
ATOM      1  C2  UNL d   1      -1.021  -0.229   0.337  0.00  0.00    -0.076 A 
ATOM      2  C3  UNL d   1      -1.581  -1.509   0.481  0.00  0.00     0.004 A 
ATOM      3  C4  UNL d   1      -0.772  -2.631   0.656  0.00  0.00    -0.003 A 
ATOM      4  C5  UNL d   1       0.610  -2.490   0.690  0.00  0.00     0.000 A 
ATOM      5  C6  UNL d   1       1.183  -1.225   0.566  0.00  0.00     0.000 A 
ATOM      6  C7  UNL d   1       0.381  -0.081   0.405  0.00  0.00    -0.073 A 
ATOM      7  C8  UNL d   1       1.052   1.258   0.271  0.00  0.00     0.078 C 
ENDROOT
BRANCH   1   8
ATOM      8  C1  UNL d   1      -1.947   0.947   0.123  0.00  0.00     0.053 C 
ATOM      9  C   UNL d   1      -2.409   1.570   1.431  0.00  0.00     0.018 C 
ENDBRANCH   1   8
TORSDOF 1
ENDMDL
