MODEL 1
REMARK minimizedAffinity -1.71309543
REMARK minimizedRMSD -1
REMARK  1 active torsions:
REMARK  status: ('A' for Active; 'I' for Inactive)
REMARK    1  A    between atoms: C1_2  and  C2_3 
ROOT
ATOM      1  C2  UNL d   1      -0.581  -0.189   0.161  0.00  0.00    -0.076 A 
ATOM      2  C3  UNL d   1      -1.965  -0.416   0.061  0.00  0.00     0.004 A 
ATOM      3  C4  UNL d   1      -2.489  -1.704   0.153  0.00  0.00    -0.003 A 
ATOM      4  C5  UNL d   1      -1.638  -2.786   0.349  0.00  0.00     0.000 A 
ATOM      5  C6  UNL d   1      -0.265  -2.577   0.469  0.00  0.00     0.000 A 
ATOM      6  C7  UNL d   1       0.279  -1.283   0.394  0.00  0.00    -0.073 A 
ATOM      7  C8  UNL d   1       1.768  -1.117   0.524  0.00  0.00     0.078 C 
ENDROOT
BRANCH   1   8
ATOM      8  C1  UNL d   1      -0.068   1.227   0.026  0.00  0.00     0.053 C 
ATOM      9  C   UNL d   1      -0.677   1.956  -1.162  0.00  0.00     0.018 C 
ENDBRANCH   1   8
TORSDOF 1
ENDMDL
