MODEL 1
REMARK minimizedAffinity -5.60946178
REMARK minimizedRMSD -1
REMARK  1 active torsions:
REMARK  status: ('A' for Active; 'I' for Inactive)
REMARK    1  A    between atoms: C1_2  and  C2_3 
ROOT
ATOM      1  C2  UNL d   1      -1.061  -0.832   0.720  0.00  0.00    -0.076 A 
ATOM      2  C3  UNL d   1      -1.138  -2.217   0.946  0.00  0.00     0.004 A 
ATOM      3  C4  UNL d   1      -2.185  -2.766   1.684  0.00  0.00    -0.003 A 
ATOM      4  C5  UNL d   1      -3.172  -1.939   2.208  0.00  0.00     0.000 A 
ATOM      5  C6  UNL d   1      -3.121  -0.564   1.979  0.00  0.00     0.000 A 
ATOM      6  C7  UNL d   1      -2.081   0.004   1.223  0.00  0.00    -0.073 A 
ATOM      7  C8  UNL d   1      -2.072   1.493   1.011  0.00  0.00     0.078 C 
ENDROOT
BRANCH   1   8
ATOM      8  C1  UNL d   1       0.112  -0.291  -0.066  0.00  0.00     0.053 C 
ATOM      9  C   UNL d   1       1.426  -0.953   0.318  0.00  0.00     0.018 C 
ENDBRANCH   1   8
TORSDOF 1
ENDMDL
