MODEL 1
REMARK minimizedAffinity -3.12616158
REMARK minimizedRMSD -1
REMARK  1 active torsions:
REMARK  status: ('A' for Active; 'I' for Inactive)
REMARK    1  A    between atoms: C1_2  and  C2_3 
ROOT
ATOM      1  C2  UNL d   1      -1.056  -0.979   0.601  0.00  0.00    -0.076 A 
ATOM      2  C3  UNL d   1      -0.894   0.219  -0.116  0.00  0.00     0.004 A 
ATOM      3  C4  UNL d   1       0.363   0.623  -0.564  0.00  0.00    -0.003 A 
ATOM      4  C5  UNL d   1       1.478  -0.167  -0.304  0.00  0.00     0.000 A 
ATOM      5  C6  UNL d   1       1.332  -1.367   0.390  0.00  0.00     0.000 A 
ATOM      6  C7  UNL d   1       0.070  -1.797   0.835  0.00  0.00    -0.073 A 
ATOM      7  C8  UNL d   1      -0.028  -3.097   1.584  0.00  0.00     0.078 C 
ENDROOT
BRANCH   1   8
ATOM      8  C1  UNL d   1      -2.439  -1.352   1.085  0.00  0.00     0.053 C 
ATOM      9  C   UNL d   1      -3.178  -0.173   1.701  0.00  0.00     0.018 C 
ENDBRANCH   1   8
TORSDOF 1
ENDMDL
