MODEL 1
REMARK minimizedAffinity 0.594393969
REMARK minimizedRMSD -1
REMARK  1 active torsions:
REMARK  status: ('A' for Active; 'I' for Inactive)
REMARK    1  A    between atoms: C1_2  and  C2_3 
ROOT
ATOM      1  C2  UNL d   1       0.007   0.166  -0.005  0.00  0.00    -0.076 A 
ATOM      2  C3  UNL d   1       1.060  -0.753  -0.156  0.00  0.00     0.004 A 
ATOM      3  C4  UNL d   1       0.970  -2.040   0.371  0.00  0.00    -0.003 A 
ATOM      4  C5  UNL d   1      -0.175  -2.429   1.058  0.00  0.00     0.000 A 
ATOM      5  C6  UNL d   1      -1.237  -1.536   1.202  0.00  0.00     0.000 A 
ATOM      6  C7  UNL d   1      -1.169  -0.240   0.662  0.00  0.00    -0.073 A 
ATOM      7  C8  UNL d   1      -2.340   0.683   0.853  0.00  0.00     0.078 C 
ENDROOT
BRANCH   1   8
ATOM      8  C1  UNL d   1       0.172   1.557  -0.574  0.00  0.00     0.053 C 
ATOM      9  C   UNL d   1       0.839   1.551  -1.941  0.00  0.00     0.018 C 
ENDBRANCH   1   8
TORSDOF 1
ENDMDL
