MODEL 1
REMARK minimizedAffinity -3.10287714
REMARK minimizedRMSD -1
REMARK  1 active torsions:
REMARK  status: ('A' for Active; 'I' for Inactive)
REMARK    1  A    between atoms: C1_2  and  C2_3 
ROOT
ATOM      1  C2  UNL d   1      -0.244  -0.112   0.243  0.00  0.00    -0.076 A 
ATOM      2  C3  UNL d   1       0.742  -1.097   0.056  0.00  0.00     0.004 A 
ATOM      3  C4  UNL d   1       0.512  -2.421   0.424  0.00  0.00    -0.003 A 
ATOM      4  C5  UNL d   1      -0.708  -2.782   0.985  0.00  0.00     0.000 A 
ATOM      5  C6  UNL d   1      -1.704  -1.822   1.162  0.00  0.00     0.000 A 
ATOM      6  C7  UNL d   1      -1.494  -0.485   0.781  0.00  0.00    -0.073 A 
ATOM      7  C8  UNL d   1      -2.600   0.510   1.000  0.00  0.00     0.078 C 
ENDROOT
BRANCH   1   8
ATOM      8  C1  UNL d   1       0.073   1.313  -0.150  0.00  0.00     0.053 C 
ATOM      9  C   UNL d   1       1.284   1.410  -1.065  0.00  0.00     0.018 C 
ENDBRANCH   1   8
TORSDOF 1
ENDMDL
