MODEL 1
REMARK minimizedAffinity -5.03922796
REMARK minimizedRMSD -1
REMARK  1 active torsions:
REMARK  status: ('A' for Active; 'I' for Inactive)
REMARK    1  A    between atoms: C1_2  and  C2_3 
ROOT
ATOM      1  C2  UNL d   1      -0.286  -0.294   0.125  0.00  0.00    -0.076 A 
ATOM      2  C3  UNL d   1      -1.674  -0.073   0.173  0.00  0.00     0.004 A 
ATOM      3  C4  UNL d   1      -2.555  -1.110   0.471  0.00  0.00    -0.003 A 
ATOM      4  C5  UNL d   1      -2.064  -2.386   0.727  0.00  0.00     0.000 A 
ATOM      5  C6  UNL d   1      -0.690  -2.619   0.700  0.00  0.00     0.000 A 
ATOM      6  C7  UNL d   1       0.214  -1.581   0.417  0.00  0.00    -0.073 A 
ATOM      7  C8  UNL d   1       1.686  -1.890   0.396  0.00  0.00     0.078 C 
ENDROOT
BRANCH   1   8
ATOM      8  C1  UNL d   1       0.620   0.863  -0.231  0.00  0.00     0.053 C 
ATOM      9  C   UNL d   1       0.148   1.614  -1.467  0.00  0.00     0.018 C 
ENDBRANCH   1   8
TORSDOF 1
ENDMDL
