MODEL 1
REMARK minimizedAffinity 9.12921238
REMARK minimizedRMSD -1
REMARK  0 active torsions:
REMARK  status: ('A' for Active; 'I' for Inactive)
ROOT
ATOM      1  N1  IND d   1       3.752   5.887   4.937  0.00  0.00    -0.196 N 
ATOM      2  C2  IND d   1       4.936   5.881   5.620  0.00  0.00     0.054 A 
ATOM      3  C3  IND d   1       5.977   5.880   4.758  0.00  0.00    -0.031 A 
ATOM      4  C4  IND d   1       5.970   5.989   2.186  0.00  0.00     0.051 A 
ATOM      5  C5  IND d   1       5.128   5.972   1.109  0.00  0.00    -0.031 A 
ATOM      6  C6  IND d   1       3.757   5.928   1.256  0.00  0.00     0.015 A 
ATOM      7  C7  IND d   1       3.173   5.910   2.492  0.00  0.00    -0.016 A 
ATOM      8  C8  IND d   1       4.025   5.920   3.587  0.00  0.00    -0.047 A 
ATOM      9  C9  IND d   1       5.419   5.922   3.443  0.00  0.00    -0.096 A 
ATOM     10  HN1 IND d   1       2.969   5.872   5.291  0.00  0.00     0.298 HD
ENDROOT
TORSDOF 0
ENDMDL
