MODEL 1
REMARK minimizedAffinity 13.6098261
REMARK minimizedRMSD -1
REMARK  0 active torsions:
REMARK  status: ('A' for Active; 'I' for Inactive)
ROOT
ATOM      1  N1  IND d   1      -0.136  -5.058   1.476  0.00  0.00    -0.196 N 
ATOM      2  C2  IND d   1       0.984  -5.583   2.060  0.00  0.00     0.054 A 
ATOM      3  C3  IND d   1       2.097  -5.077   1.482  0.00  0.00    -0.031 A 
ATOM      4  C4  IND d   1       2.316  -3.301  -0.368  0.00  0.00     0.051 A 
ATOM      5  C5  IND d   1       1.572  -2.555  -1.239  0.00  0.00    -0.031 A 
ATOM      6  C6  IND d   1       0.193  -2.604  -1.247  0.00  0.00     0.015 A 
ATOM      7  C7  IND d   1      -0.497  -3.396  -0.373  0.00  0.00    -0.016 A 
ATOM      8  C8  IND d   1       0.255  -4.161   0.507  0.00  0.00    -0.047 A 
ATOM      9  C9  IND d   1       1.656  -4.147   0.492  0.00  0.00    -0.096 A 
ATOM     10  HN1 IND d   1      -0.947  -5.256   1.680  0.00  0.00     0.298 HD
ENDROOT
TORSDOF 0
ENDMDL
