MODEL 1
REMARK minimizedAffinity -2.43704844
REMARK minimizedRMSD -1
REMARK  0 active torsions:
REMARK  status: ('A' for Active; 'I' for Inactive)
ROOT
ATOM      1  N1  IND d   1       5.999   4.759   4.234  0.00  0.00    -0.196 N 
ATOM      2  C2  IND d   1       5.162   5.379   5.119  0.00  0.00     0.054 A 
ATOM      3  C3  IND d   1       4.147   5.985   4.461  0.00  0.00    -0.031 A 
ATOM      4  C4  IND d   1       3.609   6.000   1.944  0.00  0.00     0.051 A 
ATOM      5  C5  IND d   1       4.104   5.601   0.734  0.00  0.00    -0.031 A 
ATOM      6  C6  IND d   1       5.278   4.884   0.627  0.00  0.00     0.015 A 
ATOM      7  C7  IND d   1       5.998   4.528   1.732  0.00  0.00    -0.016 A 
ATOM      8  C8  IND d   1       5.503   4.937   2.962  0.00  0.00    -0.047 A 
ATOM      9  C9  IND d   1       4.334   5.702   3.073  0.00  0.00    -0.096 A 
ATOM     10  HN1 IND d   1       6.715   4.329   4.438  0.00  0.00     0.298 HD
ENDROOT
TORSDOF 0
ENDMDL
