MODEL 1
REMARK minimizedAffinity -1.16047871
REMARK minimizedRMSD -1
REMARK  0 active torsions:
REMARK  status: ('A' for Active; 'I' for Inactive)
ROOT
ATOM      1  N1  IND d   1       3.712   5.969   3.568  0.00  0.00    -0.196 N 
ATOM      2  C2  IND d   1       4.878   5.935   4.281  0.00  0.00     0.054 A 
ATOM      3  C3  IND d   1       5.940   5.902   3.444  0.00  0.00    -0.031 A 
ATOM      4  C4  IND d   1       6.000   5.999   0.873  0.00  0.00     0.051 A 
ATOM      5  C5  IND d   1       5.185   6.000  -0.225  0.00  0.00    -0.031 A 
ATOM      6  C6  IND d   1       3.810   5.993  -0.111  0.00  0.00     0.015 A 
ATOM      7  C7  IND d   1       3.195   5.997   1.109  0.00  0.00    -0.016 A 
ATOM      8  C8  IND d   1       4.020   5.989   2.225  0.00  0.00    -0.047 A 
ATOM      9  C9  IND d   1       5.416   5.952   2.116  0.00  0.00    -0.096 A 
ATOM     10  HN1 IND d   1       2.920   5.976   3.902  0.00  0.00     0.298 HD
ENDROOT
TORSDOF 0
ENDMDL
