MODEL 1
REMARK minimizedAffinity -1.4203136
REMARK minimizedRMSD -1
REMARK  0 active torsions:
REMARK  status: ('A' for Active; 'I' for Inactive)
ROOT
ATOM      1  N1  IND d   1       5.998   5.599   2.326  0.00  0.00    -0.196 N 
ATOM      2  C2  IND d   1       5.118   5.766   3.359  0.00  0.00     0.054 A 
ATOM      3  C3  IND d   1       3.871   5.981   2.883  0.00  0.00    -0.031 A 
ATOM      4  C4  IND d   1       3.029   6.000   0.451  0.00  0.00     0.051 A 
ATOM      5  C5  IND d   1       3.467   5.931  -0.842  0.00  0.00    -0.031 A 
ATOM      6  C6  IND d   1       4.799   5.742  -1.151  0.00  0.00     0.015 A 
ATOM      7  C7  IND d   1       5.744   5.602  -0.174  0.00  0.00    -0.016 A 
ATOM      8  C8  IND d   1       5.303   5.678   1.140  0.00  0.00    -0.047 A 
ATOM      9  C9  IND d   1       3.959   5.913   1.459  0.00  0.00    -0.096 A 
ATOM     10  HN1 IND d   1       6.845   5.468   2.405  0.00  0.00     0.298 HD
ENDROOT
TORSDOF 0
ENDMDL
