MODEL 1
REMARK minimizedAffinity 10.0436144
REMARK minimizedRMSD -1
REMARK  0 active torsions:
REMARK  status: ('A' for Active; 'I' for Inactive)
ROOT
ATOM      1  N1  IND d   1      -1.608   2.880   5.506  0.00  0.00    -0.196 N 
ATOM      2  C2  IND d   1      -1.600   4.148   4.995  0.00  0.00     0.054 A 
ATOM      3  C3  IND d   1      -1.804   4.118   3.659  0.00  0.00    -0.031 A 
ATOM      4  C4  IND d   1      -2.277   2.108   2.121  0.00  0.00     0.051 A 
ATOM      5  C5  IND d   1      -2.346   0.743   2.122  0.00  0.00    -0.031 A 
ATOM      6  C6  IND d   1      -2.172   0.006   3.276  0.00  0.00     0.015 A 
ATOM      7  C7  IND d   1      -1.933   0.610   4.478  0.00  0.00    -0.016 A 
ATOM      8  C8  IND d   1      -1.855   1.995   4.479  0.00  0.00    -0.047 A 
ATOM      9  C9  IND d   1      -1.988   2.746   3.304  0.00  0.00    -0.096 A 
ATOM     10  HN1 IND d   1      -1.481   2.670   6.330  0.00  0.00     0.298 HD
ENDROOT
TORSDOF 0
ENDMDL
