MODEL 1
REMARK minimizedAffinity 13.6327505
REMARK minimizedRMSD -1
REMARK  0 active torsions:
REMARK  status: ('A' for Active; 'I' for Inactive)
ROOT
ATOM      1  N1  IND d   1       2.789  -5.949   2.576  0.00  0.00    -0.196 N 
ATOM      2  C2  IND d   1       3.629  -5.988   1.497  0.00  0.00     0.054 A 
ATOM      3  C3  IND d   1       4.918  -5.953   1.904  0.00  0.00    -0.031 A 
ATOM      4  C4  IND d   1       5.880  -5.933   4.292  0.00  0.00     0.051 A 
ATOM      5  C5  IND d   1       5.505  -5.855   5.603  0.00  0.00    -0.031 A 
ATOM      6  C6  IND d   1       4.179  -5.807   5.981  0.00  0.00     0.015 A 
ATOM      7  C7  IND d   1       3.173  -5.846   5.057  0.00  0.00    -0.016 A 
ATOM      8  C8  IND d   1       3.551  -5.917   3.723  0.00  0.00    -0.047 A 
ATOM      9  C9  IND d   1       4.896  -5.924   3.332  0.00  0.00    -0.096 A 
ATOM     10  HN1 IND d   1       1.930  -5.945   2.542  0.00  0.00     0.298 HD
ENDROOT
TORSDOF 0
ENDMDL
