MODEL 1
REMARK minimizedAffinity 7.0299983
REMARK minimizedRMSD -1
REMARK  0 active torsions:
REMARK  status: ('A' for Active; 'I' for Inactive)
ROOT
ATOM      1  N1  IND d   1       5.406  -0.990  -2.177  0.00  0.00    -0.196 N 
ATOM      2  C2  IND d   1       6.000  -0.296  -3.194  0.00  0.00     0.054 A 
ATOM      3  C3  IND d   1       5.076   0.410  -3.884  0.00  0.00    -0.031 A 
ATOM      4  C4  IND d   1       2.549   0.652  -3.457  0.00  0.00     0.051 A 
ATOM      5  C5  IND d   1       1.540   0.179  -2.666  0.00  0.00    -0.031 A 
ATOM      6  C6  IND d   1       1.773  -0.724  -1.649  0.00  0.00     0.015 A 
ATOM      7  C7  IND d   1       3.032  -1.181  -1.377  0.00  0.00    -0.016 A 
ATOM      8  C8  IND d   1       4.057  -0.708  -2.183  0.00  0.00    -0.047 A 
ATOM      9  C9  IND d   1       3.821   0.175  -3.244  0.00  0.00    -0.096 A 
ATOM     10  HN1 IND d   1       5.807  -1.515  -1.627  0.00  0.00     0.298 HD
ENDROOT
TORSDOF 0
ENDMDL
