MODEL 1
REMARK minimizedAffinity 20.2161827
REMARK minimizedRMSD -1
REMARK  0 active torsions:
REMARK  status: ('A' for Active; 'I' for Inactive)
ROOT
ATOM      1  N1  IND d   1      -2.108   0.782   3.945  0.00  0.00    -0.196 N 
ATOM      2  C2  IND d   1      -1.872   1.005   2.617  0.00  0.00     0.054 A 
ATOM      3  C3  IND d   1      -2.975   0.719   1.889  0.00  0.00    -0.031 A 
ATOM      4  C4  IND d   1      -5.308  -0.031   2.679  0.00  0.00     0.051 A 
ATOM      5  C5  IND d   1      -5.997  -0.404   3.798  0.00  0.00    -0.031 A 
ATOM      6  C6  IND d   1      -5.415  -0.399   5.049  0.00  0.00     0.015 A 
ATOM      7  C7  IND d   1      -4.118  -0.007   5.230  0.00  0.00    -0.016 A 
ATOM      8  C8  IND d   1      -3.413   0.366   4.095  0.00  0.00    -0.047 A 
ATOM      9  C9  IND d   1      -3.986   0.322   2.817  0.00  0.00    -0.096 A 
ATOM     10  HN1 IND d   1      -1.538   0.884   4.580  0.00  0.00     0.298 HD
ENDROOT
TORSDOF 0
ENDMDL
