MODEL 1
REMARK minimizedAffinity 8.98386574
REMARK minimizedRMSD -1
REMARK  0 active torsions:
REMARK  status: ('A' for Active; 'I' for Inactive)
ROOT
ATOM      1  N1  IND d   1      -1.605   0.702   3.504  0.00  0.00    -0.196 N 
ATOM      2  C2  IND d   1      -2.434   0.111   2.591  0.00  0.00     0.054 A 
ATOM      3  C3  IND d   1      -3.350   0.999   2.144  0.00  0.00    -0.031 A 
ATOM      4  C4  IND d   1      -3.609   3.500   2.696  0.00  0.00     0.051 A 
ATOM      5  C5  IND d   1      -3.108   4.482   3.504  0.00  0.00    -0.031 A 
ATOM      6  C6  IND d   1      -2.058   4.251   4.368  0.00  0.00     0.015 A 
ATOM      7  C7  IND d   1      -1.459   3.025   4.449  0.00  0.00    -0.016 A 
ATOM      8  C8  IND d   1      -1.969   2.024   3.635  0.00  0.00    -0.047 A 
ATOM      9  C9  IND d   1      -3.063   2.242   2.787  0.00  0.00    -0.096 A 
ATOM     10  HN1 IND d   1      -0.964   0.313   3.924  0.00  0.00     0.298 HD
ENDROOT
TORSDOF 0
ENDMDL
