MODEL 1
REMARK minimizedAffinity 5.53546
REMARK minimizedRMSD -1
REMARK  0 active torsions:
REMARK  status: ('A' for Active; 'I' for Inactive)
ROOT
ATOM      1  N1  IND d   1      -2.837  -0.781  -0.344  0.00  0.00    -0.196 N 
ATOM      2  C2  IND d   1      -3.696  -1.834  -0.201  0.00  0.00     0.054 A 
ATOM      3  C3  IND d   1      -4.012  -2.010   1.102  0.00  0.00    -0.031 A 
ATOM      4  C4  IND d   1      -3.313  -0.624   3.155  0.00  0.00     0.051 A 
ATOM      5  C5  IND d   1      -2.508   0.414   3.531  0.00  0.00    -0.031 A 
ATOM      6  C6  IND d   1      -1.757   1.123   2.615  0.00  0.00     0.015 A 
ATOM      7  C7  IND d   1      -1.794   0.826   1.282  0.00  0.00    -0.016 A 
ATOM      8  C8  IND d   1      -2.606  -0.232   0.898  0.00  0.00    -0.047 A 
ATOM      9  C9  IND d   1      -3.336  -0.982   1.828  0.00  0.00    -0.096 A 
ATOM     10  HN1 IND d   1      -2.498  -0.507  -1.085  0.00  0.00     0.298 HD
ENDROOT
TORSDOF 0
ENDMDL
