MODEL 1
REMARK minimizedAffinity 10.2782192
REMARK minimizedRMSD -1
REMARK  0 active torsions:
REMARK  status: ('A' for Active; 'I' for Inactive)
ROOT
ATOM      1  N1  IND d   1      -0.111  -3.528  -2.221  0.00  0.00    -0.196 N 
ATOM      2  C2  IND d   1      -0.487  -2.542  -3.089  0.00  0.00     0.054 A 
ATOM      3  C3  IND d   1       0.351  -1.486  -2.993  0.00  0.00    -0.031 A 
ATOM      4  C4  IND d   1       2.464  -1.201  -1.550  0.00  0.00     0.051 A 
ATOM      5  C5  IND d   1       3.190  -1.817  -0.570  0.00  0.00    -0.031 A 
ATOM      6  C6  IND d   1       2.848  -3.062  -0.082  0.00  0.00     0.015 A 
ATOM      7  C7  IND d   1       1.768  -3.744  -0.566  0.00  0.00    -0.016 A 
ATOM      8  C8  IND d   1       1.024  -3.119  -1.557  0.00  0.00    -0.047 A 
ATOM      9  C9  IND d   1       1.342  -1.837  -2.026  0.00  0.00    -0.096 A 
ATOM     10  HN1 IND d   1      -0.515  -4.279  -2.109  0.00  0.00     0.298 HD
ENDROOT
TORSDOF 0
ENDMDL
