MODEL 1
REMARK minimizedAffinity 11.1292772
REMARK minimizedRMSD -1
REMARK  0 active torsions:
REMARK  status: ('A' for Active; 'I' for Inactive)
ROOT
ATOM      1  N1  IND d   1      -2.980  -2.904  -1.136  0.00  0.00    -0.196 N 
ATOM      2  C2  IND d   1      -3.502  -1.739  -0.646  0.00  0.00     0.054 A 
ATOM      3  C3  IND d   1      -2.571  -0.760  -0.670  0.00  0.00    -0.031 A 
ATOM      4  C4  IND d   1      -0.158  -0.819  -1.565  0.00  0.00     0.051 A 
ATOM      5  C5  IND d   1       0.781  -1.671  -2.076  0.00  0.00    -0.031 A 
ATOM      6  C6  IND d   1       0.508  -3.003  -2.308  0.00  0.00     0.015 A 
ATOM      7  C7  IND d   1      -0.724  -3.533  -2.046  0.00  0.00    -0.016 A 
ATOM      8  C8  IND d   1      -1.677  -2.673  -1.520  0.00  0.00    -0.047 A 
ATOM      9  C9  IND d   1      -1.393  -1.330  -1.243  0.00  0.00    -0.096 A 
ATOM     10  HN1 IND d   1      -3.396  -3.655  -1.195  0.00  0.00     0.298 HD
ENDROOT
TORSDOF 0
ENDMDL
