MODEL 1
REMARK minimizedAffinity 7.70172739
REMARK minimizedRMSD -1
REMARK  0 active torsions:
REMARK  status: ('A' for Active; 'I' for Inactive)
ROOT
ATOM      1  N1  IND d   1      -1.345   0.827  -2.170  0.00  0.00    -0.196 N 
ATOM      2  C2  IND d   1      -1.804  -0.226  -1.428  0.00  0.00     0.054 A 
ATOM      3  C3  IND d   1      -0.777  -1.026  -1.062  0.00  0.00    -0.031 A 
ATOM      4  C4  IND d   1       1.747  -0.744  -1.482  0.00  0.00     0.051 A 
ATOM      5  C5  IND d   1       2.647   0.043  -2.143  0.00  0.00    -0.031 A 
ATOM      6  C6  IND d   1       2.256   1.156  -2.859  0.00  0.00     0.015 A 
ATOM      7  C7  IND d   1       0.944   1.531  -2.932  0.00  0.00    -0.016 A 
ATOM      8  C8  IND d   1       0.026   0.730  -2.268  0.00  0.00    -0.047 A 
ATOM      9  C9  IND d   1       0.413  -0.425  -1.575  0.00  0.00    -0.096 A 
ATOM     10  HN1 IND d   1      -1.831   1.445  -2.518  0.00  0.00     0.298 HD
ENDROOT
TORSDOF 0
ENDMDL
