MODEL 1
REMARK minimizedAffinity -2.48150134
REMARK minimizedRMSD -1
REMARK  0 active torsions:
REMARK  status: ('A' for Active; 'I' for Inactive)
ROOT
ATOM      1  N1  IND d   1       5.251  -4.967   5.992  0.00  0.00    -0.196 N 
ATOM      2  C2  IND d   1       4.612  -5.748   5.071  0.00  0.00     0.054 A 
ATOM      3  C3  IND d   1       4.335  -5.032   3.957  0.00  0.00    -0.031 A 
ATOM      4  C4  IND d   1       4.932  -2.593   3.391  0.00  0.00     0.051 A 
ATOM      5  C5  IND d   1       5.483  -1.465   3.933  0.00  0.00    -0.031 A 
ATOM      6  C6  IND d   1       5.998  -1.448   5.213  0.00  0.00     0.015 A 
ATOM      7  C7  IND d   1       5.991  -2.565   5.999  0.00  0.00    -0.016 A 
ATOM      8  C8  IND d   1       5.426  -3.710   5.455  0.00  0.00    -0.047 A 
ATOM      9  C9  IND d   1       4.864  -3.722   4.172  0.00  0.00    -0.096 A 
ATOM     10  HN1 IND d   1       5.502  -5.218   6.775  0.00  0.00     0.298 HD
ENDROOT
TORSDOF 0
ENDMDL
