MODEL 1
REMARK minimizedAffinity 11.785203
REMARK minimizedRMSD -1
REMARK  0 active torsions:
REMARK  status: ('A' for Active; 'I' for Inactive)
ROOT
ATOM      1  N1  IND d   1      -0.356  -5.296   1.789  0.00  0.00    -0.196 N 
ATOM      2  C2  IND d   1       0.685  -6.000   2.326  0.00  0.00     0.054 A 
ATOM      3  C3  IND d   1       1.851  -5.624   1.755  0.00  0.00    -0.031 A 
ATOM      4  C4  IND d   1       2.297  -3.802  -0.008  0.00  0.00     0.051 A 
ATOM      5  C5  IND d   1       1.655  -2.916  -0.827  0.00  0.00    -0.031 A 
ATOM      6  C6  IND d   1       0.282  -2.773  -0.814  0.00  0.00     0.015 A 
ATOM      7  C7  IND d   1      -0.502  -3.506   0.031  0.00  0.00    -0.016 A 
ATOM      8  C8  IND d   1       0.146  -4.412   0.859  0.00  0.00    -0.047 A 
ATOM      9  C9  IND d   1       1.534  -4.592   0.820  0.00  0.00    -0.096 A 
ATOM     10  HN1 IND d   1      -1.185  -5.390   1.996  0.00  0.00     0.298 HD
ENDROOT
TORSDOF 0
ENDMDL
