MODEL 1
REMARK minimizedAffinity 1.06566298
REMARK minimizedRMSD -1
REMARK  0 active torsions:
REMARK  status: ('A' for Active; 'I' for Inactive)
ROOT
ATOM      1  N1  IND d   1       5.967   4.302   4.925  0.00  0.00    -0.196 N 
ATOM      2  C2  IND d   1       5.274   5.137   5.756  0.00  0.00     0.054 A 
ATOM      3  C3  IND d   1       4.458   5.942   5.040  0.00  0.00    -0.031 A 
ATOM      4  C4  IND d   1       4.024   5.991   2.503  0.00  0.00     0.051 A 
ATOM      5  C5  IND d   1       4.449   5.441   1.326  0.00  0.00    -0.031 A 
ATOM      6  C6  IND d   1       5.420   4.461   1.289  0.00  0.00     0.015 A 
ATOM      7  C7  IND d   1       5.996   3.985   2.432  0.00  0.00    -0.016 A 
ATOM      8  C8  IND d   1       5.572   4.546   3.628  0.00  0.00    -0.047 A 
ATOM      9  C9  IND d   1       4.618   5.571   3.669  0.00  0.00    -0.096 A 
ATOM     10  HN1 IND d   1       6.552   3.721   5.171  0.00  0.00     0.298 HD
ENDROOT
TORSDOF 0
ENDMDL
