MODEL 1
REMARK minimizedAffinity 12.560503
REMARK minimizedRMSD -1
REMARK  0 active torsions:
REMARK  status: ('A' for Active; 'I' for Inactive)
ROOT
ATOM      1  N1  IND d   1      -0.056  -5.230   1.659  0.00  0.00    -0.196 N 
ATOM      2  C2  IND d   1       1.224  -5.608   1.956  0.00  0.00     0.054 A 
ATOM      3  C3  IND d   1       2.097  -5.018   1.109  0.00  0.00    -0.031 A 
ATOM      4  C4  IND d   1       1.656  -3.318  -0.773  0.00  0.00     0.051 A 
ATOM      5  C5  IND d   1       0.643  -2.694  -1.446  0.00  0.00    -0.031 A 
ATOM      6  C6  IND d   1      -0.681  -2.885  -1.109  0.00  0.00     0.015 A 
ATOM      7  C7  IND d   1      -1.043  -3.702  -0.076  0.00  0.00    -0.016 A 
ATOM      8  C8  IND d   1      -0.017  -4.343   0.605  0.00  0.00    -0.047 A 
ATOM      9  C9  IND d   1       1.326  -4.186   0.241  0.00  0.00    -0.096 A 
ATOM     10  HN1 IND d   1      -0.765  -5.500   2.062  0.00  0.00     0.298 HD
ENDROOT
TORSDOF 0
ENDMDL
