MODEL 1
REMARK minimizedAffinity 1.16252077
REMARK minimizedRMSD -1
REMARK  0 active torsions:
REMARK  status: ('A' for Active; 'I' for Inactive)
ROOT
ATOM      1  N1  IND d   1       4.120  -0.037  -1.334  0.00  0.00    -0.196 N 
ATOM      2  C2  IND d   1       4.048   1.303  -1.594  0.00  0.00     0.054 A 
ATOM      3  C3  IND d   1       2.800   1.639  -1.992  0.00  0.00    -0.031 A 
ATOM      4  C4  IND d   1       0.697   0.168  -2.191  0.00  0.00     0.051 A 
ATOM      5  C5  IND d   1       0.276  -1.129  -2.096  0.00  0.00    -0.031 A 
ATOM      6  C6  IND d   1       1.132  -2.148  -1.731  0.00  0.00     0.015 A 
ATOM      7  C7  IND d   1       2.444  -1.906  -1.437  0.00  0.00    -0.016 A 
ATOM      8  C8  IND d   1       2.876  -0.591  -1.539  0.00  0.00    -0.047 A 
ATOM      9  C9  IND d   1       2.022   0.441  -1.949  0.00  0.00    -0.096 A 
ATOM     10  HN1 IND d   1       4.825  -0.462  -1.084  0.00  0.00     0.298 HD
ENDROOT
TORSDOF 0
ENDMDL
