MODEL 1
REMARK minimizedAffinity 4.29414797
REMARK minimizedRMSD -1
REMARK  0 active torsions:
REMARK  status: ('A' for Active; 'I' for Inactive)
ROOT
ATOM      1  C1  DEN d   1       0.625  -0.410   1.608  0.00  0.00     0.130 A 
ATOM      2  C2  DEN d   1       1.395   0.389   2.557  0.00  0.00    -0.031 A 
ATOM      3  C3  DEN d   1       0.529   1.482   3.042  0.00  0.00     0.027 A 
ATOM      4  C4  DEN d   1      -1.920   2.007   2.424  0.00  0.00     0.027 A 
ATOM      5  C5  DEN d   1      -2.991   1.617   1.651  0.00  0.00    -0.003 A 
ATOM      6  C6  DEN d   1      -2.922   0.552   0.792  0.00  0.00     0.001 A 
ATOM      7  C7  DEN d   1      -1.771  -0.186   0.717  0.00  0.00     0.017 A 
ATOM      8  C8  DEN d   1      -0.684   0.206   1.488  0.00  0.00    -0.094 A 
ATOM      9  C9  DEN d   1      -0.777   1.277   2.359  0.00  0.00    -0.072 A 
ENDROOT
TORSDOF 0
ENDMDL
