MODEL 1
REMARK minimizedAffinity 14.9412584
REMARK minimizedRMSD -1
REMARK  0 active torsions:
REMARK  status: ('A' for Active; 'I' for Inactive)
ROOT
ATOM      1  C1  DEN d   1       0.971   5.996  -5.018  0.00  0.00     0.130 A 
ATOM      2  C2  DEN d   1      -0.015   5.913  -3.944  0.00  0.00    -0.031 A 
ATOM      3  C3  DEN d   1       0.037   4.549  -3.381  0.00  0.00     0.027 A 
ATOM      4  C4  DEN d   1       1.545   2.569  -4.062  0.00  0.00     0.027 A 
ATOM      5  C5  DEN d   1       2.532   2.157  -4.929  0.00  0.00    -0.003 A 
ATOM      6  C6  DEN d   1       3.040   2.977  -5.901  0.00  0.00     0.001 A 
ATOM      7  C7  DEN d   1       2.595   4.269  -6.000  0.00  0.00     0.017 A 
ATOM      8  C8  DEN d   1       1.594   4.690  -5.134  0.00  0.00    -0.094 A 
ATOM      9  C9  DEN d   1       1.102   3.849  -4.150  0.00  0.00    -0.072 A 
ENDROOT
TORSDOF 0
ENDMDL
