MODEL 1
REMARK minimizedAffinity 15.3904848
REMARK minimizedRMSD -1
REMARK  0 active torsions:
REMARK  status: ('A' for Active; 'I' for Inactive)
ROOT
ATOM      1  C1  DEN d   1       1.884   0.565   1.823  0.00  0.00     0.130 A 
ATOM      2  C2  DEN d   1       1.738   1.492   0.705  0.00  0.00    -0.031 A 
ATOM      3  C3  DEN d   1       3.084   1.964   0.324  0.00  0.00     0.027 A 
ATOM      4  C4  DEN d   1       5.369   1.350   1.349  0.00  0.00     0.027 A 
ATOM      5  C5  DEN d   1       5.999   0.611   2.326  0.00  0.00    -0.003 A 
ATOM      6  C6  DEN d   1       5.305  -0.163   3.218  0.00  0.00     0.001 A 
ATOM      7  C7  DEN d   1       3.941  -0.250   3.123  0.00  0.00     0.017 A 
ATOM      8  C8  DEN d   1       3.298   0.498   2.145  0.00  0.00    -0.094 A 
ATOM      9  C9  DEN d   1       4.019   1.264   1.245  0.00  0.00    -0.072 A 
ENDROOT
TORSDOF 0
ENDMDL
