MODEL 1
REMARK minimizedAffinity 6.62770271
REMARK minimizedRMSD -1
REMARK  0 active torsions:
REMARK  status: ('A' for Active; 'I' for Inactive)
ROOT
ATOM      1  C1  DEN d   1      -4.854   2.445   2.302  0.00  0.00     0.130 A 
ATOM      2  C2  DEN d   1      -5.444   3.393   1.360  0.00  0.00    -0.031 A 
ATOM      3  C3  DEN d   1      -5.997   4.522   2.135  0.00  0.00     0.027 A 
ATOM      4  C4  DEN d   1      -5.995   4.893   4.688  0.00  0.00     0.027 A 
ATOM      5  C5  DEN d   1      -5.622   4.356   5.900  0.00  0.00    -0.003 A 
ATOM      6  C6  DEN d   1      -5.001   3.139   5.999  0.00  0.00     0.001 A 
ATOM      7  C7  DEN d   1      -4.695   2.438   4.863  0.00  0.00     0.017 A 
ATOM      8  C8  DEN d   1      -5.076   2.970   3.637  0.00  0.00    -0.094 A 
ATOM      9  C9  DEN d   1      -5.691   4.207   3.557  0.00  0.00    -0.072 A 
ENDROOT
TORSDOF 0
ENDMDL
