MODEL 1
REMARK minimizedAffinity 2.39130926
REMARK minimizedRMSD -1
REMARK  0 active torsions:
REMARK  status: ('A' for Active; 'I' for Inactive)
ROOT
ATOM      1  C1  DEN d   1      -4.289  -3.392   1.966  0.00  0.00     0.130 A 
ATOM      2  C2  DEN d   1      -5.082  -4.617   2.012  0.00  0.00    -0.031 A 
ATOM      3  C3  DEN d   1      -5.409  -4.897   3.424  0.00  0.00     0.027 A 
ATOM      4  C4  DEN d   1      -4.772  -3.557   5.534  0.00  0.00     0.027 A 
ATOM      5  C5  DEN d   1      -4.095  -2.452   6.000  0.00  0.00    -0.003 A 
ATOM      6  C6  DEN d   1      -3.412  -1.608   5.164  0.00  0.00     0.001 A 
ATOM      7  C7  DEN d   1      -3.429  -1.831   3.812  0.00  0.00     0.017 A 
ATOM      8  C8  DEN d   1      -4.103  -2.948   3.336  0.00  0.00    -0.094 A 
ATOM      9  C9  DEN d   1      -4.797  -3.782   4.196  0.00  0.00    -0.072 A 
ENDROOT
TORSDOF 0
ENDMDL
