MODEL 1
REMARK minimizedAffinity 0.125450268
REMARK minimizedRMSD -1
REMARK  0 active torsions:
REMARK  status: ('A' for Active; 'I' for Inactive)
ROOT
ATOM      1  C1  DEN d   1       1.278   5.762  -2.343  0.00  0.00     0.130 A 
ATOM      2  C2  DEN d   1       1.881   4.619  -1.662  0.00  0.00    -0.031 A 
ATOM      3  C3  DEN d   1       1.783   3.450  -2.559  0.00  0.00     0.027 A 
ATOM      4  C4  DEN d   1       0.765   3.300  -4.924  0.00  0.00     0.027 A 
ATOM      5  C5  DEN d   1       0.123   4.007  -5.917  0.00  0.00    -0.003 A 
ATOM      6  C6  DEN d   1      -0.207   5.329  -5.775  0.00  0.00     0.001 A 
ATOM      7  C7  DEN d   1       0.145   5.998  -4.633  0.00  0.00     0.017 A 
ATOM      8  C8  DEN d   1       0.786   5.290  -3.624  0.00  0.00    -0.094 A 
ATOM      9  C9  DEN d   1       1.121   3.957  -3.791  0.00  0.00    -0.072 A 
ENDROOT
TORSDOF 0
ENDMDL
