MODEL 1
REMARK minimizedAffinity 2.98131227
REMARK minimizedRMSD -1
REMARK  0 active torsions:
REMARK  status: ('A' for Active; 'I' for Inactive)
ROOT
ATOM      1  C1  DEN d   1      -3.214   0.783   1.148  0.00  0.00     0.130 A 
ATOM      2  C2  DEN d   1      -3.652   1.649   2.238  0.00  0.00    -0.031 A 
ATOM      3  C3  DEN d   1      -2.477   1.955   3.079  0.00  0.00     0.027 A 
ATOM      4  C4  DEN d   1      -0.033   1.178   2.796  0.00  0.00     0.027 A 
ATOM      5  C5  DEN d   1       0.822   0.421   2.026  0.00  0.00    -0.003 A 
ATOM      6  C6  DEN d   1       0.389  -0.289   0.938  0.00  0.00     0.001 A 
ATOM      7  C7  DEN d   1      -0.926  -0.222   0.563  0.00  0.00     0.017 A 
ATOM      8  C8  DEN d   1      -1.796   0.533   1.339  0.00  0.00    -0.094 A 
ATOM      9  C9  DEN d   1      -1.337   1.254   2.428  0.00  0.00    -0.072 A 
ENDROOT
TORSDOF 0
ENDMDL
