MODEL 1
REMARK minimizedAffinity -2.6454978
REMARK minimizedRMSD -1
REMARK  0 active torsions:
REMARK  status: ('A' for Active; 'I' for Inactive)
ROOT
ATOM      1  C1  DEN d   1      -4.603   1.347   1.943  0.00  0.00     0.130 A 
ATOM      2  C2  DEN d   1      -4.780   1.703   3.348  0.00  0.00    -0.031 A 
ATOM      3  C3  DEN d   1      -3.470   1.580   4.019  0.00  0.00     0.027 A 
ATOM      4  C4  DEN d   1      -1.196   0.881   3.021  0.00  0.00     0.027 A 
ATOM      5  C5  DEN d   1      -0.551   0.474   1.874  0.00  0.00    -0.003 A 
ATOM      6  C6  DEN d   1      -1.212   0.298   0.688  0.00  0.00     0.001 A 
ATOM      7  C7  DEN d   1      -2.552   0.574   0.610  0.00  0.00     0.017 A 
ATOM      8  C8  DEN d   1      -3.211   0.978   1.764  0.00  0.00    -0.094 A 
ATOM      9  C9  DEN d   1      -2.522   1.161   2.951  0.00  0.00    -0.072 A 
ENDROOT
TORSDOF 0
ENDMDL
