MODEL 1
REMARK minimizedAffinity -0.696997523
REMARK minimizedRMSD -1
REMARK  0 active torsions:
REMARK  status: ('A' for Active; 'I' for Inactive)
ROOT
ATOM      1  C1  DEN d   1       0.143   1.282   2.787  0.00  0.00     0.130 A 
ATOM      2  C2  DEN d   1      -0.400   2.312   3.668  0.00  0.00    -0.031 A 
ATOM      3  C3  DEN d   1      -1.797   2.570   3.263  0.00  0.00     0.027 A 
ATOM      4  C4  DEN d   1      -3.165   1.476   1.370  0.00  0.00     0.027 A 
ATOM      5  C5  DEN d   1      -3.128   0.557   0.345  0.00  0.00    -0.003 A 
ATOM      6  C6  DEN d   1      -1.997  -0.155   0.042  0.00  0.00     0.001 A 
ATOM      7  C7  DEN d   1      -0.869   0.009   0.802  0.00  0.00     0.017 A 
ATOM      8  C8  DEN d   1      -0.896   0.939   1.833  0.00  0.00    -0.094 A 
ATOM      9  C9  DEN d   1      -2.053   1.639   2.131  0.00  0.00    -0.072 A 
ENDROOT
TORSDOF 0
ENDMDL
