MODEL 1
REMARK minimizedAffinity 11.616209
REMARK minimizedRMSD -1
REMARK  0 active torsions:
REMARK  status: ('A' for Active; 'I' for Inactive)
ROOT
ATOM      1  C1  DEN d   1      -0.085  -0.048   0.677  0.00  0.00     0.130 A 
ATOM      2  C2  DEN d   1       0.898   0.468   1.626  0.00  0.00    -0.031 A 
ATOM      3  C3  DEN d   1       0.176   1.248   2.652  0.00  0.00     0.027 A 
ATOM      4  C4  DEN d   1      -2.354   1.701   2.864  0.00  0.00     0.027 A 
ATOM      5  C5  DEN d   1      -3.586   1.481   2.289  0.00  0.00    -0.003 A 
ATOM      6  C6  DEN d   1      -3.733   0.770   1.127  0.00  0.00     0.001 A 
ATOM      7  C7  DEN d   1      -2.633   0.216   0.527  0.00  0.00     0.017 A 
ATOM      8  C8  DEN d   1      -1.387   0.440   1.097  0.00  0.00    -0.094 A 
ATOM      9  C9  DEN d   1      -1.261   1.150   2.279  0.00  0.00    -0.072 A 
ENDROOT
TORSDOF 0
ENDMDL
