MODEL 1
REMARK minimizedAffinity 6.09509802
REMARK minimizedRMSD -1
REMARK  0 active torsions:
REMARK  status: ('A' for Active; 'I' for Inactive)
ROOT
ATOM      1  C1  DEN d   1       2.291   0.727   0.959  0.00  0.00     0.130 A 
ATOM      2  C2  DEN d   1       1.691  -0.372   0.207  0.00  0.00    -0.031 A 
ATOM      3  C3  DEN d   1       0.276  -0.484   0.612  0.00  0.00     0.027 A 
ATOM      4  C4  DEN d   1      -1.040   0.934   2.318  0.00  0.00     0.027 A 
ATOM      5  C5  DEN d   1      -0.954   1.974   3.216  0.00  0.00    -0.003 A 
ATOM      6  C6  DEN d   1       0.218   2.644   3.448  0.00  0.00     0.001 A 
ATOM      7  C7  DEN d   1       1.342   2.311   2.740  0.00  0.00     0.017 A 
ATOM      8  C8  DEN d   1       1.265   1.258   1.838  0.00  0.00    -0.094 A 
ATOM      9  C9  DEN d   1       0.068   0.601   1.609  0.00  0.00    -0.072 A 
ENDROOT
TORSDOF 0
ENDMDL
