MODEL 1
REMARK minimizedAffinity 6.67345715
REMARK minimizedRMSD -1
REMARK  0 active torsions:
REMARK  status: ('A' for Active; 'I' for Inactive)
ROOT
ATOM      1  C1  DEN d   1      -0.832   0.029   0.463  0.00  0.00     0.130 A 
ATOM      2  C2  DEN d   1      -2.202  -0.056  -0.034  0.00  0.00    -0.031 A 
ATOM      3  C3  DEN d   1      -3.071   0.695   0.894  0.00  0.00     0.027 A 
ATOM      4  C4  DEN d   1      -2.431   1.978   3.038  0.00  0.00     0.027 A 
ATOM      5  C5  DEN d   1      -1.389   2.323   3.871  0.00  0.00    -0.003 A 
ATOM      6  C6  DEN d   1      -0.105   1.903   3.646  0.00  0.00     0.001 A 
ATOM      7  C7  DEN d   1       0.179   1.150   2.538  0.00  0.00     0.017 A 
ATOM      8  C8  DEN d   1      -0.867   0.792   1.698  0.00  0.00    -0.094 A 
ATOM      9  C9  DEN d   1      -2.157   1.236   1.935  0.00  0.00    -0.072 A 
ENDROOT
TORSDOF 0
ENDMDL
