MODEL 1
REMARK minimizedAffinity 7.19396877
REMARK minimizedRMSD -1
REMARK  0 active torsions:
REMARK  status: ('A' for Active; 'I' for Inactive)
ROOT
ATOM      1  C1  DEN d   1      -0.356  -0.099   0.357  0.00  0.00     0.130 A 
ATOM      2  C2  DEN d   1       0.835   0.033   1.192  0.00  0.00    -0.031 A 
ATOM      3  C3  DEN d   1       0.459   0.778   2.410  0.00  0.00     0.027 A 
ATOM      4  C4  DEN d   1      -1.842   1.729   3.085  0.00  0.00     0.027 A 
ATOM      5  C5  DEN d   1      -3.154   1.876   2.693  0.00  0.00    -0.003 A 
ATOM      6  C6  DEN d   1      -3.614   1.409   1.491  0.00  0.00     0.001 A 
ATOM      7  C7  DEN d   1      -2.765   0.732   0.656  0.00  0.00     0.017 A 
ATOM      8  C8  DEN d   1      -1.438   0.586   1.040  0.00  0.00    -0.094 A 
ATOM      9  C9  DEN d   1      -0.996   1.055   2.265  0.00  0.00    -0.072 A 
ENDROOT
TORSDOF 0
ENDMDL
