MODEL 1
REMARK minimizedAffinity 10.1402979
REMARK minimizedRMSD -1
REMARK  0 active torsions:
REMARK  status: ('A' for Active; 'I' for Inactive)
ROOT
ATOM      1  C1  DEN d   1      -1.905   1.254   2.565  0.00  0.00     0.130 A 
ATOM      2  C2  DEN d   1      -1.808   0.612   1.257  0.00  0.00    -0.031 A 
ATOM      3  C3  DEN d   1      -3.171   0.502   0.700  0.00  0.00     0.027 A 
ATOM      4  C4  DEN d   1      -5.411   1.264   1.728  0.00  0.00     0.027 A 
ATOM      5  C5  DEN d   1      -6.000   1.849   2.827  0.00  0.00    -0.003 A 
ATOM      6  C6  DEN d   1      -5.276   2.243   3.921  0.00  0.00     0.001 A 
ATOM      7  C7  DEN d   1      -3.914   2.098   3.921  0.00  0.00     0.017 A 
ATOM      8  C8  DEN d   1      -3.313   1.501   2.820  0.00  0.00    -0.094 A 
ATOM      9  C9  DEN d   1      -4.061   1.121   1.719  0.00  0.00    -0.072 A 
ENDROOT
TORSDOF 0
ENDMDL
