MODEL 1
REMARK minimizedAffinity 6.48254108
REMARK minimizedRMSD -1
REMARK  0 active torsions:
REMARK  status: ('A' for Active; 'I' for Inactive)
ROOT
ATOM      1  C   UNL d   1      -3.382  -1.413  -2.095  0.00  0.00     0.078 C 
ATOM      2  C1  UNL d   1      -3.291  -0.434  -3.227  0.00  0.00    -0.077 A 
ATOM      3  C2  UNL d   1      -2.049  -0.004  -3.711  0.00  0.00    -0.001 A 
ATOM      4  C3  UNL d   1      -1.979   0.915  -4.759  0.00  0.00     0.003 A 
ATOM      5  C4  UNL d   1      -3.147   1.414  -5.331  0.00  0.00    -0.005 A 
ATOM      6  C5  UNL d   1      -4.388   0.993  -4.856  0.00  0.00     0.003 A 
ATOM      7  C6  UNL d   1      -4.460   0.074  -3.808  0.00  0.00    -0.001 A 
ENDROOT
TORSDOF 0
ENDMDL
