MODEL 1
REMARK minimizedAffinity 8.00752735
REMARK minimizedRMSD -1
REMARK  0 active torsions:
REMARK  status: ('A' for Active; 'I' for Inactive)
ROOT
ATOM      1  C   UNL d   1       3.030  -0.849  -0.743  0.00  0.00     0.078 C 
ATOM      2  C1  UNL d   1       4.072   0.222  -0.626  0.00  0.00    -0.077 A 
ATOM      3  C2  UNL d   1       4.995   0.219   0.427  0.00  0.00    -0.001 A 
ATOM      4  C3  UNL d   1       5.953   1.229   0.529  0.00  0.00     0.003 A 
ATOM      5  C4  UNL d   1       5.998   2.249  -0.419  0.00  0.00    -0.005 A 
ATOM      6  C5  UNL d   1       5.083   2.262  -1.469  0.00  0.00     0.003 A 
ATOM      7  C6  UNL d   1       4.123   1.254  -1.573  0.00  0.00    -0.001 A 
ENDROOT
TORSDOF 0
ENDMDL
