MODEL 1
REMARK minimizedAffinity 7.73807955
REMARK minimizedRMSD -1
REMARK  0 active torsions:
REMARK  status: ('A' for Active; 'I' for Inactive)
ROOT
ATOM      1  C   UNL d   1      -5.999   0.189  -4.875  0.00  0.00     0.078 C 
ATOM      2  C1  UNL d   1      -5.363   1.426  -4.314  0.00  0.00    -0.077 A 
ATOM      3  C2  UNL d   1      -5.999   2.175  -3.316  0.00  0.00    -0.001 A 
ATOM      4  C3  UNL d   1      -5.400   3.329  -2.810  0.00  0.00     0.003 A 
ATOM      5  C4  UNL d   1      -4.163   3.747  -3.297  0.00  0.00    -0.005 A 
ATOM      6  C5  UNL d   1      -3.523   3.010  -4.292  0.00  0.00     0.003 A 
ATOM      7  C6  UNL d   1      -4.121   1.855  -4.799  0.00  0.00    -0.001 A 
ENDROOT
TORSDOF 0
ENDMDL
