MODEL 1
REMARK minimizedAffinity -0.404648781
REMARK minimizedRMSD -1
REMARK  0 active torsions:
REMARK  status: ('A' for Active; 'I' for Inactive)
ROOT
ATOM      1  C   UNL d   1       1.319  -3.733   3.761  0.00  0.00     0.078 C 
ATOM      2  C1  UNL d   1       0.123  -4.197   4.536  0.00  0.00    -0.077 A 
ATOM      3  C2  UNL d   1      -0.652  -3.295   5.275  0.00  0.00    -0.001 A 
ATOM      4  C3  UNL d   1      -1.758  -3.742   6.000  0.00  0.00     0.003 A 
ATOM      5  C4  UNL d   1      -2.099  -5.093   5.994  0.00  0.00    -0.005 A 
ATOM      6  C5  UNL d   1      -1.332  -5.999   5.263  0.00  0.00     0.003 A 
ATOM      7  C6  UNL d   1      -0.226  -5.554   4.538  0.00  0.00    -0.001 A 
ENDROOT
TORSDOF 0
ENDMDL
