MODEL 1
REMARK minimizedAffinity 3.29618359
REMARK minimizedRMSD -1
REMARK  0 active torsions:
REMARK  status: ('A' for Active; 'I' for Inactive)
ROOT
ATOM      1  C   UNL d   1       3.713  -0.398  -1.148  0.00  0.00     0.078 C 
ATOM      2  C1  UNL d   1       4.516   0.803  -0.746  0.00  0.00    -0.077 A 
ATOM      3  C2  UNL d   1       4.924   0.987   0.581  0.00  0.00    -0.001 A 
ATOM      4  C3  UNL d   1       5.662   2.115   0.943  0.00  0.00     0.003 A 
ATOM      5  C4  UNL d   1       5.998   3.068  -0.016  0.00  0.00    -0.005 A 
ATOM      6  C5  UNL d   1       5.595   2.895  -1.339  0.00  0.00     0.003 A 
ATOM      7  C6  UNL d   1       4.856   1.768  -1.702  0.00  0.00    -0.001 A 
ENDROOT
TORSDOF 0
ENDMDL
