MODEL 1
REMARK minimizedAffinity 5.12125635
REMARK minimizedRMSD -1
REMARK  0 active torsions:
REMARK  status: ('A' for Active; 'I' for Inactive)
ROOT
ATOM      1  C   UNL d   1      -0.473  -4.229  -1.051  0.00  0.00     0.078 C 
ATOM      2  C1  UNL d   1       0.620  -3.249  -0.742  0.00  0.00    -0.077 A 
ATOM      3  C2  UNL d   1       1.259  -3.250   0.504  0.00  0.00    -0.001 A 
ATOM      4  C3  UNL d   1       2.267  -2.326   0.780  0.00  0.00     0.003 A 
ATOM      5  C4  UNL d   1       2.645  -1.393  -0.184  0.00  0.00    -0.005 A 
ATOM      6  C5  UNL d   1       2.014  -1.383  -1.426  0.00  0.00     0.003 A 
ATOM      7  C6  UNL d   1       1.005  -2.307  -1.704  0.00  0.00    -0.001 A 
ENDROOT
TORSDOF 0
ENDMDL
