MODEL 1
REMARK minimizedAffinity 3.43801999
REMARK minimizedRMSD -1
REMARK  0 active torsions:
REMARK  status: ('A' for Active; 'I' for Inactive)
ROOT
ATOM      1  C   UNL d   1      -4.696   0.741  -0.220  0.00  0.00     0.078 C 
ATOM      2  C1  UNL d   1      -3.233   1.038  -0.074  0.00  0.00    -0.077 A 
ATOM      3  C2  UNL d   1      -2.735   1.663   1.075  0.00  0.00    -0.001 A 
ATOM      4  C3  UNL d   1      -1.372   1.942   1.193  0.00  0.00     0.003 A 
ATOM      5  C4  UNL d   1      -0.497   1.600   0.164  0.00  0.00    -0.005 A 
ATOM      6  C5  UNL d   1      -0.984   0.979  -0.984  0.00  0.00     0.003 A 
ATOM      7  C6  UNL d   1      -2.346   0.699  -1.104  0.00  0.00    -0.001 A 
ENDROOT
TORSDOF 0
ENDMDL
