MODEL 1
REMARK minimizedAffinity 2.32390189
REMARK minimizedRMSD -1
REMARK  0 active torsions:
REMARK  status: ('A' for Active; 'I' for Inactive)
ROOT
ATOM      1  C   UNL d   1       4.333   0.184  -1.071  0.00  0.00     0.078 C 
ATOM      2  C1  UNL d   1       3.707  -1.111  -1.497  0.00  0.00    -0.077 A 
ATOM      3  C2  UNL d   1       3.905  -1.616  -2.788  0.00  0.00    -0.001 A 
ATOM      4  C3  UNL d   1       3.309  -2.818  -3.174  0.00  0.00     0.003 A 
ATOM      5  C4  UNL d   1       2.510  -3.523  -2.277  0.00  0.00    -0.005 A 
ATOM      6  C5  UNL d   1       2.305  -3.026  -0.991  0.00  0.00     0.003 A 
ATOM      7  C6  UNL d   1       2.901  -1.825  -0.603  0.00  0.00    -0.001 A 
ENDROOT
TORSDOF 0
ENDMDL
