MODEL 1
REMARK minimizedAffinity 8.66366005
REMARK minimizedRMSD -1
REMARK  0 active torsions:
REMARK  status: ('A' for Active; 'I' for Inactive)
ROOT
ATOM      1  C   UNL d   1       5.775   1.546  -2.489  0.00  0.00     0.078 C 
ATOM      2  C1  UNL d   1       4.782   0.798  -1.650  0.00  0.00    -0.077 A 
ATOM      3  C2  UNL d   1       4.898   0.762  -0.255  0.00  0.00    -0.001 A 
ATOM      4  C3  UNL d   1       3.971   0.054   0.512  0.00  0.00     0.003 A 
ATOM      5  C4  UNL d   1       2.924  -0.626  -0.107  0.00  0.00    -0.005 A 
ATOM      6  C5  UNL d   1       2.802  -0.598  -1.495  0.00  0.00     0.003 A 
ATOM      7  C6  UNL d   1       3.727   0.110  -2.264  0.00  0.00    -0.001 A 
ENDROOT
TORSDOF 0
ENDMDL
