MODEL 1
REMARK minimizedAffinity -2.67161918
REMARK minimizedRMSD -1
REMARK  0 active torsions:
REMARK  status: ('A' for Active; 'I' for Inactive)
ROOT
ATOM      1  C1  BNZ d   1      -1.217   5.928  -2.774  0.00  0.00     0.000 A 
ATOM      2  C2  BNZ d   1      -0.762   5.917  -4.066  0.00  0.00     0.000 A 
ATOM      3  C3  BNZ d   1      -1.635   5.972  -5.116  0.00  0.00     0.000 A 
ATOM      4  C4  BNZ d   1      -2.961   5.998  -4.875  0.00  0.00     0.000 A 
ATOM      5  C5  BNZ d   1      -3.436   6.000  -3.578  0.00  0.00     0.000 A 
ATOM      6  C6  BNZ d   1      -2.553   5.983  -2.523  0.00  0.00     0.000 A 
ENDROOT
TORSDOF 0
ENDMDL
