MODEL 1
REMARK minimizedAffinity -2.53195429
REMARK minimizedRMSD -1
REMARK  0 active torsions:
REMARK  status: ('A' for Active; 'I' for Inactive)
ROOT
ATOM      1  C1  BNZ d   1       3.442   4.204  -4.033  0.00  0.00     0.000 A 
ATOM      2  C2  BNZ d   1       2.191   4.221  -4.592  0.00  0.00     0.000 A 
ATOM      3  C3  BNZ d   1       1.881   5.104  -5.588  0.00  0.00     0.000 A 
ATOM      4  C4  BNZ d   1       2.808   5.995  -5.996  0.00  0.00     0.000 A 
ATOM      5  C5  BNZ d   1       4.070   5.997  -5.436  0.00  0.00     0.000 A 
ATOM      6  C6  BNZ d   1       4.391   5.081  -4.461  0.00  0.00     0.000 A 
ENDROOT
TORSDOF 0
ENDMDL
