MODEL 1
REMARK minimizedAffinity -2.49853325
REMARK minimizedRMSD -1
REMARK  0 active torsions:
REMARK  status: ('A' for Active; 'I' for Inactive)
ROOT
ATOM      1  C1  BNZ d   1       2.523   5.902  -4.811  0.00  0.00     0.000 A 
ATOM      2  C2  BNZ d   1       3.224   5.836  -3.637  0.00  0.00     0.000 A 
ATOM      3  C3  BNZ d   1       4.590   5.873  -3.635  0.00  0.00     0.000 A 
ATOM      4  C4  BNZ d   1       5.254   5.936  -4.807  0.00  0.00     0.000 A 
ATOM      5  C5  BNZ d   1       4.561   5.994  -6.000  0.00  0.00     0.000 A 
ATOM      6  C6  BNZ d   1       3.185   5.996  -5.996  0.00  0.00     0.000 A 
ENDROOT
TORSDOF 0
ENDMDL
