MODEL 1
REMARK minimizedAffinity -0.660692573
REMARK minimizedRMSD -1
REMARK  0 active torsions:
REMARK  status: ('A' for Active; 'I' for Inactive)
ROOT
ATOM      1  C1  BNZ d   1      -0.324   5.438  -4.263  0.00  0.00     0.000 A 
ATOM      2  C2  BNZ d   1      -1.431   5.996  -4.844  0.00  0.00     0.000 A 
ATOM      3  C3  BNZ d   1      -2.635   5.999  -4.197  0.00  0.00     0.000 A 
ATOM      4  C4  BNZ d   1      -2.740   5.409  -2.989  0.00  0.00     0.000 A 
ATOM      5  C5  BNZ d   1      -1.635   4.834  -2.394  0.00  0.00     0.000 A 
ATOM      6  C6  BNZ d   1      -0.416   4.867  -3.031  0.00  0.00     0.000 A 
ENDROOT
TORSDOF 0
ENDMDL
