MODEL 1
REMARK minimizedAffinity -1.01482069
REMARK minimizedRMSD -1
REMARK  0 active torsions:
REMARK  status: ('A' for Active; 'I' for Inactive)
ROOT
ATOM      1  C1  BNZ d   1      -0.215   0.166   0.619  0.00  0.00     0.000 A 
ATOM      2  C2  BNZ d   1      -0.307   0.521  -0.701  0.00  0.00     0.000 A 
ATOM      3  C3  BNZ d   1       0.183   1.719  -1.139  0.00  0.00     0.000 A 
ATOM      4  C4  BNZ d   1       0.728   2.577  -0.252  0.00  0.00     0.000 A 
ATOM      5  C5  BNZ d   1       0.819   2.238   1.083  0.00  0.00     0.000 A 
ATOM      6  C6  BNZ d   1       0.360   1.014   1.514  0.00  0.00     0.000 A 
ENDROOT
TORSDOF 0
ENDMDL
