MODEL 1
REMARK minimizedAffinity -3.5210228
REMARK minimizedRMSD -1
REMARK  0 active torsions:
REMARK  status: ('A' for Active; 'I' for Inactive)
ROOT
ATOM      1  C1  BNZ d   1       1.822   1.785   1.342  0.00  0.00     0.000 A 
ATOM      2  C2  BNZ d   1       2.100   1.901   0.006  0.00  0.00     0.000 A 
ATOM      3  C3  BNZ d   1       1.546   1.042  -0.901  0.00  0.00     0.000 A 
ATOM      4  C4  BNZ d   1       0.747   0.045  -0.468  0.00  0.00     0.000 A 
ATOM      5  C5  BNZ d   1       0.465  -0.091   0.876  0.00  0.00     0.000 A 
ATOM      6  C6  BNZ d   1       0.993   0.799   1.783  0.00  0.00     0.000 A 
ENDROOT
TORSDOF 0
ENDMDL
