MODEL 1
REMARK minimizedAffinity -0.0163634978
REMARK minimizedRMSD -1
REMARK  0 active torsions:
REMARK  status: ('A' for Active; 'I' for Inactive)
ROOT
ATOM      1  C1  BNZ d   1      -2.265   5.998  -4.153  0.00  0.00     0.000 A 
ATOM      2  C2  BNZ d   1      -1.036   5.998  -4.757  0.00  0.00     0.000 A 
ATOM      3  C3  BNZ d   1       0.110   5.972  -4.013  0.00  0.00     0.000 A 
ATOM      4  C4  BNZ d   1       0.027   5.987  -2.667  0.00  0.00     0.000 A 
ATOM      5  C5  BNZ d   1      -1.205   5.996  -2.043  0.00  0.00     0.000 A 
ATOM      6  C6  BNZ d   1      -2.357   5.983  -2.795  0.00  0.00     0.000 A 
ENDROOT
TORSDOF 0
ENDMDL
