MODEL 1
REMARK minimizedAffinity -1.27981532
REMARK minimizedRMSD -1
REMARK  0 active torsions:
REMARK  status: ('A' for Active; 'I' for Inactive)
ROOT
ATOM      1  C1  BNZ d   1       0.289   5.994  -3.537  0.00  0.00     0.000 A 
ATOM      2  C2  BNZ d   1      -1.079   6.000  -3.599  0.00  0.00     0.000 A 
ATOM      3  C3  BNZ d   1      -1.725   5.978  -4.804  0.00  0.00     0.000 A 
ATOM      4  C4  BNZ d   1      -1.003   5.991  -5.943  0.00  0.00     0.000 A 
ATOM      5  C5  BNZ d   1       0.377   5.995  -5.897  0.00  0.00     0.000 A 
ATOM      6  C6  BNZ d   1       1.023   5.977  -4.683  0.00  0.00     0.000 A 
ENDROOT
TORSDOF 0
ENDMDL
