MODEL 1
REMARK minimizedAffinity -2.49321413
REMARK minimizedRMSD -1
REMARK  0 active torsions:
REMARK  status: ('A' for Active; 'I' for Inactive)
ROOT
ATOM      1  C1  BNZ d   1      -2.224   5.976  -5.145  0.00  0.00     0.000 A 
ATOM      2  C2  BNZ d   1      -2.065   5.971  -3.785  0.00  0.00     0.000 A 
ATOM      3  C3  BNZ d   1      -0.818   5.999  -3.226  0.00  0.00     0.000 A 
ATOM      4  C4  BNZ d   1       0.268   5.993  -4.026  0.00  0.00     0.000 A 
ATOM      5  C5  BNZ d   1       0.124   5.989  -5.399  0.00  0.00     0.000 A 
ATOM      6  C6  BNZ d   1      -1.134   6.000  -5.958  0.00  0.00     0.000 A 
ENDROOT
TORSDOF 0
ENDMDL
