MODEL 1
REMARK minimizedAffinity -1.54613829
REMARK minimizedRMSD -1
REMARK  0 active torsions:
REMARK  status: ('A' for Active; 'I' for Inactive)
ROOT
ATOM      1  C1  BNZ d   1      -2.955   5.983  -4.164  0.00  0.00     0.000 A 
ATOM      2  C2  BNZ d   1      -1.725   5.976  -4.765  0.00  0.00     0.000 A 
ATOM      3  C3  BNZ d   1      -0.581   5.956  -4.018  0.00  0.00     0.000 A 
ATOM      4  C4  BNZ d   1      -0.667   5.983  -2.672  0.00  0.00     0.000 A 
ATOM      5  C5  BNZ d   1      -1.900   5.999  -2.051  0.00  0.00     0.000 A 
ATOM      6  C6  BNZ d   1      -3.050   5.980  -2.806  0.00  0.00     0.000 A 
ENDROOT
TORSDOF 0
ENDMDL
