MODEL 1
REMARK minimizedAffinity 0.00328863505
REMARK minimizedRMSD -1
REMARK  0 active torsions:
REMARK  status: ('A' for Active; 'I' for Inactive)
ROOT
ATOM      1  C1  BNZ d   1      -0.609  -1.568  -1.947  0.00  0.00     0.000 A 
ATOM      2  C2  BNZ d   1      -1.964  -1.561  -1.750  0.00  0.00     0.000 A 
ATOM      3  C3  BNZ d   1      -2.822  -1.820  -2.782  0.00  0.00     0.000 A 
ATOM      4  C4  BNZ d   1      -2.327  -2.045  -4.016  0.00  0.00     0.000 A 
ATOM      5  C5  BNZ d   1      -0.963  -2.046  -4.232  0.00  0.00     0.000 A 
ATOM      6  C6  BNZ d   1      -0.101  -1.824  -3.183  0.00  0.00     0.000 A 
ENDROOT
TORSDOF 0
ENDMDL
