MODEL 1
REMARK minimizedAffinity -0.941525519
REMARK minimizedRMSD -1
REMARK  0 active torsions:
REMARK  status: ('A' for Active; 'I' for Inactive)
ROOT
ATOM      1  C1  BNZ d   1      -2.862   5.451  -2.030  0.00  0.00     0.000 A 
ATOM      2  C2  BNZ d   1      -2.957   4.893  -3.278  0.00  0.00     0.000 A 
ATOM      3  C3  BNZ d   1      -1.876   4.863  -4.114  0.00  0.00     0.000 A 
ATOM      4  C4  BNZ d   1      -0.716   5.425  -3.720  0.00  0.00     0.000 A 
ATOM      5  C5  BNZ d   1      -0.607   6.000  -2.469  0.00  0.00     0.000 A 
ATOM      6  C6  BNZ d   1      -1.686   5.994  -1.614  0.00  0.00     0.000 A 
ENDROOT
TORSDOF 0
ENDMDL
