MODEL 1
REMARK minimizedAffinity 0.260412812
REMARK minimizedRMSD -1
REMARK  0 active torsions:
REMARK  status: ('A' for Active; 'I' for Inactive)
ROOT
ATOM      1  C1  BNZ d   1       5.615   4.406  -4.385  0.00  0.00     0.000 A 
ATOM      2  C2  BNZ d   1       4.479   4.044  -5.059  0.00  0.00     0.000 A 
ATOM      3  C3  BNZ d   1       3.377   3.597  -4.385  0.00  0.00     0.000 A 
ATOM      4  C4  BNZ d   1       3.426   3.474  -3.042  0.00  0.00     0.000 A 
ATOM      5  C5  BNZ d   1       4.567   3.827  -2.349  0.00  0.00     0.000 A 
ATOM      6  C6  BNZ d   1       5.660   4.314  -3.028  0.00  0.00     0.000 A 
ENDROOT
TORSDOF 0
ENDMDL
