MODEL 1
REMARK minimizedAffinity -3.43364811
REMARK minimizedRMSD -1
REMARK  1 active torsions:
REMARK  status: ('A' for Active; 'I' for Inactive)
REMARK    1  A    between atoms: N_2  and  C1_3 
ROOT
ATOM      1  C1  UNL d   1      -0.383   2.000   0.958  0.00  0.00     0.143 A 
ATOM      2  C2  UNL d   1      -0.813   1.277   2.076  0.00  0.00    -0.057 A 
ATOM      3  C3  UNL d   1      -0.712  -0.119   2.120  0.00  0.00     0.033 A 
ATOM      4  C4  UNL d   1      -0.204  -0.820   1.032  0.00  0.00    -0.042 A 
ATOM      5  C5  UNL d   1       0.206  -0.124  -0.099  0.00  0.00     0.033 A 
ATOM      6  C6  UNL d   1       0.109   1.270  -0.135  0.00  0.00    -0.057 A 
ENDROOT
BRANCH   1   7
ATOM      7  N   UNL d   1      -0.548   3.380   0.814  0.00  0.00    -0.732 N 
ATOM      8  C   UNL d   1      -0.394   4.009  -0.480  0.00  0.00     0.284 C 
ATOM      9  H3  UNL d   1      -1.330   3.737   1.359  0.00  0.00     0.395 HD
ENDBRANCH   1   7
TORSDOF 1
ENDMDL
