MODEL 1
REMARK minimizedAffinity -2.4482553
REMARK minimizedRMSD -1
REMARK  1 active torsions:
REMARK  status: ('A' for Active; 'I' for Inactive)
REMARK    1  A    between atoms: N_2  and  C1_3 
ROOT
ATOM      1  C1  UNL d   1       0.208   1.998  -0.097  0.00  0.00     0.143 A 
ATOM      2  C2  UNL d   1      -0.184   2.419   1.178  0.00  0.00    -0.057 A 
ATOM      3  C3  UNL d   1      -0.140   1.550   2.276  0.00  0.00     0.033 A 
ATOM      4  C4  UNL d   1       0.271   0.232   2.110  0.00  0.00    -0.042 A 
ATOM      5  C5  UNL d   1       0.642  -0.216   0.847  0.00  0.00     0.033 A 
ATOM      6  C6  UNL d   1       0.602   0.658  -0.243  0.00  0.00    -0.057 A 
ENDROOT
BRANCH   1   7
ATOM      7  N   UNL d   1       0.093   2.784  -1.245  0.00  0.00    -0.732 N 
ATOM      8  C   UNL d   1       0.039   4.227  -1.148  0.00  0.00     0.284 C 
ATOM      9  H3  UNL d   1       0.668   2.441  -2.011  0.00  0.00     0.395 HD
ENDBRANCH   1   7
TORSDOF 1
ENDMDL
