MODEL 1
REMARK minimizedAffinity -1.18877089
REMARK minimizedRMSD -1
REMARK  1 active torsions:
REMARK  status: ('A' for Active; 'I' for Inactive)
REMARK    1  A    between atoms: N_2  and  C1_3 
ROOT
ATOM      1  C1  UNL d   1       0.320  -1.797  -0.599  0.00  0.00     0.143 A 
ATOM      2  C2  UNL d   1      -0.724  -2.413   0.099  0.00  0.00    -0.057 A 
ATOM      3  C3  UNL d   1      -1.454  -3.465  -0.468  0.00  0.00     0.033 A 
ATOM      4  C4  UNL d   1      -1.169  -3.902  -1.757  0.00  0.00    -0.042 A 
ATOM      5  C5  UNL d   1      -0.152  -3.287  -2.479  0.00  0.00     0.033 A 
ATOM      6  C6  UNL d   1       0.578  -2.241  -1.905  0.00  0.00    -0.057 A 
ENDROOT
BRANCH   1   7
ATOM      7  N   UNL d   1       1.018  -0.681  -0.128  0.00  0.00    -0.732 N 
ATOM      8  C   UNL d   1       0.410   0.218   0.829  0.00  0.00     0.284 C 
ATOM      9  H3  UNL d   1       1.997  -0.885   0.056  0.00  0.00     0.395 HD
ENDBRANCH   1   7
TORSDOF 1
ENDMDL
