MODEL 1
REMARK minimizedAffinity -2.95472693
REMARK minimizedRMSD -1
REMARK  1 active torsions:
REMARK  status: ('A' for Active; 'I' for Inactive)
REMARK    1  A    between atoms: N_2  and  C1_3 
ROOT
ATOM      1  C1  UNL d   1      -0.103   0.567   0.077  0.00  0.00     0.143 A 
ATOM      2  C2  UNL d   1       0.057   0.980   1.404  0.00  0.00    -0.057 A 
ATOM      3  C3  UNL d   1      -0.043   2.331   1.761  0.00  0.00     0.033 A 
ATOM      4  C4  UNL d   1      -0.276   3.298   0.788  0.00  0.00    -0.042 A 
ATOM      5  C5  UNL d   1      -0.413   2.912  -0.540  0.00  0.00     0.033 A 
ATOM      6  C6  UNL d   1      -0.319   1.562  -0.889  0.00  0.00    -0.057 A 
ENDROOT
BRANCH   1   7
ATOM      7  N   UNL d   1       0.083  -0.749  -0.355  0.00  0.00    -0.732 N 
ATOM      8  C   UNL d   1       0.810  -1.028  -1.575  0.00  0.00     0.284 C 
ATOM      9  H3  UNL d   1       0.298  -1.383   0.411  0.00  0.00     0.395 HD
ENDBRANCH   1   7
TORSDOF 1
ENDMDL
