MODEL 1
REMARK minimizedAffinity -2.26298213
REMARK minimizedRMSD -1
REMARK  1 active torsions:
REMARK  status: ('A' for Active; 'I' for Inactive)
REMARK    1  A    between atoms: N_2  and  C1_3 
ROOT
ATOM      1  C1  UNL d   1       0.238  -1.632  -1.115  0.00  0.00     0.143 A 
ATOM      2  C2  UNL d   1       0.881  -2.695  -0.473  0.00  0.00    -0.057 A 
ATOM      3  C3  UNL d   1       0.362  -3.995  -0.523  0.00  0.00     0.033 A 
ATOM      4  C4  UNL d   1      -0.830  -4.249  -1.194  0.00  0.00    -0.042 A 
ATOM      5  C5  UNL d   1      -1.499  -3.203  -1.818  0.00  0.00     0.033 A 
ATOM      6  C6  UNL d   1      -0.973  -1.909  -1.770  0.00  0.00    -0.057 A 
ENDROOT
BRANCH   1   7
ATOM      7  N   UNL d   1       0.651  -0.301  -1.019  0.00  0.00    -0.732 N 
ATOM      8  C   UNL d   1       0.330   0.488   0.151  0.00  0.00     0.284 C 
ATOM      9  H3  UNL d   1       1.596  -0.162  -1.368  0.00  0.00     0.395 HD
ENDBRANCH   1   7
TORSDOF 1
ENDMDL
