MODEL 1
REMARK minimizedAffinity -2.36400867
REMARK minimizedRMSD -1
REMARK  1 active torsions:
REMARK  status: ('A' for Active; 'I' for Inactive)
REMARK    1  A    between atoms: N_2  and  C1_3 
ROOT
ATOM      1  C1  UNL d   1      -0.537  -1.651  -0.534  0.00  0.00     0.143 A 
ATOM      2  C2  UNL d   1       0.419  -0.653  -0.747  0.00  0.00    -0.057 A 
ATOM      3  C3  UNL d   1       0.761   0.253   0.264  0.00  0.00     0.033 A 
ATOM      4  C4  UNL d   1       0.127   0.195   1.502  0.00  0.00    -0.042 A 
ATOM      5  C5  UNL d   1      -0.845  -0.774   1.727  0.00  0.00     0.033 A 
ATOM      6  C6  UNL d   1      -1.176  -1.680   0.715  0.00  0.00    -0.057 A 
ENDROOT
BRANCH   1   7
ATOM      7  N   UNL d   1      -0.990  -2.519  -1.531  0.00  0.00    -0.732 N 
ATOM      8  C   UNL d   1      -0.962  -3.952  -1.329  0.00  0.00     0.284 C 
ATOM      9  H3  UNL d   1      -1.835  -2.180  -1.986  0.00  0.00     0.395 HD
ENDBRANCH   1   7
TORSDOF 1
ENDMDL
