MODEL 1
REMARK minimizedAffinity 13.2354155
REMARK minimizedRMSD -1
REMARK  0 active torsions:
REMARK  status: ('A' for Active; 'I' for Inactive)
ROOT
ATOM      1  C   UNL d   1      -3.843   4.027  -4.668  0.00  0.00    -0.002 A 
ATOM      2  C1  UNL d   1      -4.866   3.315  -5.278  0.00  0.00     0.010 A 
ATOM      3  C2  UNL d   1      -5.216   2.043  -4.821  0.00  0.00     0.041 A 
ATOM      4  C3  UNL d   1      -4.514   1.494  -3.730  0.00  0.00    -0.075 A 
ATOM      5  S   UNL d   1      -4.769  -0.047  -2.999  0.00  0.00     0.015 SA
ATOM      6  C4  UNL d   1      -3.526   0.205  -1.860  0.00  0.00     0.022 A 
ATOM      7  C5  UNL d   1      -2.921   1.429  -2.019  0.00  0.00     0.026 A 
ATOM      8  C6  UNL d   1      -3.481   2.192  -3.099  0.00  0.00    -0.082 A 
ATOM      9  C7  UNL d   1      -3.149   3.479  -3.586  0.00  0.00     0.045 A 
ENDROOT
TORSDOF 0
ENDMDL
