MODEL 1
REMARK minimizedAffinity 19.6669197
REMARK minimizedRMSD -1
REMARK  0 active torsions:
REMARK  status: ('A' for Active; 'I' for Inactive)
ROOT
ATOM      1  C   UNL d   1       1.509  -1.937   0.331  0.00  0.00    -0.002 A 
ATOM      2  C1  UNL d   1       2.134  -2.721   1.291  0.00  0.00     0.010 A 
ATOM      3  C2  UNL d   1       3.524  -2.712   1.421  0.00  0.00     0.041 A 
ATOM      4  C3  UNL d   1       4.283  -1.892   0.562  0.00  0.00    -0.075 A 
ATOM      5  S   UNL d   1       5.999  -1.719   0.539  0.00  0.00     0.015 SA
ATOM      6  C4  UNL d   1       5.943  -0.600  -0.746  0.00  0.00     0.022 A 
ATOM      7  C5  UNL d   1       4.655  -0.353  -1.159  0.00  0.00     0.026 A 
ATOM      8  C6  UNL d   1       3.677  -1.094  -0.412  0.00  0.00    -0.082 A 
ATOM      9  C7  UNL d   1       2.266  -1.126  -0.519  0.00  0.00     0.045 A 
ENDROOT
TORSDOF 0
ENDMDL
