MODEL 1
REMARK minimizedAffinity 16.4461937
REMARK minimizedRMSD -1
REMARK  0 active torsions:
REMARK  status: ('A' for Active; 'I' for Inactive)
ROOT
ATOM      1  C   UNL d   1      -1.757  -1.248   1.958  0.00  0.00    -0.002 A 
ATOM      2  C1  UNL d   1      -1.128  -0.696   3.065  0.00  0.00     0.010 A 
ATOM      3  C2  UNL d   1      -1.716   0.361   3.762  0.00  0.00     0.041 A 
ATOM      4  C3  UNL d   1      -2.959   0.858   3.325  0.00  0.00    -0.075 A 
ATOM      5  S   UNL d   1      -3.868   2.146   4.025  0.00  0.00     0.015 SA
ATOM      6  C4  UNL d   1      -5.113   1.993   2.871  0.00  0.00     0.022 A 
ATOM      7  C5  UNL d   1      -4.858   0.990   1.967  0.00  0.00     0.026 A 
ATOM      8  C6  UNL d   1      -3.613   0.318   2.214  0.00  0.00    -0.082 A 
ATOM      9  C7  UNL d   1      -2.991  -0.752   1.527  0.00  0.00     0.045 A 
ENDROOT
TORSDOF 0
ENDMDL
