MODEL 1
REMARK minimizedAffinity 7.08358383
REMARK minimizedRMSD -1
REMARK  0 active torsions:
REMARK  status: ('A' for Active; 'I' for Inactive)
ROOT
ATOM      1  C   UNL d   1       1.843   1.191  -1.898  0.00  0.00     0.023 A 
ATOM      2  C1  UNL d   1       1.556  -0.162  -1.712  0.00  0.00     0.003 A 
ATOM      3  C2  UNL d   1       1.698  -0.740  -0.449  0.00  0.00     0.048 A 
ATOM      4  C3  UNL d   1       2.124   0.041   0.625  0.00  0.00     0.023 A 
ATOM      5  C4  UNL d   1       2.411   1.395   0.444  0.00  0.00     0.048 A 
ATOM      6  C5  UNL d   1       2.270   1.968  -0.821  0.00  0.00     0.003 A 
ATOM      7  I   UNL d   1       2.335  -0.817   2.506  0.00  0.00    -0.146 I 
ENDROOT
TORSDOF 0
ENDMDL
