MODEL 1
REMARK minimizedAffinity 8.79654408
REMARK minimizedRMSD -1
REMARK  0 active torsions:
REMARK  status: ('A' for Active; 'I' for Inactive)
ROOT
ATOM      1  C   UNL d   1       1.747  -1.339   2.887  0.00  0.00     0.023 A 
ATOM      2  C1  UNL d   1       1.647  -0.074   3.468  0.00  0.00     0.003 A 
ATOM      3  C2  UNL d   1       0.404   0.552   3.572  0.00  0.00     0.048 A 
ATOM      4  C3  UNL d   1      -0.737  -0.092   3.094  0.00  0.00     0.023 A 
ATOM      5  C4  UNL d   1      -0.642  -1.358   2.513  0.00  0.00     0.048 A 
ATOM      6  C5  UNL d   1       0.603  -1.980   2.410  0.00  0.00     0.003 A 
ATOM      7  I   UNL d   1      -2.589   0.838   3.247  0.00  0.00    -0.146 I 
ENDROOT
TORSDOF 0
ENDMDL
