MODEL 1
REMARK minimizedAffinity 5.15589046
REMARK minimizedRMSD -1
REMARK  0 active torsions:
REMARK  status: ('A' for Active; 'I' for Inactive)
ROOT
ATOM      1  C   UNL d   1       5.565  -5.551   5.917  0.00  0.00     0.023 A 
ATOM      2  C1  UNL d   1       5.886  -4.196   6.000  0.00  0.00     0.003 A 
ATOM      3  C2  UNL d   1       5.134  -3.254   5.294  0.00  0.00     0.048 A 
ATOM      4  C3  UNL d   1       4.062  -3.675   4.507  0.00  0.00     0.023 A 
ATOM      5  C4  UNL d   1       3.737  -5.029   4.422  0.00  0.00     0.048 A 
ATOM      6  C5  UNL d   1       4.492  -5.967   5.129  0.00  0.00     0.003 A 
ATOM      7  I   UNL d   1       2.942  -2.275   3.456  0.00  0.00    -0.146 I 
ENDROOT
TORSDOF 0
ENDMDL
