MODEL 1
REMARK minimizedAffinity -2.22603989
REMARK minimizedRMSD -1
REMARK  0 active torsions:
REMARK  status: ('A' for Active; 'I' for Inactive)
ROOT
ATOM      1  C   UNL d   1      -2.077  -1.666  -2.581  0.00  0.00     0.023 A 
ATOM      2  C1  UNL d   1      -2.899  -1.789  -3.702  0.00  0.00     0.003 A 
ATOM      3  C2  UNL d   1      -3.196  -0.666  -4.477  0.00  0.00     0.048 A 
ATOM      4  C3  UNL d   1      -2.667   0.576  -4.128  0.00  0.00     0.023 A 
ATOM      5  C4  UNL d   1      -1.844   0.703  -3.008  0.00  0.00     0.048 A 
ATOM      6  C5  UNL d   1      -1.550  -0.422  -2.235  0.00  0.00     0.003 A 
ATOM      7  I   UNL d   1      -3.108   2.248  -5.281  0.00  0.00    -0.146 I 
ENDROOT
TORSDOF 0
ENDMDL
