MODEL 1
REMARK minimizedAffinity 7.21739006
REMARK minimizedRMSD -1
REMARK  0 active torsions:
REMARK  status: ('A' for Active; 'I' for Inactive)
ROOT
ATOM      1  C   UNL d   1       0.826   2.290  -1.832  0.00  0.00     0.023 A 
ATOM      2  C1  UNL d   1       1.959   2.376  -1.022  0.00  0.00     0.003 A 
ATOM      3  C2  UNL d   1       2.481   1.227  -0.425  0.00  0.00     0.048 A 
ATOM      4  C3  UNL d   1       1.867  -0.005  -0.643  0.00  0.00     0.023 A 
ATOM      5  C4  UNL d   1       0.734  -0.097  -1.453  0.00  0.00     0.048 A 
ATOM      6  C5  UNL d   1       0.215   1.054  -2.048  0.00  0.00     0.003 A 
ATOM      7  I   UNL d   1       2.642  -1.717   0.245  0.00  0.00    -0.146 I 
ENDROOT
TORSDOF 0
ENDMDL
