MODEL 1
REMARK minimizedAffinity 10.6760082
REMARK minimizedRMSD -1
REMARK  0 active torsions:
REMARK  status: ('A' for Active; 'I' for Inactive)
ROOT
ATOM      1  C   UNL d   1       3.029  -0.912  -1.729  0.00  0.00     0.023 A 
ATOM      2  C1  UNL d   1       3.298  -1.931  -0.815  0.00  0.00     0.003 A 
ATOM      3  C2  UNL d   1       2.566  -2.017   0.371  0.00  0.00     0.048 A 
ATOM      4  C3  UNL d   1       1.566  -1.083   0.636  0.00  0.00     0.023 A 
ATOM      5  C4  UNL d   1       1.293  -0.062  -0.276  0.00  0.00     0.048 A 
ATOM      6  C5  UNL d   1       2.028   0.021  -1.460  0.00  0.00     0.003 A 
ATOM      7  I   UNL d   1       0.475  -1.210   2.401  0.00  0.00    -0.146 I 
ENDROOT
TORSDOF 0
ENDMDL
