MODEL 1
REMARK minimizedAffinity 8.82784939
REMARK minimizedRMSD -1
REMARK  0 active torsions:
REMARK  status: ('A' for Active; 'I' for Inactive)
ROOT
ATOM      1  C   UNL d   1       1.750  -2.696   2.183  0.00  0.00     0.023 A 
ATOM      2  C1  UNL d   1       2.597  -2.888   1.092  0.00  0.00     0.003 A 
ATOM      3  C2  UNL d   1       2.639  -1.943   0.064  0.00  0.00     0.048 A 
ATOM      4  C3  UNL d   1       1.831  -0.809   0.135  0.00  0.00     0.023 A 
ATOM      5  C4  UNL d   1       0.982  -0.613   1.225  0.00  0.00     0.048 A 
ATOM      6  C5  UNL d   1       0.943  -1.560   2.250  0.00  0.00     0.003 A 
ATOM      7  I   UNL d   1       1.891   0.599  -1.393  0.00  0.00    -0.146 I 
ENDROOT
TORSDOF 0
ENDMDL
