MODEL 1
REMARK minimizedAffinity 4.88319492
REMARK minimizedRMSD -1
REMARK  0 active torsions:
REMARK  status: ('A' for Active; 'I' for Inactive)
ROOT
ATOM      1  C   UNL d   1      -0.630  -0.825   3.304  0.00  0.00     0.023 A 
ATOM      2  C1  UNL d   1       0.400  -1.757   3.170  0.00  0.00     0.003 A 
ATOM      3  C2  UNL d   1       1.144  -1.812   1.990  0.00  0.00     0.048 A 
ATOM      4  C3  UNL d   1       0.853  -0.932   0.948  0.00  0.00     0.023 A 
ATOM      5  C4  UNL d   1      -0.176   0.002   1.078  0.00  0.00     0.048 A 
ATOM      6  C5  UNL d   1      -0.917   0.053   2.260  0.00  0.00     0.003 A 
ATOM      7  I   UNL d   1       1.959  -1.013  -0.811  0.00  0.00    -0.146 I 
ENDROOT
TORSDOF 0
ENDMDL
