MODEL 1
REMARK minimizedAffinity 4.4155302
REMARK minimizedRMSD -1
REMARK  0 active torsions:
REMARK  status: ('A' for Active; 'I' for Inactive)
ROOT
ATOM      1  C   UNL d   1       1.784   1.427  -2.199  0.00  0.00     0.023 A 
ATOM      2  C1  UNL d   1       2.242   1.757  -0.924  0.00  0.00     0.003 A 
ATOM      3  C2  UNL d   1       2.170   0.822   0.110  0.00  0.00     0.048 A 
ATOM      4  C3  UNL d   1       1.640  -0.444  -0.139  0.00  0.00     0.023 A 
ATOM      5  C4  UNL d   1       1.181  -0.780  -1.413  0.00  0.00     0.048 A 
ATOM      6  C5  UNL d   1       1.254   0.160  -2.444  0.00  0.00     0.003 A 
ATOM      7  I   UNL d   1       1.532  -1.839   1.398  0.00  0.00    -0.146 I 
ENDROOT
TORSDOF 0
ENDMDL
