MODEL 1
REMARK minimizedAffinity 2.91279197
REMARK minimizedRMSD -1
REMARK  0 active torsions:
REMARK  status: ('A' for Active; 'I' for Inactive)
ROOT
ATOM      1  C   UNL d   1       1.936   0.945  -2.223  0.00  0.00     0.023 A 
ATOM      2  C1  UNL d   1       1.651  -0.420  -2.166  0.00  0.00     0.003 A 
ATOM      3  C2  UNL d   1       1.725  -1.099  -0.948  0.00  0.00     0.048 A 
ATOM      4  C3  UNL d   1       2.082  -0.408   0.209  0.00  0.00     0.023 A 
ATOM      5  C4  UNL d   1       2.366   0.957   0.157  0.00  0.00     0.048 A 
ATOM      6  C5  UNL d   1       2.293   1.632  -1.063  0.00  0.00     0.003 A 
ATOM      7  I   UNL d   1       2.192  -1.418   2.022  0.00  0.00    -0.146 I 
ENDROOT
TORSDOF 0
ENDMDL
