MODEL 1
REMARK minimizedAffinity 6.20468569
REMARK minimizedRMSD -1
REMARK  1 active torsions:
REMARK  status: ('A' for Active; 'I' for Inactive)
REMARK    1  A    between atoms: C1_2  and  C2_3 
ROOT
ATOM      1  C2  UNL d   1       5.018   1.630  -0.997  0.00  0.00    -0.081 A 
ATOM      2  C3  UNL d   1       5.820   0.649  -0.402  0.00  0.00     0.006 A 
ATOM      3  C4  UNL d   1       5.275  -0.583  -0.030  0.00  0.00     0.002 A 
ATOM      4  C5  UNL d   1       3.922  -0.856  -0.255  0.00  0.00    -0.080 A 
ATOM      5  C6  UNL d   1       3.330  -2.185   0.112  0.00  0.00     0.076 C 
ATOM      6  C7  UNL d   1       3.116   0.130  -0.833  0.00  0.00     0.002 A 
ATOM      7  C8  UNL d   1       3.660   1.362  -1.204  0.00  0.00     0.006 A 
ENDROOT
BRANCH   1   8
ATOM      8  C1  UNL d   1       5.617   2.934  -1.458  0.00  0.00     0.054 C 
ATOM      9  C   UNL d   1       4.678   4.101  -1.186  0.00  0.00     0.018 C 
ENDBRANCH   1   8
TORSDOF 1
ENDMDL
