MODEL 1
REMARK minimizedAffinity 1.53179431
REMARK minimizedRMSD -1
REMARK  1 active torsions:
REMARK  status: ('A' for Active; 'I' for Inactive)
REMARK    1  A    between atoms: C1_2  and  C2_3 
ROOT
ATOM      1  C2  UNL d   1      -1.415   3.045   0.838  0.00  0.00    -0.081 A 
ATOM      2  C3  UNL d   1      -1.105   4.262   1.458  0.00  0.00     0.006 A 
ATOM      3  C4  UNL d   1      -2.053   4.916   2.248  0.00  0.00     0.002 A 
ATOM      4  C5  UNL d   1      -3.323   4.361   2.439  0.00  0.00    -0.080 A 
ATOM      5  C6  UNL d   1      -4.339   5.038   3.310  0.00  0.00     0.076 C 
ATOM      6  C7  UNL d   1      -3.639   3.154   1.807  0.00  0.00     0.002 A 
ATOM      7  C8  UNL d   1      -2.692   2.500   1.015  0.00  0.00     0.006 A 
ENDROOT
BRANCH   1   8
ATOM      8  C1  UNL d   1      -0.374   2.305   0.038  0.00  0.00     0.054 C 
ATOM      9  C   UNL d   1       0.276   1.202   0.861  0.00  0.00     0.018 C 
ENDBRANCH   1   8
TORSDOF 1
ENDMDL
