MODEL 1
REMARK minimizedAffinity 6.42108011
REMARK minimizedRMSD -1
REMARK  1 active torsions:
REMARK  status: ('A' for Active; 'I' for Inactive)
REMARK    1  A    between atoms: C1_2  and  C2_3 
ROOT
ATOM      1  C2  UNL d   1       3.818  -1.170  -0.527  0.00  0.00    -0.081 A 
ATOM      2  C3  UNL d   1       5.177  -0.864  -0.664  0.00  0.00     0.006 A 
ATOM      3  C4  UNL d   1       5.586   0.449  -0.912  0.00  0.00     0.002 A 
ATOM      4  C5  UNL d   1       4.643   1.477  -1.021  0.00  0.00    -0.080 A 
ATOM      5  C6  UNL d   1       5.070   2.895  -1.257  0.00  0.00     0.076 C 
ATOM      6  C7  UNL d   1       3.284   1.168  -0.902  0.00  0.00     0.002 A 
ATOM      7  C8  UNL d   1       2.875  -0.144  -0.654  0.00  0.00     0.006 A 
ENDROOT
BRANCH   1   8
ATOM      8  C1  UNL d   1       3.378  -2.573  -0.195  0.00  0.00     0.054 C 
ATOM      9  C   UNL d   1       2.186  -2.995  -1.043  0.00  0.00     0.018 C 
ENDBRANCH   1   8
TORSDOF 1
ENDMDL
