MODEL 1
REMARK minimizedAffinity 1.95197546
REMARK minimizedRMSD -1
REMARK  1 active torsions:
REMARK  status: ('A' for Active; 'I' for Inactive)
REMARK    1  A    between atoms: C1_2  and  C2_3 
ROOT
ATOM      1  C2  UNL d   1       5.472   2.979  -0.452  0.00  0.00    -0.081 A 
ATOM      2  C3  UNL d   1       5.057   2.359  -1.637  0.00  0.00     0.006 A 
ATOM      3  C4  UNL d   1       4.513   1.072  -1.611  0.00  0.00     0.002 A 
ATOM      4  C5  UNL d   1       4.367   0.388  -0.399  0.00  0.00    -0.080 A 
ATOM      5  C6  UNL d   1       3.757  -0.981  -0.354  0.00  0.00     0.076 C 
ATOM      6  C7  UNL d   1       4.797   1.001   0.783  0.00  0.00     0.002 A 
ATOM      7  C8  UNL d   1       5.342   2.287   0.757  0.00  0.00     0.006 A 
ENDROOT
BRANCH   1   8
ATOM      8  C1  UNL d   1       5.999   4.391  -0.470  0.00  0.00     0.054 C 
ATOM      9  C   UNL d   1       6.000   4.964  -1.880  0.00  0.00     0.018 C 
ENDBRANCH   1   8
TORSDOF 1
ENDMDL
