MODEL 1
REMARK minimizedAffinity 6.73023701
REMARK minimizedRMSD -1
REMARK  1 active torsions:
REMARK  status: ('A' for Active; 'I' for Inactive)
REMARK    1  A    between atoms: C1_2  and  C2_3 
ROOT
ATOM      1  C2  UNL d   1       3.104  -0.732  -0.535  0.00  0.00    -0.081 A 
ATOM      2  C3  UNL d   1       3.207  -2.072  -0.141  0.00  0.00     0.006 A 
ATOM      3  C4  UNL d   1       2.197  -2.983  -0.456  0.00  0.00     0.002 A 
ATOM      4  C5  UNL d   1       1.070  -2.572  -1.177  0.00  0.00    -0.080 A 
ATOM      5  C6  UNL d   1      -0.008  -3.547  -1.547  0.00  0.00     0.076 C 
ATOM      6  C7  UNL d   1       0.958  -1.230  -1.556  0.00  0.00     0.002 A 
ATOM      7  C8  UNL d   1       1.968  -0.319  -1.240  0.00  0.00     0.006 A 
ENDROOT
BRANCH   1   8
ATOM      8  C1  UNL d   1       4.222   0.238  -0.254  0.00  0.00     0.054 C 
ATOM      9  C   UNL d   1       4.857   0.741  -1.543  0.00  0.00     0.018 C 
ENDBRANCH   1   8
TORSDOF 1
ENDMDL
