MODEL 1
REMARK minimizedAffinity 8.96261883
REMARK minimizedRMSD -1
REMARK  1 active torsions:
REMARK  status: ('A' for Active; 'I' for Inactive)
REMARK    1  A    between atoms: C1_2  and  C2_3 
ROOT
ATOM      1  C2  UNL d   1       2.699  -0.641  -0.743  0.00  0.00    -0.081 A 
ATOM      2  C3  UNL d   1       1.501  -0.563  -1.463  0.00  0.00     0.006 A 
ATOM      3  C4  UNL d   1       0.725  -1.705  -1.673  0.00  0.00     0.002 A 
ATOM      4  C5  UNL d   1       1.130  -2.942  -1.161  0.00  0.00    -0.080 A 
ATOM      5  C6  UNL d   1       0.291  -4.171  -1.354  0.00  0.00     0.076 C 
ATOM      6  C7  UNL d   1       2.336  -3.024  -0.457  0.00  0.00     0.002 A 
ATOM      7  C8  UNL d   1       3.112  -1.882  -0.247  0.00  0.00     0.006 A 
ENDROOT
BRANCH   1   8
ATOM      8  C1  UNL d   1       3.505   0.601  -0.459  0.00  0.00     0.054 C 
ATOM      9  C   UNL d   1       4.774   0.641  -1.299  0.00  0.00     0.018 C 
ENDBRANCH   1   8
TORSDOF 1
ENDMDL
