MODEL 1
REMARK minimizedAffinity 11.4688301
REMARK minimizedRMSD -1
REMARK  1 active torsions:
REMARK  status: ('A' for Active; 'I' for Inactive)
REMARK    1  A    between atoms: C1_2  and  C2_3 
ROOT
ATOM      1  C2  UNL d   1      -4.360  -0.025  -2.312  0.00  0.00    -0.081 A 
ATOM      2  C3  UNL d   1      -5.065   1.039  -2.887  0.00  0.00     0.006 A 
ATOM      3  C4  UNL d   1      -4.608   1.637  -4.064  0.00  0.00     0.002 A 
ATOM      4  C5  UNL d   1      -3.445   1.177  -4.689  0.00  0.00    -0.080 A 
ATOM      5  C6  UNL d   1      -2.961   1.790  -5.970  0.00  0.00     0.076 C 
ATOM      6  C7  UNL d   1      -2.731   0.125  -4.106  0.00  0.00     0.002 A 
ATOM      7  C8  UNL d   1      -3.186  -0.473  -2.929  0.00  0.00     0.006 A 
ENDROOT
BRANCH   1   8
ATOM      8  C1  UNL d   1      -4.884  -0.715  -1.078  0.00  0.00     0.054 C 
ATOM      9  C   UNL d   1      -5.966   0.113  -0.400  0.00  0.00     0.018 C 
ENDBRANCH   1   8
TORSDOF 1
ENDMDL
