MODEL 1
REMARK minimizedAffinity 3.22994947
REMARK minimizedRMSD -1
REMARK  1 active torsions:
REMARK  status: ('A' for Active; 'I' for Inactive)
REMARK    1  A    between atoms: C1_2  and  C2_3 
ROOT
ATOM      1  C2  UNL d   1       0.840  -2.174  -1.078  0.00  0.00    -0.081 A 
ATOM      2  C3  UNL d   1       1.049  -0.878  -0.590  0.00  0.00     0.006 A 
ATOM      3  C4  UNL d   1       2.325  -0.310  -0.613  0.00  0.00     0.002 A 
ATOM      4  C5  UNL d   1       3.411  -1.024  -1.132  0.00  0.00    -0.080 A 
ATOM      5  C6  UNL d   1       4.780  -0.414  -1.191  0.00  0.00     0.076 C 
ATOM      6  C7  UNL d   1       3.205  -2.325  -1.604  0.00  0.00     0.002 A 
ATOM      7  C8  UNL d   1       1.930  -2.894  -1.580  0.00  0.00     0.006 A 
ENDROOT
BRANCH   1   8
ATOM      8  C1  UNL d   1      -0.546  -2.765  -1.113  0.00  0.00     0.054 C 
ATOM      9  C   UNL d   1      -1.345  -2.232  -2.294  0.00  0.00     0.018 C 
ENDBRANCH   1   8
TORSDOF 1
ENDMDL
