MODEL 1
REMARK minimizedAffinity 4.99196434
REMARK minimizedRMSD -1
REMARK  1 active torsions:
REMARK  status: ('A' for Active; 'I' for Inactive)
REMARK    1  A    between atoms: C1_2  and  C2_3 
ROOT
ATOM      1  C2  UNL d   1       1.473  -3.290  -0.916  0.00  0.00    -0.081 A 
ATOM      2  C3  UNL d   1       1.319  -2.273  -1.866  0.00  0.00     0.006 A 
ATOM      3  C4  UNL d   1       2.137  -1.141  -1.830  0.00  0.00     0.002 A 
ATOM      4  C5  UNL d   1       3.126  -1.010  -0.850  0.00  0.00    -0.080 A 
ATOM      5  C6  UNL d   1       4.031   0.186  -0.819  0.00  0.00     0.076 C 
ATOM      6  C7  UNL d   1       3.269  -2.018   0.110  0.00  0.00     0.002 A 
ATOM      7  C8  UNL d   1       2.452  -3.150   0.075  0.00  0.00     0.006 A 
ENDROOT
BRANCH   1   8
ATOM      8  C1  UNL d   1       0.637  -4.542  -0.991  0.00  0.00     0.054 C 
ATOM      9  C   UNL d   1      -0.770  -4.238  -1.486  0.00  0.00     0.018 C 
ENDBRANCH   1   8
TORSDOF 1
ENDMDL
