MODEL 1
REMARK minimizedAffinity 4.11853695
REMARK minimizedRMSD -1
REMARK  1 active torsions:
REMARK  status: ('A' for Active; 'I' for Inactive)
REMARK    1  A    between atoms: C1_2  and  C2_3 
ROOT
ATOM      1  C2  UNL d   1       5.245   2.378   0.150  0.00  0.00    -0.081 A 
ATOM      2  C3  UNL d   1       4.896   2.000  -1.152  0.00  0.00     0.006 A 
ATOM      3  C4  UNL d   1       4.145   0.844  -1.377  0.00  0.00     0.002 A 
ATOM      4  C5  UNL d   1       3.724   0.051  -0.304  0.00  0.00    -0.080 A 
ATOM      5  C6  UNL d   1       2.891  -1.176  -0.529  0.00  0.00     0.076 C 
ATOM      6  C7  UNL d   1       4.087   0.420   0.996  0.00  0.00     0.002 A 
ATOM      7  C8  UNL d   1       4.839   1.575   1.221  0.00  0.00     0.006 A 
ENDROOT
BRANCH   1   8
ATOM      8  C1  UNL d   1       6.000   3.659   0.400  0.00  0.00     0.054 C 
ATOM      9  C   UNL d   1       5.643   4.721  -0.630  0.00  0.00     0.018 C 
ENDBRANCH   1   8
TORSDOF 1
ENDMDL
