MODEL 1
REMARK minimizedAffinity -3.58522654
REMARK minimizedRMSD -1
REMARK  0 active torsions:
REMARK  status: ('A' for Active; 'I' for Inactive)
ROOT
ATOM      1  C4' PXY d   1      -0.527   1.482   3.231  0.00  0.00     0.077 C 
ATOM      2  C1' PXY d   1       0.815  -0.171  -2.143  0.00  0.00     0.077 C 
ATOM      3  C1  PXY d   1       0.474   0.258  -0.730  0.00  0.00    -0.082 A 
ATOM      4  C2  PXY d   1      -0.792   0.420  -0.382  0.00  0.00     0.003 A 
ATOM      5  C3  PXY d   1      -1.116   0.838   0.883  0.00  0.00     0.003 A 
ATOM      6  C4  PXY d   1      -0.137   1.041   1.817  0.00  0.00    -0.082 A 
ATOM      7  C5  PXY d   1       1.157   0.868   1.474  0.00  0.00     0.003 A 
ATOM      8  C6  PXY d   1       1.467   0.483   0.173  0.00  0.00     0.003 A 
ENDROOT
TORSDOF 0
ENDMDL
