MODEL 1
REMARK minimizedAffinity -3.14570427
REMARK minimizedRMSD -1
REMARK  0 active torsions:
REMARK  status: ('A' for Active; 'I' for Inactive)
ROOT
ATOM      1  C4' PXY d   1       0.611  -1.241  -1.924  0.00  0.00     0.077 C 
ATOM      2  C1' PXY d   1      -0.719   1.689   2.878  0.00  0.00     0.077 C 
ATOM      3  C1  PXY d   1      -0.382   0.916   1.619  0.00  0.00    -0.082 A 
ATOM      4  C2  PXY d   1       0.881   0.642   1.338  0.00  0.00     0.003 A 
ATOM      5  C3  PXY d   1       1.206  -0.029   0.187  0.00  0.00     0.003 A 
ATOM      6  C4  PXY d   1       0.224  -0.471  -0.658  0.00  0.00    -0.082 A 
ATOM      7  C5  PXY d   1      -1.069  -0.205  -0.373  0.00  0.00     0.003 A 
ATOM      8  C6  PXY d   1      -1.375   0.514   0.779  0.00  0.00     0.003 A 
ENDROOT
TORSDOF 0
ENDMDL
