MODEL 1
REMARK minimizedAffinity -4.68985415
REMARK minimizedRMSD -1
REMARK  0 active torsions:
REMARK  status: ('A' for Active; 'I' for Inactive)
ROOT
ATOM      1  C4' PXY d   1      -0.549   1.458   3.009  0.00  0.00     0.077 C 
ATOM      2  C1' PXY d   1       0.405  -1.057  -2.108  0.00  0.00     0.077 C 
ATOM      3  C1  PXY d   1       0.144  -0.393  -0.771  0.00  0.00    -0.082 A 
ATOM      4  C2  PXY d   1       1.161  -0.080   0.015  0.00  0.00     0.003 A 
ATOM      5  C3  PXY d   1       0.941   0.492   1.241  0.00  0.00     0.003 A 
ATOM      6  C4  PXY d   1      -0.332   0.795   1.646  0.00  0.00    -0.082 A 
ATOM      7  C5  PXY d   1      -1.375   0.488   0.846  0.00  0.00     0.003 A 
ATOM      8  C6  PXY d   1      -1.132  -0.129  -0.378  0.00  0.00     0.003 A 
ENDROOT
TORSDOF 0
ENDMDL
