MODEL 1
REMARK minimizedAffinity -4.54790735
REMARK minimizedRMSD -1
REMARK  0 active torsions:
REMARK  status: ('A' for Active; 'I' for Inactive)
ROOT
ATOM      1  C4' PXY d   1       0.734   0.476  -3.034  0.00  0.00     0.077 C 
ATOM      2  C1' PXY d   1      -1.093   1.284   2.390  0.00  0.00     0.077 C 
ATOM      3  C1  PXY d   1      -0.602   1.067   0.972  0.00  0.00    -0.082 A 
ATOM      4  C2  PXY d   1      -1.138   1.762  -0.018  0.00  0.00     0.003 A 
ATOM      5  C3  PXY d   1      -0.729   1.556  -1.311  0.00  0.00     0.003 A 
ATOM      6  C4  PXY d   1       0.276   0.668  -1.586  0.00  0.00    -0.082 A 
ATOM      7  C5  PXY d   1       0.835  -0.037  -0.580  0.00  0.00     0.003 A 
ATOM      8  C6  PXY d   1       0.377   0.157   0.720  0.00  0.00     0.003 A 
ENDROOT
TORSDOF 0
ENDMDL
