MODEL 1
REMARK minimizedAffinity -4.02048683
REMARK minimizedRMSD -1
REMARK  0 active torsions:
REMARK  status: ('A' for Active; 'I' for Inactive)
ROOT
ATOM      1  C4' PXY d   1       0.828   0.446  -2.905  0.00  0.00     0.077 C 
ATOM      2  C1' PXY d   1      -1.502   0.591   2.383  0.00  0.00     0.077 C 
ATOM      3  C1  PXY d   1      -0.881   0.546   1.001  0.00  0.00    -0.082 A 
ATOM      4  C2  PXY d   1      -1.178   1.486   0.119  0.00  0.00     0.003 A 
ATOM      5  C3  PXY d   1      -0.651   1.443  -1.146  0.00  0.00     0.003 A 
ATOM      6  C4  PXY d   1       0.232   0.457  -1.495  0.00  0.00    -0.082 A 
ATOM      7  C5  PXY d   1       0.549  -0.501  -0.597  0.00  0.00     0.003 A 
ATOM      8  C6  PXY d   1      -0.029  -0.462   0.668  0.00  0.00     0.003 A 
ENDROOT
TORSDOF 0
ENDMDL
