MODEL 1
REMARK minimizedAffinity -4.97609997
REMARK minimizedRMSD -1
REMARK  0 active torsions:
REMARK  status: ('A' for Active; 'I' for Inactive)
ROOT
ATOM      1  C4' PXY d   1      -0.871   1.603   2.414  0.00  0.00     0.077 C 
ATOM      2  C1' PXY d   1       1.430  -1.661  -1.766  0.00  0.00     0.077 C 
ATOM      3  C1  PXY d   1       0.834  -0.811  -0.661  0.00  0.00    -0.082 A 
ATOM      4  C2  PXY d   1      -0.349  -0.245  -0.837  0.00  0.00     0.003 A 
ATOM      5  C3  PXY d   1      -0.889   0.553   0.139  0.00  0.00     0.003 A 
ATOM      6  C4  PXY d   1      -0.235   0.729   1.329  0.00  0.00    -0.082 A 
ATOM      7  C5  PXY d   1       0.967   0.146   1.521  0.00  0.00     0.003 A 
ATOM      8  C6  PXY d   1       1.517  -0.626   0.501  0.00  0.00     0.003 A 
ENDROOT
TORSDOF 0
ENDMDL
