MODEL 1
REMARK minimizedAffinity -3.25681043
REMARK minimizedRMSD -1
REMARK  0 active torsions:
REMARK  status: ('A' for Active; 'I' for Inactive)
ROOT
ATOM      1  C4' PXY d   1       1.429  -0.103  -3.604  0.00  0.00     0.077 C 
ATOM      2  C1' PXY d   1       0.547  -0.072   2.109  0.00  0.00     0.077 C 
ATOM      3  C1  PXY d   1       0.768  -0.072   0.609  0.00  0.00    -0.082 A 
ATOM      4  C2  PXY d   1       1.336  -1.118   0.032  0.00  0.00     0.003 A 
ATOM      5  C3  PXY d   1       1.574  -1.120  -1.319  0.00  0.00     0.003 A 
ATOM      6  C4  PXY d   1       1.177  -0.064  -2.094  0.00  0.00    -0.082 A 
ATOM      7  C5  PXY d   1       0.587   1.003  -1.514  0.00  0.00     0.003 A 
ATOM      8  C6  PXY d   1       0.393   1.003  -0.136  0.00  0.00     0.003 A 
ENDROOT
TORSDOF 0
ENDMDL
