MODEL 1
REMARK minimizedAffinity -5.21994829
REMARK minimizedRMSD -1
REMARK  0 active torsions:
REMARK  status: ('A' for Active; 'I' for Inactive)
ROOT
ATOM      1  C4' PXY d   1      -0.006   1.255   4.156  0.00  0.00     0.077 C 
ATOM      2  C1' PXY d   1      -0.396  -1.234  -1.047  0.00  0.00     0.077 C 
ATOM      3  C1  PXY d   1      -0.305  -0.574   0.315  0.00  0.00    -0.082 A 
ATOM      4  C2  PXY d   1       0.859  -0.531   0.945  0.00  0.00     0.003 A 
ATOM      5  C3  PXY d   1       0.953   0.033   2.191  0.00  0.00     0.003 A 
ATOM      6  C4  PXY d   1      -0.144   0.607   2.776  0.00  0.00    -0.082 A 
ATOM      7  C5  PXY d   1      -1.332   0.578   2.135  0.00  0.00     0.003 A 
ATOM      8  C6  PXY d   1      -1.415  -0.036   0.889  0.00  0.00     0.003 A 
ENDROOT
TORSDOF 0
ENDMDL
