MODEL 1
REMARK minimizedAffinity 1.42377174
REMARK minimizedRMSD -1
REMARK  0 active torsions:
REMARK  status: ('A' for Active; 'I' for Inactive)
ROOT
ATOM      1  C   UNL d   1       3.008  -1.805   2.093  0.00  0.00     0.172 C 
ATOM      2  N   UNL d   1       2.428  -1.907   0.774  0.00  0.00    -0.070 N 
ATOM      3  C1  UNL d   1       1.618  -2.919   0.334  0.00  0.00    -0.004 A 
ATOM      4  C2  UNL d   1       1.277  -2.648  -0.973  0.00  0.00    -0.047 A 
ATOM      5  C3  UNL d   1       1.905  -1.432  -1.332  0.00  0.00    -0.047 A 
ATOM      6  C4  UNL d   1       2.612  -0.995  -0.232  0.00  0.00    -0.004 A 
ENDROOT
TORSDOF 0
ENDMDL
