MODEL 1
REMARK minimizedAffinity 1.53874195
REMARK minimizedRMSD -1
REMARK  0 active torsions:
REMARK  status: ('A' for Active; 'I' for Inactive)
ROOT
ATOM      1  C   UNL d   1      -3.114   1.111  -2.999  0.00  0.00     0.172 C 
ATOM      2  N   UNL d   1      -4.268   1.523  -2.235  0.00  0.00    -0.070 N 
ATOM      3  C1  UNL d   1      -4.825   0.831  -1.194  0.00  0.00    -0.004 A 
ATOM      4  C2  UNL d   1      -5.905   1.554  -0.735  0.00  0.00    -0.047 A 
ATOM      5  C3  UNL d   1      -6.000   2.722  -1.528  0.00  0.00    -0.047 A 
ATOM      6  C4  UNL d   1      -4.975   2.677  -2.449  0.00  0.00    -0.004 A 
ENDROOT
TORSDOF 0
ENDMDL
