MODEL 1
REMARK minimizedAffinity 4.1623559
REMARK minimizedRMSD -1
REMARK  0 active torsions:
REMARK  status: ('A' for Active; 'I' for Inactive)
ROOT
ATOM      1  C   UNL d   1       1.491   1.893   0.389  0.00  0.00     0.172 C 
ATOM      2  N   UNL d   1       0.673   1.694   1.562  0.00  0.00    -0.070 N 
ATOM      3  C1  UNL d   1      -0.508   2.334   1.830  0.00  0.00    -0.004 A 
ATOM      4  C2  UNL d   1      -0.975   1.869   3.040  0.00  0.00    -0.047 A 
ATOM      5  C3  UNL d   1      -0.042   0.917   3.517  0.00  0.00    -0.047 A 
ATOM      6  C4  UNL d   1       0.968   0.829   2.582  0.00  0.00    -0.004 A 
ENDROOT
TORSDOF 0
ENDMDL
