MODEL 1
REMARK minimizedAffinity 3.53857064
REMARK minimizedRMSD -1
REMARK  0 active torsions:
REMARK  status: ('A' for Active; 'I' for Inactive)
ROOT
ATOM      1  C   UNL d   1       1.571   1.508   0.193  0.00  0.00     0.172 C 
ATOM      2  N   UNL d   1       1.830   0.095   0.049  0.00  0.00    -0.070 N 
ATOM      3  C1  UNL d   1       3.055  -0.474  -0.176  0.00  0.00    -0.004 A 
ATOM      4  C2  UNL d   1       2.880  -1.839  -0.252  0.00  0.00    -0.047 A 
ATOM      5  C3  UNL d   1       1.502  -2.100  -0.067  0.00  0.00    -0.047 A 
ATOM      6  C4  UNL d   1       0.875  -0.885   0.117  0.00  0.00    -0.004 A 
ENDROOT
TORSDOF 0
ENDMDL
