MODEL 1
REMARK minimizedAffinity 2.89764118
REMARK minimizedRMSD -1
REMARK  0 active torsions:
REMARK  status: ('A' for Active; 'I' for Inactive)
ROOT
ATOM      1  C   UNL d   1       2.476   1.713   0.750  0.00  0.00     0.172 C 
ATOM      2  N   UNL d   1       2.744   0.294   0.746  0.00  0.00    -0.070 N 
ATOM      3  C1  UNL d   1       2.484  -0.565  -0.288  0.00  0.00    -0.004 A 
ATOM      4  C2  UNL d   1       2.882  -1.826   0.101  0.00  0.00    -0.047 A 
ATOM      5  C3  UNL d   1       3.398  -1.721   1.414  0.00  0.00    -0.047 A 
ATOM      6  C4  UNL d   1       3.300  -0.398   1.790  0.00  0.00    -0.004 A 
ENDROOT
TORSDOF 0
ENDMDL
