MODEL 1
REMARK minimizedAffinity 2.50601912
REMARK minimizedRMSD -1
REMARK  0 active torsions:
REMARK  status: ('A' for Active; 'I' for Inactive)
ROOT
ATOM      1  C   UNL d   1       1.847   1.258   0.421  0.00  0.00     0.172 C 
ATOM      2  N   UNL d   1       2.268  -0.116   0.565  0.00  0.00    -0.070 N 
ATOM      3  C1  UNL d   1       2.057  -1.115  -0.347  0.00  0.00    -0.004 A 
ATOM      4  C2  UNL d   1       2.609  -2.272   0.159  0.00  0.00    -0.047 A 
ATOM      5  C3  UNL d   1       3.170  -1.957   1.420  0.00  0.00    -0.047 A 
ATOM      6  C4  UNL d   1       2.945  -0.616   1.646  0.00  0.00    -0.004 A 
ENDROOT
TORSDOF 0
ENDMDL
