MODEL 1
REMARK minimizedAffinity 6.6920104
REMARK minimizedRMSD -1
REMARK  0 active torsions:
REMARK  status: ('A' for Active; 'I' for Inactive)
ROOT
ATOM      1  C   UNL d   1       1.905  -2.078   3.240  0.00  0.00     0.172 C 
ATOM      2  N   UNL d   1       2.335  -2.026   1.862  0.00  0.00    -0.070 N 
ATOM      3  C1  UNL d   1       1.707  -2.630   0.806  0.00  0.00    -0.004 A 
ATOM      4  C2  UNL d   1       2.426  -2.342  -0.334  0.00  0.00    -0.047 A 
ATOM      5  C3  UNL d   1       3.525  -1.538   0.051  0.00  0.00    -0.047 A 
ATOM      6  C4  UNL d   1       3.445  -1.358   1.416  0.00  0.00    -0.004 A 
ENDROOT
TORSDOF 0
ENDMDL
