MODEL 1
REMARK minimizedAffinity 0.547078669
REMARK minimizedRMSD -1
REMARK  0 active torsions:
REMARK  status: ('A' for Active; 'I' for Inactive)
ROOT
ATOM      1  C   UNL d   1      -3.014  -0.365  -0.894  0.00  0.00     0.172 C 
ATOM      2  N   UNL d   1      -4.217  -0.937  -0.334  0.00  0.00    -0.070 N 
ATOM      3  C1  UNL d   1      -4.914  -0.442   0.735  0.00  0.00    -0.004 A 
ATOM      4  C2  UNL d   1      -5.994  -1.269   0.955  0.00  0.00    -0.047 A 
ATOM      5  C3  UNL d   1      -5.943  -2.298  -0.016  0.00  0.00    -0.047 A 
ATOM      6  C4  UNL d   1      -4.833  -2.068  -0.801  0.00  0.00    -0.004 A 
ENDROOT
TORSDOF 0
ENDMDL
