MODEL 1
REMARK minimizedAffinity -1.96559715
REMARK minimizedRMSD -1
REMARK  0 active torsions:
REMARK  status: ('A' for Active; 'I' for Inactive)
ROOT
ATOM      1  C   UNL d   1       0.287  -0.705  -1.476  0.00  0.00     0.172 C 
ATOM      2  N   UNL d   1       1.671  -0.402  -1.199  0.00  0.00    -0.070 N 
ATOM      3  C1  UNL d   1       2.220   0.851  -1.146  0.00  0.00    -0.004 A 
ATOM      4  C2  UNL d   1       3.560   0.714  -0.855  0.00  0.00    -0.047 A 
ATOM      5  C3  UNL d   1       3.826  -0.670  -0.729  0.00  0.00    -0.047 A 
ATOM      6  C4  UNL d   1       2.639  -1.338  -0.947  0.00  0.00    -0.004 A 
ENDROOT
TORSDOF 0
ENDMDL
