MODEL 1
REMARK minimizedAffinity -2.44298148
REMARK minimizedRMSD -1
REMARK  1 active torsions:
REMARK  status: ('A' for Active; 'I' for Inactive)
REMARK    1  A    between atoms: C1_2  and  C2_3 
ROOT
ATOM      1  C2  UNL d   1       0.356   0.410   0.831  0.00  0.00    -0.081 A 
ATOM      2  C3  UNL d   1       1.596   0.164   0.229  0.00  0.00     0.006 A 
ATOM      3  C4  UNL d   1       1.663  -0.331  -1.076  0.00  0.00     0.002 A 
ATOM      4  C5  UNL d   1       0.494  -0.581  -1.801  0.00  0.00    -0.080 A 
ATOM      5  C6  UNL d   1       0.552  -1.085  -3.213  0.00  0.00     0.076 C 
ATOM      6  C7  UNL d   1      -0.745  -0.352  -1.193  0.00  0.00     0.002 A 
ATOM      7  C8  UNL d   1      -0.813   0.142   0.111  0.00  0.00     0.006 A 
ENDROOT
BRANCH   1   8
ATOM      8  C1  UNL d   1       0.281   1.006   2.214  0.00  0.00     0.054 C 
ATOM      9  C   UNL d   1      -1.008   0.608   2.919  0.00  0.00     0.018 C 
ENDBRANCH   1   8
TORSDOF 1
ENDMDL
