MODEL 1
REMARK minimizedAffinity 0.500802517
REMARK minimizedRMSD -1
REMARK  1 active torsions:
REMARK  status: ('A' for Active; 'I' for Inactive)
REMARK    1  A    between atoms: C1_2  and  C2_3 
ROOT
ATOM      1  C2  UNL d   1       1.153  -0.101  -2.375  0.00  0.00    -0.081 A 
ATOM      2  C3  UNL d   1      -0.235   0.003  -2.526  0.00  0.00     0.006 A 
ATOM      3  C4  UNL d   1      -1.087  -0.273  -1.454  0.00  0.00     0.002 A 
ATOM      4  C5  UNL d   1      -0.566  -0.650  -0.212  0.00  0.00    -0.080 A 
ATOM      5  C6  UNL d   1      -1.468  -0.920   0.956  0.00  0.00     0.076 C 
ATOM      6  C7  UNL d   1       0.820  -0.772  -0.065  0.00  0.00     0.002 A 
ATOM      7  C8  UNL d   1       1.672  -0.496  -1.137  0.00  0.00     0.006 A 
ENDROOT
BRANCH   1   8
ATOM      8  C1  UNL d   1       2.077   0.259  -3.510  0.00  0.00     0.054 C 
ATOM      9  C   UNL d   1       1.407   1.215  -4.487  0.00  0.00     0.018 C 
ENDBRANCH   1   8
TORSDOF 1
ENDMDL
