MODEL 1
REMARK minimizedAffinity -1.15273571
REMARK minimizedRMSD -1
REMARK  1 active torsions:
REMARK  status: ('A' for Active; 'I' for Inactive)
REMARK    1  A    between atoms: C1_2  and  C2_3 
ROOT
ATOM      1  C2  UNL d   1       0.227  -0.370  -1.016  0.00  0.00    -0.081 A 
ATOM      2  C3  UNL d   1      -1.062  -0.264  -0.480  0.00  0.00     0.006 A 
ATOM      3  C4  UNL d   1      -1.256   0.253   0.803  0.00  0.00     0.002 A 
ATOM      4  C5  UNL d   1      -0.165   0.681   1.568  0.00  0.00    -0.080 A 
ATOM      5  C6  UNL d   1      -0.361   1.266   2.935  0.00  0.00     0.076 C 
ATOM      6  C7  UNL d   1       1.125   0.559   1.039  0.00  0.00     0.002 A 
ATOM      7  C8  UNL d   1       1.319   0.041  -0.243  0.00  0.00     0.006 A 
ENDROOT
BRANCH   1   8
ATOM      8  C1  UNL d   1       0.433  -0.867  -2.424  0.00  0.00     0.054 C 
ATOM      9  C   UNL d   1       1.372   0.045  -3.201  0.00  0.00     0.018 C 
ENDBRANCH   1   8
TORSDOF 1
ENDMDL
