MODEL 1
REMARK minimizedAffinity -3.47886729
REMARK minimizedRMSD -1
REMARK  1 active torsions:
REMARK  status: ('A' for Active; 'I' for Inactive)
REMARK    1  A    between atoms: C1_2  and  C2_3 
ROOT
ATOM      1  C2  UNL d   1       0.658  -0.404  -0.576  0.00  0.00    -0.081 A 
ATOM      2  C3  UNL d   1       1.593  -0.114   0.426  0.00  0.00     0.006 A 
ATOM      3  C4  UNL d   1       1.209   0.587   1.571  0.00  0.00     0.002 A 
ATOM      4  C5  UNL d   1      -0.116   1.004   1.737  0.00  0.00    -0.080 A 
ATOM      5  C6  UNL d   1      -0.548   1.732   2.975  0.00  0.00     0.076 C 
ATOM      6  C7  UNL d   1      -1.046   0.731   0.728  0.00  0.00     0.002 A 
ATOM      7  C8  UNL d   1      -0.663   0.030  -0.417  0.00  0.00     0.006 A 
ENDROOT
BRANCH   1   8
ATOM      8  C1  UNL d   1       1.055  -1.217  -1.782  0.00  0.00     0.054 C 
ATOM      9  C   UNL d   1       0.772  -0.463  -3.074  0.00  0.00     0.018 C 
ENDBRANCH   1   8
TORSDOF 1
ENDMDL
