MODEL 1
REMARK minimizedAffinity -3.30850387
REMARK minimizedRMSD -1
REMARK  1 active torsions:
REMARK  status: ('A' for Active; 'I' for Inactive)
REMARK    1  A    between atoms: C1_2  and  C2_3 
ROOT
ATOM      1  C2  UNL d   1      -0.466   0.380   0.545  0.00  0.00    -0.081 A 
ATOM      2  C3  UNL d   1      -0.491   0.880   1.853  0.00  0.00     0.006 A 
ATOM      3  C4  UNL d   1      -1.536   0.547   2.719  0.00  0.00     0.002 A 
ATOM      4  C5  UNL d   1      -2.567  -0.297   2.294  0.00  0.00    -0.080 A 
ATOM      5  C6  UNL d   1      -3.678  -0.687   3.223  0.00  0.00     0.076 C 
ATOM      6  C7  UNL d   1      -2.552  -0.783   0.982  0.00  0.00     0.002 A 
ATOM      7  C8  UNL d   1      -1.508  -0.449   0.116  0.00  0.00     0.006 A 
ENDROOT
BRANCH   1   8
ATOM      8  C1  UNL d   1       0.692   0.686  -0.370  0.00  0.00     0.054 C 
ATOM      9  C   UNL d   1       0.465   0.110  -1.761  0.00  0.00     0.018 C 
ENDBRANCH   1   8
TORSDOF 1
ENDMDL
