MODEL 1
REMARK minimizedAffinity -0.743754864
REMARK minimizedRMSD -1
REMARK  1 active torsions:
REMARK  status: ('A' for Active; 'I' for Inactive)
REMARK    1  A    between atoms: C1_2  and  C2_3 
ROOT
ATOM      1  C2  UNL d   1      -1.178  -0.239   2.674  0.00  0.00    -0.081 A 
ATOM      2  C3  UNL d   1      -0.673   0.881   3.346  0.00  0.00     0.006 A 
ATOM      3  C4  UNL d   1       0.055   1.853   2.656  0.00  0.00     0.002 A 
ATOM      4  C5  UNL d   1       0.283   1.726   1.281  0.00  0.00    -0.080 A 
ATOM      5  C6  UNL d   1       1.037   2.777   0.523  0.00  0.00     0.076 C 
ATOM      6  C7  UNL d   1      -0.206   0.598   0.613  0.00  0.00     0.002 A 
ATOM      7  C8  UNL d   1      -0.933  -0.374   1.303  0.00  0.00     0.006 A 
ENDROOT
BRANCH   1   8
ATOM      8  C1  UNL d   1      -2.018  -1.256   3.403  0.00  0.00     0.054 C 
ATOM      9  C   UNL d   1      -3.500  -1.058   3.115  0.00  0.00     0.018 C 
ENDBRANCH   1   8
TORSDOF 1
ENDMDL
