MODEL 1
REMARK minimizedAffinity 1.77470195
REMARK minimizedRMSD -1
REMARK  0 active torsions:
REMARK  status: ('A' for Active; 'I' for Inactive)
ROOT
ATOM      1  C4' PXY d   1       3.339   5.629  -1.984  0.00  0.00     0.077 C 
ATOM      2  C1' PXY d   1       5.999   4.779   3.078  0.00  0.00     0.077 C 
ATOM      3  C1  PXY d   1       5.308   5.013   1.749  0.00  0.00    -0.082 A 
ATOM      4  C2  PXY d   1       4.123   4.470   1.523  0.00  0.00     0.003 A 
ATOM      5  C3  PXY d   1       3.498   4.645   0.315  0.00  0.00     0.003 A 
ATOM      6  C4  PXY d   1       4.069   5.427  -0.653  0.00  0.00    -0.082 A 
ATOM      7  C5  PXY d   1       5.274   5.993  -0.427  0.00  0.00     0.003 A 
ATOM      8  C6  PXY d   1       5.910   5.770   0.791  0.00  0.00     0.003 A 
ENDROOT
TORSDOF 0
ENDMDL
