MODEL 1
REMARK minimizedAffinity 16.4192677
REMARK minimizedRMSD -1
REMARK  0 active torsions:
REMARK  status: ('A' for Active; 'I' for Inactive)
ROOT
ATOM      1  C4' PXY d   1       0.055  -0.416  -5.440  0.00  0.00     0.077 C 
ATOM      2  C1' PXY d   1       2.314  -2.757  -0.662  0.00  0.00     0.077 C 
ATOM      3  C1  PXY d   1       1.721  -2.155  -1.920  0.00  0.00    -0.082 A 
ATOM      4  C2  PXY d   1       1.939  -0.880  -2.201  0.00  0.00     0.003 A 
ATOM      5  C3  PXY d   1       1.383  -0.312  -3.318  0.00  0.00     0.003 A 
ATOM      6  C4  PXY d   1       0.642  -1.068  -4.185  0.00  0.00    -0.082 A 
ATOM      7  C5  PXY d   1       0.424  -2.372  -3.911  0.00  0.00     0.003 A 
ATOM      8  C6  PXY d   1       0.962  -2.920  -2.751  0.00  0.00     0.003 A 
ENDROOT
TORSDOF 0
ENDMDL
