MODEL 1
REMARK minimizedAffinity 16.4369106
REMARK minimizedRMSD -1
REMARK  0 active torsions:
REMARK  status: ('A' for Active; 'I' for Inactive)
ROOT
ATOM      1  C4' PXY d   1       3.599   0.868  -3.035  0.00  0.00     0.077 C 
ATOM      2  C1' PXY d   1      -1.802   0.573  -0.997  0.00  0.00     0.077 C 
ATOM      3  C1  PXY d   1      -0.390   0.657  -1.542  0.00  0.00    -0.082 A 
ATOM      4  C2  PXY d   1       0.495  -0.269  -1.212  0.00  0.00     0.003 A 
ATOM      5  C3  PXY d   1       1.785  -0.191  -1.670  0.00  0.00     0.003 A 
ATOM      6  C4  PXY d   1       2.159   0.818  -2.517  0.00  0.00    -0.082 A 
ATOM      7  C5  PXY d   1       1.260   1.761  -2.867  0.00  0.00     0.003 A 
ATOM      8  C6  PXY d   1      -0.034   1.686  -2.358  0.00  0.00     0.003 A 
ENDROOT
TORSDOF 0
ENDMDL
