MODEL 1
REMARK minimizedAffinity 14.2645473
REMARK minimizedRMSD -1
REMARK  0 active torsions:
REMARK  status: ('A' for Active; 'I' for Inactive)
ROOT
ATOM      1  C4' PXY d   1      -4.473   4.050   1.532  0.00  0.00     0.077 C 
ATOM      2  C1' PXY d   1      -3.587  -0.934   4.324  0.00  0.00     0.077 C 
ATOM      3  C1  PXY d   1      -3.809   0.379   3.598  0.00  0.00    -0.082 A 
ATOM      4  C2  PXY d   1      -5.010   0.669   3.125  0.00  0.00     0.003 A 
ATOM      5  C3  PXY d   1      -5.221   1.837   2.438  0.00  0.00     0.003 A 
ATOM      6  C4  PXY d   1      -4.205   2.741   2.280  0.00  0.00    -0.082 A 
ATOM      7  C5  PXY d   1      -2.979   2.457   2.769  0.00  0.00     0.003 A 
ATOM      8  C6  PXY d   1      -2.776   1.247   3.428  0.00  0.00     0.003 A 
ENDROOT
TORSDOF 0
ENDMDL
