MODEL 1
REMARK minimizedAffinity 6.22112703
REMARK minimizedRMSD -1
REMARK  0 active torsions:
REMARK  status: ('A' for Active; 'I' for Inactive)
ROOT
ATOM      1  C4' PXY d   1       2.512   0.066  -1.064  0.00  0.00     0.077 C 
ATOM      2  C1' PXY d   1       0.241   2.569  -5.754  0.00  0.00     0.077 C 
ATOM      3  C1  PXY d   1       0.847   1.920  -4.525  0.00  0.00    -0.082 A 
ATOM      4  C2  PXY d   1       0.431   0.723  -4.145  0.00  0.00     0.003 A 
ATOM      5  C3  PXY d   1       0.945   0.135  -3.018  0.00  0.00     0.003 A 
ATOM      6  C4  PXY d   1       1.935   0.756  -2.303  0.00  0.00    -0.082 A 
ATOM      7  C5  PXY d   1       2.372   1.972  -2.691  0.00  0.00     0.003 A 
ATOM      8  C6  PXY d   1       1.808   2.570  -3.814  0.00  0.00     0.003 A 
ENDROOT
TORSDOF 0
ENDMDL
