MODEL 1
REMARK minimizedAffinity 13.2872105
REMARK minimizedRMSD -1
REMARK  0 active torsions:
REMARK  status: ('A' for Active; 'I' for Inactive)
ROOT
ATOM      1  C4' PXY d   1       5.827   0.005  -2.398  0.00  0.00     0.077 C 
ATOM      2  C1' PXY d   1       0.105   0.179  -1.596  0.00  0.00     0.077 C 
ATOM      3  C1  PXY d   1       1.607   0.128  -1.794  0.00  0.00    -0.082 A 
ATOM      4  C2  PXY d   1       2.174   0.911  -2.698  0.00  0.00     0.003 A 
ATOM      5  C3  PXY d   1       3.527   0.856  -2.912  0.00  0.00     0.003 A 
ATOM      6  C4  PXY d   1       4.315   0.029  -2.157  0.00  0.00    -0.082 A 
ATOM      7  C5  PXY d   1       3.745  -0.765  -1.226  0.00  0.00     0.003 A 
ATOM      8  C6  PXY d   1       2.365  -0.724  -1.052  0.00  0.00     0.003 A 
ENDROOT
TORSDOF 0
ENDMDL
