MODEL 1
REMARK minimizedAffinity 17.8431664
REMARK minimizedRMSD -1
REMARK  0 active torsions:
REMARK  status: ('A' for Active; 'I' for Inactive)
ROOT
ATOM      1  C4' PXY d   1      -3.383   6.000   6.000  0.00  0.00     0.077 C 
ATOM      2  C1' PXY d   1      -3.333   1.396   2.504  0.00  0.00     0.077 C 
ATOM      3  C1  PXY d   1      -3.359   2.606   3.417  0.00  0.00    -0.082 A 
ATOM      4  C2  PXY d   1      -2.220   3.170   3.788  0.00  0.00     0.003 A 
ATOM      5  C3  PXY d   1      -2.223   4.246   4.638  0.00  0.00     0.003 A 
ATOM      6  C4  PXY d   1      -3.406   4.782   5.072  0.00  0.00    -0.082 A 
ATOM      7  C5  PXY d   1      -4.572   4.220   4.690  0.00  0.00     0.003 A 
ATOM      8  C6  PXY d   1      -4.546   3.103   3.859  0.00  0.00     0.003 A 
ENDROOT
TORSDOF 0
ENDMDL
