MODEL 1
REMARK minimizedAffinity -0.748468518
REMARK minimizedRMSD -1
REMARK  0 active torsions:
REMARK  status: ('A' for Active; 'I' for Inactive)
ROOT
ATOM      1  C4' PXY d   1       3.405   0.326  -1.722  0.00  0.00     0.077 C 
ATOM      2  C1' PXY d   1      -1.098   3.517  -0.006  0.00  0.00     0.077 C 
ATOM      3  C1  PXY d   1       0.075   2.670  -0.457  0.00  0.00    -0.082 A 
ATOM      4  C2  PXY d   1       1.299   2.986  -0.067  0.00  0.00     0.003 A 
ATOM      5  C3  PXY d   1       2.374   2.250  -0.493  0.00  0.00     0.003 A 
ATOM      6  C4  PXY d   1       2.190   1.147  -1.282  0.00  0.00    -0.082 A 
ATOM      7  C5  PXY d   1       0.943   0.811  -1.676  0.00  0.00     0.003 A 
ATOM      8  C6  PXY d   1      -0.131   1.596  -1.267  0.00  0.00     0.003 A 
ENDROOT
TORSDOF 0
ENDMDL
