MODEL 1
REMARK minimizedAffinity 3.76341248
REMARK minimizedRMSD -1
REMARK  0 active torsions:
REMARK  status: ('A' for Active; 'I' for Inactive)
ROOT
ATOM      1  C4' PXY d   1       5.277  -5.998   5.992  0.00  0.00     0.077 C 
ATOM      2  C1' PXY d   1       4.505  -0.717   3.772  0.00  0.00     0.077 C 
ATOM      3  C1  PXY d   1       4.694  -2.104   4.355  0.00  0.00    -0.082 A 
ATOM      4  C2  PXY d   1       5.798  -2.385   5.028  0.00  0.00     0.003 A 
ATOM      5  C3  PXY d   1       6.000  -3.644   5.534  0.00  0.00     0.003 A 
ATOM      6  C4  PXY d   1       5.038  -4.608   5.395  0.00  0.00    -0.082 A 
ATOM      7  C5  PXY d   1       3.905  -4.326   4.719  0.00  0.00     0.003 A 
ATOM      8  C6  PXY d   1       3.737  -3.055   4.177  0.00  0.00     0.003 A 
ENDROOT
TORSDOF 0
ENDMDL
