MODEL 1
REMARK minimizedAffinity 15.5044079
REMARK minimizedRMSD -1
REMARK  0 active torsions:
REMARK  status: ('A' for Active; 'I' for Inactive)
ROOT
ATOM      1  C4' PXY d   1       5.998   5.648   2.326  0.00  0.00     0.077 C 
ATOM      2  C1' PXY d   1       2.499   4.304  -2.074  0.00  0.00     0.077 C 
ATOM      3  C1  PXY d   1       3.407   4.664  -0.915  0.00  0.00    -0.082 A 
ATOM      4  C2  PXY d   1       4.720   4.641  -1.081  0.00  0.00     0.003 A 
ATOM      5  C3  PXY d   1       5.556   4.932  -0.034  0.00  0.00     0.003 A 
ATOM      6  C4  PXY d   1       5.043   5.301   1.181  0.00  0.00    -0.082 A 
ATOM      7  C5  PXY d   1       3.705   5.337   1.355  0.00  0.00     0.003 A 
ATOM      8  C6  PXY d   1       2.873   4.998   0.291  0.00  0.00     0.003 A 
ENDROOT
TORSDOF 0
ENDMDL
