MODEL 1
REMARK minimizedAffinity 3.40365601
REMARK minimizedRMSD -1
REMARK  0 active torsions:
REMARK  status: ('A' for Active; 'I' for Inactive)
ROOT
ATOM      1  C4' PXY d   1       5.154   4.858   5.495  0.00  0.00     0.077 C 
ATOM      2  C1' PXY d   1       5.221   5.275  -0.270  0.00  0.00     0.077 C 
ATOM      3  C1  PXY d   1       5.215   5.171   1.242  0.00  0.00    -0.082 A 
ATOM      4  C2  PXY d   1       4.441   4.276   1.833  0.00  0.00     0.003 A 
ATOM      5  C3  PXY d   1       4.399   4.190   3.201  0.00  0.00     0.003 A 
ATOM      6  C4  PXY d   1       5.199   4.992   3.970  0.00  0.00    -0.082 A 
ATOM      7  C5  PXY d   1       6.000   5.900   3.374  0.00  0.00     0.003 A 
ATOM      8  C6  PXY d   1       5.997   6.000   1.986  0.00  0.00     0.003 A 
ENDROOT
TORSDOF 0
ENDMDL
