MODEL 1
REMARK minimizedAffinity 4.47825003
REMARK minimizedRMSD -1
REMARK  0 active torsions:
REMARK  status: ('A' for Active; 'I' for Inactive)
ROOT
ATOM      1  C4' PXY d   1       3.377   4.246  -5.993  0.00  0.00     0.077 C 
ATOM      2  C1' PXY d   1       0.671   0.691  -2.324  0.00  0.00     0.077 C 
ATOM      3  C1  PXY d   1       1.389   1.614  -3.290  0.00  0.00    -0.082 A 
ATOM      4  C2  PXY d   1       1.363   2.921  -3.087  0.00  0.00     0.003 A 
ATOM      5  C3  PXY d   1       1.980   3.772  -3.968  0.00  0.00     0.003 A 
ATOM      6  C4  PXY d   1       2.674   3.276  -5.039  0.00  0.00    -0.082 A 
ATOM      7  C5  PXY d   1       2.714   1.943  -5.247  0.00  0.00     0.003 A 
ATOM      8  C6  PXY d   1       2.047   1.099  -4.364  0.00  0.00     0.003 A 
ENDROOT
TORSDOF 0
ENDMDL
