MODEL 1
REMARK minimizedAffinity 8.3946867
REMARK minimizedRMSD -1
REMARK  0 active torsions:
REMARK  status: ('A' for Active; 'I' for Inactive)
ROOT
ATOM      1  C4' PXY d   1       2.711   4.857  -2.660  0.00  0.00     0.077 C 
ATOM      2  C1' PXY d   1       0.118  -0.299  -2.341  0.00  0.00     0.077 C 
ATOM      3  C1  PXY d   1       0.792   1.057  -2.414  0.00  0.00    -0.082 A 
ATOM      4  C2  PXY d   1       1.241   1.502  -3.576  0.00  0.00     0.003 A 
ATOM      5  C3  PXY d   1       1.882   2.712  -3.654  0.00  0.00     0.003 A 
ATOM      6  C4  PXY d   1       2.016   3.498  -2.541  0.00  0.00    -0.082 A 
ATOM      7  C5  PXY d   1       1.551   3.056  -1.354  0.00  0.00     0.003 A 
ATOM      8  C6  PXY d   1       0.941   1.806  -1.288  0.00  0.00     0.003 A 
ENDROOT
TORSDOF 0
ENDMDL
