MODEL 1
REMARK minimizedAffinity 2.66344452
REMARK minimizedRMSD -1
REMARK  0 active torsions:
REMARK  status: ('A' for Active; 'I' for Inactive)
ROOT
ATOM      1  C4' PXY d   1       0.618   3.012   0.571  0.00  0.00     0.077 C 
ATOM      2  C1' PXY d   1       1.726   1.343  -4.851  0.00  0.00     0.077 C 
ATOM      3  C1  PXY d   1       1.424   1.773  -3.429  0.00  0.00    -0.082 A 
ATOM      4  C2  PXY d   1       1.948   2.895  -2.961  0.00  0.00     0.003 A 
ATOM      5  C3  PXY d   1       1.711   3.283  -1.667  0.00  0.00     0.003 A 
ATOM      6  C4  PXY d   1       0.888   2.543  -0.861  0.00  0.00    -0.082 A 
ATOM      7  C5  PXY d   1       0.341   1.403  -1.336  0.00  0.00     0.003 A 
ATOM      8  C6  PXY d   1       0.627   1.005  -2.638  0.00  0.00     0.003 A 
ENDROOT
TORSDOF 0
ENDMDL
