MODEL 1
REMARK minimizedAffinity 8.56124592
REMARK minimizedRMSD -1
REMARK  0 active torsions:
REMARK  status: ('A' for Active; 'I' for Inactive)
ROOT
ATOM      1  C4' PXY d   1      -6.000  -0.381   1.608  0.00  0.00     0.077 C 
ATOM      2  C1' PXY d   1      -1.654  -0.466   5.418  0.00  0.00     0.077 C 
ATOM      3  C1  PXY d   1      -2.799  -0.433   4.425  0.00  0.00    -0.082 A 
ATOM      4  C2  PXY d   1      -3.172  -1.549   3.819  0.00  0.00     0.003 A 
ATOM      5  C3  PXY d   1      -4.184  -1.531   2.894  0.00  0.00     0.003 A 
ATOM      6  C4  PXY d   1      -4.856  -0.369   2.625  0.00  0.00    -0.082 A 
ATOM      7  C5  PXY d   1      -4.488   0.771   3.247  0.00  0.00     0.003 A 
ATOM      8  C6  PXY d   1      -3.431   0.740   4.152  0.00  0.00     0.003 A 
ENDROOT
TORSDOF 0
ENDMDL
