MODEL 1
REMARK minimizedAffinity 1.41695058
REMARK minimizedRMSD -1
REMARK  0 active torsions:
REMARK  status: ('A' for Active; 'I' for Inactive)
ROOT
ATOM      1  C4' PXY d   1       1.560  -1.416  -1.174  0.00  0.00     0.077 C 
ATOM      2  C1' PXY d   1       2.438   3.259  -4.458  0.00  0.00     0.077 C 
ATOM      3  C1  PXY d   1       2.198   2.039  -3.590  0.00  0.00    -0.082 A 
ATOM      4  C2  PXY d   1       3.178   1.172  -3.396  0.00  0.00     0.003 A 
ATOM      5  C3  PXY d   1       2.969   0.047  -2.641  0.00  0.00     0.003 A 
ATOM      6  C4  PXY d   1       1.760  -0.165  -2.034  0.00  0.00    -0.082 A 
ATOM      7  C5  PXY d   1       0.759   0.720  -2.219  0.00  0.00     0.003 A 
ATOM      8  C6  PXY d   1       0.979   1.835  -3.023  0.00  0.00     0.003 A 
ENDROOT
TORSDOF 0
ENDMDL
