MODEL 1
REMARK minimizedAffinity 5.76013327
REMARK minimizedRMSD -1
REMARK  0 active torsions:
REMARK  status: ('A' for Active; 'I' for Inactive)
ROOT
ATOM      1  C4' PXY d   1       0.691  -1.031  -1.961  0.00  0.00     0.077 C 
ATOM      2  C1' PXY d   1       2.804   3.926  -4.052  0.00  0.00     0.077 C 
ATOM      3  C1  PXY d   1       2.251   2.631  -3.491  0.00  0.00    -0.082 A 
ATOM      4  C2  PXY d   1       2.366   1.514  -4.191  0.00  0.00     0.003 A 
ATOM      5  C3  PXY d   1       1.843   0.340  -3.713  0.00  0.00     0.003 A 
ATOM      6  C4  PXY d   1       1.243   0.298  -2.484  0.00  0.00    -0.082 A 
ATOM      7  C5  PXY d   1       1.131   1.431  -1.759  0.00  0.00     0.003 A 
ATOM      8  C6  PXY d   1       1.632   2.621  -2.280  0.00  0.00     0.003 A 
ENDROOT
TORSDOF 0
ENDMDL
