MODEL 1
REMARK minimizedAffinity 4.69714642
REMARK minimizedRMSD -1
REMARK  0 active torsions:
REMARK  status: ('A' for Active; 'I' for Inactive)
ROOT
ATOM      1  C4' PXY d   1       3.931   4.507  -3.009  0.00  0.00     0.077 C 
ATOM      2  C1' PXY d   1       0.431  -0.091  -2.846  0.00  0.00     0.077 C 
ATOM      3  C1  PXY d   1       1.358   1.108  -2.896  0.00  0.00    -0.082 A 
ATOM      4  C2  PXY d   1       1.282   2.033  -1.953  0.00  0.00     0.003 A 
ATOM      5  C3  PXY d   1       2.090   3.139  -2.000  0.00  0.00     0.003 A 
ATOM      6  C4  PXY d   1       3.022   3.274  -2.994  0.00  0.00    -0.082 A 
ATOM      7  C5  PXY d   1       3.113   2.330  -3.954  0.00  0.00     0.003 A 
ATOM      8  C6  PXY d   1       2.255   1.235  -3.911  0.00  0.00     0.003 A 
ENDROOT
TORSDOF 0
ENDMDL
