MODEL 1
REMARK minimizedAffinity 11.9658594
REMARK minimizedRMSD -1
REMARK  0 active torsions:
REMARK  status: ('A' for Active; 'I' for Inactive)
ROOT
ATOM      1  C4' PXY d   1      -0.060  -2.475  -3.018  0.00  0.00     0.077 C 
ATOM      2  C1' PXY d   1       1.671   3.040  -3.006  0.00  0.00     0.077 C 
ATOM      3  C1  PXY d   1       1.212   1.595  -2.997  0.00  0.00    -0.082 A 
ATOM      4  C2  PXY d   1       1.801   0.717  -3.793  0.00  0.00     0.003 A 
ATOM      5  C3  PXY d   1       1.378  -0.587  -3.821  0.00  0.00     0.003 A 
ATOM      6  C4  PXY d   1       0.376  -1.008  -2.987  0.00  0.00    -0.082 A 
ATOM      7  C5  PXY d   1      -0.223  -0.120  -2.165  0.00  0.00     0.003 A 
ATOM      8  C6  PXY d   1       0.194   1.208  -2.182  0.00  0.00     0.003 A 
ENDROOT
TORSDOF 0
ENDMDL
