MODEL 1
REMARK minimizedAffinity 9.57551861
REMARK minimizedRMSD -1
REMARK  0 active torsions:
REMARK  status: ('A' for Active; 'I' for Inactive)
ROOT
ATOM      1  C   UNL d   1      -0.822  -5.976  -4.647  0.00  0.00     0.124 A 
ATOM      2  C1  UNL d   1      -2.204  -5.982  -4.774  0.00  0.00     0.062 A 
ATOM      3  C2  UNL d   1      -3.011  -5.989  -3.639  0.00  0.00     0.162 A 
ATOM      4  C3  UNL d   1      -2.437  -5.989  -2.368  0.00  0.00    -0.034 A 
ATOM      5  C4  UNL d   1      -1.046  -5.984  -2.249  0.00  0.00     0.162 A 
ATOM      6  C5  UNL d   1      -0.245  -5.977  -3.385  0.00  0.00     0.062 A 
ATOM      7  F   UNL d   1       1.091  -5.971  -3.261  0.00  0.00    -0.097 F 
ATOM      8  F1  UNL d   1      -0.462  -5.984  -1.041  0.00  0.00    -0.096 F 
ATOM      9  I   UNL d   1      -3.640  -6.000  -0.669  0.00  0.00    -0.060 I 
ATOM     10  F2  UNL d   1      -4.344  -5.995  -3.791  0.00  0.00    -0.096 F 
ATOM     11  F3  UNL d   1      -2.765  -5.982  -5.992  0.00  0.00    -0.097 F 
ATOM     12  F4  UNL d   1      -0.048  -5.970  -5.740  0.00  0.00    -0.092 F 
ENDROOT
TORSDOF 0
ENDMDL
