MODEL 1
REMARK minimizedAffinity 5.99957561
REMARK minimizedRMSD -1
REMARK  0 active torsions:
REMARK  status: ('A' for Active; 'I' for Inactive)
ROOT
ATOM      1  C   UNL d   1      -4.223  -5.763  -2.404  0.00  0.00     0.124 A 
ATOM      2  C1  UNL d   1      -2.900  -5.643  -2.002  0.00  0.00     0.062 A 
ATOM      3  C2  UNL d   1      -1.879  -5.641  -2.949  0.00  0.00     0.162 A 
ATOM      4  C3  UNL d   1      -2.177  -5.760  -4.306  0.00  0.00    -0.034 A 
ATOM      5  C4  UNL d   1      -3.510  -5.881  -4.702  0.00  0.00     0.162 A 
ATOM      6  C5  UNL d   1      -4.527  -5.882  -3.752  0.00  0.00     0.062 A 
ATOM      7  F   UNL d   1      -5.805  -5.998  -4.142  0.00  0.00    -0.097 F 
ATOM      8  F1  UNL d   1      -3.833  -5.997  -5.999  0.00  0.00    -0.096 F 
ATOM      9  I   UNL d   1      -0.654  -5.758  -5.724  0.00  0.00    -0.060 I 
ATOM     10  F2  UNL d   1      -0.609  -5.524  -2.533  0.00  0.00    -0.096 F 
ATOM     11  F3  UNL d   1      -2.603  -5.528  -0.700  0.00  0.00    -0.097 F 
ATOM     12  F4  UNL d   1      -5.203  -5.765  -1.491  0.00  0.00    -0.092 F 
ENDROOT
TORSDOF 0
ENDMDL
