MODEL 1
REMARK minimizedAffinity 12.6054516
REMARK minimizedRMSD -1
REMARK  0 active torsions:
REMARK  status: ('A' for Active; 'I' for Inactive)
ROOT
ATOM      1  C   UNL d   1      -2.854  -5.851  -2.361  0.00  0.00     0.124 A 
ATOM      2  C1  UNL d   1      -3.288  -5.898  -3.678  0.00  0.00     0.062 A 
ATOM      3  C2  UNL d   1      -2.365  -5.940  -4.719  0.00  0.00     0.162 A 
ATOM      4  C3  UNL d   1      -0.997  -5.935  -4.447  0.00  0.00    -0.034 A 
ATOM      5  C4  UNL d   1      -0.568  -5.886  -3.119  0.00  0.00     0.162 A 
ATOM      6  C5  UNL d   1      -1.494  -5.844  -2.083  0.00  0.00     0.062 A 
ATOM      7  F   UNL d   1      -1.073  -5.798  -0.811  0.00  0.00    -0.097 F 
ATOM      8  F1  UNL d   1       0.740  -5.880  -2.822  0.00  0.00    -0.096 F 
ATOM      9  I   UNL d   1       0.387  -5.996  -6.000  0.00  0.00    -0.060 I 
ATOM     10  F2  UNL d   1      -2.813  -5.985  -5.982  0.00  0.00    -0.096 F 
ATOM     11  F3  UNL d   1      -4.601  -5.903  -3.950  0.00  0.00    -0.097 F 
ATOM     12  F4  UNL d   1      -3.745  -5.810  -1.362  0.00  0.00    -0.092 F 
ENDROOT
TORSDOF 0
ENDMDL
