MODEL 1
REMARK minimizedAffinity 14.2535448
REMARK minimizedRMSD -1
REMARK  0 active torsions:
REMARK  status: ('A' for Active; 'I' for Inactive)
ROOT
ATOM      1  C   UNL d   1      -2.551  -5.990  -3.608  0.00  0.00     0.124 A 
ATOM      2  C1  UNL d   1      -1.965  -5.982  -2.351  0.00  0.00     0.062 A 
ATOM      3  C2  UNL d   1      -0.579  -5.975  -2.225  0.00  0.00     0.162 A 
ATOM      4  C3  UNL d   1       0.231  -5.974  -3.361  0.00  0.00    -0.034 A 
ATOM      5  C4  UNL d   1      -0.366  -5.983  -4.622  0.00  0.00     0.162 A 
ATOM      6  C5  UNL d   1      -1.752  -5.990  -4.743  0.00  0.00     0.062 A 
ATOM      7  F   UNL d   1      -2.317  -5.998  -5.959  0.00  0.00    -0.097 F 
ATOM      8  F1  UNL d   1       0.382  -5.983  -5.735  0.00  0.00    -0.096 F 
ATOM      9  I   UNL d   1       2.304  -5.963  -3.177  0.00  0.00    -0.060 I 
ATOM     10  F2  UNL d   1      -0.039  -5.967  -0.997  0.00  0.00    -0.096 F 
ATOM     11  F3  UNL d   1      -2.735  -5.983  -1.253  0.00  0.00    -0.097 F 
ATOM     12  F4  UNL d   1      -3.885  -5.998  -3.726  0.00  0.00    -0.092 F 
ENDROOT
TORSDOF 0
ENDMDL
