MODEL 1
REMARK minimizedAffinity 7.94230938
REMARK minimizedRMSD -1
REMARK  0 active torsions:
REMARK  status: ('A' for Active; 'I' for Inactive)
ROOT
ATOM      1  C   UNL d   1      -1.872   3.724  -4.570  0.00  0.00     0.124 A 
ATOM      2  C1  UNL d   1      -0.579   4.095  -4.229  0.00  0.00     0.062 A 
ATOM      3  C2  UNL d   1       0.090   3.438  -3.201  0.00  0.00     0.162 A 
ATOM      4  C3  UNL d   1      -0.532   2.401  -2.506  0.00  0.00    -0.034 A 
ATOM      5  C4  UNL d   1      -1.834   2.034  -2.853  0.00  0.00     0.162 A 
ATOM      6  C5  UNL d   1      -2.498   2.694  -3.882  0.00  0.00     0.062 A 
ATOM      7  F   UNL d   1      -3.748   2.333  -4.209  0.00  0.00    -0.097 F 
ATOM      8  F1  UNL d   1      -2.462   1.042  -2.205  0.00  0.00    -0.096 F 
ATOM      9  I   UNL d   1       0.465   1.416  -0.967  0.00  0.00    -0.060 I 
ATOM     10  F2  UNL d   1       1.339   3.818  -2.893  0.00  0.00    -0.096 F 
ATOM     11  F3  UNL d   1       0.028   5.090  -4.892  0.00  0.00    -0.097 F 
ATOM     12  F4  UNL d   1      -2.514   4.358  -5.559  0.00  0.00    -0.092 F 
ENDROOT
TORSDOF 0
ENDMDL
