MODEL 1
REMARK minimizedAffinity 2.00952005
REMARK minimizedRMSD -1
REMARK  0 active torsions:
REMARK  status: ('A' for Active; 'I' for Inactive)
ROOT
ATOM      1  C   UNL d   1      -3.140  -5.448  -2.415  0.00  0.00     0.124 A 
ATOM      2  C1  UNL d   1      -3.443  -5.658  -3.753  0.00  0.00     0.062 A 
ATOM      3  C2  UNL d   1      -2.423  -5.783  -4.691  0.00  0.00     0.162 A 
ATOM      4  C3  UNL d   1      -1.088  -5.700  -4.294  0.00  0.00    -0.034 A 
ATOM      5  C4  UNL d   1      -0.791  -5.488  -2.946  0.00  0.00     0.162 A 
ATOM      6  C5  UNL d   1      -1.815  -5.363  -2.013  0.00  0.00     0.062 A 
ATOM      7  F   UNL d   1      -1.520  -5.161  -0.720  0.00  0.00    -0.097 F 
ATOM      8  F1  UNL d   1       0.481  -5.403  -2.530  0.00  0.00    -0.096 F 
ATOM      9  I   UNL d   1       0.442  -5.887  -5.693  0.00  0.00    -0.060 I 
ATOM     10  F2  UNL d   1      -2.745  -5.985  -5.977  0.00  0.00    -0.096 F 
ATOM     11  F3  UNL d   1      -4.723  -5.739  -4.145  0.00  0.00    -0.097 F 
ATOM     12  F4  UNL d   1      -4.125  -5.327  -1.515  0.00  0.00    -0.092 F 
ENDROOT
TORSDOF 0
ENDMDL
