MODEL 1
REMARK minimizedAffinity 23.773428
REMARK minimizedRMSD -1
REMARK  0 active torsions:
REMARK  status: ('A' for Active; 'I' for Inactive)
ROOT
ATOM      1  C   UNL d   1      -0.113   3.182  -3.655  0.00  0.00     0.124 A 
ATOM      2  C1  UNL d   1      -0.043   1.909  -3.106  0.00  0.00     0.062 A 
ATOM      3  C2  UNL d   1      -1.205   1.172  -2.896  0.00  0.00     0.162 A 
ATOM      4  C3  UNL d   1      -2.448   1.705  -3.237  0.00  0.00    -0.034 A 
ATOM      5  C4  UNL d   1      -2.510   2.986  -3.788  0.00  0.00     0.162 A 
ATOM      6  C5  UNL d   1      -1.346   3.719  -3.996  0.00  0.00     0.062 A 
ATOM      7  F   UNL d   1      -1.416   4.948  -4.527  0.00  0.00    -0.097 F 
ATOM      8  F1  UNL d   1      -3.689   3.530  -4.127  0.00  0.00    -0.096 F 
ATOM      9  I   UNL d   1      -4.187   0.606  -2.925  0.00  0.00    -0.060 I 
ATOM     10  F2  UNL d   1      -1.107  -0.055  -2.363  0.00  0.00    -0.096 F 
ATOM     11  F3  UNL d   1       1.148   1.388  -2.775  0.00  0.00    -0.097 F 
ATOM     12  F4  UNL d   1       1.007   3.889  -3.855  0.00  0.00    -0.092 F 
ENDROOT
TORSDOF 0
ENDMDL
