MODEL 1
REMARK minimizedAffinity 13.6136599
REMARK minimizedRMSD -1
REMARK  0 active torsions:
REMARK  status: ('A' for Active; 'I' for Inactive)
ROOT
ATOM      1  C   UNL d   1      -0.434  -5.966  -4.696  0.00  0.00     0.124 A 
ATOM      2  C1  UNL d   1      -1.819  -5.978  -4.793  0.00  0.00     0.062 A 
ATOM      3  C2  UNL d   1      -2.602  -5.988  -3.643  0.00  0.00     0.162 A 
ATOM      4  C3  UNL d   1      -2.002  -5.984  -2.383  0.00  0.00    -0.034 A 
ATOM      5  C4  UNL d   1      -0.609  -5.972  -2.293  0.00  0.00     0.162 A 
ATOM      6  C5  UNL d   1       0.169  -5.962  -3.446  0.00  0.00     0.062 A 
ATOM      7  F   UNL d   1       1.507  -5.950  -3.350  0.00  0.00    -0.097 F 
ATOM      8  F1  UNL d   1       0.000  -5.967  -1.098  0.00  0.00    -0.096 F 
ATOM      9  I   UNL d   1      -3.169  -5.998  -0.660  0.00  0.00    -0.060 I 
ATOM     10  F2  UNL d   1      -3.937  -6.000  -3.767  0.00  0.00    -0.096 F 
ATOM     11  F3  UNL d   1      -2.404  -5.982  -6.000  0.00  0.00    -0.097 F 
ATOM     12  F4  UNL d   1       0.317  -5.958  -5.805  0.00  0.00    -0.092 F 
ENDROOT
TORSDOF 0
ENDMDL
