MODEL 1
REMARK minimizedAffinity 13.0668325
REMARK minimizedRMSD -1
REMARK  0 active torsions:
REMARK  status: ('A' for Active; 'I' for Inactive)
ROOT
ATOM      1  C   UNL d   1      -0.315  -3.098   2.547  0.00  0.00     0.124 A 
ATOM      2  C1  UNL d   1       0.504  -2.260   3.291  0.00  0.00     0.062 A 
ATOM      3  C2  UNL d   1       1.059  -1.125   2.707  0.00  0.00     0.162 A 
ATOM      4  C3  UNL d   1       0.798  -0.821   1.371  0.00  0.00    -0.034 A 
ATOM      5  C4  UNL d   1      -0.025  -1.670   0.629  0.00  0.00     0.162 A 
ATOM      6  C5  UNL d   1      -0.579  -2.803   1.217  0.00  0.00     0.062 A 
ATOM      7  F   UNL d   1      -1.369  -3.611   0.497  0.00  0.00    -0.097 F 
ATOM      8  F1  UNL d   1      -0.298  -1.408  -0.658  0.00  0.00    -0.096 F 
ATOM      9  I   UNL d   1       1.627   0.874   0.494  0.00  0.00    -0.060 I 
ATOM     10  F2  UNL d   1       1.847  -0.333   3.450  0.00  0.00    -0.096 F 
ATOM     11  F3  UNL d   1       0.761  -2.543   4.576  0.00  0.00    -0.097 F 
ATOM     12  F4  UNL d   1      -0.848  -4.190   3.111  0.00  0.00    -0.092 F 
ENDROOT
TORSDOF 0
ENDMDL
