MODEL 1
REMARK minimizedAffinity 5.80325556
REMARK minimizedRMSD -1
REMARK  0 active torsions:
REMARK  status: ('A' for Active; 'I' for Inactive)
ROOT
ATOM      1  C   UNL d   1      -0.506   3.588  -2.731  0.00  0.00     0.124 A 
ATOM      2  C1  UNL d   1       0.049   2.429  -3.255  0.00  0.00     0.062 A 
ATOM      3  C2  UNL d   1       0.551   1.447  -2.406  0.00  0.00     0.162 A 
ATOM      4  C3  UNL d   1       0.500   1.620  -1.022  0.00  0.00    -0.034 A 
ATOM      5  C4  UNL d   1      -0.059   2.789  -0.503  0.00  0.00     0.162 A 
ATOM      6  C5  UNL d   1      -0.559   3.767  -1.356  0.00  0.00     0.062 A 
ATOM      7  F   UNL d   1      -1.095   4.887  -0.847  0.00  0.00    -0.097 F 
ATOM      8  F1  UNL d   1      -0.124   2.988   0.822  0.00  0.00    -0.096 F 
ATOM      9  I   UNL d   1       1.250   0.155   0.251  0.00  0.00    -0.060 I 
ATOM     10  F2  UNL d   1       1.082   0.337  -2.940  0.00  0.00    -0.096 F 
ATOM     11  F3  UNL d   1       0.103   2.254  -4.583  0.00  0.00    -0.097 F 
ATOM     12  F4  UNL d   1      -0.988   4.532  -3.550  0.00  0.00    -0.092 F 
ENDROOT
TORSDOF 0
ENDMDL
