MODEL 1
REMARK minimizedAffinity 4.48777103
REMARK minimizedRMSD -1
REMARK  0 active torsions:
REMARK  status: ('A' for Active; 'I' for Inactive)
ROOT
ATOM      1  C   UNL d   1      -2.835  -5.937  -3.610  0.00  0.00     0.124 A 
ATOM      2  C1  UNL d   1      -2.143  -5.932  -4.813  0.00  0.00     0.062 A 
ATOM      3  C2  UNL d   1      -0.751  -5.948  -4.820  0.00  0.00     0.162 A 
ATOM      4  C3  UNL d   1      -0.042  -5.970  -3.619  0.00  0.00    -0.034 A 
ATOM      5  C4  UNL d   1      -0.745  -5.974  -2.413  0.00  0.00     0.162 A 
ATOM      6  C5  UNL d   1      -2.136  -5.958  -2.411  0.00  0.00     0.062 A 
ATOM      7  F   UNL d   1      -2.802  -5.962  -1.248  0.00  0.00    -0.097 F 
ATOM      8  F1  UNL d   1      -0.094  -5.994  -1.241  0.00  0.00    -0.096 F 
ATOM      9  I   UNL d   1       2.039  -5.994  -3.626  0.00  0.00    -0.060 I 
ATOM     10  F2  UNL d   1      -0.109  -5.943  -5.997  0.00  0.00    -0.096 F 
ATOM     11  F3  UNL d   1      -2.817  -5.911  -5.972  0.00  0.00    -0.097 F 
ATOM     12  F4  UNL d   1      -4.174  -5.921  -3.606  0.00  0.00    -0.092 F 
ENDROOT
TORSDOF 0
ENDMDL
