MODEL 1
REMARK minimizedAffinity 6.24417782
REMARK minimizedRMSD -1
REMARK  0 active torsions:
REMARK  status: ('A' for Active; 'I' for Inactive)
ROOT
ATOM      1  C   UNL d   1       0.663  -5.997  -3.635  0.00  0.00     0.124 A 
ATOM      2  C1  UNL d   1       0.021  -5.998  -2.405  0.00  0.00     0.062 A 
ATOM      3  C2  UNL d   1      -1.370  -5.999  -2.341  0.00  0.00     0.162 A 
ATOM      4  C3  UNL d   1      -2.128  -5.999  -3.512  0.00  0.00    -0.034 A 
ATOM      5  C4  UNL d   1      -1.475  -5.997  -4.745  0.00  0.00     0.162 A 
ATOM      6  C5  UNL d   1      -0.085  -5.996  -4.804  0.00  0.00     0.062 A 
ATOM      7  F   UNL d   1       0.534  -5.995  -5.994  0.00  0.00    -0.097 F 
ATOM      8  F1  UNL d   1      -2.173  -5.997  -5.891  0.00  0.00    -0.096 F 
ATOM      9  I   UNL d   1      -4.207  -6.000  -3.420  0.00  0.00    -0.060 I 
ATOM     10  F2  UNL d   1      -1.964  -6.000  -1.138  0.00  0.00    -0.096 F 
ATOM     11  F3  UNL d   1       0.741  -5.998  -1.274  0.00  0.00    -0.097 F 
ATOM     12  F4  UNL d   1       2.001  -5.995  -3.694  0.00  0.00    -0.092 F 
ENDROOT
TORSDOF 0
ENDMDL
