MODEL 1
REMARK minimizedAffinity 12.6228752
REMARK minimizedRMSD -1
REMARK  0 active torsions:
REMARK  status: ('A' for Active; 'I' for Inactive)
ROOT
ATOM      1  C   UNL d   1       0.313  -1.732   0.722  0.00  0.00     0.124 A 
ATOM      2  C1  UNL d   1       1.134  -0.939   1.513  0.00  0.00     0.062 A 
ATOM      3  C2  UNL d   1       1.160  -1.119   2.893  0.00  0.00     0.162 A 
ATOM      4  C3  UNL d   1       0.364  -2.096   3.491  0.00  0.00    -0.034 A 
ATOM      5  C4  UNL d   1      -0.459  -2.889   2.689  0.00  0.00     0.162 A 
ATOM      6  C5  UNL d   1      -0.482  -2.705   1.310  0.00  0.00     0.062 A 
ATOM      7  F   UNL d   1      -1.275  -3.472   0.547  0.00  0.00    -0.097 F 
ATOM      8  F1  UNL d   1      -1.236  -3.837   3.231  0.00  0.00    -0.096 F 
ATOM      9  I   UNL d   1       0.401  -2.368   5.554  0.00  0.00    -0.060 I 
ATOM     10  F2  UNL d   1       1.962  -0.339   3.633  0.00  0.00    -0.096 F 
ATOM     11  F3  UNL d   1       1.902   0.002   0.947  0.00  0.00    -0.097 F 
ATOM     12  F4  UNL d   1       0.289  -1.556  -0.605  0.00  0.00    -0.092 F 
ENDROOT
TORSDOF 0
ENDMDL
