MODEL 1
REMARK minimizedAffinity 7.40408611
REMARK minimizedRMSD -1
REMARK  0 active torsions:
REMARK  status: ('A' for Active; 'I' for Inactive)
ROOT
ATOM      1  C   UNL d   1      -2.085  -5.968  -1.473  0.00  0.00     0.124 A 
ATOM      2  C1  UNL d   1      -0.712  -5.959  -1.673  0.00  0.00     0.062 A 
ATOM      3  C2  UNL d   1      -0.192  -5.957  -2.964  0.00  0.00     0.162 A 
ATOM      4  C3  UNL d   1      -1.047  -5.962  -4.067  0.00  0.00    -0.034 A 
ATOM      5  C4  UNL d   1      -2.427  -5.972  -3.858  0.00  0.00     0.162 A 
ATOM      6  C5  UNL d   1      -2.941  -5.975  -2.565  0.00  0.00     0.062 A 
ATOM      7  F   UNL d   1      -4.269  -5.984  -2.374  0.00  0.00    -0.097 F 
ATOM      8  F1  UNL d   1      -3.278  -5.978  -4.895  0.00  0.00    -0.096 F 
ATOM      9  I   UNL d   1      -0.274  -5.958  -5.999  0.00  0.00    -0.060 I 
ATOM     10  F2  UNL d   1       1.139  -5.948  -3.128  0.00  0.00    -0.096 F 
ATOM     11  F3  UNL d   1       0.118  -5.954  -0.620  0.00  0.00    -0.097 F 
ATOM     12  F4  UNL d   1      -2.582  -5.972  -0.229  0.00  0.00    -0.092 F 
ENDROOT
TORSDOF 0
ENDMDL
