MODEL 1
REMARK minimizedAffinity 21.7075176
REMARK minimizedRMSD -1
REMARK  0 active torsions:
REMARK  status: ('A' for Active; 'I' for Inactive)
ROOT
ATOM      1  C   UNL d   1       0.362   3.350  -3.452  0.00  0.00     0.124 A 
ATOM      2  C1  UNL d   1      -0.685   4.067  -4.013  0.00  0.00     0.062 A 
ATOM      3  C2  UNL d   1      -1.974   3.541  -4.009  0.00  0.00     0.162 A 
ATOM      4  C3  UNL d   1      -2.223   2.292  -3.442  0.00  0.00    -0.034 A 
ATOM      5  C4  UNL d   1      -1.164   1.576  -2.880  0.00  0.00     0.162 A 
ATOM      6  C5  UNL d   1       0.122   2.106  -2.886  0.00  0.00     0.062 A 
ATOM      7  F   UNL d   1       1.133   1.411  -2.343  0.00  0.00    -0.097 F 
ATOM      8  F1  UNL d   1      -1.369   0.372  -2.326  0.00  0.00    -0.096 F 
ATOM      9  I   UNL d   1      -4.149   1.503  -3.434  0.00  0.00    -0.060 I 
ATOM     10  F2  UNL d   1      -2.967   4.256  -4.559  0.00  0.00    -0.096 F 
ATOM     11  F3  UNL d   1      -0.455   5.269  -4.561  0.00  0.00    -0.097 F 
ATOM     12  F4  UNL d   1       1.602   3.857  -3.457  0.00  0.00    -0.092 F 
ENDROOT
TORSDOF 0
ENDMDL
