MODEL 1
REMARK minimizedAffinity 9.28157997
REMARK minimizedRMSD -1
REMARK  0 active torsions:
REMARK  status: ('A' for Active; 'I' for Inactive)
ROOT
ATOM      1  C   UNL d   1      -2.695  -5.992  -2.423  0.00  0.00     0.124 A 
ATOM      2  C1  UNL d   1      -1.419  -5.989  -1.877  0.00  0.00     0.062 A 
ATOM      3  C2  UNL d   1      -0.302  -5.989  -2.708  0.00  0.00     0.162 A 
ATOM      4  C3  UNL d   1      -0.456  -5.989  -4.094  0.00  0.00    -0.034 A 
ATOM      5  C4  UNL d   1      -1.743  -5.993  -4.636  0.00  0.00     0.162 A 
ATOM      6  C5  UNL d   1      -2.856  -5.993  -3.802  0.00  0.00     0.062 A 
ATOM      7  F   UNL d   1      -4.088  -5.996  -4.331  0.00  0.00    -0.097 F 
ATOM      8  F1  UNL d   1      -1.927  -5.993  -5.965  0.00  0.00    -0.096 F 
ATOM      9  I   UNL d   1       1.211  -5.988  -5.340  0.00  0.00    -0.060 I 
ATOM     10  F2  UNL d   1       0.919  -5.986  -2.153  0.00  0.00    -0.096 F 
ATOM     11  F3  UNL d   1      -1.261  -5.989  -0.546  0.00  0.00    -0.097 F 
ATOM     12  F4  UNL d   1      -3.768  -5.994  -1.622  0.00  0.00    -0.092 F 
ENDROOT
TORSDOF 0
ENDMDL
