MODEL 1
REMARK minimizedAffinity 3.59333992
REMARK minimizedRMSD -1
REMARK  0 active torsions:
REMARK  status: ('A' for Active; 'I' for Inactive)
ROOT
ATOM      1  C1  DEN d   1       4.716   1.066  -0.024  0.00  0.00     0.130 A 
ATOM      2  C2  DEN d   1       4.062   0.174  -0.979  0.00  0.00    -0.031 A 
ATOM      3  C3  DEN d   1       2.609   0.216  -0.721  0.00  0.00     0.027 A 
ATOM      4  C4  DEN d   1       1.314   1.571   1.051  0.00  0.00     0.027 A 
ATOM      5  C5  DEN d   1       1.437   2.460   2.096  0.00  0.00    -0.003 A 
ATOM      6  C6  DEN d   1       2.655   2.917   2.525  0.00  0.00     0.001 A 
ATOM      7  C7  DEN d   1       3.795   2.521   1.878  0.00  0.00     0.017 A 
ATOM      8  C8  DEN d   1       3.679   1.618   0.829  0.00  0.00    -0.094 A 
ATOM      9  C9  DEN d   1       2.438   1.178   0.401  0.00  0.00    -0.072 A 
ENDROOT
TORSDOF 0
ENDMDL
