MODEL 1
REMARK minimizedAffinity 9.59758282
REMARK minimizedRMSD -1
REMARK  0 active torsions:
REMARK  status: ('A' for Active; 'I' for Inactive)
ROOT
ATOM      1  C1  DEN d   1       1.645  -0.411   4.869  0.00  0.00     0.130 A 
ATOM      2  C2  DEN d   1       1.301   0.267   3.622  0.00  0.00    -0.031 A 
ATOM      3  C3  DEN d   1       0.436  -0.635   2.835  0.00  0.00     0.027 A 
ATOM      4  C4  DEN d   1      -0.405  -3.001   3.427  0.00  0.00     0.027 A 
ATOM      5  C5  DEN d   1      -0.367  -4.001   4.372  0.00  0.00    -0.003 A 
ATOM      6  C6  DEN d   1       0.364  -3.890   5.525  0.00  0.00     0.001 A 
ATOM      7  C7  DEN d   1       1.054  -2.735   5.782  0.00  0.00     0.017 A 
ATOM      8  C8  DEN d   1       1.027  -1.724   4.830  0.00  0.00    -0.094 A 
ATOM      9  C9  DEN d   1       0.271  -1.851   3.677  0.00  0.00    -0.072 A 
ENDROOT
TORSDOF 0
ENDMDL
