MODEL 1
REMARK minimizedAffinity 5.78254175
REMARK minimizedRMSD -1
REMARK  0 active torsions:
REMARK  status: ('A' for Active; 'I' for Inactive)
ROOT
ATOM      1  C1  DEN d   1       4.707   0.398  -1.828  0.00  0.00     0.130 A 
ATOM      2  C2  DEN d   1       4.209   1.034  -0.611  0.00  0.00    -0.031 A 
ATOM      3  C3  DEN d   1       3.411   0.038   0.131  0.00  0.00     0.027 A 
ATOM      4  C4  DEN d   1       2.904  -2.416  -0.480  0.00  0.00     0.027 A 
ATOM      5  C5  DEN d   1       3.099  -3.402  -1.422  0.00  0.00    -0.003 A 
ATOM      6  C6  DEN d   1       3.810  -3.182  -2.572  0.00  0.00     0.001 A 
ATOM      7  C7  DEN d   1       4.390  -1.960  -2.789  0.00  0.00     0.017 A 
ATOM      8  C8  DEN d   1       4.191  -0.959  -1.847  0.00  0.00    -0.094 A 
ATOM      9  C9  DEN d   1       3.479  -1.205  -0.685  0.00  0.00    -0.072 A 
ENDROOT
TORSDOF 0
ENDMDL
