MODEL 1
REMARK minimizedAffinity 14.9006863
REMARK minimizedRMSD -1
REMARK  0 active torsions:
REMARK  status: ('A' for Active; 'I' for Inactive)
ROOT
ATOM      1  C1  DEN d   1       0.433   5.755   2.340  0.00  0.00     0.130 A 
ATOM      2  C2  DEN d   1       1.672   5.893   3.100  0.00  0.00    -0.031 A 
ATOM      3  C3  DEN d   1       2.242   4.545   3.295  0.00  0.00     0.027 A 
ATOM      4  C4  DEN d   1       1.333   2.268   2.493  0.00  0.00     0.027 A 
ATOM      5  C5  DEN d   1       0.306   1.644   1.820  0.00  0.00    -0.003 A 
ATOM      6  C6  DEN d   1      -0.759   2.336   1.307  0.00  0.00     0.001 A 
ATOM      7  C7  DEN d   1      -0.799   3.701   1.420  0.00  0.00     0.017 A 
ATOM      8  C8  DEN d   1       0.229   4.337   2.103  0.00  0.00    -0.094 A 
ATOM      9  C9  DEN d   1       1.303   3.621   2.604  0.00  0.00    -0.072 A 
ENDROOT
TORSDOF 0
ENDMDL
