MODEL 1
REMARK minimizedAffinity 13.6803093
REMARK minimizedRMSD -1
REMARK  0 active torsions:
REMARK  status: ('A' for Active; 'I' for Inactive)
ROOT
ATOM      1  C1  DEN d   1       2.803  -0.168  -1.241  0.00  0.00     0.130 A 
ATOM      2  C2  DEN d   1       3.934  -0.553  -0.401  0.00  0.00    -0.031 A 
ATOM      3  C3  DEN d   1       3.572  -0.281   1.004  0.00  0.00     0.027 A 
ATOM      4  C4  DEN d   1       1.380   0.689   1.956  0.00  0.00     0.027 A 
ATOM      5  C5  DEN d   1       0.134   1.178   1.631  0.00  0.00    -0.003 A 
ATOM      6  C6  DEN d   1      -0.293   1.284   0.333  0.00  0.00     0.001 A 
ATOM      7  C7  DEN d   1       0.516   0.852  -0.684  0.00  0.00     0.017 A 
ATOM      8  C8  DEN d   1       1.776   0.365  -0.365  0.00  0.00    -0.094 A 
ATOM      9  C9  DEN d   1       2.185   0.255   0.954  0.00  0.00    -0.072 A 
ENDROOT
TORSDOF 0
ENDMDL
