MODEL 1
REMARK minimizedAffinity 9.48983002
REMARK minimizedRMSD -1
REMARK  0 active torsions:
REMARK  status: ('A' for Active; 'I' for Inactive)
ROOT
ATOM      1  C1  DEN d   1       6.000   0.375  -0.683  0.00  0.00     0.130 A 
ATOM      2  C2  DEN d   1       6.000   1.835  -0.695  0.00  0.00    -0.031 A 
ATOM      3  C3  DEN d   1       4.597   2.292  -0.653  0.00  0.00     0.027 A 
ATOM      4  C4  DEN d   1       2.434   0.889  -0.565  0.00  0.00     0.027 A 
ATOM      5  C5  DEN d   1       1.927  -0.392  -0.549  0.00  0.00    -0.003 A 
ATOM      6  C6  DEN d   1       2.734  -1.498  -0.610  0.00  0.00     0.001 A 
ATOM      7  C7  DEN d   1       4.095  -1.344  -0.644  0.00  0.00     0.017 A 
ATOM      8  C8  DEN d   1       4.613  -0.056  -0.669  0.00  0.00    -0.094 A 
ATOM      9  C9  DEN d   1       3.782   1.049  -0.594  0.00  0.00    -0.072 A 
ENDROOT
TORSDOF 0
ENDMDL
