MODEL 1
REMARK minimizedAffinity 18.6245804
REMARK minimizedRMSD -1
REMARK  0 active torsions:
REMARK  status: ('A' for Active; 'I' for Inactive)
ROOT
ATOM      1  C1  DEN d   1      -5.391   0.903  -5.261  0.00  0.00     0.130 A 
ATOM      2  C2  DEN d   1      -5.848  -0.247  -4.486  0.00  0.00    -0.031 A 
ATOM      3  C3  DEN d   1      -5.999   0.180  -3.081  0.00  0.00     0.027 A 
ATOM      4  C4  DEN d   1      -5.575   2.500  -2.036  0.00  0.00     0.027 A 
ATOM      5  C5  DEN d   1      -5.165   3.789  -2.294  0.00  0.00    -0.003 A 
ATOM      6  C6  DEN d   1      -4.774   4.195  -3.542  0.00  0.00     0.001 A 
ATOM      7  C7  DEN d   1      -4.826   3.314  -4.589  0.00  0.00     0.017 A 
ATOM      8  C8  DEN d   1      -5.230   2.010  -4.336  0.00  0.00    -0.094 A 
ATOM      9  C9  DEN d   1      -5.634   1.622  -3.069  0.00  0.00    -0.072 A 
ENDROOT
TORSDOF 0
ENDMDL
