MODEL 1
REMARK minimizedAffinity 6.99119139
REMARK minimizedRMSD -1
REMARK  0 active torsions:
REMARK  status: ('A' for Active; 'I' for Inactive)
ROOT
ATOM      1  C1  DEN d   1       4.118   5.666   5.819  0.00  0.00     0.130 A 
ATOM      2  C2  DEN d   1       3.041   5.999   4.891  0.00  0.00    -0.031 A 
ATOM      3  C3  DEN d   1       2.901   4.883   3.934  0.00  0.00     0.027 A 
ATOM      4  C4  DEN d   1       4.239   2.681   3.804  0.00  0.00     0.027 A 
ATOM      5  C5  DEN d   1       5.262   1.954   4.371  0.00  0.00    -0.003 A 
ATOM      6  C6  DEN d   1       5.992   2.424   5.430  0.00  0.00     0.001 A 
ATOM      7  C7  DEN d   1       5.679   3.637   5.985  0.00  0.00     0.017 A 
ATOM      8  C8  DEN d   1       4.654   4.379   5.414  0.00  0.00    -0.094 A 
ATOM      9  C9  DEN d   1       3.919   3.881   4.351  0.00  0.00    -0.072 A 
ENDROOT
TORSDOF 0
ENDMDL
