MODEL 1
REMARK minimizedAffinity 9.42900467
REMARK minimizedRMSD -1
REMARK  0 active torsions:
REMARK  status: ('A' for Active; 'I' for Inactive)
ROOT
ATOM      1  C1  DEN d   1       1.100  -2.236   0.083  0.00  0.00     0.130 A 
ATOM      2  C2  DEN d   1       0.300  -2.812  -0.994  0.00  0.00    -0.031 A 
ATOM      3  C3  DEN d   1      -0.563  -1.746  -1.542  0.00  0.00     0.027 A 
ATOM      4  C4  DEN d   1      -0.732   0.728  -0.834  0.00  0.00     0.027 A 
ATOM      5  C5  DEN d   1      -0.258   1.680   0.042  0.00  0.00    -0.003 A 
ATOM      6  C6  DEN d   1       0.669   1.388   1.007  0.00  0.00     0.001 A 
ATOM      7  C7  DEN d   1       1.185   0.122   1.090  0.00  0.00     0.017 A 
ATOM      8  C8  DEN d   1       0.708  -0.845   0.216  0.00  0.00    -0.094 A 
ATOM      9  C9  DEN d   1      -0.221  -0.527  -0.761  0.00  0.00    -0.072 A 
ENDROOT
TORSDOF 0
ENDMDL
