MODEL 1
REMARK minimizedAffinity -1.35558724
REMARK minimizedRMSD -1
REMARK  0 active torsions:
REMARK  status: ('A' for Active; 'I' for Inactive)
ROOT
ATOM      1  C1  DEN d   1       5.888   3.627   4.079  0.00  0.00     0.130 A 
ATOM      2  C2  DEN d   1       5.910   4.852   4.874  0.00  0.00    -0.031 A 
ATOM      3  C3  DEN d   1       5.868   6.000   3.946  0.00  0.00     0.027 A 
ATOM      4  C4  DEN d   1       5.768   5.999   1.368  0.00  0.00     0.027 A 
ATOM      5  C5  DEN d   1       5.743   5.200   0.246  0.00  0.00    -0.003 A 
ATOM      6  C6  DEN d   1       5.798   3.834   0.321  0.00  0.00     0.001 A 
ATOM      7  C7  DEN d   1       5.836   3.222   1.546  0.00  0.00     0.017 A 
ATOM      8  C8  DEN d   1       5.869   4.021   2.682  0.00  0.00    -0.094 A 
ATOM      9  C9  DEN d   1       5.800   5.400   2.586  0.00  0.00    -0.072 A 
ENDROOT
TORSDOF 0
ENDMDL
