MODEL 1
REMARK minimizedAffinity 23.4750805
REMARK minimizedRMSD -1
REMARK  0 active torsions:
REMARK  status: ('A' for Active; 'I' for Inactive)
ROOT
ATOM      1  C   UNL d   1      -2.509   0.231  -0.561  0.00  0.00     0.124 A 
ATOM      2  C1  UNL d   1      -3.833   0.583  -0.342  0.00  0.00     0.062 A 
ATOM      3  C2  UNL d   1      -4.725   0.649  -1.409  0.00  0.00     0.162 A 
ATOM      4  C3  UNL d   1      -4.296   0.361  -2.704  0.00  0.00    -0.034 A 
ATOM      5  C4  UNL d   1      -2.962   0.009  -2.917  0.00  0.00     0.162 A 
ATOM      6  C5  UNL d   1      -2.074  -0.056  -1.848  0.00  0.00     0.062 A 
ATOM      7  F   UNL d   1      -0.795  -0.396  -2.061  0.00  0.00    -0.097 F 
ATOM      8  F1  UNL d   1      -2.515  -0.274  -4.150  0.00  0.00    -0.096 F 
ATOM      9  I   UNL d   1      -5.626   0.459  -4.302  0.00  0.00    -0.060 I 
ATOM     10  F2  UNL d   1      -5.999   0.992  -1.168  0.00  0.00    -0.096 F 
ATOM     11  F3  UNL d   1      -4.255   0.861   0.899  0.00  0.00    -0.097 F 
ATOM     12  F4  UNL d   1      -1.652   0.169   0.467  0.00  0.00    -0.092 F 
ENDROOT
TORSDOF 0
ENDMDL
