MODEL 1
REMARK minimizedAffinity 16.0886116
REMARK minimizedRMSD -1
REMARK  0 active torsions:
REMARK  status: ('A' for Active; 'I' for Inactive)
ROOT
ATOM      1  C   UNL d   1       3.620   1.555  -1.259  0.00  0.00     0.124 A 
ATOM      2  C1  UNL d   1       3.380   0.664  -2.296  0.00  0.00     0.062 A 
ATOM      3  C2  UNL d   1       2.730  -0.542  -2.047  0.00  0.00     0.162 A 
ATOM      4  C3  UNL d   1       2.313  -0.862  -0.755  0.00  0.00    -0.034 A 
ATOM      5  C4  UNL d   1       2.559   0.039   0.283  0.00  0.00     0.162 A 
ATOM      6  C5  UNL d   1       3.209   1.242   0.029  0.00  0.00     0.062 A 
ATOM      7  F   UNL d   1       3.440   2.102   1.032  0.00  0.00    -0.097 F 
ATOM      8  F1  UNL d   1       2.171  -0.238   1.537  0.00  0.00    -0.096 F 
ATOM      9  I   UNL d   1       1.341  -2.663  -0.378  0.00  0.00    -0.060 I 
ATOM     10  F2  UNL d   1       2.512  -1.384  -3.067  0.00  0.00    -0.096 F 
ATOM     11  F3  UNL d   1       3.777   0.963  -3.541  0.00  0.00    -0.097 F 
ATOM     12  F4  UNL d   1       4.247   2.713  -1.502  0.00  0.00    -0.092 F 
ENDROOT
TORSDOF 0
ENDMDL
