MODEL 1
REMARK minimizedAffinity 26.196888
REMARK minimizedRMSD -1
REMARK  0 active torsions:
REMARK  status: ('A' for Active; 'I' for Inactive)
ROOT
ATOM      1  C   UNL d   1       1.969  -2.475  -0.931  0.00  0.00     0.124 A 
ATOM      2  C1  UNL d   1       2.177  -1.859  -2.157  0.00  0.00     0.062 A 
ATOM      3  C2  UNL d   1       2.586  -0.530  -2.212  0.00  0.00     0.162 A 
ATOM      4  C3  UNL d   1       2.790   0.193  -1.036  0.00  0.00    -0.034 A 
ATOM      5  C4  UNL d   1       2.578  -0.434   0.193  0.00  0.00     0.162 A 
ATOM      6  C5  UNL d   1       2.169  -1.763   0.242  0.00  0.00     0.062 A 
ATOM      7  F   UNL d   1       1.968  -2.356   1.428  0.00  0.00    -0.097 F 
ATOM      8  F1  UNL d   1       2.765   0.231   1.343  0.00  0.00    -0.096 F 
ATOM      9  I   UNL d   1       3.401   2.181  -1.114  0.00  0.00    -0.060 I 
ATOM     10  F2  UNL d   1       2.780   0.040  -3.410  0.00  0.00    -0.096 F 
ATOM     11  F3  UNL d   1       1.984  -2.545  -3.293  0.00  0.00    -0.097 F 
ATOM     12  F4  UNL d   1       1.575  -3.754  -0.882  0.00  0.00    -0.092 F 
ENDROOT
TORSDOF 0
ENDMDL
