MODEL 1
REMARK minimizedAffinity 25.3345032
REMARK minimizedRMSD -1
REMARK  0 active torsions:
REMARK  status: ('A' for Active; 'I' for Inactive)
ROOT
ATOM      1  C   UNL d   1      -4.085   2.463   0.676  0.00  0.00     0.124 A 
ATOM      2  C1  UNL d   1      -4.829   3.194  -0.239  0.00  0.00     0.062 A 
ATOM      3  C2  UNL d   1      -5.282   2.595  -1.411  0.00  0.00     0.162 A 
ATOM      4  C3  UNL d   1      -4.992   1.256  -1.674  0.00  0.00    -0.034 A 
ATOM      5  C4  UNL d   1      -4.242   0.527  -0.749  0.00  0.00     0.162 A 
ATOM      6  C5  UNL d   1      -3.792   1.131   0.421  0.00  0.00     0.062 A 
ATOM      7  F   UNL d   1      -3.072   0.423   1.304  0.00  0.00    -0.097 F 
ATOM      8  F1  UNL d   1      -3.945  -0.762  -0.971  0.00  0.00    -0.096 F 
ATOM      9  I   UNL d   1      -5.667   0.356  -3.425  0.00  0.00    -0.060 I 
ATOM     10  F2  UNL d   1      -5.999   3.325  -2.277  0.00  0.00    -0.096 F 
ATOM     11  F3  UNL d   1      -5.112   4.482   0.006  0.00  0.00    -0.097 F 
ATOM     12  F4  UNL d   1      -3.649   3.042   1.803  0.00  0.00    -0.092 F 
ENDROOT
TORSDOF 0
ENDMDL
