MODEL 1
REMARK minimizedAffinity 8.80145168
REMARK minimizedRMSD -1
REMARK  0 active torsions:
REMARK  status: ('A' for Active; 'I' for Inactive)
ROOT
ATOM      1  C   UNL d   1       3.910   1.230  -1.794  0.00  0.00     0.124 A 
ATOM      2  C1  UNL d   1       3.282   1.230  -0.556  0.00  0.00     0.062 A 
ATOM      3  C2  UNL d   1       2.627   0.089  -0.103  0.00  0.00     0.162 A 
ATOM      4  C3  UNL d   1       2.596  -1.063  -0.888  0.00  0.00    -0.034 A 
ATOM      5  C4  UNL d   1       3.228  -1.056  -2.133  0.00  0.00     0.162 A 
ATOM      6  C5  UNL d   1       3.882   0.087  -2.581  0.00  0.00     0.062 A 
ATOM      7  F   UNL d   1       4.488   0.085  -3.777  0.00  0.00    -0.097 F 
ATOM      8  F1  UNL d   1       3.218  -2.147  -2.913  0.00  0.00    -0.096 F 
ATOM      9  I   UNL d   1       1.617  -2.772  -0.215  0.00  0.00    -0.060 I 
ATOM     10  F2  UNL d   1       2.029   0.118   1.097  0.00  0.00    -0.096 F 
ATOM     11  F3  UNL d   1       3.306   2.333   0.206  0.00  0.00    -0.097 F 
ATOM     12  F4  UNL d   1       4.539   2.329  -2.228  0.00  0.00    -0.092 F 
ENDROOT
TORSDOF 0
ENDMDL
