MODEL 1
REMARK minimizedAffinity 12.9182587
REMARK minimizedRMSD -1
REMARK  0 active torsions:
REMARK  status: ('A' for Active; 'I' for Inactive)
ROOT
ATOM      1  C   UNL d   1      -4.424   2.473   0.003  0.00  0.00     0.124 A 
ATOM      2  C1  UNL d   1      -4.397   1.085   0.005  0.00  0.00     0.062 A 
ATOM      3  C2  UNL d   1      -4.844   0.375  -1.105  0.00  0.00     0.162 A 
ATOM      4  C3  UNL d   1      -5.321   1.051  -2.228  0.00  0.00    -0.034 A 
ATOM      5  C4  UNL d   1      -5.346   2.447  -2.223  0.00  0.00     0.162 A 
ATOM      6  C5  UNL d   1      -4.898   3.152  -1.111  0.00  0.00     0.062 A 
ATOM      7  F   UNL d   1      -4.924   4.493  -1.115  0.00  0.00    -0.097 F 
ATOM      8  F1  UNL d   1      -5.798   3.129  -3.285  0.00  0.00    -0.096 F 
ATOM      9  I   UNL d   1      -5.991  -0.008  -3.890  0.00  0.00    -0.060 I 
ATOM     10  F2  UNL d   1      -4.807  -0.966  -1.075  0.00  0.00    -0.096 F 
ATOM     11  F3  UNL d   1      -3.940   0.427   1.080  0.00  0.00    -0.097 F 
ATOM     12  F4  UNL d   1      -3.994   3.154   1.073  0.00  0.00    -0.092 F 
ENDROOT
TORSDOF 0
ENDMDL
