MODEL 1
REMARK minimizedAffinity 29.3884926
REMARK minimizedRMSD -1
REMARK  0 active torsions:
REMARK  status: ('A' for Active; 'I' for Inactive)
ROOT
ATOM      1  C   UNL d   1       2.000  -1.075  -0.354  0.00  0.00     0.124 A 
ATOM      2  C1  UNL d   1       2.135   0.291  -0.151  0.00  0.00     0.062 A 
ATOM      3  C2  UNL d   1       1.902   0.838   1.107  0.00  0.00     0.162 A 
ATOM      4  C3  UNL d   1       1.532   0.019   2.173  0.00  0.00    -0.034 A 
ATOM      5  C4  UNL d   1       1.396  -1.355   1.961  0.00  0.00     0.162 A 
ATOM      6  C5  UNL d   1       1.630  -1.896   0.701  0.00  0.00     0.062 A 
ATOM      7  F   UNL d   1       1.499  -3.217   0.507  0.00  0.00    -0.097 F 
ATOM      8  F1  UNL d   1       1.042  -2.172   2.964  0.00  0.00    -0.096 F 
ATOM      9  I   UNL d   1       1.182   0.832   4.057  0.00  0.00    -0.060 I 
ATOM     10  F2  UNL d   1       2.041   2.162   1.275  0.00  0.00    -0.096 F 
ATOM     11  F3  UNL d   1       2.491   1.087  -1.170  0.00  0.00    -0.097 F 
ATOM     12  F4  UNL d   1       2.224  -1.598  -1.567  0.00  0.00    -0.092 F 
ENDROOT
TORSDOF 0
ENDMDL
