MODEL 1
REMARK minimizedAffinity 15.5518332
REMARK minimizedRMSD -1
REMARK  0 active torsions:
REMARK  status: ('A' for Active; 'I' for Inactive)
ROOT
ATOM      1  C   UNL d   1      -2.411   0.417  -4.281  0.00  0.00     0.124 A 
ATOM      2  C1  UNL d   1      -2.084   0.125  -2.964  0.00  0.00     0.062 A 
ATOM      3  C2  UNL d   1      -3.078   0.072  -1.991  0.00  0.00     0.162 A 
ATOM      4  C3  UNL d   1      -4.409   0.312  -2.332  0.00  0.00    -0.034 A 
ATOM      5  C4  UNL d   1      -4.730   0.607  -3.658  0.00  0.00     0.162 A 
ATOM      6  C5  UNL d   1      -3.733   0.658  -4.627  0.00  0.00     0.062 A 
ATOM      7  F   UNL d   1      -4.051   0.941  -5.899  0.00  0.00    -0.097 F 
ATOM      8  F1  UNL d   1      -6.000   0.842  -4.020  0.00  0.00    -0.096 F 
ATOM      9  I   UNL d   1      -5.899   0.235  -0.880  0.00  0.00    -0.060 I 
ATOM     10  F2  UNL d   1      -2.733  -0.213  -0.727  0.00  0.00    -0.096 F 
ATOM     11  F3  UNL d   1      -0.807  -0.108  -2.628  0.00  0.00    -0.097 F 
ATOM     12  F4  UNL d   1      -1.452   0.468  -5.215  0.00  0.00    -0.092 F 
ENDROOT
TORSDOF 0
ENDMDL
