MODEL 1
REMARK minimizedAffinity 1.49843216
REMARK minimizedRMSD -1
REMARK  2 active torsions:
REMARK  status: ('A' for Active; 'I' for Inactive)
REMARK    1  A    between atoms: C1_2  and  C2_3 
REMARK    2  A    between atoms: C2_3  and  C3_4 
ROOT
ATOM      1  C3  UNL d   1      -0.689  -5.982  -3.618  0.00  0.00    -0.075 A 
ATOM      2  C4  UNL d   1      -1.128  -5.986  -4.950  0.00  0.00     0.002 A 
ATOM      3  C5  UNL d   1      -0.208  -5.997  -5.999  0.00  0.00     0.002 A 
ATOM      4  C6  UNL d   1       1.159  -5.994  -5.731  0.00  0.00    -0.004 A 
ATOM      5  C7  UNL d   1       1.606  -5.974  -4.411  0.00  0.00     0.002 A 
ATOM      6  C8  UNL d   1       0.688  -5.967  -3.360  0.00  0.00     0.002 A 
ENDROOT
BRANCH   1   7
ATOM      7  C2  UNL d   1      -1.680  -6.000  -2.479  0.00  0.00     0.056 C 
BRANCH   7   8
ATOM      8  C1  UNL d   1      -3.145  -5.998  -2.926  0.00  0.00     0.007 C 
ATOM      9  C   UNL d   1      -4.122  -5.754  -1.783  0.00  0.00     0.009 C 
ENDBRANCH   7   8
ENDBRANCH   1   7
TORSDOF 2
ENDMDL
