MODEL 1
REMARK minimizedAffinity 2.29013324
REMARK minimizedRMSD -1
REMARK  2 active torsions:
REMARK  status: ('A' for Active; 'I' for Inactive)
REMARK    1  A    between atoms: C1_2  and  C2_3 
REMARK    2  A    between atoms: C2_3  and  C3_4 
ROOT
ATOM      1  C3  UNL d   1       3.359   3.844  -0.184  0.00  0.00    -0.075 A 
ATOM      2  C4  UNL d   1       3.758   4.793   0.768  0.00  0.00     0.002 A 
ATOM      3  C5  UNL d   1       4.970   5.470   0.630  0.00  0.00     0.002 A 
ATOM      4  C6  UNL d   1       5.802   5.199  -0.454  0.00  0.00    -0.004 A 
ATOM      5  C7  UNL d   1       5.424   4.246  -1.398  0.00  0.00     0.002 A 
ATOM      6  C8  UNL d   1       4.210   3.571  -1.264  0.00  0.00     0.002 A 
ENDROOT
BRANCH   1   7
ATOM      7  C2  UNL d   1       2.035   3.130  -0.055  0.00  0.00     0.056 C 
BRANCH   7   8
ATOM      8  C1  UNL d   1       0.901   4.010   0.480  0.00  0.00     0.007 C 
ATOM      9  C   UNL d   1      -0.137   4.361  -0.579  0.00  0.00     0.009 C 
ENDBRANCH   7   8
ENDBRANCH   1   7
TORSDOF 2
ENDMDL
