MODEL 1
REMARK minimizedAffinity 7.58261728
REMARK minimizedRMSD -1
REMARK  2 active torsions:
REMARK  status: ('A' for Active; 'I' for Inactive)
REMARK    1  A    between atoms: C1_2  and  C2_3 
REMARK    2  A    between atoms: C2_3  and  C3_4 
ROOT
ATOM      1  C3  UNL d   1       1.761  -1.066   0.837  0.00  0.00    -0.075 A 
ATOM      2  C4  UNL d   1       1.067  -2.284   0.809  0.00  0.00     0.002 A 
ATOM      3  C5  UNL d   1      -0.301  -2.314   0.538  0.00  0.00     0.002 A 
ATOM      4  C6  UNL d   1      -0.994  -1.129   0.301  0.00  0.00    -0.004 A 
ATOM      5  C7  UNL d   1      -0.318   0.089   0.343  0.00  0.00     0.002 A 
ATOM      6  C8  UNL d   1       1.052   0.121   0.610  0.00  0.00     0.002 A 
ENDROOT
BRANCH   1   7
ATOM      7  C2  UNL d   1       3.247  -1.029   1.101  0.00  0.00     0.056 C 
BRANCH   7   8
ATOM      8  C1  UNL d   1       3.994   0.055   0.315  0.00  0.00     0.007 C 
ATOM      9  C   UNL d   1       4.400  -0.390  -1.083  0.00  0.00     0.009 C 
ENDBRANCH   7   8
ENDBRANCH   1   7
TORSDOF 2
ENDMDL
