MODEL 1
REMARK minimizedAffinity -2.31822014
REMARK minimizedRMSD -1
REMARK  2 active torsions:
REMARK  status: ('A' for Active; 'I' for Inactive)
REMARK    1  A    between atoms: C1_2  and  C2_3 
REMARK    2  A    between atoms: C2_3  and  C3_4 
ROOT
ATOM      1  C3  UNL d   1      -0.747  -5.911  -5.187  0.00  0.00    -0.075 A 
ATOM      2  C4  UNL d   1      -0.909  -5.948  -3.794  0.00  0.00     0.002 A 
ATOM      3  C5  UNL d   1      -2.184  -5.994  -3.230  0.00  0.00     0.002 A 
ATOM      4  C6  UNL d   1      -3.311  -5.994  -4.048  0.00  0.00    -0.004 A 
ATOM      5  C7  UNL d   1      -3.163  -5.941  -5.432  0.00  0.00     0.002 A 
ATOM      6  C8  UNL d   1      -1.889  -5.900  -6.000  0.00  0.00     0.002 A 
ENDROOT
BRANCH   1   7
ATOM      7  C2  UNL d   1       0.630  -5.891  -5.804  0.00  0.00     0.056 C 
BRANCH   7   8
ATOM      8  C1  UNL d   1       1.667  -5.108  -4.991  0.00  0.00     0.007 C 
ATOM      9  C   UNL d   1       2.546  -5.999  -4.123  0.00  0.00     0.009 C 
ENDBRANCH   7   8
ENDBRANCH   1   7
TORSDOF 2
ENDMDL
