MODEL 1
REMARK minimizedAffinity 10.1694956
REMARK minimizedRMSD -1
REMARK  2 active torsions:
REMARK  status: ('A' for Active; 'I' for Inactive)
REMARK    1  A    between atoms: C1_2  and  C2_3 
REMARK    2  A    between atoms: C2_3  and  C3_4 
ROOT
ATOM      1  C3  UNL d   1      -0.147  -5.956  -3.002  0.00  0.00    -0.075 A 
ATOM      2  C4  UNL d   1      -1.494  -5.973  -3.393  0.00  0.00     0.002 A 
ATOM      3  C5  UNL d   1      -1.839  -6.000  -4.745  0.00  0.00     0.002 A 
ATOM      4  C6  UNL d   1      -0.845  -5.999  -5.721  0.00  0.00    -0.004 A 
ATOM      5  C7  UNL d   1       0.496  -5.965  -5.344  0.00  0.00     0.002 A 
ATOM      6  C8  UNL d   1       0.844  -5.943  -3.992  0.00  0.00     0.002 A 
ENDROOT
BRANCH   1   7
ATOM      7  C2  UNL d   1       0.233  -5.957  -1.541  0.00  0.00     0.056 C 
BRANCH   7   8
ATOM      8  C1  UNL d   1       0.693  -4.593  -1.015  0.00  0.00     0.007 C 
ATOM      9  C   UNL d   1       0.029  -4.201   0.298  0.00  0.00     0.009 C 
ENDBRANCH   7   8
ENDBRANCH   1   7
TORSDOF 2
ENDMDL
