MODEL 1
REMARK minimizedAffinity 3.36766887
REMARK minimizedRMSD -1
REMARK  2 active torsions:
REMARK  status: ('A' for Active; 'I' for Inactive)
REMARK    1  A    between atoms: C1_2  and  C2_3 
REMARK    2  A    between atoms: C2_3  and  C3_4 
ROOT
ATOM      1  C3  UNL d   1      -1.388  -5.948  -3.807  0.00  0.00    -0.075 A 
ATOM      2  C4  UNL d   1      -1.063  -5.905  -5.170  0.00  0.00     0.002 A 
ATOM      3  C5  UNL d   1       0.270  -5.904  -5.581  0.00  0.00     0.002 A 
ATOM      4  C6  UNL d   1       1.293  -5.936  -4.636  0.00  0.00    -0.004 A 
ATOM      5  C7  UNL d   1       0.982  -5.962  -3.279  0.00  0.00     0.002 A 
ATOM      6  C8  UNL d   1      -0.351  -5.968  -2.865  0.00  0.00     0.002 A 
ENDROOT
BRANCH   1   7
ATOM      7  C2  UNL d   1      -2.829  -5.979  -3.357  0.00  0.00     0.056 C 
BRANCH   7   8
ATOM      8  C1  UNL d   1      -3.018  -5.757  -1.852  0.00  0.00     0.007 C 
ATOM      9  C   UNL d   1      -4.374  -5.160  -1.499  0.00  0.00     0.009 C 
ENDBRANCH   7   8
ENDBRANCH   1   7
TORSDOF 2
ENDMDL
