MODEL 1
REMARK minimizedAffinity 2.58132672
REMARK minimizedRMSD -1
REMARK  2 active torsions:
REMARK  status: ('A' for Active; 'I' for Inactive)
REMARK    1  A    between atoms: C1_2  and  C2_3 
REMARK    2  A    between atoms: C2_3  and  C3_4 
ROOT
ATOM      1  C3  UNL d   1       0.704  -2.847  -0.324  0.00  0.00    -0.075 A 
ATOM      2  C4  UNL d   1       0.810  -1.697  -1.120  0.00  0.00     0.002 A 
ATOM      3  C5  UNL d   1       0.718  -0.428  -0.548  0.00  0.00     0.002 A 
ATOM      4  C6  UNL d   1       0.509  -0.293   0.823  0.00  0.00    -0.004 A 
ATOM      5  C7  UNL d   1       0.385  -1.428   1.621  0.00  0.00     0.002 A 
ATOM      6  C8  UNL d   1       0.482  -2.699   1.051  0.00  0.00     0.002 A 
ENDROOT
BRANCH   1   7
ATOM      7  C2  UNL d   1       0.833  -4.223  -0.933  0.00  0.00     0.056 C 
BRANCH   7   8
ATOM      8  C1  UNL d   1      -0.429  -4.706  -1.656  0.00  0.00     0.007 C 
ATOM      9  C   UNL d   1      -0.154  -5.799  -2.680  0.00  0.00     0.009 C 
ENDBRANCH   7   8
ENDBRANCH   1   7
TORSDOF 2
ENDMDL
