MODEL 1
REMARK minimizedAffinity 3.99441934
REMARK minimizedRMSD -1
REMARK  2 active torsions:
REMARK  status: ('A' for Active; 'I' for Inactive)
REMARK    1  A    between atoms: C1_2  and  C2_3 
REMARK    2  A    between atoms: C2_3  and  C3_4 
ROOT
ATOM      1  C3  UNL d   1       1.458   0.983   0.135  0.00  0.00    -0.075 A 
ATOM      2  C4  UNL d   1       1.186   2.344   0.335  0.00  0.00     0.002 A 
ATOM      3  C5  UNL d   1       2.176   3.303   0.119  0.00  0.00     0.002 A 
ATOM      4  C6  UNL d   1       3.450   2.914  -0.288  0.00  0.00    -0.004 A 
ATOM      5  C7  UNL d   1       3.737   1.563  -0.473  0.00  0.00     0.002 A 
ATOM      6  C8  UNL d   1       2.747   0.602  -0.262  0.00  0.00     0.002 A 
ENDROOT
BRANCH   1   7
ATOM      7  C2  UNL d   1       0.383  -0.058   0.339  0.00  0.00     0.056 C 
BRANCH   7   8
ATOM      8  C1  UNL d   1       0.760  -1.157   1.337  0.00  0.00     0.007 C 
ATOM      9  C   UNL d   1      -0.032  -2.443   1.142  0.00  0.00     0.009 C 
ENDBRANCH   7   8
ENDBRANCH   1   7
TORSDOF 2
ENDMDL
