MODEL 1
REMARK minimizedAffinity -0.184494838
REMARK minimizedRMSD -1
REMARK  2 active torsions:
REMARK  status: ('A' for Active; 'I' for Inactive)
REMARK    1  A    between atoms: C1_2  and  C2_3 
REMARK    2  A    between atoms: C2_3  and  C3_4 
ROOT
ATOM      1  C3  UNL d   1       0.291  -0.042   0.023  0.00  0.00    -0.075 A 
ATOM      2  C4  UNL d   1       1.491  -0.768   0.050  0.00  0.00     0.002 A 
ATOM      3  C5  UNL d   1       1.543  -2.030   0.642  0.00  0.00     0.002 A 
ATOM      4  C6  UNL d   1       0.402  -2.577   1.223  0.00  0.00    -0.004 A 
ATOM      5  C7  UNL d   1      -0.792  -1.859   1.217  0.00  0.00     0.002 A 
ATOM      6  C8  UNL d   1      -0.848  -0.597   0.621  0.00  0.00     0.002 A 
ENDROOT
BRANCH   1   7
ATOM      7  C2  UNL d   1       0.221   1.311  -0.643  0.00  0.00     0.056 C 
BRANCH   7   8
ATOM      8  C1  UNL d   1      -0.465   1.298  -2.012  0.00  0.00     0.007 C 
ATOM      9  C   UNL d   1      -0.563   2.678  -2.649  0.00  0.00     0.009 C 
ENDBRANCH   7   8
ENDBRANCH   1   7
TORSDOF 2
ENDMDL
