MODEL 1
REMARK minimizedAffinity -0.327291936
REMARK minimizedRMSD -1
REMARK  2 active torsions:
REMARK  status: ('A' for Active; 'I' for Inactive)
REMARK    1  A    between atoms: C1_2  and  C2_3 
REMARK    2  A    between atoms: C2_3  and  C3_4 
ROOT
ATOM      1  C3  UNL d   1      -1.050  -5.969  -3.585  0.00  0.00    -0.075 A 
ATOM      2  C4  UNL d   1      -1.585  -5.998  -4.881  0.00  0.00     0.002 A 
ATOM      3  C5  UNL d   1      -0.745  -5.997  -5.995  0.00  0.00     0.002 A 
ATOM      4  C6  UNL d   1       0.638  -5.957  -5.828  0.00  0.00    -0.004 A 
ATOM      5  C7  UNL d   1       1.180  -5.912  -4.546  0.00  0.00     0.002 A 
ATOM      6  C8  UNL d   1       0.342  -5.917  -3.429  0.00  0.00     0.002 A 
ENDROOT
BRANCH   1   7
ATOM      7  C2  UNL d   1      -1.953  -6.000  -2.375  0.00  0.00     0.056 C 
BRANCH   7   8
ATOM      8  C1  UNL d   1      -3.435  -5.780  -2.697  0.00  0.00     0.007 C 
ATOM      9  C   UNL d   1      -4.339  -5.906  -1.479  0.00  0.00     0.009 C 
ENDBRANCH   7   8
ENDBRANCH   1   7
TORSDOF 2
ENDMDL
