MODEL 1
REMARK minimizedAffinity 7.04865694
REMARK minimizedRMSD -1
REMARK  2 active torsions:
REMARK  status: ('A' for Active; 'I' for Inactive)
REMARK    1  A    between atoms: C1_2  and  C2_3 
REMARK    2  A    between atoms: C2_3  and  C3_4 
ROOT
ATOM      1  C3  UNL d   1       2.054  -1.040   0.633  0.00  0.00    -0.075 A 
ATOM      2  C4  UNL d   1       2.248  -2.423   0.760  0.00  0.00     0.002 A 
ATOM      3  C5  UNL d   1       1.155  -3.290   0.807  0.00  0.00     0.002 A 
ATOM      4  C6  UNL d   1      -0.141  -2.785   0.737  0.00  0.00    -0.004 A 
ATOM      5  C7  UNL d   1      -0.346  -1.411   0.627  0.00  0.00     0.002 A 
ATOM      6  C8  UNL d   1       0.745  -0.542   0.576  0.00  0.00     0.002 A 
ENDROOT
BRANCH   1   7
ATOM      7  C2  UNL d   1       3.233  -0.099   0.552  0.00  0.00     0.056 C 
BRANCH   7   8
ATOM      8  C1  UNL d   1       4.535  -0.682   1.110  0.00  0.00     0.007 C 
ATOM      9  C   UNL d   1       4.960  -0.050   2.429  0.00  0.00     0.009 C 
ENDBRANCH   7   8
ENDBRANCH   1   7
TORSDOF 2
ENDMDL
