MODEL 1
REMARK minimizedAffinity 0.0532711111
REMARK minimizedRMSD -1
REMARK  2 active torsions:
REMARK  status: ('A' for Active; 'I' for Inactive)
REMARK    1  A    between atoms: C1_2  and  C2_3 
REMARK    2  A    between atoms: C2_3  and  C3_4 
ROOT
ATOM      1  C3  UNL d   1       1.854  -0.196   0.254  0.00  0.00    -0.075 A 
ATOM      2  C4  UNL d   1       1.363  -0.648   1.488  0.00  0.00     0.002 A 
ATOM      3  C5  UNL d   1       0.246  -1.481   1.543  0.00  0.00     0.002 A 
ATOM      4  C6  UNL d   1      -0.400  -1.865   0.370  0.00  0.00    -0.004 A 
ATOM      5  C7  UNL d   1       0.069  -1.409  -0.860  0.00  0.00     0.002 A 
ATOM      6  C8  UNL d   1       1.190  -0.578  -0.919  0.00  0.00     0.002 A 
ENDROOT
BRANCH   1   7
ATOM      7  C2  UNL d   1       3.081   0.682   0.186  0.00  0.00     0.056 C 
BRANCH   7   8
ATOM      8  C1  UNL d   1       4.404  -0.087   0.262  0.00  0.00     0.007 C 
ATOM      9  C   UNL d   1       5.026  -0.075   1.652  0.00  0.00     0.009 C 
ENDBRANCH   7   8
ENDBRANCH   1   7
TORSDOF 2
ENDMDL
