MODEL 1
REMARK minimizedAffinity 6.57659006
REMARK minimizedRMSD -1
REMARK  2 active torsions:
REMARK  status: ('A' for Active; 'I' for Inactive)
REMARK    1  A    between atoms: C1_2  and  C2_3 
REMARK    2  A    between atoms: C2_3  and  C3_4 
ROOT
ATOM      1  C3  UNL d   1       1.548  -0.884   1.450  0.00  0.00    -0.075 A 
ATOM      2  C4  UNL d   1       1.077   0.012   0.479  0.00  0.00     0.002 A 
ATOM      3  C5  UNL d   1       1.972   0.720  -0.324  0.00  0.00     0.002 A 
ATOM      4  C6  UNL d   1       3.345   0.549  -0.161  0.00  0.00    -0.004 A 
ATOM      5  C7  UNL d   1       3.824  -0.325   0.812  0.00  0.00     0.002 A 
ATOM      6  C8  UNL d   1       2.931  -1.038   1.614  0.00  0.00     0.002 A 
ENDROOT
BRANCH   1   7
ATOM      7  C2  UNL d   1       0.585  -1.675   2.303  0.00  0.00     0.056 C 
BRANCH   7   8
ATOM      8  C1  UNL d   1       0.140  -3.000   1.676  0.00  0.00     0.007 C 
ATOM      9  C   UNL d   1       1.250  -3.702   0.906  0.00  0.00     0.009 C 
ENDBRANCH   7   8
ENDBRANCH   1   7
TORSDOF 2
ENDMDL
