MODEL 1
REMARK minimizedAffinity 0.258429587
REMARK minimizedRMSD -1
REMARK  2 active torsions:
REMARK  status: ('A' for Active; 'I' for Inactive)
REMARK    1  A    between atoms: C1_2  and  C2_3 
REMARK    2  A    between atoms: C2_3  and  C3_4 
ROOT
ATOM      1  C3  UNL d   1      -1.644  -5.993  -3.359  0.00  0.00    -0.075 A 
ATOM      2  C4  UNL d   1      -0.279  -5.981  -3.037  0.00  0.00     0.002 A 
ATOM      3  C5  UNL d   1       0.686  -5.952  -4.045  0.00  0.00     0.002 A 
ATOM      4  C6  UNL d   1       0.300  -5.947  -5.383  0.00  0.00    -0.004 A 
ATOM      5  C7  UNL d   1      -1.053  -5.976  -5.714  0.00  0.00     0.002 A 
ATOM      6  C8  UNL d   1      -2.020  -6.000  -4.709  0.00  0.00     0.002 A 
ENDROOT
BRANCH   1   7
ATOM      7  C2  UNL d   1      -2.693  -5.994  -2.273  0.00  0.00     0.056 C 
BRANCH   7   8
ATOM      8  C1  UNL d   1      -4.132  -5.944  -2.797  0.00  0.00     0.007 C 
ATOM      9  C   UNL d   1      -5.176  -5.959  -1.688  0.00  0.00     0.009 C 
ENDBRANCH   7   8
ENDBRANCH   1   7
TORSDOF 2
ENDMDL
