MODEL 1
REMARK minimizedAffinity -4.4487071
REMARK minimizedRMSD -1
REMARK  0 active torsions:
REMARK  status: ('A' for Active; 'I' for Inactive)
ROOT
ATOM      1  C1  BNZ d   1      -1.650   3.009   1.187  0.00  0.00     0.000 A 
ATOM      2  C2  BNZ d   1      -1.885   1.737   1.638  0.00  0.00     0.000 A 
ATOM      3  C3  BNZ d   1      -1.280   0.663   1.049  0.00  0.00     0.000 A 
ATOM      4  C4  BNZ d   1      -0.474   0.857  -0.015  0.00  0.00     0.000 A 
ATOM      5  C5  BNZ d   1      -0.234   2.132  -0.487  0.00  0.00     0.000 A 
ATOM      6  C6  BNZ d   1      -0.815   3.214   0.133  0.00  0.00     0.000 A 
ENDROOT
TORSDOF 0
ENDMDL
