MODEL 1
REMARK minimizedAffinity -4.17221975
REMARK minimizedRMSD -1
REMARK  0 active torsions:
REMARK  status: ('A' for Active; 'I' for Inactive)
ROOT
ATOM      1  C1  BNZ d   1      -0.734   0.659   1.886  0.00  0.00     0.000 A 
ATOM      2  C2  BNZ d   1      -1.430   1.497   1.055  0.00  0.00     0.000 A 
ATOM      3  C3  BNZ d   1      -1.290   1.412  -0.302  0.00  0.00     0.000 A 
ATOM      4  C4  BNZ d   1      -0.425   0.518  -0.824  0.00  0.00     0.000 A 
ATOM      5  C5  BNZ d   1       0.291  -0.327   0.001  0.00  0.00     0.000 A 
ATOM      6  C6  BNZ d   1       0.118  -0.264   1.364  0.00  0.00     0.000 A 
ENDROOT
TORSDOF 0
ENDMDL
