MODEL 1
REMARK minimizedAffinity -5.34908485
REMARK minimizedRMSD -1
REMARK  0 active torsions:
REMARK  status: ('A' for Active; 'I' for Inactive)
ROOT
ATOM      1  C1  BNZ d   1      -1.132   0.939   0.679  0.00  0.00     0.000 A 
ATOM      2  C2  BNZ d   1      -0.288   1.389  -0.301  0.00  0.00     0.000 A 
ATOM      3  C3  BNZ d   1      -0.168   2.726  -0.562  0.00  0.00     0.000 A 
ATOM      4  C4  BNZ d   1      -0.921   3.606   0.129  0.00  0.00     0.000 A 
ATOM      5  C5  BNZ d   1      -1.783   3.167   1.114  0.00  0.00     0.000 A 
ATOM      6  C6  BNZ d   1      -1.872   1.824   1.400  0.00  0.00     0.000 A 
ENDROOT
TORSDOF 0
ENDMDL
