MODEL 1
REMARK minimizedAffinity -5.0918088
REMARK minimizedRMSD -1
REMARK  0 active torsions:
REMARK  status: ('A' for Active; 'I' for Inactive)
ROOT
ATOM      1  C1  BNZ d   1      -1.742   2.624   1.503  0.00  0.00     0.000 A 
ATOM      2  C2  BNZ d   1      -1.842   1.317   1.901  0.00  0.00     0.000 A 
ATOM      3  C3  BNZ d   1      -1.101   0.342   1.293  0.00  0.00     0.000 A 
ATOM      4  C4  BNZ d   1      -0.293   0.668   0.263  0.00  0.00     0.000 A 
ATOM      5  C5  BNZ d   1      -0.189   1.979  -0.155  0.00  0.00     0.000 A 
ATOM      6  C6  BNZ d   1      -0.906   2.964   0.484  0.00  0.00     0.000 A 
ENDROOT
TORSDOF 0
ENDMDL
