MODEL 1
REMARK minimizedAffinity -5.00504875
REMARK minimizedRMSD -1
REMARK  0 active torsions:
REMARK  status: ('A' for Active; 'I' for Inactive)
ROOT
ATOM      1  C1  BNZ d   1      -1.839   1.994   0.654  0.00  0.00     0.000 A 
ATOM      2  C2  BNZ d   1      -1.514   3.107  -0.073  0.00  0.00     0.000 A 
ATOM      3  C3  BNZ d   1      -0.462   3.091  -0.946  0.00  0.00     0.000 A 
ATOM      4  C4  BNZ d   1       0.286   1.974  -1.062  0.00  0.00     0.000 A 
ATOM      5  C5  BNZ d   1      -0.024   0.846  -0.329  0.00  0.00     0.000 A 
ATOM      6  C6  BNZ d   1      -1.107   0.854   0.520  0.00  0.00     0.000 A 
ENDROOT
TORSDOF 0
ENDMDL
