MODEL 1
REMARK minimizedAffinity -4.80989027
REMARK minimizedRMSD -1
REMARK  0 active torsions:
REMARK  status: ('A' for Active; 'I' for Inactive)
ROOT
ATOM      1  C1  BNZ d   1      -0.973   3.042  -0.008  0.00  0.00     0.000 A 
ATOM      2  C2  BNZ d   1      -0.558   1.917  -0.668  0.00  0.00     0.000 A 
ATOM      3  C3  BNZ d   1      -0.407   0.731  -0.004  0.00  0.00     0.000 A 
ATOM      4  C4  BNZ d   1      -0.632   0.682   1.324  0.00  0.00     0.000 A 
ATOM      5  C5  BNZ d   1      -1.043   1.810   2.006  0.00  0.00     0.000 A 
ATOM      6  C6  BNZ d   1      -1.231   2.992   1.328  0.00  0.00     0.000 A 
ENDROOT
TORSDOF 0
ENDMDL
