MODEL 1
REMARK minimizedAffinity -4.89973259
REMARK minimizedRMSD -1
REMARK  0 active torsions:
REMARK  status: ('A' for Active; 'I' for Inactive)
ROOT
ATOM      1  C1  BNZ d   1      -0.137  -0.042   1.731  0.00  0.00     0.000 A 
ATOM      2  C2  BNZ d   1       0.359  -0.041   0.455  0.00  0.00     0.000 A 
ATOM      3  C3  BNZ d   1      -0.071   0.879  -0.461  0.00  0.00     0.000 A 
ATOM      4  C4  BNZ d   1      -1.022   1.768  -0.112  0.00  0.00     0.000 A 
ATOM      5  C5  BNZ d   1      -1.538   1.774   1.169  0.00  0.00     0.000 A 
ATOM      6  C6  BNZ d   1      -1.075   0.872   2.099  0.00  0.00     0.000 A 
ENDROOT
TORSDOF 0
ENDMDL
