MODEL 1
REMARK minimizedAffinity -4.482481
REMARK minimizedRMSD -1
REMARK  0 active torsions:
REMARK  status: ('A' for Active; 'I' for Inactive)
ROOT
ATOM      1  C1  BNZ d   1      -1.568   2.214  -0.035  0.00  0.00     0.000 A 
ATOM      2  C2  BNZ d   1      -1.078   0.998  -0.431  0.00  0.00     0.000 A 
ATOM      3  C3  BNZ d   1      -0.592   0.107   0.485  0.00  0.00     0.000 A 
ATOM      4  C4  BNZ d   1      -0.559   0.449   1.789  0.00  0.00     0.000 A 
ATOM      5  C5  BNZ d   1      -1.040   1.675   2.203  0.00  0.00     0.000 A 
ATOM      6  C6  BNZ d   1      -1.565   2.553   1.283  0.00  0.00     0.000 A 
ENDROOT
TORSDOF 0
ENDMDL
