MODEL 1
REMARK minimizedAffinity -4.76466703
REMARK minimizedRMSD -1
REMARK  0 active torsions:
REMARK  status: ('A' for Active; 'I' for Inactive)
ROOT
ATOM      1  C1  BNZ d   1      -0.332   0.726   0.109  0.00  0.00     0.000 A 
ATOM      2  C2  BNZ d   1      -0.081   2.011  -0.292  0.00  0.00     0.000 A 
ATOM      3  C3  BNZ d   1      -0.681   3.069   0.331  0.00  0.00     0.000 A 
ATOM      4  C4  BNZ d   1      -1.561   2.840   1.327  0.00  0.00     0.000 A 
ATOM      5  C5  BNZ d   1      -1.832   1.549   1.737  0.00  0.00     0.000 A 
ATOM      6  C6  BNZ d   1      -1.196   0.489   1.133  0.00  0.00     0.000 A 
ENDROOT
TORSDOF 0
ENDMDL
