MODEL 1
REMARK minimizedAffinity -4.99087477
REMARK minimizedRMSD -1
REMARK  0 active torsions:
REMARK  status: ('A' for Active; 'I' for Inactive)
ROOT
ATOM      1  C1  BNZ d   1      -0.767   2.252   0.308  0.00  0.00     0.000 A 
ATOM      2  C2  BNZ d   1      -1.789   2.262   1.219  0.00  0.00     0.000 A 
ATOM      3  C3  BNZ d   1      -2.275   1.095   1.739  0.00  0.00     0.000 A 
ATOM      4  C4  BNZ d   1      -1.766  -0.081   1.318  0.00  0.00     0.000 A 
ATOM      5  C5  BNZ d   1      -0.741  -0.108   0.393  0.00  0.00     0.000 A 
ATOM      6  C6  BNZ d   1      -0.228   1.071  -0.098  0.00  0.00     0.000 A 
ENDROOT
TORSDOF 0
ENDMDL
