MODEL 1
REMARK minimizedAffinity -4.6214757
REMARK minimizedRMSD -1
REMARK  0 active torsions:
REMARK  status: ('A' for Active; 'I' for Inactive)
ROOT
ATOM      1  C1  BNZ d   1      -0.962   1.011  -0.393  0.00  0.00     0.000 A 
ATOM      2  C2  BNZ d   1      -1.695   1.866   0.387  0.00  0.00     0.000 A 
ATOM      3  C3  BNZ d   1      -1.597   1.828   1.750  0.00  0.00     0.000 A 
ATOM      4  C4  BNZ d   1      -0.799   0.910   2.332  0.00  0.00     0.000 A 
ATOM      5  C5  BNZ d   1      -0.061   0.035   1.560  0.00  0.00     0.000 A 
ATOM      6  C6  BNZ d   1      -0.132   0.102   0.188  0.00  0.00     0.000 A 
ENDROOT
TORSDOF 0
ENDMDL
