MODEL 1
REMARK minimizedAffinity -2.91383815
REMARK minimizedRMSD -1
REMARK  0 active torsions:
REMARK  status: ('A' for Active; 'I' for Inactive)
ROOT
ATOM      1  C1  BNZ d   1      -0.869   0.827   1.180  0.00  0.00     0.000 A 
ATOM      2  C2  BNZ d   1      -0.161  -0.320   1.422  0.00  0.00     0.000 A 
ATOM      3  C3  BNZ d   1       0.696  -0.825   0.484  0.00  0.00     0.000 A 
ATOM      4  C4  BNZ d   1       0.815  -0.204  -0.707  0.00  0.00     0.000 A 
ATOM      5  C5  BNZ d   1       0.102   0.948  -0.970  0.00  0.00     0.000 A 
ATOM      6  C6  BNZ d   1      -0.731   1.475  -0.009  0.00  0.00     0.000 A 
ENDROOT
TORSDOF 0
ENDMDL
