MODEL 1
REMARK minimizedAffinity -5.0249958
REMARK minimizedRMSD -1
REMARK  0 active torsions:
REMARK  status: ('A' for Active; 'I' for Inactive)
ROOT
ATOM      1  C1  BNZ d   1      -1.438   1.537   2.181  0.00  0.00     0.000 A 
ATOM      2  C2  BNZ d   1      -0.702   0.386   2.081  0.00  0.00     0.000 A 
ATOM      3  C3  BNZ d   1      -0.090   0.047   0.907  0.00  0.00     0.000 A 
ATOM      4  C4  BNZ d   1      -0.248   0.837  -0.175  0.00  0.00     0.000 A 
ATOM      5  C5  BNZ d   1      -0.994   1.996  -0.093  0.00  0.00     0.000 A 
ATOM      6  C6  BNZ d   1      -1.577   2.354   1.102  0.00  0.00     0.000 A 
ENDROOT
TORSDOF 0
ENDMDL
