MODEL 1
REMARK minimizedAffinity -3.16648459
REMARK minimizedRMSD -1
REMARK  0 active torsions:
REMARK  status: ('A' for Active; 'I' for Inactive)
ROOT
ATOM      1  C1  BNZ d   1       0.591  -0.720   0.115  0.00  0.00     0.000 A 
ATOM      2  C2  BNZ d   1      -0.006  -0.634   1.344  0.00  0.00     0.000 A 
ATOM      3  C3  BNZ d   1      -0.641   0.511   1.736  0.00  0.00     0.000 A 
ATOM      4  C4  BNZ d   1      -0.643   1.581   0.916  0.00  0.00     0.000 A 
ATOM      5  C5  BNZ d   1      -0.038   1.514  -0.323  0.00  0.00     0.000 A 
ATOM      6  C6  BNZ d   1       0.566   0.347  -0.730  0.00  0.00     0.000 A 
ENDROOT
TORSDOF 0
ENDMDL
