MODEL 1
REMARK minimizedAffinity -4.71675491
REMARK minimizedRMSD -1
REMARK  0 active torsions:
REMARK  status: ('A' for Active; 'I' for Inactive)
ROOT
ATOM      1  C1  BNZ d   1      -0.118  -0.073   1.548  0.00  0.00     0.000 A 
ATOM      2  C2  BNZ d   1       0.605  -0.251   0.398  0.00  0.00     0.000 A 
ATOM      3  C3  BNZ d   1       0.555   0.670  -0.610  0.00  0.00     0.000 A 
ATOM      4  C4  BNZ d   1      -0.248   1.747  -0.485  0.00  0.00     0.000 A 
ATOM      5  C5  BNZ d   1      -0.990   1.936   0.664  0.00  0.00     0.000 A 
ATOM      6  C6  BNZ d   1      -0.907   1.026   1.693  0.00  0.00     0.000 A 
ENDROOT
TORSDOF 0
ENDMDL
