MODEL 1
REMARK minimizedAffinity -3.94411302
REMARK minimizedRMSD -1
REMARK  0 active torsions:
REMARK  status: ('A' for Active; 'I' for Inactive)
ROOT
ATOM      1  C1  BNZ d   1      -1.621   0.996   1.975  0.00  0.00     0.000 A 
ATOM      2  C2  BNZ d   1      -0.716  -0.007   1.754  0.00  0.00     0.000 A 
ATOM      3  C3  BNZ d   1       0.087   0.006   0.647  0.00  0.00     0.000 A 
ATOM      4  C4  BNZ d   1      -0.044   1.000  -0.255  0.00  0.00     0.000 A 
ATOM      5  C5  BNZ d   1      -0.959   2.014  -0.050  0.00  0.00     0.000 A 
ATOM      6  C6  BNZ d   1      -1.738   2.018   1.084  0.00  0.00     0.000 A 
ENDROOT
TORSDOF 0
ENDMDL
