MODEL 1
REMARK minimizedAffinity -4.08000469
REMARK minimizedRMSD -1
REMARK  0 active torsions:
REMARK  status: ('A' for Active; 'I' for Inactive)
ROOT
ATOM      1  C   UNL d   1       0.833   0.678  -0.164  0.00  0.00     0.020 A 
ATOM      2  C1  UNL d   1       1.385  -0.595  -0.035  0.00  0.00     0.020 A 
ATOM      3  C2  UNL d   1       0.588  -1.663   0.384  0.00  0.00     0.034 A 
ATOM      4  C3  UNL d   1      -0.765  -1.459   0.675  0.00  0.00     0.017 A 
ATOM      5  C4  UNL d   1      -1.319  -0.180   0.545  0.00  0.00     0.017 A 
ATOM      6  C5  UNL d   1      -0.516   0.885   0.125  0.00  0.00     0.034 A 
ATOM      7 Cl   UNL d   1      -2.981   0.150   0.886  0.00  0.00    -0.070 Cl
ATOM      8 Cl1  UNL d   1      -1.692  -2.824   1.188  0.00  0.00    -0.070 Cl
ENDROOT
TORSDOF 0
ENDMDL
