MODEL 1
REMARK minimizedAffinity -3.71284795
REMARK minimizedRMSD -1
REMARK  0 active torsions:
REMARK  status: ('A' for Active; 'I' for Inactive)
ROOT
ATOM      1  C   UNL d   1       1.120  -0.596   0.338  0.00  0.00     0.020 A 
ATOM      2  C1  UNL d   1       0.707   0.733   0.248  0.00  0.00     0.020 A 
ATOM      3  C2  UNL d   1      -0.607   1.079   0.570  0.00  0.00     0.034 A 
ATOM      4  C3  UNL d   1      -1.513   0.096   0.985  0.00  0.00     0.017 A 
ATOM      5  C4  UNL d   1      -1.097  -1.238   1.076  0.00  0.00     0.017 A 
ATOM      6  C5  UNL d   1       0.220  -1.579   0.751  0.00  0.00     0.034 A 
ATOM      7 Cl   UNL d   1      -2.157  -2.507   1.580  0.00  0.00    -0.070 Cl
ATOM      8 Cl1  UNL d   1      -3.121   0.596   1.369  0.00  0.00    -0.070 Cl
ENDROOT
TORSDOF 0
ENDMDL
