MODEL 1
REMARK minimizedAffinity -4.00676966
REMARK minimizedRMSD -1
REMARK  0 active torsions:
REMARK  status: ('A' for Active; 'I' for Inactive)
ROOT
ATOM      1  C   UNL d   1      -0.469  -2.588   1.301  0.00  0.00     0.020 A 
ATOM      2  C1  UNL d   1       0.659  -2.376   0.509  0.00  0.00     0.020 A 
ATOM      3  C2  UNL d   1       0.902  -1.114  -0.036  0.00  0.00     0.034 A 
ATOM      4  C3  UNL d   1       0.016  -0.058   0.210  0.00  0.00     0.017 A 
ATOM      5  C4  UNL d   1      -1.116  -0.272   1.005  0.00  0.00     0.017 A 
ATOM      6  C5  UNL d   1      -1.354  -1.538   1.549  0.00  0.00     0.034 A 
ATOM      7 Cl   UNL d   1      -2.254   0.981   1.354  0.00  0.00    -0.070 Cl
ATOM      8 Cl1  UNL d   1       0.379   1.477  -0.496  0.00  0.00    -0.070 Cl
ENDROOT
TORSDOF 0
ENDMDL
