MODEL 1
REMARK minimizedAffinity -4.05609941
REMARK minimizedRMSD -1
REMARK  0 active torsions:
REMARK  status: ('A' for Active; 'I' for Inactive)
ROOT
ATOM      1  C   UNL d   1      -1.593  -2.243   2.001  0.00  0.00     0.020 A 
ATOM      2  C1  UNL d   1      -2.413  -1.279   1.415  0.00  0.00     0.020 A 
ATOM      3  C2  UNL d   1      -1.866  -0.333   0.546  0.00  0.00     0.034 A 
ATOM      4  C3  UNL d   1      -0.496  -0.347   0.261  0.00  0.00     0.017 A 
ATOM      5  C4  UNL d   1       0.326  -1.315   0.850  0.00  0.00     0.017 A 
ATOM      6  C5  UNL d   1      -0.227  -2.261   1.719  0.00  0.00     0.034 A 
ATOM      7 Cl   UNL d   1       2.026  -1.397   0.546  0.00  0.00    -0.070 Cl
ATOM      8 Cl1  UNL d   1       0.112   0.853  -0.823  0.00  0.00    -0.070 Cl
ENDROOT
TORSDOF 0
ENDMDL
