MODEL 1
REMARK minimizedAffinity -2.07483625
REMARK minimizedRMSD -1
REMARK  0 active torsions:
REMARK  status: ('A' for Active; 'I' for Inactive)
ROOT
ATOM      1  C   UNL d   1      -2.127  -0.580   0.185  0.00  0.00     0.020 A 
ATOM      2  C1  UNL d   1      -2.300   0.800   0.094  0.00  0.00     0.020 A 
ATOM      3  C2  UNL d   1      -1.196   1.650   0.183  0.00  0.00     0.034 A 
ATOM      4  C3  UNL d   1       0.087   1.120   0.364  0.00  0.00     0.017 A 
ATOM      5  C4  UNL d   1       0.260  -0.266   0.456  0.00  0.00     0.017 A 
ATOM      6  C5  UNL d   1      -0.850  -1.112   0.366  0.00  0.00     0.034 A 
ATOM      7 Cl   UNL d   1       1.811  -0.994   0.680  0.00  0.00    -0.070 Cl
ATOM      8 Cl1  UNL d   1       1.408   2.229   0.466  0.00  0.00    -0.070 Cl
ENDROOT
TORSDOF 0
ENDMDL
