MODEL 1
REMARK minimizedAffinity -3.42776775
REMARK minimizedRMSD -1
REMARK  0 active torsions:
REMARK  status: ('A' for Active; 'I' for Inactive)
ROOT
ATOM      1  C   UNL d   1       1.555  -1.203   0.491  0.00  0.00     0.020 A 
ATOM      2  C1  UNL d   1       1.418   0.184   0.448  0.00  0.00     0.020 A 
ATOM      3  C2  UNL d   1       0.163   0.768   0.631  0.00  0.00     0.034 A 
ATOM      4  C3  UNL d   1      -0.961  -0.035   0.857  0.00  0.00     0.017 A 
ATOM      5  C4  UNL d   1      -0.823  -1.427   0.899  0.00  0.00     0.017 A 
ATOM      6  C5  UNL d   1       0.436  -2.006   0.716  0.00  0.00     0.034 A 
ATOM      7 Cl   UNL d   1      -2.163  -2.483   1.174  0.00  0.00    -0.070 Cl
ATOM      8 Cl1  UNL d   1      -2.482   0.755   1.074  0.00  0.00    -0.070 Cl
ENDROOT
TORSDOF 0
ENDMDL
