MODEL 1
REMARK minimizedAffinity -3.52814269
REMARK minimizedRMSD -1
REMARK  0 active torsions:
REMARK  status: ('A' for Active; 'I' for Inactive)
ROOT
ATOM      1  C   UNL d   1      -0.748   1.963   0.557  0.00  0.00     0.020 A 
ATOM      2  C1  UNL d   1       0.254   1.465  -0.275  0.00  0.00     0.020 A 
ATOM      3  C2  UNL d   1       0.592   0.111  -0.228  0.00  0.00     0.034 A 
ATOM      4  C3  UNL d   1      -0.074  -0.750   0.652  0.00  0.00     0.017 A 
ATOM      5  C4  UNL d   1      -1.079  -0.250   1.487  0.00  0.00     0.017 A 
ATOM      6  C5  UNL d   1      -1.413   1.107   1.436  0.00  0.00     0.034 A 
ATOM      7 Cl   UNL d   1      -1.945  -1.250   2.599  0.00  0.00    -0.070 Cl
ATOM      8 Cl1  UNL d   1       0.395  -2.413   0.657  0.00  0.00    -0.070 Cl
ENDROOT
TORSDOF 0
ENDMDL
