MODEL 1
REMARK minimizedAffinity -2.63191485
REMARK minimizedRMSD -1
REMARK  0 active torsions:
REMARK  status: ('A' for Active; 'I' for Inactive)
ROOT
ATOM      1  C   UNL d   1       1.119  -2.260   0.158  0.00  0.00     0.020 A 
ATOM      2  C1  UNL d   1       0.009  -2.455   0.979  0.00  0.00     0.020 A 
ATOM      3  C2  UNL d   1      -0.900  -1.414   1.181  0.00  0.00     0.034 A 
ATOM      4  C3  UNL d   1      -0.700  -0.174   0.563  0.00  0.00     0.017 A 
ATOM      5  C4  UNL d   1       0.415   0.020  -0.260  0.00  0.00     0.017 A 
ATOM      6  C5  UNL d   1       1.322  -1.026  -0.460  0.00  0.00     0.034 A 
ATOM      7 Cl   UNL d   1       0.728   1.521  -1.057  0.00  0.00    -0.070 Cl
ATOM      8 Cl1  UNL d   1      -1.865   1.068   0.858  0.00  0.00    -0.070 Cl
ENDROOT
TORSDOF 0
ENDMDL
