MODEL 1
REMARK minimizedAffinity -3.96157408
REMARK minimizedRMSD -1
REMARK  0 active torsions:
REMARK  status: ('A' for Active; 'I' for Inactive)
ROOT
ATOM      1  C   UNL d   1      -0.113   1.579   0.378  0.00  0.00     0.020 A 
ATOM      2  C1  UNL d   1      -1.387   1.313   0.877  0.00  0.00     0.020 A 
ATOM      3  C2  UNL d   1      -1.798  -0.007   1.074  0.00  0.00     0.034 A 
ATOM      4  C3  UNL d   1      -0.934  -1.066   0.774  0.00  0.00     0.017 A 
ATOM      5  C4  UNL d   1       0.346  -0.798   0.273  0.00  0.00     0.017 A 
ATOM      6  C5  UNL d   1       0.752   0.526   0.078  0.00  0.00     0.034 A 
ATOM      7 Cl   UNL d   1       1.468  -2.051  -0.121  0.00  0.00    -0.070 Cl
ATOM      8 Cl1  UNL d   1      -1.508  -2.673   1.043  0.00  0.00    -0.070 Cl
ENDROOT
TORSDOF 0
ENDMDL
