MODEL 1
REMARK minimizedAffinity -2.71535468
REMARK minimizedRMSD -1
REMARK  0 active torsions:
REMARK  status: ('A' for Active; 'I' for Inactive)
ROOT
ATOM      1  C   UNL d   1       2.485   1.919  -4.134  0.00  0.00     0.020 A 
ATOM      2  C1  UNL d   1       3.276   1.410  -3.105  0.00  0.00     0.020 A 
ATOM      3  C2  UNL d   1       2.784   1.372  -1.799  0.00  0.00     0.034 A 
ATOM      4  C3  UNL d   1       1.496   1.843  -1.518  0.00  0.00     0.017 A 
ATOM      5  C4  UNL d   1       0.703   2.354  -2.552  0.00  0.00     0.017 A 
ATOM      6  C5  UNL d   1       1.201   2.390  -3.858  0.00  0.00     0.034 A 
ATOM      7 Cl   UNL d   1      -0.896   2.954  -2.284  0.00  0.00    -0.070 Cl
ATOM      8 Cl1  UNL d   1       0.951   1.766   0.119  0.00  0.00    -0.070 Cl
ENDROOT
TORSDOF 0
ENDMDL
