MODEL 1
REMARK minimizedAffinity -3.86196661
REMARK minimizedRMSD -1
REMARK  0 active torsions:
REMARK  status: ('A' for Active; 'I' for Inactive)
ROOT
ATOM      1  C   UNL d   1      -2.128  -1.323   1.778  0.00  0.00     0.020 A 
ATOM      2  C1  UNL d   1      -1.509  -2.570   1.701  0.00  0.00     0.020 A 
ATOM      3  C2  UNL d   1      -0.344  -2.726   0.946  0.00  0.00     0.034 A 
ATOM      4  C3  UNL d   1       0.204  -1.633   0.265  0.00  0.00     0.017 A 
ATOM      5  C4  UNL d   1      -0.418  -0.382   0.343  0.00  0.00     0.017 A 
ATOM      6  C5  UNL d   1      -1.584  -0.232   1.100  0.00  0.00     0.034 A 
ATOM      7 Cl   UNL d   1       0.199   1.013  -0.470  0.00  0.00    -0.070 Cl
ATOM      8 Cl1  UNL d   1       1.646  -1.898  -0.650  0.00  0.00    -0.070 Cl
ENDROOT
TORSDOF 0
ENDMDL
