MODEL 1
REMARK minimizedAffinity -4.94305372
REMARK minimizedRMSD -1
REMARK  0 active torsions:
REMARK  status: ('A' for Active; 'I' for Inactive)
ROOT
ATOM      1  C   UNL d   1       0.743   1.379  -0.056  0.00  0.00     0.020 A 
ATOM      2  C1  UNL d   1       1.296   0.111  -0.232  0.00  0.00     0.020 A 
ATOM      3  C2  UNL d   1       0.606  -1.019   0.213  0.00  0.00     0.034 A 
ATOM      4  C3  UNL d   1      -0.640  -0.883   0.836  0.00  0.00     0.017 A 
ATOM      5  C4  UNL d   1      -1.194   0.390   1.012  0.00  0.00     0.017 A 
ATOM      6  C5  UNL d   1      -0.499   1.518   0.564  0.00  0.00     0.034 A 
ATOM      7 Cl   UNL d   1      -2.727   0.638   1.771  0.00  0.00    -0.070 Cl
ATOM      8 Cl1  UNL d   1      -1.437  -2.323   1.362  0.00  0.00    -0.070 Cl
ENDROOT
TORSDOF 0
ENDMDL
