MODEL 1
REMARK minimizedAffinity -4.90198183
REMARK minimizedRMSD -1
REMARK  0 active torsions:
REMARK  status: ('A' for Active; 'I' for Inactive)
ROOT
ATOM      1  C   UNL d   1      -2.548  -2.460   1.630  0.00  0.00     0.020 A 
ATOM      2  C1  UNL d   1      -1.508  -2.768   0.754  0.00  0.00     0.020 A 
ATOM      3  C2  UNL d   1      -0.824  -1.745   0.095  0.00  0.00     0.034 A 
ATOM      4  C3  UNL d   1      -1.179  -0.408   0.312  0.00  0.00     0.017 A 
ATOM      5  C4  UNL d   1      -2.223  -0.100   1.191  0.00  0.00     0.017 A 
ATOM      6  C5  UNL d   1      -2.905  -1.129   1.848  0.00  0.00     0.034 A 
ATOM      7 Cl   UNL d   1      -2.718   1.525   1.509  0.00  0.00    -0.070 Cl
ATOM      8 Cl1  UNL d   1      -0.290   0.807  -0.536  0.00  0.00    -0.070 Cl
ENDROOT
TORSDOF 0
ENDMDL
