MODEL 1
REMARK minimizedAffinity -5.35758448
REMARK minimizedRMSD -1
REMARK  0 active torsions:
REMARK  status: ('A' for Active; 'I' for Inactive)
ROOT
ATOM      1  C   UNL d   1      -1.502  -2.757   1.409  0.00  0.00     0.020 A 
ATOM      2  C1  UNL d   1      -0.371  -2.526   0.627  0.00  0.00     0.020 A 
ATOM      3  C2  UNL d   1      -0.051  -1.226   0.229  0.00  0.00     0.034 A 
ATOM      4  C3  UNL d   1      -0.863  -0.153   0.612  0.00  0.00     0.017 A 
ATOM      5  C4  UNL d   1      -1.998  -0.386   1.397  0.00  0.00     0.017 A 
ATOM      6  C5  UNL d   1      -2.314  -1.689   1.793  0.00  0.00     0.034 A 
ATOM      7 Cl   UNL d   1      -3.049   0.888   1.909  0.00  0.00    -0.070 Cl
ATOM      8 Cl1  UNL d   1      -0.407   1.428   0.084  0.00  0.00    -0.070 Cl
ENDROOT
TORSDOF 0
ENDMDL
