MODEL 1
REMARK minimizedAffinity -2.73573208
REMARK minimizedRMSD -1
REMARK  0 active torsions:
REMARK  status: ('A' for Active; 'I' for Inactive)
ROOT
ATOM      1  C   UNL d   1      -2.093  -1.730   0.131  0.00  0.00     0.020 A 
ATOM      2  C1  UNL d   1      -1.442  -2.620   0.984  0.00  0.00     0.020 A 
ATOM      3  C2  UNL d   1      -0.092  -2.434   1.289  0.00  0.00     0.034 A 
ATOM      4  C3  UNL d   1       0.611  -1.355   0.739  0.00  0.00     0.017 A 
ATOM      5  C4  UNL d   1      -0.044  -0.463  -0.117  0.00  0.00     0.017 A 
ATOM      6  C5  UNL d   1      -1.396  -0.654  -0.418  0.00  0.00     0.034 A 
ATOM      7 Cl   UNL d   1       0.757   0.891  -0.833  0.00  0.00    -0.070 Cl
ATOM      8 Cl1  UNL d   1       2.279  -1.186   1.159  0.00  0.00    -0.070 Cl
ENDROOT
TORSDOF 0
ENDMDL
