MODEL 1
REMARK minimizedAffinity -4.68164635
REMARK minimizedRMSD -1
REMARK  0 active torsions:
REMARK  status: ('A' for Active; 'I' for Inactive)
ROOT
ATOM      1  C   UNL d   1       0.960   0.591  -0.015  0.00  0.00     0.020 A 
ATOM      2  C1  UNL d   1       1.450  -0.702   0.164  0.00  0.00     0.020 A 
ATOM      3  C2  UNL d   1       0.565  -1.758   0.390  0.00  0.00     0.034 A 
ATOM      4  C3  UNL d   1      -0.814  -1.524   0.437  0.00  0.00     0.017 A 
ATOM      5  C4  UNL d   1      -1.305  -0.226   0.257  0.00  0.00     0.017 A 
ATOM      6  C5  UNL d   1      -0.414   0.829   0.031  0.00  0.00     0.034 A 
ATOM      7 Cl   UNL d   1      -2.993   0.141   0.302  0.00  0.00    -0.070 Cl
ATOM      8 Cl1  UNL d   1      -1.850  -2.878   0.720  0.00  0.00    -0.070 Cl
ENDROOT
TORSDOF 0
ENDMDL
