MODEL 1
REMARK minimizedAffinity 3.32320142
REMARK minimizedRMSD -1
REMARK  0 active torsions:
REMARK  status: ('A' for Active; 'I' for Inactive)
ROOT
ATOM      1  C   UNL d   1       3.238  -0.006   0.255  0.00  0.00     0.023 A 
ATOM      2  C1  UNL d   1       2.534  -0.835   1.128  0.00  0.00     0.003 A 
ATOM      3  C2  UNL d   1       1.146  -0.948   1.019  0.00  0.00     0.048 A 
ATOM      4  C3  UNL d   1       0.469  -0.231   0.033  0.00  0.00     0.023 A 
ATOM      5  C4  UNL d   1       1.170   0.599  -0.844  0.00  0.00     0.048 A 
ATOM      6  C5  UNL d   1       2.557   0.710  -0.730  0.00  0.00     0.003 A 
ATOM      7  I   UNL d   1      -1.596  -0.398  -0.131  0.00  0.00    -0.146 I 
ENDROOT
TORSDOF 0
ENDMDL
