MODEL 1
REMARK minimizedAffinity 1.80442953
REMARK minimizedRMSD -1
REMARK  0 active torsions:
REMARK  status: ('A' for Active; 'I' for Inactive)
ROOT
ATOM      1  C   UNL d   1      -2.298   0.286  -0.345  0.00  0.00     0.023 A 
ATOM      2  C1  UNL d   1      -3.098   1.238   0.287  0.00  0.00     0.003 A 
ATOM      3  C2  UNL d   1      -2.960   1.470   1.657  0.00  0.00     0.048 A 
ATOM      4  C3  UNL d   1      -2.019   0.747   2.389  0.00  0.00     0.023 A 
ATOM      5  C4  UNL d   1      -1.215  -0.206   1.761  0.00  0.00     0.048 A 
ATOM      6  C5  UNL d   1      -1.358  -0.435   0.391  0.00  0.00     0.003 A 
ATOM      7  I   UNL d   1      -1.811   1.091   4.429  0.00  0.00    -0.146 I 
ENDROOT
TORSDOF 0
ENDMDL
