MODEL 1
REMARK minimizedAffinity 2.09937716
REMARK minimizedRMSD -1
REMARK  0 active torsions:
REMARK  status: ('A' for Active; 'I' for Inactive)
ROOT
ATOM      1  C   UNL d   1       0.174   0.521   2.665  0.00  0.00     0.023 A 
ATOM      2  C1  UNL d   1      -0.730   1.512   3.048  0.00  0.00     0.003 A 
ATOM      3  C2  UNL d   1      -1.940   1.657   2.365  0.00  0.00     0.048 A 
ATOM      4  C3  UNL d   1      -2.239   0.807   1.301  0.00  0.00     0.023 A 
ATOM      5  C4  UNL d   1      -1.338  -0.186   0.915  0.00  0.00     0.048 A 
ATOM      6  C5  UNL d   1      -0.130  -0.327   1.600  0.00  0.00     0.003 A 
ATOM      7  I   UNL d   1      -4.039   1.021   0.284  0.00  0.00    -0.146 I 
ENDROOT
TORSDOF 0
ENDMDL
