MODEL 1
REMARK minimizedAffinity 6.28840113
REMARK minimizedRMSD -1
REMARK  0 active torsions:
REMARK  status: ('A' for Active; 'I' for Inactive)
ROOT
ATOM      1  C   UNL d   1      -0.907  -5.903  -4.596  0.00  0.00     0.023 A 
ATOM      2  C1  UNL d   1      -1.970  -5.071  -4.949  0.00  0.00     0.003 A 
ATOM      3  C2  UNL d   1      -1.784  -3.688  -5.015  0.00  0.00     0.048 A 
ATOM      4  C3  UNL d   1      -0.532  -3.145  -4.728  0.00  0.00     0.023 A 
ATOM      5  C4  UNL d   1       0.534  -3.973  -4.376  0.00  0.00     0.048 A 
ATOM      6  C5  UNL d   1       0.343  -5.355  -4.310  0.00  0.00     0.003 A 
ATOM      7  I   UNL d   1      -0.253  -1.087  -4.826  0.00  0.00    -0.146 I 
ENDROOT
TORSDOF 0
ENDMDL
