MODEL 1
REMARK minimizedAffinity 2.4735477
REMARK minimizedRMSD -1
REMARK  0 active torsions:
REMARK  status: ('A' for Active; 'I' for Inactive)
ROOT
ATOM      1  C   UNL d   1      -1.426  -5.345  -5.077  0.00  0.00     0.023 A 
ATOM      2  C1  UNL d   1      -2.313  -4.478  -4.439  0.00  0.00     0.003 A 
ATOM      3  C2  UNL d   1      -1.922  -3.170  -4.144  0.00  0.00     0.048 A 
ATOM      4  C3  UNL d   1      -0.644  -2.736  -4.492  0.00  0.00     0.023 A 
ATOM      5  C4  UNL d   1       0.247  -3.600  -5.132  0.00  0.00     0.048 A 
ATOM      6  C5  UNL d   1      -0.148  -4.907  -5.423  0.00  0.00     0.003 A 
ATOM      7  I   UNL d   1      -0.060  -0.789  -4.055  0.00  0.00    -0.146 I 
ENDROOT
TORSDOF 0
ENDMDL
