MODEL 1
REMARK minimizedAffinity 1.71265209
REMARK minimizedRMSD -1
REMARK  0 active torsions:
REMARK  status: ('A' for Active; 'I' for Inactive)
ROOT
ATOM      1  C   UNL d   1      -1.710  -0.618   2.329  0.00  0.00     0.023 A 
ATOM      2  C1  UNL d   1      -2.331  -1.464   1.411  0.00  0.00     0.003 A 
ATOM      3  C2  UNL d   1      -3.216  -0.942   0.466  0.00  0.00     0.048 A 
ATOM      4  C3  UNL d   1      -3.475   0.428   0.444  0.00  0.00     0.023 A 
ATOM      5  C4  UNL d   1      -2.855   1.279   1.360  0.00  0.00     0.048 A 
ATOM      6  C5  UNL d   1      -1.971   0.752   2.303  0.00  0.00     0.003 A 
ATOM      7  I   UNL d   1      -4.792   1.208  -0.962  0.00  0.00    -0.146 I 
ENDROOT
TORSDOF 0
ENDMDL
