MODEL 1
REMARK minimizedAffinity 3.05675435
REMARK minimizedRMSD -1
REMARK  0 active torsions:
REMARK  status: ('A' for Active; 'I' for Inactive)
ROOT
ATOM      1  C   UNL d   1      -3.273  -1.044  -0.741  0.00  0.00     0.023 A 
ATOM      2  C1  UNL d   1      -2.366  -1.692   0.098  0.00  0.00     0.003 A 
ATOM      3  C2  UNL d   1      -1.692  -0.972   1.087  0.00  0.00     0.048 A 
ATOM      4  C3  UNL d   1      -1.930   0.394   1.232  0.00  0.00     0.023 A 
ATOM      5  C4  UNL d   1      -2.838   1.046   0.395  0.00  0.00     0.048 A 
ATOM      6  C5  UNL d   1      -3.509   0.323  -0.593  0.00  0.00     0.003 A 
ATOM      7  I   UNL d   1      -0.928   1.466   2.703  0.00  0.00    -0.146 I 
ENDROOT
TORSDOF 0
ENDMDL
