MODEL 1
REMARK minimizedAffinity 9.333354
REMARK minimizedRMSD -1
REMARK  0 active torsions:
REMARK  status: ('A' for Active; 'I' for Inactive)
ROOT
ATOM      1  C   UNL d   1      -3.839  -0.433   3.153  0.00  0.00     0.023 A 
ATOM      2  C1  UNL d   1      -2.927  -1.472   2.967  0.00  0.00     0.003 A 
ATOM      3  C2  UNL d   1      -1.672  -1.212   2.414  0.00  0.00     0.048 A 
ATOM      4  C3  UNL d   1      -1.334   0.091   2.049  0.00  0.00     0.023 A 
ATOM      5  C4  UNL d   1      -2.243   1.135   2.234  0.00  0.00     0.048 A 
ATOM      6  C5  UNL d   1      -3.497   0.869   2.786  0.00  0.00     0.003 A 
ATOM      7  I   UNL d   1       0.534   0.482   1.225  0.00  0.00    -0.146 I 
ENDROOT
TORSDOF 0
ENDMDL
