MODEL 1
REMARK minimizedAffinity -3.31511331
REMARK minimizedRMSD -1
REMARK  2 active torsions:
REMARK  status: ('A' for Active; 'I' for Inactive)
REMARK    1  A    between atoms: C1_2  and  C2_3 
REMARK    2  A    between atoms: C2_3  and  C3_4 
ROOT
ATOM      1  C3  UNL d   1       0.273   0.012   0.065  0.00  0.00    -0.075 A 
ATOM      2  C4  UNL d   1       0.981   1.083  -0.500  0.00  0.00     0.002 A 
ATOM      3  C5  UNL d   1       1.578   0.954  -1.754  0.00  0.00     0.002 A 
ATOM      4  C6  UNL d   1       1.484  -0.246  -2.454  0.00  0.00    -0.004 A 
ATOM      5  C7  UNL d   1       0.797  -1.322  -1.896  0.00  0.00     0.002 A 
ATOM      6  C8  UNL d   1       0.195  -1.195  -0.643  0.00  0.00     0.002 A 
ENDROOT
BRANCH   1   7
ATOM      7  C2  UNL d   1      -0.400   0.154   1.409  0.00  0.00     0.056 C 
BRANCH   7   8
ATOM      8  C1  UNL d   1      -1.921  -0.029   1.367  0.00  0.00     0.007 C 
ATOM      9  C   UNL d   1      -2.676   1.034   2.154  0.00  0.00     0.009 C 
ENDBRANCH   7   8
ENDBRANCH   1   7
TORSDOF 2
ENDMDL
