MODEL 1
REMARK minimizedAffinity -6.35676098
REMARK minimizedRMSD -1
REMARK  2 active torsions:
REMARK  status: ('A' for Active; 'I' for Inactive)
REMARK    1  A    between atoms: C1_2  and  C2_3 
REMARK    2  A    between atoms: C2_3  and  C3_4 
ROOT
ATOM      1  C3  UNL d   1      -0.010   0.215  -0.377  0.00  0.00    -0.075 A 
ATOM      2  C4  UNL d   1       0.726   1.392  -0.572  0.00  0.00     0.002 A 
ATOM      3  C5  UNL d   1       1.558   1.531  -1.683  0.00  0.00     0.002 A 
ATOM      4  C6  UNL d   1       1.673   0.494  -2.606  0.00  0.00    -0.004 A 
ATOM      5  C7  UNL d   1       0.959  -0.687  -2.413  0.00  0.00     0.002 A 
ATOM      6  C8  UNL d   1       0.122  -0.827  -1.305  0.00  0.00     0.002 A 
ENDROOT
BRANCH   1   7
ATOM      7  C2  UNL d   1      -0.935   0.069   0.808  0.00  0.00     0.056 C 
BRANCH   7   8
ATOM      8  C1  UNL d   1      -2.413  -0.078   0.431  0.00  0.00     0.007 C 
ATOM      9  C   UNL d   1      -3.311   0.949   1.109  0.00  0.00     0.009 C 
ENDBRANCH   7   8
ENDBRANCH   1   7
TORSDOF 2
ENDMDL
