MODEL 1
REMARK minimizedAffinity -4.99902534
REMARK minimizedRMSD -1
REMARK  2 active torsions:
REMARK  status: ('A' for Active; 'I' for Inactive)
REMARK    1  A    between atoms: C1_2  and  C2_3 
REMARK    2  A    between atoms: C2_3  and  C3_4 
ROOT
ATOM      1  C3  UNL d   1      -0.350   0.145   0.208  0.00  0.00    -0.075 A 
ATOM      2  C4  UNL d   1      -0.342  -0.962  -0.653  0.00  0.00     0.002 A 
ATOM      3  C5  UNL d   1       0.391  -0.932  -1.839  0.00  0.00     0.002 A 
ATOM      4  C6  UNL d   1       1.116   0.206  -2.184  0.00  0.00    -0.004 A 
ATOM      5  C7  UNL d   1       1.102   1.318  -1.345  0.00  0.00     0.002 A 
ATOM      6  C8  UNL d   1       0.373   1.289  -0.155  0.00  0.00     0.002 A 
ENDROOT
BRANCH   1   7
ATOM      7  C2  UNL d   1      -1.119   0.107   1.508  0.00  0.00     0.056 C 
BRANCH   7   8
ATOM      8  C1  UNL d   1      -2.630   0.301   1.345  0.00  0.00     0.007 C 
ATOM      9  C   UNL d   1      -3.062   1.758   1.442  0.00  0.00     0.009 C 
ENDBRANCH   7   8
ENDBRANCH   1   7
TORSDOF 2
ENDMDL
