MODEL 1
REMARK minimizedAffinity -6.0045023
REMARK minimizedRMSD -1
REMARK  2 active torsions:
REMARK  status: ('A' for Active; 'I' for Inactive)
REMARK    1  A    between atoms: C1_2  and  C2_3 
REMARK    2  A    between atoms: C2_3  and  C3_4 
ROOT
ATOM      1  C3  UNL d   1       0.623  -0.386  -1.807  0.00  0.00    -0.075 A 
ATOM      2  C4  UNL d   1       0.582  -1.734  -1.424  0.00  0.00     0.002 A 
ATOM      3  C5  UNL d   1       1.629  -2.596  -1.752  0.00  0.00     0.002 A 
ATOM      4  C6  UNL d   1       2.723  -2.125  -2.474  0.00  0.00    -0.004 A 
ATOM      5  C7  UNL d   1       2.766  -0.791  -2.874  0.00  0.00     0.002 A 
ATOM      6  C8  UNL d   1       1.722   0.075  -2.544  0.00  0.00     0.002 A 
ENDROOT
BRANCH   1   7
ATOM      7  C2  UNL d   1      -0.493   0.559  -1.430  0.00  0.00     0.056 C 
BRANCH   7   8
ATOM      8  C1  UNL d   1      -0.489   0.971   0.045  0.00  0.00     0.007 C 
ATOM      9  C   UNL d   1       0.783   1.696   0.463  0.00  0.00     0.009 C 
ENDBRANCH   7   8
ENDBRANCH   1   7
TORSDOF 2
ENDMDL
