MODEL 1
REMARK minimizedAffinity -2.82489991
REMARK minimizedRMSD -1
REMARK  2 active torsions:
REMARK  status: ('A' for Active; 'I' for Inactive)
REMARK    1  A    between atoms: C1_2  and  C2_3 
REMARK    2  A    between atoms: C2_3  and  C3_4 
ROOT
ATOM      1  C3  UNL d   1      -0.918  -0.050   0.595  0.00  0.00    -0.075 A 
ATOM      2  C4  UNL d   1      -0.020   0.847  -0.001  0.00  0.00     0.002 A 
ATOM      3  C5  UNL d   1       0.901   0.402  -0.949  0.00  0.00     0.002 A 
ATOM      4  C6  UNL d   1       0.944  -0.944  -1.305  0.00  0.00    -0.004 A 
ATOM      5  C7  UNL d   1       0.068  -1.847  -0.708  0.00  0.00     0.002 A 
ATOM      6  C8  UNL d   1      -0.859  -1.404   0.238  0.00  0.00     0.002 A 
ENDROOT
BRANCH   1   7
ATOM      7  C2  UNL d   1      -1.938   0.431   1.600  0.00  0.00     0.056 C 
BRANCH   7   8
ATOM      8  C1  UNL d   1      -3.288   0.815   0.984  0.00  0.00     0.007 C 
ATOM      9  C   UNL d   1      -4.349  -0.266   1.141  0.00  0.00     0.009 C 
ENDBRANCH   7   8
ENDBRANCH   1   7
TORSDOF 2
ENDMDL
