MODEL 1
REMARK minimizedAffinity -5.23030281
REMARK minimizedRMSD -1
REMARK  2 active torsions:
REMARK  status: ('A' for Active; 'I' for Inactive)
REMARK    1  A    between atoms: C1_2  and  C2_3 
REMARK    2  A    between atoms: C2_3  and  C3_4 
ROOT
ATOM      1  C3  UNL d   1      -0.402   0.332   0.246  0.00  0.00    -0.075 A 
ATOM      2  C4  UNL d   1      -0.826  -0.563  -0.747  0.00  0.00     0.002 A 
ATOM      3  C5  UNL d   1      -0.098  -0.706  -1.928  0.00  0.00     0.002 A 
ATOM      4  C6  UNL d   1       1.055   0.049  -2.136  0.00  0.00    -0.004 A 
ATOM      5  C7  UNL d   1       1.476   0.953  -1.163  0.00  0.00     0.002 A 
ATOM      6  C8  UNL d   1       0.752   1.095   0.022  0.00  0.00     0.002 A 
ENDROOT
BRANCH   1   7
ATOM      7  C2  UNL d   1      -1.169   0.470   1.540  0.00  0.00     0.056 C 
BRANCH   7   8
ATOM      8  C1  UNL d   1      -2.645   0.073   1.435  0.00  0.00     0.007 C 
ATOM      9  C   UNL d   1      -3.596   1.167   1.902  0.00  0.00     0.009 C 
ENDBRANCH   7   8
ENDBRANCH   1   7
TORSDOF 2
ENDMDL
