MODEL 1
REMARK minimizedAffinity -5.60950279
REMARK minimizedRMSD -1
REMARK  2 active torsions:
REMARK  status: ('A' for Active; 'I' for Inactive)
REMARK    1  A    between atoms: C1_2  and  C2_3 
REMARK    2  A    between atoms: C2_3  and  C3_4 
ROOT
ATOM      1  C3  UNL d   1      -0.438   0.268  -0.204  0.00  0.00    -0.075 A 
ATOM      2  C4  UNL d   1      -0.544  -0.447  -1.406  0.00  0.00     0.002 A 
ATOM      3  C5  UNL d   1       0.370  -0.234  -2.439  0.00  0.00     0.002 A 
ATOM      4  C6  UNL d   1       1.392   0.700  -2.287  0.00  0.00    -0.004 A 
ATOM      5  C7  UNL d   1       1.496   1.428  -1.104  0.00  0.00     0.002 A 
ATOM      6  C8  UNL d   1       0.586   1.214  -0.067  0.00  0.00     0.002 A 
ENDROOT
BRANCH   1   7
ATOM      7  C2  UNL d   1      -1.406   0.022   0.929  0.00  0.00     0.056 C 
BRANCH   7   8
ATOM      8  C1  UNL d   1      -2.879   0.180   0.537  0.00  0.00     0.007 C 
ATOM      9  C   UNL d   1      -3.771   0.581   1.704  0.00  0.00     0.009 C 
ENDBRANCH   7   8
ENDBRANCH   1   7
TORSDOF 2
ENDMDL
