MODEL 1
REMARK minimizedAffinity -3.54937434
REMARK minimizedRMSD -1
REMARK  2 active torsions:
REMARK  status: ('A' for Active; 'I' for Inactive)
REMARK    1  A    between atoms: C1_2  and  C2_3 
REMARK    2  A    between atoms: C2_3  and  C3_4 
ROOT
ATOM      1  C3  UNL d   1      -0.879  -0.197   0.454  0.00  0.00    -0.075 A 
ATOM      2  C4  UNL d   1      -2.128  -0.764   0.159  0.00  0.00     0.002 A 
ATOM      3  C5  UNL d   1      -3.245  -0.458   0.937  0.00  0.00     0.002 A 
ATOM      4  C6  UNL d   1      -3.127   0.408   2.021  0.00  0.00    -0.004 A 
ATOM      5  C7  UNL d   1      -1.889   0.964   2.333  0.00  0.00     0.002 A 
ATOM      6  C8  UNL d   1      -0.770   0.663   1.554  0.00  0.00     0.002 A 
ENDROOT
BRANCH   1   7
ATOM      7  C2  UNL d   1       0.328  -0.501  -0.401  0.00  0.00     0.056 C 
BRANCH   7   8
ATOM      8  C1  UNL d   1       1.077   0.744  -0.887  0.00  0.00     0.007 C 
ATOM      9  C   UNL d   1       1.462   0.677  -2.359  0.00  0.00     0.009 C 
ENDBRANCH   7   8
ENDBRANCH   1   7
TORSDOF 2
ENDMDL
