MODEL 1
REMARK minimizedAffinity -4.09202242
REMARK minimizedRMSD -1
REMARK  2 active torsions:
REMARK  status: ('A' for Active; 'I' for Inactive)
REMARK    1  A    between atoms: C1_2  and  C2_3 
REMARK    2  A    between atoms: C2_3  and  C3_4 
ROOT
ATOM      1  C3  UNL d   1       0.064   0.112   0.244  0.00  0.00    -0.075 A 
ATOM      2  C4  UNL d   1       0.023  -0.907  -0.718  0.00  0.00     0.002 A 
ATOM      3  C5  UNL d   1       0.692  -0.761  -1.934  0.00  0.00     0.002 A 
ATOM      4  C6  UNL d   1       1.400   0.407  -2.206  0.00  0.00    -0.004 A 
ATOM      5  C7  UNL d   1       1.434   1.433  -1.264  0.00  0.00     0.002 A 
ATOM      6  C8  UNL d   1       0.770   1.288  -0.045  0.00  0.00     0.002 A 
ENDROOT
BRANCH   1   7
ATOM      7  C2  UNL d   1      -0.633  -0.052   1.574  0.00  0.00     0.056 C 
BRANCH   7   8
ATOM      8  C1  UNL d   1      -2.150   0.152   1.511  0.00  0.00     0.007 C 
ATOM      9  C   UNL d   1      -2.690   1.000   2.655  0.00  0.00     0.009 C 
ENDBRANCH   7   8
ENDBRANCH   1   7
TORSDOF 2
ENDMDL
