MODEL 1
REMARK minimizedAffinity -5.09365702
REMARK minimizedRMSD -1
REMARK  2 active torsions:
REMARK  status: ('A' for Active; 'I' for Inactive)
REMARK    1  A    between atoms: C1_2  and  C2_3 
REMARK    2  A    between atoms: C2_3  and  C3_4 
ROOT
ATOM      1  C3  UNL d   1      -0.057   0.037  -0.182  0.00  0.00    -0.075 A 
ATOM      2  C4  UNL d   1       0.934   1.021  -0.312  0.00  0.00     0.002 A 
ATOM      3  C5  UNL d   1       1.704   1.101  -1.473  0.00  0.00     0.002 A 
ATOM      4  C6  UNL d   1       1.502   0.194  -2.511  0.00  0.00    -0.004 A 
ATOM      5  C7  UNL d   1       0.531  -0.798  -2.385  0.00  0.00     0.002 A 
ATOM      6  C8  UNL d   1      -0.244  -0.877  -1.227  0.00  0.00     0.002 A 
ENDROOT
BRANCH   1   7
ATOM      7  C2  UNL d   1      -0.914  -0.036   1.060  0.00  0.00     0.056 C 
BRANCH   7   8
ATOM      8  C1  UNL d   1      -2.379  -0.391   0.786  0.00  0.00     0.007 C 
ATOM      9  C   UNL d   1      -3.362   0.481   1.555  0.00  0.00     0.009 C 
ENDBRANCH   7   8
ENDBRANCH   1   7
TORSDOF 2
ENDMDL
