MODEL 1
REMARK minimizedAffinity -4.14587259
REMARK minimizedRMSD -1
REMARK  2 active torsions:
REMARK  status: ('A' for Active; 'I' for Inactive)
REMARK    1  A    between atoms: C1_2  and  C2_3 
REMARK    2  A    between atoms: C2_3  and  C3_4 
ROOT
ATOM      1  C3  UNL d   1       0.638  -1.064  -1.004  0.00  0.00    -0.075 A 
ATOM      2  C4  UNL d   1       1.401  -2.063  -1.627  0.00  0.00     0.002 A 
ATOM      3  C5  UNL d   1       2.316  -1.735  -2.628  0.00  0.00     0.002 A 
ATOM      4  C6  UNL d   1       2.473  -0.409  -3.025  0.00  0.00    -0.004 A 
ATOM      5  C7  UNL d   1       1.708   0.589  -2.425  0.00  0.00     0.002 A 
ATOM      6  C8  UNL d   1       0.795   0.265  -1.420  0.00  0.00     0.002 A 
ENDROOT
BRANCH   1   7
ATOM      7  C2  UNL d   1      -0.333  -1.409   0.099  0.00  0.00     0.056 C 
BRANCH   7   8
ATOM      8  C1  UNL d   1      -0.541  -0.286   1.121  0.00  0.00     0.007 C 
ATOM      9  C   UNL d   1      -1.998  -0.106   1.527  0.00  0.00     0.009 C 
ENDBRANCH   7   8
ENDBRANCH   1   7
TORSDOF 2
ENDMDL
