MODEL 1
REMARK minimizedAffinity -3.07580996
REMARK minimizedRMSD -1
REMARK  2 active torsions:
REMARK  status: ('A' for Active; 'I' for Inactive)
REMARK    1  A    between atoms: C1_2  and  C2_3 
REMARK    2  A    between atoms: C2_3  and  C3_4 
ROOT
ATOM      1  C3  UNL d   1      -0.669   0.248   1.062  0.00  0.00    -0.075 A 
ATOM      2  C4  UNL d   1      -0.340   1.024  -0.058  0.00  0.00     0.002 A 
ATOM      3  C5  UNL d   1       0.310   0.450  -1.152  0.00  0.00     0.002 A 
ATOM      4  C6  UNL d   1       0.647  -0.901  -1.134  0.00  0.00    -0.004 A 
ATOM      5  C7  UNL d   1       0.340  -1.678  -0.019  0.00  0.00     0.002 A 
ATOM      6  C8  UNL d   1      -0.314  -1.107   1.074  0.00  0.00     0.002 A 
ENDROOT
BRANCH   1   7
ATOM      7  C2  UNL d   1      -1.398   0.857   2.236  0.00  0.00     0.056 C 
BRANCH   7   8
ATOM      8  C1  UNL d   1      -2.922   0.879   2.080  0.00  0.00     0.007 C 
ATOM      9  C   UNL d   1      -3.544   2.220   2.448  0.00  0.00     0.009 C 
ENDBRANCH   7   8
ENDBRANCH   1   7
TORSDOF 2
ENDMDL
