MODEL 1
REMARK minimizedAffinity -5.57214212
REMARK minimizedRMSD -1
REMARK  2 active torsions:
REMARK  status: ('A' for Active; 'I' for Inactive)
REMARK    1  A    between atoms: C1_2  and  C2_3 
REMARK    2  A    between atoms: C2_3  and  C3_4 
ROOT
ATOM      1  C3  UNL d   1       0.543  -0.141  -0.561  0.00  0.00    -0.075 A 
ATOM      2  C4  UNL d   1       0.594  -1.542  -0.557  0.00  0.00     0.002 A 
ATOM      3  C5  UNL d   1       1.230  -2.231  -1.590  0.00  0.00     0.002 A 
ATOM      4  C6  UNL d   1       1.813  -1.530  -2.643  0.00  0.00    -0.004 A 
ATOM      5  C7  UNL d   1       1.755  -0.138  -2.666  0.00  0.00     0.002 A 
ATOM      6  C8  UNL d   1       1.123   0.554  -1.631  0.00  0.00     0.002 A 
ENDROOT
BRANCH   1   7
ATOM      7  C2  UNL d   1      -0.118   0.612   0.569  0.00  0.00     0.056 C 
BRANCH   7   8
ATOM      8  C1  UNL d   1      -1.240  -0.167   1.264  0.00  0.00     0.007 C 
ATOM      9  C   UNL d   1      -2.224   0.730   2.003  0.00  0.00     0.009 C 
ENDBRANCH   7   8
ENDBRANCH   1   7
TORSDOF 2
ENDMDL
