MODEL 1
REMARK minimizedAffinity -5.92727661
REMARK minimizedRMSD -1
REMARK  2 active torsions:
REMARK  status: ('A' for Active; 'I' for Inactive)
REMARK    1  A    between atoms: C1_2  and  C2_3 
REMARK    2  A    between atoms: C2_3  and  C3_4 
ROOT
ATOM      1  C3  UNL d   1       0.067  -0.159   0.271  0.00  0.00    -0.075 A 
ATOM      2  C4  UNL d   1      -0.025  -0.909  -0.911  0.00  0.00     0.002 A 
ATOM      3  C5  UNL d   1       0.519  -0.424  -2.101  0.00  0.00     0.002 A 
ATOM      4  C6  UNL d   1       1.150   0.818  -2.127  0.00  0.00    -0.004 A 
ATOM      5  C7  UNL d   1       1.232   1.578  -0.963  0.00  0.00     0.002 A 
ATOM      6  C8  UNL d   1       0.693   1.094   0.230  0.00  0.00     0.002 A 
ENDROOT
BRANCH   1   7
ATOM      7  C2  UNL d   1      -0.493  -0.691   1.568  0.00  0.00     0.056 C 
BRANCH   7   8
ATOM      8  C1  UNL d   1      -1.598   0.180   2.174  0.00  0.00     0.007 C 
ATOM      9  C   UNL d   1      -2.830   0.293   1.286  0.00  0.00     0.009 C 
ENDBRANCH   7   8
ENDBRANCH   1   7
TORSDOF 2
ENDMDL
