MODEL 1
REMARK minimizedAffinity 8.84528255
REMARK minimizedRMSD -1
REMARK  0 active torsions:
REMARK  status: ('A' for Active; 'I' for Inactive)
ROOT
ATOM      1  C   UNL d   1       3.212   1.871   3.085  0.00  0.00     0.023 A 
ATOM      2  C1  UNL d   1       4.379   2.585   2.812  0.00  0.00     0.003 A 
ATOM      3  C2  UNL d   1       4.725   3.687   3.597  0.00  0.00     0.048 A 
ATOM      4  C3  UNL d   1       3.899   4.070   4.653  0.00  0.00     0.023 A 
ATOM      5  C4  UNL d   1       2.730   3.358   4.930  0.00  0.00     0.048 A 
ATOM      6  C5  UNL d   1       2.388   2.258   4.142  0.00  0.00     0.003 A 
ATOM      7  I   UNL d   1       4.412   5.709   5.823  0.00  0.00    -0.146 I 
ENDROOT
TORSDOF 0
ENDMDL
