MODEL 1
REMARK minimizedAffinity 5.71267033
REMARK minimizedRMSD -1
REMARK  0 active torsions:
REMARK  status: ('A' for Active; 'I' for Inactive)
ROOT
ATOM      1  C   UNL d   1      -3.210   1.036  -2.364  0.00  0.00     0.023 A 
ATOM      2  C1  UNL d   1      -4.243   0.469  -3.110  0.00  0.00     0.003 A 
ATOM      3  C2  UNL d   1      -4.901   1.227  -4.081  0.00  0.00     0.048 A 
ATOM      4  C3  UNL d   1      -4.520   2.550  -4.301  0.00  0.00     0.023 A 
ATOM      5  C4  UNL d   1      -3.486   3.121  -3.557  0.00  0.00     0.048 A 
ATOM      6  C5  UNL d   1      -2.832   2.360  -2.587  0.00  0.00     0.003 A 
ATOM      7  I   UNL d   1      -5.498   3.680  -5.746  0.00  0.00    -0.146 I 
ENDROOT
TORSDOF 0
ENDMDL
