MODEL 1
REMARK minimizedAffinity 8.9679184
REMARK minimizedRMSD -1
REMARK  0 active torsions:
REMARK  status: ('A' for Active; 'I' for Inactive)
ROOT
ATOM      1  C   UNL d   1       4.892  -4.490   5.999  0.00  0.00     0.023 A 
ATOM      2  C1  UNL d   1       4.826  -3.221   5.424  0.00  0.00     0.003 A 
ATOM      3  C2  UNL d   1       4.418  -3.075   4.096  0.00  0.00     0.048 A 
ATOM      4  C3  UNL d   1       4.077  -4.202   3.350  0.00  0.00     0.023 A 
ATOM      5  C4  UNL d   1       4.142  -5.474   3.922  0.00  0.00     0.048 A 
ATOM      6  C5  UNL d   1       4.551  -5.615   5.249  0.00  0.00     0.003 A 
ATOM      7  I   UNL d   1       3.470  -3.988   1.374  0.00  0.00    -0.146 I 
ENDROOT
TORSDOF 0
ENDMDL
