MODEL 1
REMARK minimizedAffinity 8.66490078
REMARK minimizedRMSD -1
REMARK  0 active torsions:
REMARK  status: ('A' for Active; 'I' for Inactive)
ROOT
ATOM      1  C   UNL d   1       1.124  -3.354   0.468  0.00  0.00     0.023 A 
ATOM      2  C1  UNL d   1       2.187  -3.809  -0.312  0.00  0.00     0.003 A 
ATOM      3  C2  UNL d   1       3.350  -3.045  -0.423  0.00  0.00     0.048 A 
ATOM      4  C3  UNL d   1       3.445  -1.827   0.250  0.00  0.00     0.023 A 
ATOM      5  C4  UNL d   1       2.384  -1.368   1.033  0.00  0.00     0.048 A 
ATOM      6  C5  UNL d   1       1.222  -2.135   1.140  0.00  0.00     0.003 A 
ATOM      7  I   UNL d   1       5.176  -0.689   0.087  0.00  0.00    -0.146 I 
ENDROOT
TORSDOF 0
ENDMDL
