MODEL 1
REMARK minimizedAffinity 0.634876132
REMARK minimizedRMSD -1
REMARK  0 active torsions:
REMARK  status: ('A' for Active; 'I' for Inactive)
ROOT
ATOM      1  C   UNL d   1       1.223   5.897   5.996  0.00  0.00     0.023 A 
ATOM      2  C1  UNL d   1       2.255   4.958   6.000  0.00  0.00     0.003 A 
ATOM      3  C2  UNL d   1       2.443   4.121   4.899  0.00  0.00     0.048 A 
ATOM      4  C3  UNL d   1       1.596   4.227   3.796  0.00  0.00     0.023 A 
ATOM      5  C4  UNL d   1       0.562   5.165   3.787  0.00  0.00     0.048 A 
ATOM      6  C5  UNL d   1       0.378   6.000   4.891  0.00  0.00     0.003 A 
ATOM      7  I   UNL d   1       1.874   2.982   2.156  0.00  0.00    -0.146 I 
ENDROOT
TORSDOF 0
ENDMDL
