MODEL 1
REMARK minimizedAffinity 4.24754524
REMARK minimizedRMSD -1
REMARK  0 active torsions:
REMARK  status: ('A' for Active; 'I' for Inactive)
ROOT
ATOM      1  C   UNL d   1       5.963   5.999   3.652  0.00  0.00     0.023 A 
ATOM      2  C1  UNL d   1       5.936   5.969   5.047  0.00  0.00     0.003 A 
ATOM      3  C2  UNL d   1       4.714   5.926   5.722  0.00  0.00     0.048 A 
ATOM      4  C3  UNL d   1       3.523   5.912   4.996  0.00  0.00     0.023 A 
ATOM      5  C4  UNL d   1       3.546   5.940   3.600  0.00  0.00     0.048 A 
ATOM      6  C5  UNL d   1       4.770   5.984   2.930  0.00  0.00     0.003 A 
ATOM      7  I   UNL d   1       1.704   5.848   5.998  0.00  0.00    -0.146 I 
ENDROOT
TORSDOF 0
ENDMDL
