MODEL 1
REMARK minimizedAffinity -3.4743917
REMARK minimizedRMSD -1
REMARK  0 active torsions:
REMARK  status: ('A' for Active; 'I' for Inactive)
ROOT
ATOM      1  N1  IND d   1       0.976  -0.180   0.486  0.00  0.00    -0.196 N 
ATOM      2  C2  IND d   1       0.442   1.049   0.212  0.00  0.00     0.054 A 
ATOM      3  C3  IND d   1      -0.908   0.980   0.182  0.00  0.00    -0.031 A 
ATOM      4  C4  IND d   1      -2.453  -1.024   0.653  0.00  0.00     0.051 A 
ATOM      5  C5  IND d   1      -2.429  -2.366   0.911  0.00  0.00    -0.031 A 
ATOM      6  C6  IND d   1      -1.245  -3.062   1.046  0.00  0.00     0.015 A 
ATOM      7  C7  IND d   1      -0.035  -2.436   0.938  0.00  0.00    -0.016 A 
ATOM      8  C8  IND d   1      -0.056  -1.074   0.670  0.00  0.00    -0.047 A 
ATOM      9  C9  IND d   1      -1.254  -0.372   0.490  0.00  0.00    -0.096 A 
ATOM     10  HN1 IND d   1       1.814  -0.363   0.535  0.00  0.00     0.298 HD
ENDROOT
TORSDOF 0
ENDMDL
