MODEL 1
REMARK minimizedAffinity -1.0561105
REMARK minimizedRMSD -1
REMARK  0 active torsions:
REMARK  status: ('A' for Active; 'I' for Inactive)
ROOT
ATOM      1  N1  IND d   1      -0.852   2.348   0.574  0.00  0.00    -0.196 N 
ATOM      2  C2  IND d   1      -0.955   1.003   0.795  0.00  0.00     0.054 A 
ATOM      3  C3  IND d   1      -0.658   0.317  -0.332  0.00  0.00    -0.031 A 
ATOM      4  C4  IND d   1       0.121   1.195  -2.623  0.00  0.00     0.051 A 
ATOM      5  C5  IND d   1       0.328   2.353  -3.319  0.00  0.00    -0.031 A 
ATOM      6  C6  IND d   1       0.152   3.593  -2.740  0.00  0.00     0.015 A 
ATOM      7  C7  IND d   1      -0.229   3.722  -1.435  0.00  0.00    -0.016 A 
ATOM      8  C8  IND d   1      -0.448   2.549  -0.727  0.00  0.00    -0.047 A 
ATOM      9  C9  IND d   1      -0.312   1.288  -1.321  0.00  0.00    -0.096 A 
ATOM     10  HN1 IND d   1      -1.014   2.964   1.151  0.00  0.00     0.298 HD
ENDROOT
TORSDOF 0
ENDMDL
