MODEL 1
REMARK minimizedAffinity -5.12453794
REMARK minimizedRMSD -1
REMARK  0 active torsions:
REMARK  status: ('A' for Active; 'I' for Inactive)
ROOT
ATOM      1  N1  IND d   1       0.505   0.660   0.224  0.00  0.00    -0.196 N 
ATOM      2  C2  IND d   1       1.796   0.219   0.319  0.00  0.00     0.054 A 
ATOM      3  C3  IND d   1       1.828  -1.038   0.816  0.00  0.00    -0.031 A 
ATOM      4  C4  IND d   1      -0.121  -2.598   1.445  0.00  0.00     0.051 A 
ATOM      5  C5  IND d   1      -1.482  -2.627   1.565  0.00  0.00    -0.031 A 
ATOM      6  C6  IND d   1      -2.267  -1.541   1.234  0.00  0.00     0.015 A 
ATOM      7  C7  IND d   1      -1.717  -0.384   0.759  0.00  0.00    -0.016 A 
ATOM      8  C8  IND d   1      -0.335  -0.348   0.643  0.00  0.00    -0.047 A 
ATOM      9  C9  IND d   1       0.469  -1.433   1.017  0.00  0.00    -0.096 A 
ATOM     10  HN1 IND d   1       0.260   1.437  -0.051  0.00  0.00     0.298 HD
ENDROOT
TORSDOF 0
ENDMDL
