MODEL 1
REMARK minimizedAffinity -3.12739778
REMARK minimizedRMSD -1
REMARK  0 active torsions:
REMARK  status: ('A' for Active; 'I' for Inactive)
ROOT
ATOM      1  N1  IND d   1      -0.194   1.097   0.530  0.00  0.00    -0.196 N 
ATOM      2  C2  IND d   1       0.678   1.104  -0.523  0.00  0.00     0.054 A 
ATOM      3  C3  IND d   1       0.554  -0.033  -1.244  0.00  0.00    -0.031 A 
ATOM      4  C4  IND d   1      -1.084  -1.995  -0.935  0.00  0.00     0.051 A 
ATOM      5  C5  IND d   1      -2.047  -2.472  -0.090  0.00  0.00    -0.031 A 
ATOM      6  C6  IND d   1      -2.452  -1.767   1.025  0.00  0.00     0.015 A 
ATOM      7  C7  IND d   1      -1.914  -0.550   1.333  0.00  0.00    -0.016 A 
ATOM      8  C8  IND d   1      -0.931  -0.066   0.482  0.00  0.00    -0.047 A 
ATOM      9  C9  IND d   1      -0.486  -0.796  -0.628  0.00  0.00    -0.096 A 
ATOM     10  HN1 IND d   1      -0.269   1.714   1.124  0.00  0.00     0.298 HD
ENDROOT
TORSDOF 0
ENDMDL
