MODEL 1
REMARK minimizedAffinity 1.29805052
REMARK minimizedRMSD -1
REMARK  0 active torsions:
REMARK  status: ('A' for Active; 'I' for Inactive)
ROOT
ATOM      1  N1  IND d   1       0.604   1.013   0.630  0.00  0.00    -0.196 N 
ATOM      2  C2  IND d   1      -0.198  -0.073   0.421  0.00  0.00     0.054 A 
ATOM      3  C3  IND d   1       0.518  -1.215   0.530  0.00  0.00    -0.031 A 
ATOM      4  C4  IND d   1       2.997  -1.538   1.145  0.00  0.00     0.051 A 
ATOM      5  C5  IND d   1       4.146  -0.839   1.390  0.00  0.00    -0.031 A 
ATOM      6  C6  IND d   1       4.173   0.541   1.397  0.00  0.00     0.015 A 
ATOM      7  C7  IND d   1       3.044   1.276   1.169  0.00  0.00    -0.016 A 
ATOM      8  C8  IND d   1       1.877   0.570   0.913  0.00  0.00    -0.047 A 
ATOM      9  C9  IND d   1       1.853  -0.829   0.863  0.00  0.00    -0.096 A 
ATOM     10  HN1 IND d   1       0.355   1.836   0.591  0.00  0.00     0.298 HD
ENDROOT
TORSDOF 0
ENDMDL
