MODEL 1
REMARK minimizedAffinity -4.92902279
REMARK minimizedRMSD -1
REMARK  0 active torsions:
REMARK  status: ('A' for Active; 'I' for Inactive)
ROOT
ATOM      1  N1  IND d   1       1.499  -0.414   0.782  0.00  0.00    -0.196 N 
ATOM      2  C2  IND d   1       1.276   0.895   0.460  0.00  0.00     0.054 A 
ATOM      3  C3  IND d   1      -0.044   1.115   0.271  0.00  0.00    -0.031 A 
ATOM      4  C4  IND d   1      -2.026  -0.506   0.539  0.00  0.00     0.051 A 
ATOM      5  C5  IND d   1      -2.319  -1.818   0.785  0.00  0.00    -0.031 A 
ATOM      6  C6  IND d   1      -1.335  -2.748   1.050  0.00  0.00     0.015 A 
ATOM      7  C7  IND d   1      -0.015  -2.396   1.092  0.00  0.00    -0.016 A 
ATOM      8  C8  IND d   1       0.287  -1.066   0.835  0.00  0.00    -0.047 A 
ATOM      9  C9  IND d   1      -0.705  -0.126   0.523  0.00  0.00    -0.096 A 
ATOM     10  HN1 IND d   1       2.268  -0.771   0.928  0.00  0.00     0.298 HD
ENDROOT
TORSDOF 0
ENDMDL
