MODEL 1
REMARK minimizedAffinity -4.12214804
REMARK minimizedRMSD -1
REMARK  0 active torsions:
REMARK  status: ('A' for Active; 'I' for Inactive)
ROOT
ATOM      1  N1  IND d   1      -0.830   1.120   1.037  0.00  0.00    -0.196 N 
ATOM      2  C2  IND d   1      -2.179   0.934   1.160  0.00  0.00     0.054 A 
ATOM      3  C3  IND d   1      -2.496  -0.364   0.952  0.00  0.00    -0.031 A 
ATOM      4  C4  IND d   1      -0.950  -2.372   0.498  0.00  0.00     0.051 A 
ATOM      5  C5  IND d   1       0.358  -2.693   0.263  0.00  0.00    -0.031 A 
ATOM      6  C6  IND d   1       1.356  -1.741   0.276  0.00  0.00     0.015 A 
ATOM      7  C7  IND d   1       1.085  -0.428   0.538  0.00  0.00    -0.016 A 
ATOM      8  C8  IND d   1      -0.242  -0.097   0.771  0.00  0.00    -0.047 A 
ATOM      9  C9  IND d   1      -1.266  -1.052   0.717  0.00  0.00    -0.096 A 
ATOM     10  HN1 IND d   1      -0.418   1.871   1.114  0.00  0.00     0.298 HD
ENDROOT
TORSDOF 0
ENDMDL
