MODEL 1
REMARK minimizedAffinity 0.495592058
REMARK minimizedRMSD -1
REMARK  0 active torsions:
REMARK  status: ('A' for Active; 'I' for Inactive)
ROOT
ATOM      1  N1  IND d   1      -0.786   0.524  -1.261  0.00  0.00    -0.196 N 
ATOM      2  C2  IND d   1      -2.110   0.259  -1.049  0.00  0.00     0.054 A 
ATOM      3  C3  IND d   1      -2.252  -0.720  -0.128  0.00  0.00    -0.031 A 
ATOM      4  C4  IND d   1      -0.453  -1.959   1.233  0.00  0.00     0.051 A 
ATOM      5  C5  IND d   1       0.902  -2.088   1.362  0.00  0.00    -0.031 A 
ATOM      6  C6  IND d   1       1.781  -1.336   0.610  0.00  0.00     0.015 A 
ATOM      7  C7  IND d   1       1.336  -0.414  -0.295  0.00  0.00    -0.016 A 
ATOM      8  C8  IND d   1      -0.039  -0.286  -0.434  0.00  0.00    -0.047 A 
ATOM      9  C9  IND d   1      -0.936  -1.077   0.296  0.00  0.00    -0.096 A 
ATOM     10  HN1 IND d   1      -0.472   1.099  -1.818  0.00  0.00     0.298 HD
ENDROOT
TORSDOF 0
ENDMDL
