MODEL 1
REMARK minimizedAffinity 5.24132586
REMARK minimizedRMSD -1
REMARK  0 active torsions:
REMARK  status: ('A' for Active; 'I' for Inactive)
ROOT
ATOM      1  N1  IND d   1       0.298   3.842  -3.764  0.00  0.00    -0.196 N 
ATOM      2  C2  IND d   1      -0.033   5.043  -4.326  0.00  0.00     0.054 A 
ATOM      3  C3  IND d   1      -1.343   5.311  -4.127  0.00  0.00    -0.031 A 
ATOM      4  C4  IND d   1      -3.106   3.968  -2.818  0.00  0.00     0.051 A 
ATOM      5  C5  IND d   1      -3.287   2.785  -2.156  0.00  0.00    -0.031 A 
ATOM      6  C6  IND d   1      -2.260   1.878  -1.991  0.00  0.00     0.015 A 
ATOM      7  C7  IND d   1      -1.006   2.125  -2.474  0.00  0.00    -0.016 A 
ATOM      8  C8  IND d   1      -0.821   3.321  -3.152  0.00  0.00    -0.047 A 
ATOM      9  C9  IND d   1      -1.869   4.227  -3.359  0.00  0.00    -0.096 A 
ATOM     10  HN1 IND d   1       1.075   3.474  -3.788  0.00  0.00     0.298 HD
ENDROOT
TORSDOF 0
ENDMDL
