MODEL 1
REMARK minimizedAffinity -4.60006428
REMARK minimizedRMSD -1
REMARK  0 active torsions:
REMARK  status: ('A' for Active; 'I' for Inactive)
ROOT
ATOM      1  N1  IND d   1      -0.273   0.114   1.214  0.00  0.00    -0.196 N 
ATOM      2  C2  IND d   1       0.558  -0.249   0.191  0.00  0.00     0.054 A 
ATOM      3  C3  IND d   1       0.926  -1.543   0.321  0.00  0.00    -0.031 A 
ATOM      4  C4  IND d   1       0.203  -3.280   2.079  0.00  0.00     0.051 A 
ATOM      5  C5  IND d   1      -0.516  -3.409   3.234  0.00  0.00    -0.031 A 
ATOM      6  C6  IND d   1      -1.208  -2.349   3.784  0.00  0.00     0.015 A 
ATOM      7  C7  IND d   1      -1.215  -1.118   3.191  0.00  0.00    -0.016 A 
ATOM      8  C8  IND d   1      -0.479  -0.982   2.022  0.00  0.00    -0.047 A 
ATOM      9  C9  IND d   1       0.259  -2.043   1.482  0.00  0.00    -0.096 A 
ATOM     10  HN1 IND d   1      -0.610   0.897   1.332  0.00  0.00     0.298 HD
ENDROOT
TORSDOF 0
ENDMDL
