MODEL 1
REMARK minimizedAffinity -3.07679343
REMARK minimizedRMSD -1
REMARK  0 active torsions:
REMARK  status: ('A' for Active; 'I' for Inactive)
ROOT
ATOM      1  N1  IND d   1       0.106   0.367   1.705  0.00  0.00    -0.196 N 
ATOM      2  C2  IND d   1       0.807  -0.149   0.652  0.00  0.00     0.054 A 
ATOM      3  C3  IND d   1       0.675  -1.494   0.612  0.00  0.00    -0.031 A 
ATOM      4  C4  IND d   1      -0.727  -3.044   2.115  0.00  0.00     0.051 A 
ATOM      5  C5  IND d   1      -1.511  -3.039   3.235  0.00  0.00    -0.031 A 
ATOM      6  C6  IND d   1      -1.804  -1.874   3.914  0.00  0.00     0.015 A 
ATOM      7  C7  IND d   1      -1.331  -0.664   3.490  0.00  0.00    -0.016 A 
ATOM      8  C8  IND d   1      -0.529  -0.667   2.358  0.00  0.00    -0.047 A 
ATOM      9  C9  IND d   1      -0.194  -1.851   1.689  0.00  0.00    -0.096 A 
ATOM     10  HN1 IND d   1       0.067   1.198   1.924  0.00  0.00     0.298 HD
ENDROOT
TORSDOF 0
ENDMDL
