MODEL 1
REMARK minimizedAffinity 5.31455421
REMARK minimizedRMSD -1
REMARK  0 active torsions:
REMARK  status: ('A' for Active; 'I' for Inactive)
ROOT
ATOM      1  N1  IND d   1      -1.042  -0.170   1.627  0.00  0.00    -0.196 N 
ATOM      2  C2  IND d   1      -0.364  -0.166   0.440  0.00  0.00     0.054 A 
ATOM      3  C3  IND d   1       0.517  -1.191   0.398  0.00  0.00    -0.031 A 
ATOM      4  C4  IND d   1       0.940  -3.055   2.124  0.00  0.00     0.051 A 
ATOM      5  C5  IND d   1       0.588  -3.459   3.381  0.00  0.00    -0.031 A 
ATOM      6  C6  IND d   1      -0.346  -2.775   4.132  0.00  0.00     0.015 A 
ATOM      7  C7  IND d   1      -0.974  -1.663   3.647  0.00  0.00    -0.016 A 
ATOM      8  C8  IND d   1      -0.614  -1.246   2.373  0.00  0.00    -0.047 A 
ATOM      9  C9  IND d   1       0.364  -1.911   1.623  0.00  0.00    -0.096 A 
ATOM     10  HN1 IND d   1      -1.636   0.404   1.867  0.00  0.00     0.298 HD
ENDROOT
TORSDOF 0
ENDMDL
