MODEL 1
REMARK minimizedAffinity 7.3341217
REMARK minimizedRMSD -1
REMARK  0 active torsions:
REMARK  status: ('A' for Active; 'I' for Inactive)
ROOT
ATOM      1  N1  IND d   1      -0.872  -0.986   2.048  0.00  0.00    -0.196 N 
ATOM      2  C2  IND d   1       0.045  -0.808   1.051  0.00  0.00     0.054 A 
ATOM      3  C3  IND d   1       1.138  -1.572   1.275  0.00  0.00    -0.031 A 
ATOM      4  C4  IND d   1       1.590  -3.266   3.160  0.00  0.00     0.051 A 
ATOM      5  C5  IND d   1       1.062  -3.748   4.325  0.00  0.00    -0.031 A 
ATOM      6  C6  IND d   1      -0.164  -3.327   4.798  0.00  0.00     0.015 A 
ATOM      7  C7  IND d   1      -0.916  -2.413   4.116  0.00  0.00    -0.016 A 
ATOM      8  C8  IND d   1      -0.380  -1.916   2.936  0.00  0.00    -0.047 A 
ATOM      9  C9  IND d   1       0.883  -2.308   2.472  0.00  0.00    -0.096 A 
ATOM     10  HN1 IND d   1      -1.630  -0.584   2.110  0.00  0.00     0.298 HD
ENDROOT
TORSDOF 0
ENDMDL
