MODEL 1
REMARK minimizedAffinity 6.89817953
REMARK minimizedRMSD -1
REMARK  0 active torsions:
REMARK  status: ('A' for Active; 'I' for Inactive)
ROOT
ATOM      1  N1  IND d   1      -0.787   0.085   1.492  0.00  0.00    -0.196 N 
ATOM      2  C2  IND d   1      -0.208   0.596   0.364  0.00  0.00     0.054 A 
ATOM      3  C3  IND d   1       0.790  -0.211  -0.060  0.00  0.00    -0.031 A 
ATOM      4  C4  IND d   1       1.578  -2.472   0.885  0.00  0.00     0.051 A 
ATOM      5  C5  IND d   1       1.378  -3.332   1.928  0.00  0.00    -0.031 A 
ATOM      6  C6  IND d   1       0.425  -3.093   2.898  0.00  0.00     0.015 A 
ATOM      7  C7  IND d   1      -0.375  -1.987   2.853  0.00  0.00    -0.016 A 
ATOM      8  C8  IND d   1      -0.170  -1.108   1.799  0.00  0.00    -0.047 A 
ATOM      9  C9  IND d   1       0.824  -1.323   0.836  0.00  0.00    -0.096 A 
ATOM     10  HN1 IND d   1      -1.429   0.447   1.935  0.00  0.00     0.298 HD
ENDROOT
TORSDOF 0
ENDMDL
