MODEL 1
REMARK minimizedAffinity -3.19963026
REMARK minimizedRMSD -1
REMARK  0 active torsions:
REMARK  status: ('A' for Active; 'I' for Inactive)
ROOT
ATOM      1  N1  IND d   1      -3.096  -5.963  -5.907  0.00  0.00    -0.196 N 
ATOM      2  C2  IND d   1      -1.735  -5.838  -5.928  0.00  0.00     0.054 A 
ATOM      3  C3  IND d   1      -1.384  -4.534  -5.994  0.00  0.00    -0.031 A 
ATOM      4  C4  IND d   1      -2.874  -2.435  -5.973  0.00  0.00     0.051 A 
ATOM      5  C5  IND d   1      -4.183  -2.043  -6.000  0.00  0.00    -0.031 A 
ATOM      6  C6  IND d   1      -5.218  -2.956  -5.994  0.00  0.00     0.015 A 
ATOM      7  C7  IND d   1      -4.981  -4.301  -5.949  0.00  0.00    -0.016 A 
ATOM      8  C8  IND d   1      -3.653  -4.703  -5.930  0.00  0.00    -0.047 A 
ATOM      9  C9  IND d   1      -2.598  -3.782  -5.979  0.00  0.00    -0.096 A 
ATOM     10  HN1 IND d   1      -3.532  -6.704  -5.884  0.00  0.00     0.298 HD
ENDROOT
TORSDOF 0
ENDMDL
