MODEL 1
REMARK minimizedAffinity 2.81986356
REMARK minimizedRMSD -1
REMARK  0 active torsions:
REMARK  status: ('A' for Active; 'I' for Inactive)
ROOT
ATOM      1  N1  IND d   1      -0.898  -0.459   1.264  0.00  0.00    -0.196 N 
ATOM      2  C2  IND d   1      -0.387  -0.616   0.006  0.00  0.00     0.054 A 
ATOM      3  C3  IND d   1       0.514  -1.624  -0.013  0.00  0.00    -0.031 A 
ATOM      4  C4  IND d   1       1.228  -3.215   1.881  0.00  0.00     0.051 A 
ATOM      5  C5  IND d   1       1.063  -3.439   3.219  0.00  0.00    -0.031 A 
ATOM      6  C6  IND d   1       0.216  -2.668   3.989  0.00  0.00     0.015 A 
ATOM      7  C7  IND d   1      -0.508  -1.646   3.444  0.00  0.00    -0.016 A 
ATOM      8  C8  IND d   1      -0.338  -1.410   2.087  0.00  0.00    -0.047 A 
ATOM      9  C9  IND d   1       0.552  -2.163   1.310  0.00  0.00    -0.096 A 
ATOM     10  HN1 IND d   1      -1.473   0.135   1.501  0.00  0.00     0.298 HD
ENDROOT
TORSDOF 0
ENDMDL
