MODEL 1
REMARK minimizedAffinity -4.4348321
REMARK minimizedRMSD -1
REMARK  0 active torsions:
REMARK  status: ('A' for Active; 'I' for Inactive)
ROOT
ATOM      1  C   UNL d   1       0.636  -0.536   2.501  0.00  0.00     0.023 A 
ATOM      2  C1  UNL d   1       1.515   0.249   1.754  0.00  0.00     0.003 A 
ATOM      3  C2  UNL d   1       1.210   0.574   0.431  0.00  0.00     0.048 A 
ATOM      4  C3  UNL d   1       0.024   0.113  -0.139  0.00  0.00     0.023 A 
ATOM      5  C4  UNL d   1      -0.859  -0.672   0.605  0.00  0.00     0.048 A 
ATOM      6  C5  UNL d   1      -0.549  -0.996   1.927  0.00  0.00     0.003 A 
ATOM      7  I   UNL d   1      -0.432   0.596  -2.108  0.00  0.00    -0.146 I 
ENDROOT
TORSDOF 0
ENDMDL
