MODEL 1
REMARK minimizedAffinity 7.46055555
REMARK minimizedRMSD -1
REMARK  0 active torsions:
REMARK  status: ('A' for Active; 'I' for Inactive)
ROOT
ATOM      1  C   UNL d   1       0.616  -1.865   0.928  0.00  0.00     0.023 A 
ATOM      2  C1  UNL d   1       1.379  -1.760  -0.235  0.00  0.00     0.003 A 
ATOM      3  C2  UNL d   1       2.444  -2.636  -0.454  0.00  0.00     0.048 A 
ATOM      4  C3  UNL d   1       2.739  -3.616   0.493  0.00  0.00     0.023 A 
ATOM      5  C4  UNL d   1       1.978  -3.725   1.657  0.00  0.00     0.048 A 
ATOM      6  C5  UNL d   1       0.915  -2.846   1.873  0.00  0.00     0.003 A 
ATOM      7  I   UNL d   1       4.323  -4.922   0.168  0.00  0.00    -0.146 I 
ENDROOT
TORSDOF 0
ENDMDL
