MODEL 1
REMARK minimizedAffinity 1.98603725
REMARK minimizedRMSD -1
REMARK  0 active torsions:
REMARK  status: ('A' for Active; 'I' for Inactive)
ROOT
ATOM      1  C   UNL d   1      -5.239  -1.100  -4.346  0.00  0.00     0.023 A 
ATOM      2  C1  UNL d   1      -5.534   0.138  -4.918  0.00  0.00     0.003 A 
ATOM      3  C2  UNL d   1      -4.805   1.270  -4.549  0.00  0.00     0.048 A 
ATOM      4  C3  UNL d   1      -3.782   1.158  -3.608  0.00  0.00     0.023 A 
ATOM      5  C4  UNL d   1      -3.483  -0.079  -3.034  0.00  0.00     0.048 A 
ATOM      6  C5  UNL d   1      -4.215  -1.208  -3.405  0.00  0.00     0.003 A 
ATOM      7  I   UNL d   1      -2.695   2.842  -3.057  0.00  0.00    -0.146 I 
ENDROOT
TORSDOF 0
ENDMDL
