MODEL 1
REMARK minimizedAffinity 6.30369186
REMARK minimizedRMSD -1
REMARK  0 active torsions:
REMARK  status: ('A' for Active; 'I' for Inactive)
ROOT
ATOM      1  C   UNL d   1       2.236  -2.988   1.434  0.00  0.00     0.023 A 
ATOM      2  C1  UNL d   1       3.541  -2.666   1.807  0.00  0.00     0.003 A 
ATOM      3  C2  UNL d   1       4.592  -3.529   1.491  0.00  0.00     0.048 A 
ATOM      4  C3  UNL d   1       4.332  -4.713   0.802  0.00  0.00     0.023 A 
ATOM      5  C4  UNL d   1       3.028  -5.040   0.426  0.00  0.00     0.048 A 
ATOM      6  C5  UNL d   1       1.980  -4.174   0.745  0.00  0.00     0.003 A 
ATOM      7  I   UNL d   1       5.895  -6.000   0.331  0.00  0.00    -0.146 I 
ENDROOT
TORSDOF 0
ENDMDL
