MODEL 1
REMARK minimizedAffinity 4.63729334
REMARK minimizedRMSD -1
REMARK  0 active torsions:
REMARK  status: ('A' for Active; 'I' for Inactive)
ROOT
ATOM      1  C   UNL d   1      -5.432   1.512  -4.396  0.00  0.00     0.023 A 
ATOM      2  C1  UNL d   1      -4.385   1.271  -3.507  0.00  0.00     0.003 A 
ATOM      3  C2  UNL d   1      -3.353   0.399  -3.860  0.00  0.00     0.048 A 
ATOM      4  C3  UNL d   1      -3.374  -0.227  -5.106  0.00  0.00     0.023 A 
ATOM      5  C4  UNL d   1      -4.419   0.012  -6.000  0.00  0.00     0.048 A 
ATOM      6  C5  UNL d   1      -5.448   0.884  -5.641  0.00  0.00     0.003 A 
ATOM      7  I   UNL d   1      -1.839  -1.525  -5.635  0.00  0.00    -0.146 I 
ENDROOT
TORSDOF 0
ENDMDL
