MODEL 1
REMARK minimizedAffinity -1.08979225
REMARK minimizedRMSD -1
REMARK  1 active torsions:
REMARK  status: ('A' for Active; 'I' for Inactive)
REMARK    1  A    between atoms: C1_2  and  C2_3 
ROOT
ATOM      1  C2  UNL d   1      -0.624   0.589  -1.352  0.00  0.00    -0.081 A 
ATOM      2  C3  UNL d   1      -1.394   0.405  -0.197  0.00  0.00     0.006 A 
ATOM      3  C4  UNL d   1      -0.824  -0.142   0.955  0.00  0.00     0.002 A 
ATOM      4  C5  UNL d   1       0.526  -0.505   0.975  0.00  0.00    -0.080 A 
ATOM      5  C6  UNL d   1       1.158  -1.064   2.215  0.00  0.00     0.076 C 
ATOM      6  C7  UNL d   1       1.292  -0.337  -0.184  0.00  0.00     0.002 A 
ATOM      7  C8  UNL d   1       0.723   0.209  -1.336  0.00  0.00     0.006 A 
ENDROOT
BRANCH   1   8
ATOM      8  C1  UNL d   1      -1.219   1.238  -2.575  0.00  0.00     0.054 C 
ATOM      9  C   UNL d   1      -0.622   2.617  -2.816  0.00  0.00     0.018 C 
ENDBRANCH   1   8
TORSDOF 1
ENDMDL
