MODEL 1
REMARK minimizedAffinity 0.844216645
REMARK minimizedRMSD -1
REMARK  1 active torsions:
REMARK  status: ('A' for Active; 'I' for Inactive)
REMARK    1  A    between atoms: C1_2  and  C2_3 
ROOT
ATOM      1  C2  UNL d   1      -1.658  -0.266  -1.100  0.00  0.00    -0.081 A 
ATOM      2  C3  UNL d   1      -2.220   0.975  -1.425  0.00  0.00     0.006 A 
ATOM      3  C4  UNL d   1      -2.964   1.129  -2.597  0.00  0.00     0.002 A 
ATOM      4  C5  UNL d   1      -3.166   0.045  -3.458  0.00  0.00    -0.080 A 
ATOM      5  C6  UNL d   1      -3.988   0.190  -4.704  0.00  0.00     0.076 C 
ATOM      6  C7  UNL d   1      -2.589  -1.190  -3.142  0.00  0.00     0.002 A 
ATOM      7  C8  UNL d   1      -1.844  -1.345  -1.971  0.00  0.00     0.006 A 
ENDROOT
BRANCH   1   8
ATOM      8  C1  UNL d   1      -0.909  -0.452   0.196  0.00  0.00     0.054 C 
ATOM      9  C   UNL d   1      -1.682   0.131   1.370  0.00  0.00     0.018 C 
ENDBRANCH   1   8
TORSDOF 1
ENDMDL
