MODEL 1
REMARK minimizedAffinity -3.95412111
REMARK minimizedRMSD -1
REMARK  1 active torsions:
REMARK  status: ('A' for Active; 'I' for Inactive)
REMARK    1  A    between atoms: C1_2  and  C2_3 
ROOT
ATOM      1  C2  UNL d   1       1.463  -0.579   0.134  0.00  0.00    -0.081 A 
ATOM      2  C3  UNL d   1       1.296  -0.826  -1.234  0.00  0.00     0.006 A 
ATOM      3  C4  UNL d   1       0.352  -0.109  -1.974  0.00  0.00     0.002 A 
ATOM      4  C5  UNL d   1      -0.434   0.872  -1.360  0.00  0.00    -0.080 A 
ATOM      5  C6  UNL d   1      -1.429   1.671  -2.148  0.00  0.00     0.076 C 
ATOM      6  C7  UNL d   1      -0.279   1.107   0.011  0.00  0.00     0.002 A 
ATOM      7  C8  UNL d   1       0.663   0.390   0.751  0.00  0.00     0.006 A 
ENDROOT
BRANCH   1   8
ATOM      8  C1  UNL d   1       2.524  -1.305   0.920  0.00  0.00     0.054 C 
ATOM      9  C   UNL d   1       2.110  -1.485   2.373  0.00  0.00     0.018 C 
ENDBRANCH   1   8
TORSDOF 1
ENDMDL
