MODEL 1
REMARK minimizedAffinity -3.6359427
REMARK minimizedRMSD -1
REMARK  1 active torsions:
REMARK  status: ('A' for Active; 'I' for Inactive)
REMARK    1  A    between atoms: C1_2  and  C2_3 
ROOT
ATOM      1  C2  UNL d   1      -0.606   0.937  -1.619  0.00  0.00    -0.081 A 
ATOM      2  C3  UNL d   1      -0.520   1.261  -0.259  0.00  0.00     0.006 A 
ATOM      3  C4  UNL d   1       0.371   0.581   0.575  0.00  0.00     0.002 A 
ATOM      4  C5  UNL d   1       1.195  -0.426   0.063  0.00  0.00    -0.080 A 
ATOM      5  C6  UNL d   1       2.178  -1.143   0.941  0.00  0.00     0.076 C 
ATOM      6  C7  UNL d   1       1.096  -0.762  -1.292  0.00  0.00     0.002 A 
ATOM      7  C8  UNL d   1       0.205  -0.083  -2.126  0.00  0.00     0.006 A 
ENDROOT
BRANCH   1   8
ATOM      8  C1  UNL d   1      -1.520   1.712  -2.534  0.00  0.00     0.054 C 
ATOM      9  C   UNL d   1      -0.790   2.877  -3.187  0.00  0.00     0.018 C 
ENDBRANCH   1   8
TORSDOF 1
ENDMDL
