MODEL 1
REMARK minimizedAffinity -4.86992598
REMARK minimizedRMSD -1
REMARK  1 active torsions:
REMARK  status: ('A' for Active; 'I' for Inactive)
REMARK    1  A    between atoms: C1_2  and  C2_3 
ROOT
ATOM      1  C2  UNL d   1      -0.060   0.369  -0.624  0.00  0.00    -0.081 A 
ATOM      2  C3  UNL d   1      -0.961   0.410   0.447  0.00  0.00     0.006 A 
ATOM      3  C4  UNL d   1      -0.593  -0.082   1.701  0.00  0.00     0.002 A 
ATOM      4  C5  UNL d   1       0.684  -0.614   1.908  0.00  0.00    -0.080 A 
ATOM      5  C6  UNL d   1       1.103  -1.117   3.257  0.00  0.00     0.076 C 
ATOM      6  C7  UNL d   1       1.579  -0.671   0.834  0.00  0.00     0.002 A 
ATOM      7  C8  UNL d   1       1.210  -0.180  -0.421  0.00  0.00     0.006 A 
ENDROOT
BRANCH   1   8
ATOM      8  C1  UNL d   1      -0.432   0.957  -1.962  0.00  0.00     0.054 C 
ATOM      9  C   UNL d   1      -0.110   2.443  -2.022  0.00  0.00     0.018 C 
ENDBRANCH   1   8
TORSDOF 1
ENDMDL
