MODEL 1
REMARK minimizedAffinity 2.6516242
REMARK minimizedRMSD -1
REMARK  0 active torsions:
REMARK  status: ('A' for Active; 'I' for Inactive)
ROOT
ATOM      1  C4' PXY d   1       0.009  -2.490   1.957  0.00  0.00     0.077 C 
ATOM      2  C1' PXY d   1       0.451   2.961   0.086  0.00  0.00     0.077 C 
ATOM      3  C1  PXY d   1       0.342   1.528   0.566  0.00  0.00    -0.082 A 
ATOM      4  C2  PXY d   1      -0.651   1.180   1.369  0.00  0.00     0.003 A 
ATOM      5  C3  PXY d   1      -0.747  -0.104   1.838  0.00  0.00     0.003 A 
ATOM      6  C4  PXY d   1       0.153  -1.056   1.440  0.00  0.00    -0.082 A 
ATOM      7  C5  PXY d   1       1.163  -0.712   0.613  0.00  0.00     0.003 A 
ATOM      8  C6  PXY d   1       1.266   0.607   0.180  0.00  0.00     0.003 A 
ENDROOT
TORSDOF 0
ENDMDL
