MODEL 1
REMARK minimizedAffinity 4.99871349
REMARK minimizedRMSD -1
REMARK  0 active torsions:
REMARK  status: ('A' for Active; 'I' for Inactive)
ROOT
ATOM      1  C4' PXY d   1       1.442   1.989   0.289  0.00  0.00     0.077 C 
ATOM      2  C1' PXY d   1       2.672  -2.651  -2.931  0.00  0.00     0.077 C 
ATOM      3  C1  PXY d   1       2.348  -1.427  -2.097  0.00  0.00    -0.082 A 
ATOM      4  C2  PXY d   1       2.726  -1.380  -0.830  0.00  0.00     0.003 A 
ATOM      5  C3  PXY d   1       2.414  -0.294  -0.053  0.00  0.00     0.003 A 
ATOM      6  C4  PXY d   1       1.755   0.778  -0.593  0.00  0.00    -0.082 A 
ATOM      7  C5  PXY d   1       1.376   0.742  -1.888  0.00  0.00     0.003 A 
ATOM      8  C6  PXY d   1       1.666  -0.387  -2.649  0.00  0.00     0.003 A 
ENDROOT
TORSDOF 0
ENDMDL
