MODEL 1
REMARK minimizedAffinity -1.44648063
REMARK minimizedRMSD -1
REMARK  0 active torsions:
REMARK  status: ('A' for Active; 'I' for Inactive)
ROOT
ATOM      1  C4' PXY d   1       2.298   5.935   0.302  0.00  0.00     0.077 C 
ATOM      2  C1' PXY d   1       0.553   0.424   0.232  0.00  0.00     0.077 C 
ATOM      3  C1  PXY d   1       0.999   1.873   0.246  0.00  0.00    -0.082 A 
ATOM      4  C2  PXY d   1       2.288   2.161   0.175  0.00  0.00     0.003 A 
ATOM      5  C3  PXY d   1       2.711   3.465   0.219  0.00  0.00     0.003 A 
ATOM      6  C4  PXY d   1       1.801   4.486   0.282  0.00  0.00    -0.082 A 
ATOM      7  C5  PXY d   1       0.483   4.201   0.343  0.00  0.00     0.003 A 
ATOM      8  C6  PXY d   1       0.077   2.869   0.339  0.00  0.00     0.003 A 
ENDROOT
TORSDOF 0
ENDMDL
