MODEL 1
REMARK minimizedAffinity 4.48676586
REMARK minimizedRMSD -1
REMARK  0 active torsions:
REMARK  status: ('A' for Active; 'I' for Inactive)
ROOT
ATOM      1  C4' PXY d   1      -4.514   1.438  -0.037  0.00  0.00     0.077 C 
ATOM      2  C1' PXY d   1       1.080   2.259   1.166  0.00  0.00     0.077 C 
ATOM      3  C1  PXY d   1      -0.389   2.057   0.850  0.00  0.00    -0.082 A 
ATOM      4  C2  PXY d   1      -0.980   0.923   1.189  0.00  0.00     0.003 A 
ATOM      5  C3  PXY d   1      -2.300   0.710   0.882  0.00  0.00     0.003 A 
ATOM      6  C4  PXY d   1      -3.035   1.690   0.270  0.00  0.00    -0.082 A 
ATOM      7  C5  PXY d   1      -2.441   2.853  -0.069  0.00  0.00     0.003 A 
ATOM      8  C6  PXY d   1      -1.091   3.033   0.214  0.00  0.00     0.003 A 
ENDROOT
TORSDOF 0
ENDMDL
