MODEL 1
REMARK minimizedAffinity 7.53170824
REMARK minimizedRMSD -1
REMARK  0 active torsions:
REMARK  status: ('A' for Active; 'I' for Inactive)
ROOT
ATOM      1  C4' PXY d   1       1.201  -0.708  -1.710  0.00  0.00     0.077 C 
ATOM      2  C1' PXY d   1       3.320   3.048   2.140  0.00  0.00     0.077 C 
ATOM      3  C1  PXY d   1       2.775   2.063   1.124  0.00  0.00    -0.082 A 
ATOM      4  C2  PXY d   1       1.468   1.964   0.945  0.00  0.00     0.003 A 
ATOM      5  C3  PXY d   1       0.957   1.056   0.053  0.00  0.00     0.003 A 
ATOM      6  C4  PXY d   1       1.795   0.279  -0.702  0.00  0.00    -0.082 A 
ATOM      7  C5  PXY d   1       3.131   0.383  -0.532  0.00  0.00     0.003 A 
ATOM      8  C6  PXY d   1       3.628   1.281   0.407  0.00  0.00     0.003 A 
ENDROOT
TORSDOF 0
ENDMDL
