MODEL 1
REMARK minimizedAffinity 2.53577781
REMARK minimizedRMSD -1
REMARK  0 active torsions:
REMARK  status: ('A' for Active; 'I' for Inactive)
ROOT
ATOM      1  C4' PXY d   1       0.140  -2.924   1.653  0.00  0.00     0.077 C 
ATOM      2  C1' PXY d   1       4.842  -5.804  -0.081  0.00  0.00     0.077 C 
ATOM      3  C1  PXY d   1       3.616  -5.038   0.374  0.00  0.00    -0.082 A 
ATOM      4  C2  PXY d   1       2.614  -5.687   0.944  0.00  0.00     0.003 A 
ATOM      5  C3  PXY d   1       1.484  -5.014   1.333  0.00  0.00     0.003 A 
ATOM      6  C4  PXY d   1       1.401  -3.655   1.186  0.00  0.00    -0.082 A 
ATOM      7  C5  PXY d   1       2.424  -2.985   0.615  0.00  0.00     0.003 A 
ATOM      8  C6  PXY d   1       3.545  -3.692   0.189  0.00  0.00     0.003 A 
ENDROOT
TORSDOF 0
ENDMDL
