MODEL 1
REMARK minimizedAffinity 3.18040752
REMARK minimizedRMSD -1
REMARK  0 active torsions:
REMARK  status: ('A' for Active; 'I' for Inactive)
ROOT
ATOM      1  C4' PXY d   1      -4.761  -0.074   2.778  0.00  0.00     0.077 C 
ATOM      2  C1' PXY d   1      -2.125   3.647  -0.774  0.00  0.00     0.077 C 
ATOM      3  C1  PXY d   1      -2.825   2.680   0.160  0.00  0.00    -0.082 A 
ATOM      4  C2  PXY d   1      -2.133   1.713   0.739  0.00  0.00     0.003 A 
ATOM      5  C3  PXY d   1      -2.758   0.810   1.561  0.00  0.00     0.003 A 
ATOM      6  C4  PXY d   1      -4.094   0.931   1.835  0.00  0.00    -0.082 A 
ATOM      7  C5  PXY d   1      -4.804   1.922   1.256  0.00  0.00     0.003 A 
ATOM      8  C6  PXY d   1      -4.160   2.803   0.392  0.00  0.00     0.003 A 
ENDROOT
TORSDOF 0
ENDMDL
