MODEL 1
REMARK minimizedAffinity 9.37398052
REMARK minimizedRMSD -1
REMARK  0 active torsions:
REMARK  status: ('A' for Active; 'I' for Inactive)
ROOT
ATOM      1  C4' PXY d   1      -5.150  -0.450   2.549  0.00  0.00     0.077 C 
ATOM      2  C1' PXY d   1      -2.372   3.530  -0.591  0.00  0.00     0.077 C 
ATOM      3  C1  PXY d   1      -3.110   2.495   0.234  0.00  0.00    -0.082 A 
ATOM      4  C2  PXY d   1      -2.434   1.515   0.812  0.00  0.00     0.003 A 
ATOM      5  C3  PXY d   1      -3.090   0.553   1.535  0.00  0.00     0.003 A 
ATOM      6  C4  PXY d   1      -4.445   0.623   1.714  0.00  0.00    -0.082 A 
ATOM      7  C5  PXY d   1      -5.141   1.626   1.137  0.00  0.00     0.003 A 
ATOM      8  C6  PXY d   1      -4.462   2.570   0.372  0.00  0.00     0.003 A 
ENDROOT
TORSDOF 0
ENDMDL
