MODEL 1
REMARK minimizedAffinity 5.56891155
REMARK minimizedRMSD -1
REMARK  0 active torsions:
REMARK  status: ('A' for Active; 'I' for Inactive)
ROOT
ATOM      1  C4' PXY d   1       2.241   2.319   1.709  0.00  0.00     0.077 C 
ATOM      2  C1' PXY d   1       2.943   0.097  -3.581  0.00  0.00     0.077 C 
ATOM      3  C1  PXY d   1       2.771   0.676  -2.190  0.00  0.00    -0.082 A 
ATOM      4  C2  PXY d   1       1.558   0.792  -1.675  0.00  0.00     0.003 A 
ATOM      5  C3  PXY d   1       1.382   1.343  -0.432  0.00  0.00     0.003 A 
ATOM      6  C4  PXY d   1       2.463   1.731   0.313  0.00  0.00    -0.082 A 
ATOM      7  C5  PXY d   1       3.704   1.607  -0.201  0.00  0.00     0.003 A 
ATOM      8  C6  PXY d   1       3.859   1.083  -1.481  0.00  0.00     0.003 A 
ENDROOT
TORSDOF 0
ENDMDL
