MODEL 1
REMARK minimizedAffinity -0.457609028
REMARK minimizedRMSD -1
REMARK  0 active torsions:
REMARK  status: ('A' for Active; 'I' for Inactive)
ROOT
ATOM      1  C4' PXY d   1      -3.965   1.483   0.285  0.00  0.00     0.077 C 
ATOM      2  C1' PXY d   1       1.717   2.501   0.576  0.00  0.00     0.077 C 
ATOM      3  C1  PXY d   1       0.229   2.222   0.505  0.00  0.00    -0.082 A 
ATOM      4  C2  PXY d   1      -0.520   2.885  -0.361  0.00  0.00     0.003 A 
ATOM      5  C3  PXY d   1      -1.873   2.669  -0.417  0.00  0.00     0.003 A 
ATOM      6  C4  PXY d   1      -2.457   1.725   0.385  0.00  0.00    -0.082 A 
ATOM      7  C5  PXY d   1      -1.698   1.036   1.263  0.00  0.00     0.003 A 
ATOM      8  C6  PXY d   1      -0.333   1.300   1.333  0.00  0.00     0.003 A 
ENDROOT
TORSDOF 0
ENDMDL
