MODEL 1
REMARK minimizedAffinity 0.318076998
REMARK minimizedRMSD -1
REMARK  0 active torsions:
REMARK  status: ('A' for Active; 'I' for Inactive)
ROOT
ATOM      1  C4' PXY d   1      -1.465   3.017   0.514  0.00  0.00     0.077 C 
ATOM      2  C1' PXY d   1       4.228   2.045   0.284  0.00  0.00     0.077 C 
ATOM      3  C1  PXY d   1       2.737   2.313   0.341  0.00  0.00    -0.082 A 
ATOM      4  C2  PXY d   1       1.962   1.541   1.086  0.00  0.00     0.003 A 
ATOM      5  C3  PXY d   1       0.607   1.749   1.123  0.00  0.00     0.003 A 
ATOM      6  C4  PXY d   1       0.047   2.790   0.434  0.00  0.00    -0.082 A 
ATOM      7  C5  PXY d   1       0.832   3.589  -0.320  0.00  0.00     0.003 A 
ATOM      8  C6  PXY d   1       2.200   3.335  -0.377  0.00  0.00     0.003 A 
ENDROOT
TORSDOF 0
ENDMDL
