MODEL 1
REMARK minimizedAffinity 1.29380095
REMARK minimizedRMSD -1
REMARK  0 active torsions:
REMARK  status: ('A' for Active; 'I' for Inactive)
ROOT
ATOM      1  C4' PXY d   1       2.043   2.749   0.464  0.00  0.00     0.077 C 
ATOM      2  C1' PXY d   1      -3.672   2.132  -0.144  0.00  0.00     0.077 C 
ATOM      3  C1  PXY d   1      -2.174   2.289   0.027  0.00  0.00    -0.082 A 
ATOM      4  C2  PXY d   1      -1.520   3.171  -0.711  0.00  0.00     0.003 A 
ATOM      5  C3  PXY d   1      -0.161   3.303  -0.591  0.00  0.00     0.003 A 
ATOM      6  C4  PXY d   1       0.529   2.563   0.331  0.00  0.00    -0.082 A 
ATOM      7  C5  PXY d   1      -0.133   1.669   1.096  0.00  0.00     0.003 A 
ATOM      8  C6  PXY d   1      -1.507   1.520   0.930  0.00  0.00     0.003 A 
ENDROOT
TORSDOF 0
ENDMDL
