MODEL 1
REMARK minimizedAffinity -0.225528926
REMARK minimizedRMSD -1
REMARK  0 active torsions:
REMARK  status: ('A' for Active; 'I' for Inactive)
ROOT
ATOM      1  C4' PXY d   1       3.623   4.424   1.656  0.00  0.00     0.077 C 
ATOM      2  C1' PXY d   1       1.726  -0.667  -0.320  0.00  0.00     0.077 C 
ATOM      3  C1  PXY d   1       2.232   0.662   0.205  0.00  0.00    -0.082 A 
ATOM      4  C2  PXY d   1       1.425   1.710   0.220  0.00  0.00     0.003 A 
ATOM      5  C3  PXY d   1       1.876   2.927   0.662  0.00  0.00     0.003 A 
ATOM      6  C4  PXY d   1       3.151   3.060   1.143  0.00  0.00    -0.082 A 
ATOM      7  C5  PXY d   1       3.978   1.993   1.141  0.00  0.00     0.003 A 
ATOM      8  C6  PXY d   1       3.513   0.776   0.650  0.00  0.00     0.003 A 
ENDROOT
TORSDOF 0
ENDMDL
