MODEL 1
REMARK minimizedAffinity 7.84418869
REMARK minimizedRMSD -1
REMARK  0 active torsions:
REMARK  status: ('A' for Active; 'I' for Inactive)
ROOT
ATOM      1  C4' PXY d   1       1.511   2.936   0.707  0.00  0.00     0.077 C 
ATOM      2  C1' PXY d   1       2.146  -2.178  -1.912  0.00  0.00     0.077 C 
ATOM      3  C1  PXY d   1       1.976  -0.843  -1.214  0.00  0.00    -0.082 A 
ATOM      4  C2  PXY d   1       1.760   0.248  -1.932  0.00  0.00     0.003 A 
ATOM      5  C3  PXY d   1       1.635   1.468  -1.319  0.00  0.00     0.003 A 
ATOM      6  C4  PXY d   1       1.679   1.566   0.046  0.00  0.00    -0.082 A 
ATOM      7  C5  PXY d   1       1.889   0.456   0.786  0.00  0.00     0.003 A 
ATOM      8  C6  PXY d   1       2.054  -0.767   0.142  0.00  0.00     0.003 A 
ENDROOT
TORSDOF 0
ENDMDL
