MODEL 1
REMARK minimizedAffinity 2.25472236
REMARK minimizedRMSD -1
REMARK  0 active torsions:
REMARK  status: ('A' for Active; 'I' for Inactive)
ROOT
ATOM      1  C4' PXY d   1       4.566   1.302   1.630  0.00  0.00     0.077 C 
ATOM      2  C1' PXY d   1      -0.747   3.493   1.006  0.00  0.00     0.077 C 
ATOM      3  C1  PXY d   1       0.645   2.912   1.158  0.00  0.00    -0.082 A 
ATOM      4  C2  PXY d   1       1.175   2.792   2.364  0.00  0.00     0.003 A 
ATOM      5  C3  PXY d   1       2.445   2.298   2.518  0.00  0.00     0.003 A 
ATOM      6  C4  PXY d   1       3.160   1.874   1.430  0.00  0.00    -0.082 A 
ATOM      7  C5  PXY d   1       2.622   1.984   0.196  0.00  0.00     0.003 A 
ATOM      8  C6  PXY d   1       1.347   2.525   0.059  0.00  0.00     0.003 A 
ENDROOT
TORSDOF 0
ENDMDL
