MODEL 1
REMARK minimizedAffinity 8.5745554
REMARK minimizedRMSD -1
REMARK  0 active torsions:
REMARK  status: ('A' for Active; 'I' for Inactive)
ROOT
ATOM      1  C4' PXY d   1       4.106   1.002   1.523  0.00  0.00     0.077 C 
ATOM      2  C1' PXY d   1      -1.197   2.820   0.113  0.00  0.00     0.077 C 
ATOM      3  C1  PXY d   1       0.190   2.339   0.494  0.00  0.00    -0.082 A 
ATOM      4  C2  PXY d   1       1.253   2.920  -0.036  0.00  0.00     0.003 A 
ATOM      5  C3  PXY d   1       2.513   2.477   0.273  0.00  0.00     0.003 A 
ATOM      6  C4  PXY d   1       2.688   1.461   1.175  0.00  0.00    -0.082 A 
ATOM      7  C5  PXY d   1       1.608   0.870   1.729  0.00  0.00     0.003 A 
ATOM      8  C6  PXY d   1       0.337   1.308   1.370  0.00  0.00     0.003 A 
ENDROOT
TORSDOF 0
ENDMDL
