MODEL 1
REMARK minimizedAffinity 0.508820176
REMARK minimizedRMSD -1
REMARK  0 active torsions:
REMARK  status: ('A' for Active; 'I' for Inactive)
ROOT
ATOM      1  C4' PXY d   1      -3.220  -6.000  -2.107  0.00  0.00     0.077 C 
ATOM      2  C1' PXY d   1      -1.005  -3.749   2.735  0.00  0.00     0.077 C 
ATOM      3  C1  PXY d   1      -1.597  -4.334   1.468  0.00  0.00    -0.082 A 
ATOM      4  C2  PXY d   1      -1.068  -5.426   0.942  0.00  0.00     0.003 A 
ATOM      5  C3  PXY d   1      -1.571  -5.950  -0.221  0.00  0.00     0.003 A 
ATOM      6  C4  PXY d   1      -2.661  -5.380  -0.823  0.00  0.00    -0.082 A 
ATOM      7  C5  PXY d   1      -3.213  -4.272  -0.286  0.00  0.00     0.003 A 
ATOM      8  C6  PXY d   1      -2.662  -3.732   0.872  0.00  0.00     0.003 A 
ENDROOT
TORSDOF 0
ENDMDL
