MODEL 1
REMARK minimizedAffinity 10.490098
REMARK minimizedRMSD -1
REMARK  0 active torsions:
REMARK  status: ('A' for Active; 'I' for Inactive)
ROOT
ATOM      1  C4' PXY d   1       2.339  -2.133  -2.263  0.00  0.00     0.077 C 
ATOM      2  C1' PXY d   1       2.180   2.844   0.672  0.00  0.00     0.077 C 
ATOM      3  C1  PXY d   1       2.212   1.543  -0.105  0.00  0.00    -0.082 A 
ATOM      4  C2  PXY d   1       2.704   0.454   0.463  0.00  0.00     0.003 A 
ATOM      5  C3  PXY d   1       2.769  -0.724  -0.237  0.00  0.00     0.003 A 
ATOM      6  C4  PXY d   1       2.278  -0.800  -1.513  0.00  0.00    -0.082 A 
ATOM      7  C5  PXY d   1       1.765   0.305  -2.095  0.00  0.00     0.003 A 
ATOM      8  C6  PXY d   1       1.745   1.500  -1.382  0.00  0.00     0.003 A 
ENDROOT
TORSDOF 0
ENDMDL
