MODEL 1
REMARK minimizedAffinity 4.20874834
REMARK minimizedRMSD -1
REMARK  0 active torsions:
REMARK  status: ('A' for Active; 'I' for Inactive)
ROOT
ATOM      1  C4' PXY d   1      -0.642   2.831   1.499  0.00  0.00     0.077 C 
ATOM      2  C1' PXY d   1       5.064   2.060   2.009  0.00  0.00     0.077 C 
ATOM      3  C1  PXY d   1       3.570   2.268   1.863  0.00  0.00    -0.082 A 
ATOM      4  C2  PXY d   1       2.808   2.316   2.944  0.00  0.00     0.003 A 
ATOM      5  C3  PXY d   1       1.450   2.471   2.829  0.00  0.00     0.003 A 
ATOM      6  C4  PXY d   1       0.873   2.632   1.598  0.00  0.00    -0.082 A 
ATOM      7  C5  PXY d   1       1.645   2.595   0.491  0.00  0.00     0.003 A 
ATOM      8  C6  PXY d   1       3.016   2.396   0.627  0.00  0.00     0.003 A 
ENDROOT
TORSDOF 0
ENDMDL
