MODEL 1
REMARK minimizedAffinity -0.218825787
REMARK minimizedRMSD -1
REMARK  1 active torsions:
REMARK  status: ('A' for Active; 'I' for Inactive)
REMARK    1  A    between atoms: C1_2  and  C2_3 
ROOT
ATOM      1  C2  UNL d   1       0.804   0.774   0.276  0.00  0.00    -0.076 A 
ATOM      2  C3  UNL d   1       0.440   2.105   0.547  0.00  0.00     0.004 A 
ATOM      3  C4  UNL d   1      -0.861   2.429   0.930  0.00  0.00    -0.003 A 
ATOM      4  C5  UNL d   1      -1.818   1.428   1.049  0.00  0.00     0.000 A 
ATOM      5  C6  UNL d   1      -1.470   0.101   0.802  0.00  0.00     0.000 A 
ATOM      6  C7  UNL d   1      -0.160  -0.245   0.431  0.00  0.00    -0.073 A 
ATOM      7  C8  UNL d   1       0.158  -1.692   0.170  0.00  0.00     0.078 C 
ENDROOT
BRANCH   1   8
ATOM      8  C1  UNL d   1       2.222   0.486  -0.161  0.00  0.00     0.053 C 
ATOM      9  C   UNL d   1       3.244   1.331   0.583  0.00  0.00     0.018 C 
ENDBRANCH   1   8
TORSDOF 1
ENDMDL
