MODEL 1
REMARK minimizedAffinity -4.34691668
REMARK minimizedRMSD -1
REMARK  1 active torsions:
REMARK  status: ('A' for Active; 'I' for Inactive)
REMARK    1  A    between atoms: C1_2  and  C2_3 
ROOT
ATOM      1  C2  UNL d   1      -0.091  -0.190   0.124  0.00  0.00    -0.076 A 
ATOM      2  C3  UNL d   1      -1.404  -0.029   0.599  0.00  0.00     0.004 A 
ATOM      3  C4  UNL d   1      -1.932   1.240   0.832  0.00  0.00    -0.003 A 
ATOM      4  C5  UNL d   1      -1.155   2.369   0.593  0.00  0.00     0.000 A 
ATOM      5  C6  UNL d   1       0.143   2.228   0.105  0.00  0.00     0.000 A 
ATOM      6  C7  UNL d   1       0.685   0.956  -0.150  0.00  0.00    -0.073 A 
ATOM      7  C8  UNL d   1       2.094   0.863  -0.670  0.00  0.00     0.078 C 
ENDROOT
BRANCH   1   8
ATOM      8  C1  UNL d   1       0.437  -1.592  -0.084  0.00  0.00     0.053 C 
ATOM      9  C   UNL d   1      -0.226  -2.296  -1.257  0.00  0.00     0.018 C 
ENDBRANCH   1   8
TORSDOF 1
ENDMDL
