MODEL 1
REMARK minimizedAffinity -5.79596138
REMARK minimizedRMSD -1
REMARK  1 active torsions:
REMARK  status: ('A' for Active; 'I' for Inactive)
REMARK    1  A    between atoms: C1_2  and  C2_3 
ROOT
ATOM      1  C2  UNL d   1       0.332   0.789   0.190  0.00  0.00    -0.076 A 
ATOM      2  C3  UNL d   1      -1.019   1.177   0.156  0.00  0.00     0.004 A 
ATOM      3  C4  UNL d   1      -1.389   2.507   0.349  0.00  0.00    -0.003 A 
ATOM      4  C5  UNL d   1      -0.414   3.471   0.578  0.00  0.00     0.000 A 
ATOM      5  C6  UNL d   1       0.932   3.107   0.598  0.00  0.00     0.000 A 
ATOM      6  C7  UNL d   1       1.323   1.773   0.389  0.00  0.00    -0.073 A 
ATOM      7  C8  UNL d   1       2.789   1.436   0.427  0.00  0.00     0.078 C 
ENDROOT
BRANCH   1   8
ATOM      8  C1  UNL d   1       0.671  -0.672   0.002  0.00  0.00     0.053 C 
ATOM      9  C   UNL d   1      -0.218  -1.348  -1.031  0.00  0.00     0.018 C 
ENDBRANCH   1   8
TORSDOF 1
ENDMDL
