MODEL 1
REMARK minimizedAffinity -3.27516031
REMARK minimizedRMSD -1
REMARK  1 active torsions:
REMARK  status: ('A' for Active; 'I' for Inactive)
REMARK    1  A    between atoms: C1_2  and  C2_3 
ROOT
ATOM      1  C2  UNL d   1      -0.630  -0.264   0.638  0.00  0.00    -0.076 A 
ATOM      2  C3  UNL d   1      -1.913  -0.043   1.167  0.00  0.00     0.004 A 
ATOM      3  C4  UNL d   1      -2.440   1.244   1.259  0.00  0.00    -0.003 A 
ATOM      4  C5  UNL d   1      -1.691   2.332   0.823  0.00  0.00     0.000 A 
ATOM      5  C6  UNL d   1      -0.423   2.129   0.279  0.00  0.00     0.000 A 
ATOM      6  C7  UNL d   1       0.116   0.836   0.164  0.00  0.00    -0.073 A 
ATOM      7  C8  UNL d   1       1.490   0.677  -0.425  0.00  0.00     0.078 C 
ENDROOT
BRANCH   1   8
ATOM      8  C1  UNL d   1      -0.101  -1.680   0.588  0.00  0.00     0.053 C 
ATOM      9  C   UNL d   1      -0.542  -2.423  -0.663  0.00  0.00     0.018 C 
ENDBRANCH   1   8
TORSDOF 1
ENDMDL
