MODEL 1
REMARK minimizedAffinity -5.37474251
REMARK minimizedRMSD -1
REMARK  1 active torsions:
REMARK  status: ('A' for Active; 'I' for Inactive)
REMARK    1  A    between atoms: C1_2  and  C2_3 
ROOT
ATOM      1  C2  UNL d   1      -0.643  -0.094   0.244  0.00  0.00    -0.076 A 
ATOM      2  C3  UNL d   1       0.639   0.335  -0.140  0.00  0.00     0.004 A 
ATOM      3  C4  UNL d   1       1.007   1.676  -0.041  0.00  0.00    -0.003 A 
ATOM      4  C5  UNL d   1       0.098   2.609   0.445  0.00  0.00     0.000 A 
ATOM      5  C6  UNL d   1      -1.172   2.199   0.848  0.00  0.00     0.000 A 
ATOM      6  C7  UNL d   1      -1.553   0.848   0.770  0.00  0.00    -0.073 A 
ATOM      7  C8  UNL d   1      -2.938   0.462   1.213  0.00  0.00     0.078 C 
ENDROOT
BRANCH   1   8
ATOM      8  C1  UNL d   1      -0.995  -1.556   0.089  0.00  0.00     0.053 C 
ATOM      9  C   UNL d   1      -0.224  -2.224  -1.040  0.00  0.00     0.018 C 
ENDBRANCH   1   8
TORSDOF 1
ENDMDL
