MODEL 1
REMARK minimizedAffinity -4.87194204
REMARK minimizedRMSD -1
REMARK  1 active torsions:
REMARK  status: ('A' for Active; 'I' for Inactive)
REMARK    1  A    between atoms: C1_2  and  C2_3 
ROOT
ATOM      1  C2  UNL d   1      -0.904   1.606   1.037  0.00  0.00    -0.076 A 
ATOM      2  C3  UNL d   1      -1.309   0.261   1.080  0.00  0.00     0.004 A 
ATOM      3  C4  UNL d   1      -0.588  -0.728   0.412  0.00  0.00    -0.003 A 
ATOM      4  C5  UNL d   1       0.551  -0.387  -0.309  0.00  0.00     0.000 A 
ATOM      5  C6  UNL d   1       0.978   0.940  -0.348  0.00  0.00     0.000 A 
ATOM      6  C7  UNL d   1       0.271   1.947   0.333  0.00  0.00    -0.073 A 
ATOM      7  C8  UNL d   1       0.773   3.362   0.251  0.00  0.00     0.078 C 
ENDROOT
BRANCH   1   8
ATOM      8  C1  UNL d   1      -1.741   2.638   1.758  0.00  0.00     0.053 C 
ATOM      9  C   UNL d   1      -1.459   2.677   3.252  0.00  0.00     0.018 C 
ENDBRANCH   1   8
TORSDOF 1
ENDMDL
