MODEL 1
REMARK minimizedAffinity -2.36558199
REMARK minimizedRMSD -1
REMARK  1 active torsions:
REMARK  status: ('A' for Active; 'I' for Inactive)
REMARK    1  A    between atoms: C1_2  and  C2_3 
ROOT
ATOM      1  C2  UNL d   1      -0.559   1.338   0.420  0.00  0.00    -0.076 A 
ATOM      2  C3  UNL d   1       0.641   1.053  -0.255  0.00  0.00     0.004 A 
ATOM      3  C4  UNL d   1       0.922  -0.235  -0.707  0.00  0.00    -0.003 A 
ATOM      4  C5  UNL d   1       0.007  -1.260  -0.491  0.00  0.00     0.000 A 
ATOM      5  C6  UNL d   1      -1.196  -0.992   0.161  0.00  0.00     0.000 A 
ATOM      6  C7  UNL d   1      -1.502   0.304   0.609  0.00  0.00    -0.073 A 
ATOM      7  C8  UNL d   1      -2.811   0.535   1.312  0.00  0.00     0.078 C 
ENDROOT
BRANCH   1   8
ATOM      8  C1  UNL d   1      -0.797   2.748   0.912  0.00  0.00     0.053 C 
ATOM      9  C   UNL d   1      -0.094   3.032   2.230  0.00  0.00     0.018 C 
ENDBRANCH   1   8
TORSDOF 1
ENDMDL
