MODEL 1
REMARK minimizedAffinity -5.74987507
REMARK minimizedRMSD -1
REMARK  1 active torsions:
REMARK  status: ('A' for Active; 'I' for Inactive)
REMARK    1  A    between atoms: C1_2  and  C2_3 
ROOT
ATOM      1  C2  UNL d   1       0.344   0.056   0.297  0.00  0.00    -0.076 A 
ATOM      2  C3  UNL d   1      -0.997   0.479   0.320  0.00  0.00     0.004 A 
ATOM      3  C4  UNL d   1      -1.323   1.833   0.257  0.00  0.00    -0.003 A 
ATOM      4  C5  UNL d   1      -0.314   2.786   0.168  0.00  0.00     0.000 A 
ATOM      5  C6  UNL d   1       1.020   2.383   0.126  0.00  0.00     0.000 A 
ATOM      6  C7  UNL d   1       1.366   1.022   0.173  0.00  0.00    -0.073 A 
ATOM      7  C8  UNL d   1       2.821   0.644   0.130  0.00  0.00     0.078 C 
ENDROOT
BRANCH   1   8
ATOM      8  C1  UNL d   1       0.638  -1.423   0.397  0.00  0.00     0.053 C 
ATOM      9  C   UNL d   1      -0.335  -2.267  -0.413  0.00  0.00     0.018 C 
ENDBRANCH   1   8
TORSDOF 1
ENDMDL
