MODEL 1
REMARK minimizedAffinity -4.23728132
REMARK minimizedRMSD -1
REMARK  1 active torsions:
REMARK  status: ('A' for Active; 'I' for Inactive)
REMARK    1  A    between atoms: C1_2  and  C2_3 
ROOT
ATOM      1  C2  UNL d   1       0.510   0.774   0.442  0.00  0.00    -0.076 A 
ATOM      2  C3  UNL d   1       1.666   1.398  -0.059  0.00  0.00     0.004 A 
ATOM      3  C4  UNL d   1       1.768   2.788  -0.106  0.00  0.00    -0.003 A 
ATOM      4  C5  UNL d   1       0.715   3.575   0.347  0.00  0.00     0.000 A 
ATOM      5  C6  UNL d   1      -0.432   2.973   0.863  0.00  0.00     0.000 A 
ATOM      6  C7  UNL d   1      -0.544   1.574   0.933  0.00  0.00    -0.073 A 
ATOM      7  C8  UNL d   1      -1.806   0.978   1.493  0.00  0.00     0.078 C 
ENDROOT
BRANCH   1   8
ATOM      8  C1  UNL d   1       0.446  -0.737   0.443  0.00  0.00     0.053 C 
ATOM      9  C   UNL d   1      -0.257  -1.291  -0.786  0.00  0.00     0.018 C 
ENDBRANCH   1   8
TORSDOF 1
ENDMDL
