MODEL 1
REMARK minimizedAffinity -5.9770422
REMARK minimizedRMSD -1
REMARK  1 active torsions:
REMARK  status: ('A' for Active; 'I' for Inactive)
REMARK    1  A    between atoms: C1_2  and  C2_3 
ROOT
ATOM      1  C2  UNL d   1       0.719   1.471   0.441  0.00  0.00    -0.076 A 
ATOM      2  C3  UNL d   1       0.720   0.176   0.986  0.00  0.00     0.004 A 
ATOM      3  C4  UNL d   1      -0.468  -0.536   1.148  0.00  0.00    -0.003 A 
ATOM      4  C5  UNL d   1      -1.676   0.037   0.765  0.00  0.00     0.000 A 
ATOM      5  C6  UNL d   1      -1.694   1.314   0.206  0.00  0.00     0.000 A 
ATOM      6  C7  UNL d   1      -0.504   2.038   0.022  0.00  0.00    -0.073 A 
ATOM      7  C8  UNL d   1      -0.582   3.414  -0.581  0.00  0.00     0.078 C 
ENDROOT
BRANCH   1   8
ATOM      8  C1  UNL d   1       2.035   2.205   0.315  0.00  0.00     0.053 C 
ATOM      9  C   UNL d   1       3.187   1.451   0.960  0.00  0.00     0.018 C 
ENDBRANCH   1   8
TORSDOF 1
ENDMDL
