MODEL 1
REMARK minimizedAffinity -4.2505455
REMARK minimizedRMSD -1
REMARK  1 active torsions:
REMARK  status: ('A' for Active; 'I' for Inactive)
REMARK    1  A    between atoms: C1_2  and  C2_3 
ROOT
ATOM      1  C2  UNL d   1       1.439   0.703   0.269  0.00  0.00    -0.076 A 
ATOM      2  C3  UNL d   1       1.129  -0.593   0.718  0.00  0.00     0.004 A 
ATOM      3  C4  UNL d   1      -0.186  -0.959   1.000  0.00  0.00    -0.003 A 
ATOM      4  C5  UNL d   1      -1.212  -0.035   0.837  0.00  0.00     0.000 A 
ATOM      5  C6  UNL d   1      -0.925   1.249   0.376  0.00  0.00     0.000 A 
ATOM      6  C7  UNL d   1       0.393   1.630   0.072  0.00  0.00    -0.073 A 
ATOM      7  C8  UNL d   1       0.646   3.030  -0.416  0.00  0.00     0.078 C 
ENDROOT
BRANCH   1   8
ATOM      8  C1  UNL d   1       2.887   1.051   0.005  0.00  0.00     0.053 C 
ATOM      9  C   UNL d   1       3.844   0.283   0.904  0.00  0.00     0.018 C 
ENDBRANCH   1   8
TORSDOF 1
ENDMDL
