MODEL 1
REMARK minimizedAffinity -3.99584651
REMARK minimizedRMSD -1
REMARK  1 active torsions:
REMARK  status: ('A' for Active; 'I' for Inactive)
REMARK    1  A    between atoms: C1_2  and  C2_3 
ROOT
ATOM      1  C2  UNL d   1       0.791   1.061  -0.166  0.00  0.00    -0.076 A 
ATOM      2  C3  UNL d   1       0.178  -0.179  -0.414  0.00  0.00     0.004 A 
ATOM      3  C4  UNL d   1      -1.210  -0.293  -0.478  0.00  0.00    -0.003 A 
ATOM      4  C5  UNL d   1      -2.007   0.831  -0.296  0.00  0.00     0.000 A 
ATOM      5  C6  UNL d   1      -1.415   2.073  -0.067  0.00  0.00     0.000 A 
ATOM      6  C7  UNL d   1      -0.017   2.209  -0.016  0.00  0.00    -0.073 A 
ATOM      7  C8  UNL d   1       0.568   3.571   0.240  0.00  0.00     0.078 C 
ENDROOT
BRANCH   1   8
ATOM      8  C1  UNL d   1       2.300   1.119  -0.081  0.00  0.00     0.053 C 
ATOM      9  C   UNL d   1       2.905  -0.178   0.433  0.00  0.00     0.018 C 
ENDBRANCH   1   8
TORSDOF 1
ENDMDL
