MODEL 1
REMARK minimizedAffinity 4.09753752
REMARK minimizedRMSD -1
REMARK  1 active torsions:
REMARK  status: ('A' for Active; 'I' for Inactive)
REMARK    1  A    between atoms: C1_2  and  C2_3 
ROOT
ATOM      1  C2  UNL d   1       4.826   2.185  -0.363  0.00  0.00    -0.073 A 
ATOM      2  C3  UNL d   1       5.407   1.869   0.870  0.00  0.00    -0.002 A 
ATOM      3  C4  UNL d   1       5.994   2.867   1.649  0.00  0.00     0.004 A 
ATOM      4  C5  UNL d   1       6.000   4.190   1.207  0.00  0.00    -0.004 A 
ATOM      5  C6  UNL d   1       5.414   4.527  -0.018  0.00  0.00    -0.075 A 
ATOM      6  C7  UNL d   1       5.415   5.945  -0.509  0.00  0.00     0.076 C 
ATOM      7  C8  UNL d   1       4.829   3.519  -0.795  0.00  0.00     0.001 A 
ENDROOT
BRANCH   1   8
ATOM      8  C1  UNL d   1       4.185   1.111  -1.205  0.00  0.00     0.053 C 
ATOM      9  C   UNL d   1       3.209   0.265  -0.403  0.00  0.00     0.018 C 
ENDBRANCH   1   8
TORSDOF 1
ENDMDL
