MODEL 1
REMARK minimizedAffinity 14.0474453
REMARK minimizedRMSD -1
REMARK  1 active torsions:
REMARK  status: ('A' for Active; 'I' for Inactive)
REMARK    1  A    between atoms: C1_2  and  C2_3 
ROOT
ATOM      1  C2  UNL d   1       1.902   0.080  -0.184  0.00  0.00    -0.073 A 
ATOM      2  C3  UNL d   1       0.649   0.333  -0.753  0.00  0.00    -0.002 A 
ATOM      3  C4  UNL d   1      -0.466   0.541   0.060  0.00  0.00     0.004 A 
ATOM      4  C5  UNL d   1      -0.338   0.506   1.449  0.00  0.00    -0.004 A 
ATOM      5  C6  UNL d   1       0.909   0.267   2.036  0.00  0.00    -0.075 A 
ATOM      6  C7  UNL d   1       1.063   0.224   3.528  0.00  0.00     0.076 C 
ATOM      7  C8  UNL d   1       2.023   0.056   1.213  0.00  0.00     0.001 A 
ENDROOT
BRANCH   1   8
ATOM      8  C1  UNL d   1       3.110  -0.139  -1.058  0.00  0.00     0.053 C 
ATOM      9  C   UNL d   1       4.162   0.940  -0.858  0.00  0.00     0.018 C 
ENDBRANCH   1   8
TORSDOF 1
ENDMDL
