MODEL 1
REMARK minimizedAffinity 8.94304752
REMARK minimizedRMSD -1
REMARK  1 active torsions:
REMARK  status: ('A' for Active; 'I' for Inactive)
REMARK    1  A    between atoms: C1_2  and  C2_3 
ROOT
ATOM      1  C2  UNL d   1       3.705  -0.759  -0.801  0.00  0.00    -0.073 A 
ATOM      2  C3  UNL d   1       4.629  -1.504  -0.060  0.00  0.00    -0.002 A 
ATOM      3  C4  UNL d   1       5.772  -0.894   0.459  0.00  0.00     0.004 A 
ATOM      4  C5  UNL d   1       6.000   0.466   0.248  0.00  0.00    -0.004 A 
ATOM      5  C6  UNL d   1       5.082   1.230  -0.481  0.00  0.00    -0.075 A 
ATOM      6  C7  UNL d   1       5.314   2.693  -0.719  0.00  0.00     0.076 C 
ATOM      7  C8  UNL d   1       3.938   0.609  -1.000  0.00  0.00     0.001 A 
ENDROOT
BRANCH   1   8
ATOM      8  C1  UNL d   1       2.466  -1.411  -1.357  0.00  0.00     0.053 C 
ATOM      9  C   UNL d   1       2.461  -2.914  -1.127  0.00  0.00     0.018 C 
ENDBRANCH   1   8
TORSDOF 1
ENDMDL
