MODEL 1
REMARK minimizedAffinity 16.5071545
REMARK minimizedRMSD -1
REMARK  1 active torsions:
REMARK  status: ('A' for Active; 'I' for Inactive)
REMARK    1  A    between atoms: C1_2  and  C2_3 
ROOT
ATOM      1  C2  UNL d   1       5.114   1.987  -0.866  0.00  0.00    -0.073 A 
ATOM      2  C3  UNL d   1       5.291   1.948   0.522  0.00  0.00    -0.002 A 
ATOM      3  C4  UNL d   1       5.701   3.090   1.213  0.00  0.00     0.004 A 
ATOM      4  C5  UNL d   1       5.931   4.281   0.525  0.00  0.00    -0.004 A 
ATOM      5  C6  UNL d   1       5.749   4.343  -0.860  0.00  0.00    -0.075 A 
ATOM      6  C7  UNL d   1       5.995   5.616  -1.615  0.00  0.00     0.076 C 
ATOM      7  C8  UNL d   1       5.340   3.192  -1.547  0.00  0.00     0.001 A 
ENDROOT
BRANCH   1   8
ATOM      8  C1  UNL d   1       4.666   0.759  -1.615  0.00  0.00     0.053 C 
ATOM      9  C   UNL d   1       4.126  -0.313  -0.681  0.00  0.00     0.018 C 
ENDBRANCH   1   8
TORSDOF 1
ENDMDL
