MODEL 1
REMARK minimizedAffinity 6.69455338
REMARK minimizedRMSD -1
REMARK  1 active torsions:
REMARK  status: ('A' for Active; 'I' for Inactive)
REMARK    1  A    between atoms: C1_2  and  C2_3 
ROOT
ATOM      1  C2  UNL d   1       0.193  -3.691   4.484  0.00  0.00    -0.073 A 
ATOM      2  C3  UNL d   1      -0.791  -4.602   4.885  0.00  0.00    -0.002 A 
ATOM      3  C4  UNL d   1      -0.446  -5.727   5.636  0.00  0.00     0.004 A 
ATOM      4  C5  UNL d   1       0.882  -5.948   6.000  0.00  0.00    -0.004 A 
ATOM      5  C6  UNL d   1       1.878  -5.043   5.619  0.00  0.00    -0.075 A 
ATOM      6  C7  UNL d   1       3.312  -5.268   6.000  0.00  0.00     0.076 C 
ATOM      7  C8  UNL d   1       1.524  -3.918   4.862  0.00  0.00     0.001 A 
ENDROOT
BRANCH   1   8
ATOM      8  C1  UNL d   1      -0.175  -2.472   3.679  0.00  0.00     0.053 C 
ATOM      9  C   UNL d   1       1.033  -1.858   2.990  0.00  0.00     0.018 C 
ENDBRANCH   1   8
TORSDOF 1
ENDMDL
