MODEL 1
REMARK minimizedAffinity 9.40743828
REMARK minimizedRMSD -1
REMARK  0 active torsions:
REMARK  status: ('A' for Active; 'I' for Inactive)
ROOT
ATOM      1  C2' OXE d   1      -1.433   2.016   3.717  0.00  0.00     0.078 C 
ATOM      2  C1' OXE d   1      -2.976  -0.232   4.383  0.00  0.00     0.078 C 
ATOM      3  C1  OXE d   1      -2.581  -0.052   2.938  0.00  0.00    -0.078 A 
ATOM      4  C2  OXE d   1      -1.865   1.075   2.614  0.00  0.00    -0.078 A 
ATOM      5  C3  OXE d   1      -1.428   1.262   1.306  0.00  0.00     0.003 A 
ATOM      6  C4  OXE d   1      -1.842   0.392   0.289  0.00  0.00    -0.002 A 
ATOM      7  C5  OXE d   1      -2.604  -0.742   0.592  0.00  0.00    -0.002 A 
ATOM      8  C6  OXE d   1      -2.946  -1.000   1.914  0.00  0.00     0.003 A 
ENDROOT
TORSDOF 0
ENDMDL
