MODEL 1
REMARK minimizedAffinity 13.1502991
REMARK minimizedRMSD -1
REMARK  0 active torsions:
REMARK  status: ('A' for Active; 'I' for Inactive)
ROOT
ATOM      1  C2' OXE d   1      -2.856  -1.498   0.761  0.00  0.00     0.078 C 
ATOM      2  C1' OXE d   1      -1.185   0.528  -0.231  0.00  0.00     0.078 C 
ATOM      3  C1  OXE d   1      -1.573   0.586   1.226  0.00  0.00    -0.078 A 
ATOM      4  C2  OXE d   1      -2.429  -0.383   1.691  0.00  0.00    -0.078 A 
ATOM      5  C3  OXE d   1      -2.776  -0.407   3.039  0.00  0.00     0.003 A 
ATOM      6  C4  OXE d   1      -2.385   0.634   3.890  0.00  0.00    -0.002 A 
ATOM      7  C5  OXE d   1      -1.545   1.653   3.427  0.00  0.00    -0.002 A 
ATOM      8  C6  OXE d   1      -1.097   1.620   2.111  0.00  0.00     0.003 A 
ENDROOT
TORSDOF 0
ENDMDL
