MODEL 1
REMARK minimizedAffinity 6.70025969
REMARK minimizedRMSD -1
REMARK  0 active torsions:
REMARK  status: ('A' for Active; 'I' for Inactive)
ROOT
ATOM      1  C2' OXE d   1       2.179   3.193  -3.211  0.00  0.00     0.078 C 
ATOM      2  C1' OXE d   1       0.613   1.644  -4.951  0.00  0.00     0.078 C 
ATOM      3  C1  OXE d   1       1.105   0.995  -3.681  0.00  0.00    -0.078 A 
ATOM      4  C2  OXE d   1       1.910   1.747  -2.858  0.00  0.00    -0.078 A 
ATOM      5  C3  OXE d   1       2.345   1.215  -1.648  0.00  0.00     0.003 A 
ATOM      6  C4  OXE d   1       2.100  -0.127  -1.333  0.00  0.00    -0.002 A 
ATOM      7  C5  OXE d   1       1.316  -0.921  -2.177  0.00  0.00    -0.002 A 
ATOM      8  C6  OXE d   1       0.776  -0.364  -3.331  0.00  0.00     0.003 A 
ENDROOT
TORSDOF 0
ENDMDL
