MODEL 1
REMARK minimizedAffinity 11.1816969
REMARK minimizedRMSD -1
REMARK  0 active torsions:
REMARK  status: ('A' for Active; 'I' for Inactive)
ROOT
ATOM      1  C2' OXE d   1      -2.893  -1.627   2.336  0.00  0.00     0.078 C 
ATOM      2  C1' OXE d   1      -3.630  -0.753   4.900  0.00  0.00     0.078 C 
ATOM      3  C1  OXE d   1      -2.649   0.090   4.124  0.00  0.00    -0.078 A 
ATOM      4  C2  OXE d   1      -2.258  -0.369   2.890  0.00  0.00    -0.078 A 
ATOM      5  C3  OXE d   1      -1.397   0.398   2.110  0.00  0.00     0.003 A 
ATOM      6  C4  OXE d   1      -0.807   1.554   2.634  0.00  0.00    -0.002 A 
ATOM      7  C5  OXE d   1      -1.161   2.019   3.905  0.00  0.00    -0.002 A 
ATOM      8  C6  OXE d   1      -2.111   1.323   4.644  0.00  0.00     0.003 A 
ENDROOT
TORSDOF 0
ENDMDL
