MODEL 1
REMARK minimizedAffinity 9.05791473
REMARK minimizedRMSD -1
REMARK  0 active torsions:
REMARK  status: ('A' for Active; 'I' for Inactive)
ROOT
ATOM      1  C2' OXE d   1      -2.554  -1.054  -0.176  0.00  0.00     0.078 C 
ATOM      2  C1' OXE d   1      -0.693   0.952  -0.804  0.00  0.00     0.078 C 
ATOM      3  C1  OXE d   1      -1.225   0.903   0.606  0.00  0.00    -0.078 A 
ATOM      4  C2  OXE d   1      -2.170  -0.052   0.893  0.00  0.00    -0.078 A 
ATOM      5  C3  OXE d   1      -2.654  -0.176   2.192  0.00  0.00     0.003 A 
ATOM      6  C4  OXE d   1      -2.302   0.761   3.171  0.00  0.00    -0.002 A 
ATOM      7  C5  OXE d   1      -1.371   1.766   2.890  0.00  0.00    -0.002 A 
ATOM      8  C6  OXE d   1      -0.792   1.825   1.627  0.00  0.00     0.003 A 
ENDROOT
TORSDOF 0
ENDMDL
