MODEL 1
REMARK minimizedAffinity 5.97153854
REMARK minimizedRMSD -1
REMARK  0 active torsions:
REMARK  status: ('A' for Active; 'I' for Inactive)
ROOT
ATOM      1  C2' OXE d   1       5.143   4.394  -0.457  0.00  0.00     0.078 C 
ATOM      2  C1' OXE d   1       2.878   5.885   0.270  0.00  0.00     0.078 C 
ATOM      3  C1  OXE d   1       3.872   5.544   1.351  0.00  0.00    -0.078 A 
ATOM      4  C2  OXE d   1       4.954   4.774   0.996  0.00  0.00    -0.078 A 
ATOM      5  C3  OXE d   1       5.929   4.477   1.944  0.00  0.00     0.003 A 
ATOM      6  C4  OXE d   1       5.741   4.824   3.287  0.00  0.00    -0.002 A 
ATOM      7  C5  OXE d   1       4.627   5.573   3.678  0.00  0.00    -0.002 A 
ATOM      8  C6  OXE d   1       3.706   5.977   2.717  0.00  0.00     0.003 A 
ENDROOT
TORSDOF 0
ENDMDL
