MODEL 1
REMARK minimizedAffinity 1.59009492
REMARK minimizedRMSD -1
REMARK  0 active torsions:
REMARK  status: ('A' for Active; 'I' for Inactive)
ROOT
ATOM      1  C2' OXE d   1       2.729   5.996   0.648  0.00  0.00     0.078 C 
ATOM      2  C1' OXE d   1       4.900   4.527  -0.357  0.00  0.00     0.078 C 
ATOM      3  C1  OXE d   1       4.923   4.907   1.103  0.00  0.00    -0.078 A 
ATOM      4  C2  OXE d   1       3.879   5.666   1.575  0.00  0.00    -0.078 A 
ATOM      5  C3  OXE d   1       3.824   5.997   2.926  0.00  0.00     0.003 A 
ATOM      6  C4  OXE d   1       4.896   5.696   3.774  0.00  0.00    -0.002 A 
ATOM      7  C5  OXE d   1       5.988   4.958   3.304  0.00  0.00    -0.002 A 
ATOM      8  C6  OXE d   1       5.997   4.520   1.984  0.00  0.00     0.003 A 
ENDROOT
TORSDOF 0
ENDMDL
