MODEL 1
REMARK minimizedAffinity 6.54566002
REMARK minimizedRMSD -1
REMARK  0 active torsions:
REMARK  status: ('A' for Active; 'I' for Inactive)
ROOT
ATOM      1  C2' OXE d   1       1.844   3.647  -3.154  0.00  0.00     0.078 C 
ATOM      2  C1' OXE d   1      -0.747   2.947  -2.329  0.00  0.00     0.078 C 
ATOM      3  C1  OXE d   1       0.305   1.866  -2.337  0.00  0.00    -0.078 A 
ATOM      4  C2  OXE d   1       1.558   2.207  -2.786  0.00  0.00    -0.078 A 
ATOM      5  C3  OXE d   1       2.580   1.261  -2.763  0.00  0.00     0.003 A 
ATOM      6  C4  OXE d   1       2.305  -0.071  -2.431  0.00  0.00    -0.002 A 
ATOM      7  C5  OXE d   1       1.026  -0.448  -2.008  0.00  0.00    -0.002 A 
ATOM      8  C6  OXE d   1       0.027   0.515  -1.915  0.00  0.00     0.003 A 
ENDROOT
TORSDOF 0
ENDMDL
