MODEL 1
REMARK minimizedAffinity 6.12084627
REMARK minimizedRMSD -1
REMARK  0 active torsions:
REMARK  status: ('A' for Active; 'I' for Inactive)
ROOT
ATOM      1  C2' OXE d   1      -6.000  -1.076   5.155  0.00  0.00     0.078 C 
ATOM      2  C1' OXE d   1      -6.000  -1.863   2.460  0.00  0.00     0.078 C 
ATOM      3  C1  OXE d   1      -4.788  -1.131   2.979  0.00  0.00    -0.078 A 
ATOM      4  C2  OXE d   1      -4.816  -0.708   4.286  0.00  0.00    -0.078 A 
ATOM      5  C3  OXE d   1      -3.701  -0.077   4.831  0.00  0.00     0.003 A 
ATOM      6  C4  OXE d   1      -2.615   0.268   4.018  0.00  0.00    -0.002 A 
ATOM      7  C5  OXE d   1      -2.583  -0.117   2.674  0.00  0.00    -0.002 A 
ATOM      8  C6  OXE d   1      -3.640  -0.853   2.151  0.00  0.00     0.003 A 
ENDROOT
TORSDOF 0
ENDMDL
