MODEL 1
REMARK minimizedAffinity 3.98625469
REMARK minimizedRMSD -1
REMARK  0 active torsions:
REMARK  status: ('A' for Active; 'I' for Inactive)
ROOT
ATOM      1  C2' OXE d   1       3.851   2.679   0.826  0.00  0.00     0.078 C 
ATOM      2  C1' OXE d   1       4.549   4.869  -0.786  0.00  0.00     0.078 C 
ATOM      3  C1  OXE d   1       4.959   4.904   0.665  0.00  0.00    -0.078 A 
ATOM      4  C2  OXE d   1       4.573   3.850   1.457  0.00  0.00    -0.078 A 
ATOM      5  C3  OXE d   1       4.972   3.806   2.790  0.00  0.00     0.003 A 
ATOM      6  C4  OXE d   1       5.631   4.898   3.369  0.00  0.00    -0.002 A 
ATOM      7  C5  OXE d   1       5.999   6.000   2.589  0.00  0.00    -0.002 A 
ATOM      8  C6  OXE d   1       5.709   5.999   1.229  0.00  0.00     0.003 A 
ENDROOT
TORSDOF 0
ENDMDL
