MODEL 1
REMARK minimizedAffinity 7.1052556
REMARK minimizedRMSD -1
REMARK  0 active torsions:
REMARK  status: ('A' for Active; 'I' for Inactive)
ROOT
ATOM      1  C2' OXE d   1       1.293  -2.556  -1.460  0.00  0.00     0.078 C 
ATOM      2  C1' OXE d   1       3.633  -1.333  -0.506  0.00  0.00     0.078 C 
ATOM      3  C1  OXE d   1       2.715  -0.512  -1.376  0.00  0.00    -0.078 A 
ATOM      4  C2  OXE d   1       1.596  -1.133  -1.877  0.00  0.00    -0.078 A 
ATOM      5  C3  OXE d   1       0.687  -0.405  -2.640  0.00  0.00     0.003 A 
ATOM      6  C4  OXE d   1       0.979   0.908  -3.030  0.00  0.00    -0.002 A 
ATOM      7  C5  OXE d   1       2.134   1.546  -2.564  0.00  0.00    -0.002 A 
ATOM      8  C6  OXE d   1       2.988   0.866  -1.703  0.00  0.00     0.003 A 
ENDROOT
TORSDOF 0
ENDMDL
