MODEL 1
REMARK minimizedAffinity 11.9763193
REMARK minimizedRMSD -1
REMARK  0 active torsions:
REMARK  status: ('A' for Active; 'I' for Inactive)
ROOT
ATOM      1  C2' OXE d   1      -1.504   4.449   4.288  0.00  0.00     0.078 C 
ATOM      2  C1' OXE d   1      -3.715   5.999   5.056  0.00  0.00     0.078 C 
ATOM      3  C1  OXE d   1      -3.728   5.390   3.676  0.00  0.00    -0.078 A 
ATOM      4  C2  OXE d   1      -2.622   4.672   3.291  0.00  0.00    -0.078 A 
ATOM      5  C3  OXE d   1      -2.605   4.043   2.050  0.00  0.00     0.003 A 
ATOM      6  C4  OXE d   1      -3.638   4.262   1.130  0.00  0.00    -0.002 A 
ATOM      7  C5  OXE d   1      -4.757   5.023   1.487  0.00  0.00    -0.002 A 
ATOM      8  C6  OXE d   1      -4.837   5.557   2.768  0.00  0.00     0.003 A 
ENDROOT
TORSDOF 0
ENDMDL
