MODEL 1
REMARK minimizedAffinity 2.13392591
REMARK minimizedRMSD -1
REMARK  0 active torsions:
REMARK  status: ('A' for Active; 'I' for Inactive)
ROOT
ATOM      1  C2' OXE d   1      -3.059   1.949   1.354  0.00  0.00     0.078 C 
ATOM      2  C1' OXE d   1      -1.692   1.121   3.662  0.00  0.00     0.078 C 
ATOM      3  C1  OXE d   1      -3.142   0.732   3.526  0.00  0.00    -0.078 A 
ATOM      4  C2  OXE d   1      -3.816   1.181   2.416  0.00  0.00    -0.078 A 
ATOM      5  C3  OXE d   1      -5.141   0.805   2.214  0.00  0.00     0.003 A 
ATOM      6  C4  OXE d   1      -5.837   0.103   3.206  0.00  0.00    -0.002 A 
ATOM      7  C5  OXE d   1      -5.181  -0.330   4.363  0.00  0.00    -0.002 A 
ATOM      8  C6  OXE d   1      -3.825  -0.061   4.518  0.00  0.00     0.003 A 
ENDROOT
TORSDOF 0
ENDMDL
