MODEL 1
REMARK minimizedAffinity 7.83194113
REMARK minimizedRMSD -1
REMARK  0 active torsions:
REMARK  status: ('A' for Active; 'I' for Inactive)
ROOT
ATOM      1  C2' OXE d   1      -2.206   2.101   2.158  0.00  0.00     0.078 C 
ATOM      2  C1' OXE d   1      -1.581   4.284   3.808  0.00  0.00     0.078 C 
ATOM      3  C1  OXE d   1      -2.793   4.400   2.917  0.00  0.00    -0.078 A 
ATOM      4  C2  OXE d   1      -3.064   3.345   2.079  0.00  0.00    -0.078 A 
ATOM      5  C3  OXE d   1      -4.201   3.377   1.276  0.00  0.00     0.003 A 
ATOM      6  C4  OXE d   1      -4.984   4.536   1.202  0.00  0.00    -0.002 A 
ATOM      7  C5  OXE d   1      -4.702   5.636   2.018  0.00  0.00    -0.002 A 
ATOM      8  C6  OXE d   1      -3.638   5.569   2.910  0.00  0.00     0.003 A 
ENDROOT
TORSDOF 0
ENDMDL
