MODEL 1
REMARK minimizedAffinity 8.80096054
REMARK minimizedRMSD -1
REMARK  0 active torsions:
REMARK  status: ('A' for Active; 'I' for Inactive)
ROOT
ATOM      1  C2' OXE d   1      -2.910  -1.261  -0.592  0.00  0.00     0.078 C 
ATOM      2  C1' OXE d   1      -0.607   0.289  -1.005  0.00  0.00     0.078 C 
ATOM      3  C1  OXE d   1      -1.217   0.290   0.374  0.00  0.00    -0.078 A 
ATOM      4  C2  OXE d   1      -2.371  -0.434   0.555  0.00  0.00    -0.078 A 
ATOM      5  C3  OXE d   1      -2.945  -0.511   1.821  0.00  0.00     0.003 A 
ATOM      6  C4  OXE d   1      -2.445   0.265   2.874  0.00  0.00    -0.002 A 
ATOM      7  C5  OXE d   1      -1.294   1.041   2.700  0.00  0.00    -0.002 A 
ATOM      8  C6  OXE d   1      -0.645   1.031   1.471  0.00  0.00     0.003 A 
ENDROOT
TORSDOF 0
ENDMDL
