MODEL 1
REMARK minimizedAffinity 11.0590086
REMARK minimizedRMSD -1
REMARK  0 active torsions:
REMARK  status: ('A' for Active; 'I' for Inactive)
ROOT
ATOM      1  C2' OXE d   1       2.380  -2.563  -1.035  0.00  0.00     0.078 C 
ATOM      2  C1' OXE d   1       1.103  -2.903  -3.512  0.00  0.00     0.078 C 
ATOM      3  C1  OXE d   1       1.275  -1.496  -2.996  0.00  0.00    -0.078 A 
ATOM      4  C2  OXE d   1       1.859  -1.342  -1.762  0.00  0.00    -0.078 A 
ATOM      5  C3  OXE d   1       2.091  -0.063  -1.264  0.00  0.00     0.003 A 
ATOM      6  C4  OXE d   1       1.597   1.061  -1.938  0.00  0.00    -0.002 A 
ATOM      7  C5  OXE d   1       0.964   0.923  -3.177  0.00  0.00    -0.002 A 
ATOM      8  C6  OXE d   1       0.833  -0.342  -3.739  0.00  0.00     0.003 A 
ENDROOT
TORSDOF 0
ENDMDL
