MODEL 1
REMARK minimizedAffinity 11.8386059
REMARK minimizedRMSD -1
REMARK  0 active torsions:
REMARK  status: ('A' for Active; 'I' for Inactive)
ROOT
ATOM      1  C2' OXE d   1      -2.735  -1.709  -0.191  0.00  0.00     0.078 C 
ATOM      2  C1' OXE d   1      -0.624   0.071  -0.695  0.00  0.00     0.078 C 
ATOM      3  C1  OXE d   1      -1.276   0.120   0.664  0.00  0.00    -0.078 A 
ATOM      4  C2  OXE d   1      -2.338  -0.722   0.886  0.00  0.00    -0.078 A 
ATOM      5  C3  OXE d   1      -2.941  -0.756   2.141  0.00  0.00     0.003 A 
ATOM      6  C4  OXE d   1      -2.575   0.166   3.128  0.00  0.00    -0.002 A 
ATOM      7  C5  OXE d   1      -1.521   1.060   2.909  0.00  0.00    -0.002 A 
ATOM      8  C6  OXE d   1      -0.834   1.021   1.700  0.00  0.00     0.003 A 
ENDROOT
TORSDOF 0
ENDMDL
