MODEL 1
REMARK minimizedAffinity 7.9307847
REMARK minimizedRMSD -1
REMARK  0 active torsions:
REMARK  status: ('A' for Active; 'I' for Inactive)
ROOT
ATOM      1  C2' OXE d   1       1.887   0.329  -2.164  0.00  0.00     0.078 C 
ATOM      2  C1' OXE d   1       2.978  -1.749  -0.625  0.00  0.00     0.078 C 
ATOM      3  C1  OXE d   1       1.976  -2.115  -1.691  0.00  0.00    -0.078 A 
ATOM      4  C2  OXE d   1       1.412  -1.087  -2.408  0.00  0.00    -0.078 A 
ATOM      5  C3  OXE d   1       0.523  -1.373  -3.440  0.00  0.00     0.003 A 
ATOM      6  C4  OXE d   1       0.081  -2.685  -3.652  0.00  0.00    -0.002 A 
ATOM      7  C5  OXE d   1       0.613  -3.742  -2.907  0.00  0.00    -0.002 A 
ATOM      8  C6  OXE d   1       1.590  -3.480  -1.953  0.00  0.00     0.003 A 
ENDROOT
TORSDOF 0
ENDMDL
