MODEL 1
REMARK minimizedAffinity 11.4262266
REMARK minimizedRMSD -1
REMARK  0 active torsions:
REMARK  status: ('A' for Active; 'I' for Inactive)
ROOT
ATOM      1  C2' OXE d   1      -2.216   3.664  -0.566  0.00  0.00     0.078 C 
ATOM      2  C1' OXE d   1      -1.240   1.092  -1.122  0.00  0.00     0.078 C 
ATOM      3  C1  OXE d   1      -1.728   1.372   0.277  0.00  0.00    -0.078 A 
ATOM      4  C2  OXE d   1      -2.161   2.647   0.553  0.00  0.00    -0.078 A 
ATOM      5  C3  OXE d   1      -2.673   2.944   1.813  0.00  0.00     0.003 A 
ATOM      6  C4  OXE d   1      -2.609   2.000   2.844  0.00  0.00    -0.002 A 
ATOM      7  C5  OXE d   1      -2.136   0.707   2.596  0.00  0.00    -0.002 A 
ATOM      8  C6  OXE d   1      -1.732   0.365   1.310  0.00  0.00     0.003 A 
ENDROOT
TORSDOF 0
ENDMDL
