MODEL 1
REMARK minimizedAffinity 1.8708421
REMARK minimizedRMSD -1
REMARK  1 active torsions:
REMARK  status: ('A' for Active; 'I' for Inactive)
REMARK    1  A    between atoms: C1_2  and  C2_3 
ROOT
ATOM      1  C2  UNL d   1       3.637   0.324   4.145  0.00  0.00    -0.073 A 
ATOM      2  C3  UNL d   1       2.322   0.467   4.602  0.00  0.00    -0.002 A 
ATOM      3  C4  UNL d   1       1.273   0.617   3.694  0.00  0.00     0.004 A 
ATOM      4  C5  UNL d   1       1.526   0.620   2.323  0.00  0.00    -0.004 A 
ATOM      5  C6  UNL d   1       2.832   0.467   1.846  0.00  0.00    -0.075 A 
ATOM      6  C7  UNL d   1       3.122   0.471   0.374  0.00  0.00     0.076 C 
ATOM      7  C8  UNL d   1       3.881   0.319   2.764  0.00  0.00     0.001 A 
ENDROOT
BRANCH   1   8
ATOM      8  C1  UNL d   1       4.772   0.154   5.122  0.00  0.00     0.053 C 
ATOM      9  C   UNL d   1       5.277   1.489   5.646  0.00  0.00     0.018 C 
ENDBRANCH   1   8
TORSDOF 1
ENDMDL
