MODEL 1
REMARK minimizedAffinity -0.307698101
REMARK minimizedRMSD -1
REMARK  1 active torsions:
REMARK  status: ('A' for Active; 'I' for Inactive)
REMARK    1  A    between atoms: C1_2  and  C2_3 
ROOT
ATOM      1  C2  UNL d   1       0.467   1.907   0.415  0.00  0.00    -0.073 A 
ATOM      2  C3  UNL d   1       0.880   0.701  -0.162  0.00  0.00    -0.002 A 
ATOM      3  C4  UNL d   1       0.422  -0.516   0.344  0.00  0.00     0.004 A 
ATOM      4  C5  UNL d   1      -0.458  -0.540   1.426  0.00  0.00    -0.004 A 
ATOM      5  C6  UNL d   1      -0.892   0.655   2.009  0.00  0.00    -0.075 A 
ATOM      6  C7  UNL d   1      -1.836   0.646   3.175  0.00  0.00     0.076 C 
ATOM      7  C8  UNL d   1      -0.425   1.873   1.497  0.00  0.00     0.001 A 
ENDROOT
BRANCH   1   8
ATOM      8  C1  UNL d   1       0.954   3.224  -0.132  0.00  0.00     0.053 C 
ATOM      9  C   UNL d   1       1.669   3.059  -1.463  0.00  0.00     0.018 C 
ENDBRANCH   1   8
TORSDOF 1
ENDMDL
