MODEL 1
REMARK minimizedAffinity -1.20932543
REMARK minimizedRMSD -1
REMARK  1 active torsions:
REMARK  status: ('A' for Active; 'I' for Inactive)
REMARK    1  A    between atoms: C1_2  and  C2_3 
ROOT
ATOM      1  C2  UNL d   1       0.394  -0.448   0.490  0.00  0.00    -0.073 A 
ATOM      2  C3  UNL d   1       1.511  -0.892  -0.227  0.00  0.00    -0.002 A 
ATOM      3  C4  UNL d   1       2.508   0.008  -0.607  0.00  0.00     0.004 A 
ATOM      4  C5  UNL d   1       2.402   1.357  -0.268  0.00  0.00    -0.004 A 
ATOM      5  C6  UNL d   1       1.299   1.818   0.459  0.00  0.00    -0.075 A 
ATOM      6  C7  UNL d   1       1.169   3.266   0.829  0.00  0.00     0.076 C 
ATOM      7  C8  UNL d   1       0.301   0.908   0.834  0.00  0.00     0.001 A 
ENDROOT
BRANCH   1   8
ATOM      8  C1  UNL d   1      -0.681  -1.417   0.907  0.00  0.00     0.053 C 
ATOM      9  C   UNL d   1      -1.269  -1.067   2.265  0.00  0.00     0.018 C 
ENDBRANCH   1   8
TORSDOF 1
ENDMDL
