MODEL 1
REMARK minimizedAffinity 7.26948404
REMARK minimizedRMSD -1
REMARK  1 active torsions:
REMARK  status: ('A' for Active; 'I' for Inactive)
REMARK    1  A    between atoms: C1_2  and  C2_3 
ROOT
ATOM      1  C2  UNL d   1       0.933  -0.109  -1.444  0.00  0.00    -0.073 A 
ATOM      2  C3  UNL d   1       0.446  -0.720  -0.283  0.00  0.00    -0.002 A 
ATOM      3  C4  UNL d   1       0.423  -0.021   0.925  0.00  0.00     0.004 A 
ATOM      4  C5  UNL d   1       0.878   1.296   0.982  0.00  0.00    -0.004 A 
ATOM      5  C6  UNL d   1       1.357   1.928  -0.170  0.00  0.00    -0.075 A 
ATOM      6  C7  UNL d   1       1.852   3.344  -0.125  0.00  0.00     0.076 C 
ATOM      7  C8  UNL d   1       1.379   1.218  -1.378  0.00  0.00     0.001 A 
ENDROOT
BRANCH   1   8
ATOM      8  C1  UNL d   1       0.954  -0.858  -2.751  0.00  0.00     0.053 C 
ATOM      9  C   UNL d   1       2.315  -1.475  -3.033  0.00  0.00     0.018 C 
ENDBRANCH   1   8
TORSDOF 1
ENDMDL
