MODEL 1
REMARK minimizedAffinity -0.661014616
REMARK minimizedRMSD -1
REMARK  1 active torsions:
REMARK  status: ('A' for Active; 'I' for Inactive)
REMARK    1  A    between atoms: C1_2  and  C2_3 
ROOT
ATOM      1  C2  UNL d   1      -0.539  -0.147   0.865  0.00  0.00    -0.073 A 
ATOM      2  C3  UNL d   1       0.145  -1.003  -0.006  0.00  0.00    -0.002 A 
ATOM      3  C4  UNL d   1       1.283  -0.559  -0.681  0.00  0.00     0.004 A 
ATOM      4  C5  UNL d   1       1.753   0.739  -0.486  0.00  0.00    -0.004 A 
ATOM      5  C6  UNL d   1       1.091   1.606   0.389  0.00  0.00    -0.075 A 
ATOM      6  C7  UNL d   1       1.582   3.006   0.608  0.00  0.00     0.076 C 
ATOM      7  C8  UNL d   1      -0.053   1.154   1.061  0.00  0.00     0.001 A 
ENDROOT
BRANCH   1   8
ATOM      8  C1  UNL d   1      -1.765  -0.623   1.600  0.00  0.00     0.053 C 
ATOM      9  C   UNL d   1      -2.665   0.530   2.014  0.00  0.00     0.018 C 
ENDBRANCH   1   8
TORSDOF 1
ENDMDL
