MODEL 1
REMARK minimizedAffinity 4.27472591
REMARK minimizedRMSD -1
REMARK  1 active torsions:
REMARK  status: ('A' for Active; 'I' for Inactive)
REMARK    1  A    between atoms: C1_2  and  C2_3 
ROOT
ATOM      1  C2  UNL d   1      -1.639   5.981  -3.228  0.00  0.00    -0.073 A 
ATOM      2  C3  UNL d   1      -2.711   5.994  -4.128  0.00  0.00    -0.002 A 
ATOM      3  C4  UNL d   1      -4.025   6.000  -3.658  0.00  0.00     0.004 A 
ATOM      4  C5  UNL d   1      -4.281   6.000  -2.287  0.00  0.00    -0.004 A 
ATOM      5  C6  UNL d   1      -3.223   5.999  -1.372  0.00  0.00    -0.075 A 
ATOM      6  C7  UNL d   1      -3.481   5.997   0.106  0.00  0.00     0.076 C 
ATOM      7  C8  UNL d   1      -1.906   5.991  -1.852  0.00  0.00     0.001 A 
ENDROOT
BRANCH   1   8
ATOM      8  C1  UNL d   1      -0.219   5.981  -3.731  0.00  0.00     0.053 C 
ATOM      9  C   UNL d   1      -0.151   5.992  -5.250  0.00  0.00     0.018 C 
ENDBRANCH   1   8
TORSDOF 1
ENDMDL
