MODEL 1
REMARK minimizedAffinity 5.65542793
REMARK minimizedRMSD -1
REMARK  1 active torsions:
REMARK  status: ('A' for Active; 'I' for Inactive)
REMARK    1  A    between atoms: C1_2  and  C2_3 
ROOT
ATOM      1  C2  UNL d   1       0.337   1.347   2.019  0.00  0.00    -0.073 A 
ATOM      2  C3  UNL d   1       0.805   2.651   2.220  0.00  0.00    -0.002 A 
ATOM      3  C4  UNL d   1       1.334   3.383   1.156  0.00  0.00     0.004 A 
ATOM      4  C5  UNL d   1       1.395   2.822  -0.119  0.00  0.00    -0.004 A 
ATOM      5  C6  UNL d   1       0.923   1.525  -0.343  0.00  0.00    -0.075 A 
ATOM      6  C7  UNL d   1       0.983   0.907  -1.709  0.00  0.00     0.076 C 
ATOM      7  C8  UNL d   1       0.395   0.796   0.731  0.00  0.00     0.001 A 
ENDROOT
BRANCH   1   8
ATOM      8  C1  UNL d   1      -0.241   0.556   3.163  0.00  0.00     0.053 C 
ATOM      9  C   UNL d   1       0.176   1.118   4.513  0.00  0.00     0.018 C 
ENDBRANCH   1   8
TORSDOF 1
ENDMDL
