MODEL 1
REMARK minimizedAffinity 1.37622201
REMARK minimizedRMSD -1
REMARK  1 active torsions:
REMARK  status: ('A' for Active; 'I' for Inactive)
REMARK    1  A    between atoms: C1_2  and  C2_3 
ROOT
ATOM      1  C2  UNL d   1       0.449   1.267   0.999  0.00  0.00    -0.073 A 
ATOM      2  C3  UNL d   1       0.509   0.038   0.332  0.00  0.00    -0.002 A 
ATOM      3  C4  UNL d   1      -0.455  -0.942   0.572  0.00  0.00     0.004 A 
ATOM      4  C5  UNL d   1      -1.492  -0.701   1.474  0.00  0.00    -0.004 A 
ATOM      5  C6  UNL d   1      -1.575   0.525   2.141  0.00  0.00    -0.075 A 
ATOM      6  C7  UNL d   1      -2.683   0.799   3.116  0.00  0.00     0.076 C 
ATOM      7  C8  UNL d   1      -0.602   1.503   1.897  0.00  0.00     0.001 A 
ENDROOT
BRANCH   1   8
ATOM      8  C1  UNL d   1       1.484   2.331   0.739  0.00  0.00     0.053 C 
ATOM      9  C   UNL d   1       0.941   3.455  -0.129  0.00  0.00     0.018 C 
ENDBRANCH   1   8
TORSDOF 1
ENDMDL
