MODEL 1
REMARK minimizedAffinity 5.78077793
REMARK minimizedRMSD -1
REMARK  1 active torsions:
REMARK  status: ('A' for Active; 'I' for Inactive)
REMARK    1  A    between atoms: C1_2  and  C2_3 
ROOT
ATOM      1  C2  UNL d   1      -3.943  -3.158  -0.829  0.00  0.00    -0.073 A 
ATOM      2  C3  UNL d   1      -4.329  -2.297  -1.863  0.00  0.00    -0.002 A 
ATOM      3  C4  UNL d   1      -4.280  -0.914  -1.683  0.00  0.00     0.004 A 
ATOM      4  C5  UNL d   1      -3.838  -0.378  -0.474  0.00  0.00    -0.004 A 
ATOM      5  C6  UNL d   1      -3.437  -1.222   0.567  0.00  0.00    -0.075 A 
ATOM      6  C7  UNL d   1      -2.961  -0.662   1.875  0.00  0.00     0.076 C 
ATOM      7  C8  UNL d   1      -3.491  -2.610   0.380  0.00  0.00     0.001 A 
ENDROOT
BRANCH   1   8
ATOM      8  C1  UNL d   1      -3.988  -4.652  -1.021  0.00  0.00     0.053 C 
ATOM      9  C   UNL d   1      -2.746  -5.335  -0.471  0.00  0.00     0.018 C 
ENDBRANCH   1   8
TORSDOF 1
ENDMDL
