MODEL 1
REMARK minimizedAffinity 4.78966236
REMARK minimizedRMSD -1
REMARK  1 active torsions:
REMARK  status: ('A' for Active; 'I' for Inactive)
REMARK    1  A    between atoms: C1_2  and  C2_3 
ROOT
ATOM      1  C2  UNL d   1      -0.464  -0.754  -3.054  0.00  0.00    -0.073 A 
ATOM      2  C3  UNL d   1       0.152   0.368  -3.620  0.00  0.00    -0.002 A 
ATOM      3  C4  UNL d   1      -0.089   0.708  -4.952  0.00  0.00     0.004 A 
ATOM      4  C5  UNL d   1      -0.952  -0.066  -5.728  0.00  0.00    -0.004 A 
ATOM      5  C6  UNL d   1      -1.585  -1.185  -5.177  0.00  0.00    -0.075 A 
ATOM      6  C7  UNL d   1      -2.514  -2.029  -6.000  0.00  0.00     0.076 C 
ATOM      7  C8  UNL d   1      -1.336  -1.520  -3.840  0.00  0.00     0.001 A 
ENDROOT
BRANCH   1   8
ATOM      8  C1  UNL d   1      -0.212  -1.120  -1.614  0.00  0.00     0.053 C 
ATOM      9  C   UNL d   1      -1.142  -0.381  -0.666  0.00  0.00     0.018 C 
ENDBRANCH   1   8
TORSDOF 1
ENDMDL
