MODEL 1
REMARK minimizedAffinity -3.94176006
REMARK minimizedRMSD -1
REMARK  1 active torsions:
REMARK  status: ('A' for Active; 'I' for Inactive)
REMARK    1  A    between atoms: C1_2  and  C2_3 
ROOT
ATOM      1  C2  UNL d   1       0.062  -0.277   1.982  0.00  0.00    -0.073 A 
ATOM      2  C3  UNL d   1      -1.230   0.201   2.231  0.00  0.00    -0.002 A 
ATOM      3  C4  UNL d   1      -2.072   0.541   1.171  0.00  0.00     0.004 A 
ATOM      4  C5  UNL d   1      -1.635   0.400  -0.146  0.00  0.00    -0.004 A 
ATOM      5  C6  UNL d   1      -0.352  -0.087  -0.415  0.00  0.00    -0.075 A 
ATOM      6  C7  UNL d   1       0.134  -0.242  -1.826  0.00  0.00     0.076 C 
ATOM      7  C8  UNL d   1       0.489  -0.423   0.654  0.00  0.00     0.001 A 
ENDROOT
BRANCH   1   8
ATOM      8  C1  UNL d   1       0.972  -0.651   3.123  0.00  0.00     0.053 C 
ATOM      9  C   UNL d   1       2.406  -0.859   2.662  0.00  0.00     0.018 C 
ENDBRANCH   1   8
TORSDOF 1
ENDMDL
