MODEL 1
REMARK minimizedAffinity -3.48117018
REMARK minimizedRMSD -1
REMARK  1 active torsions:
REMARK  status: ('A' for Active; 'I' for Inactive)
REMARK    1  A    between atoms: C1_2  and  C2_3 
ROOT
ATOM      1  C2  UNL d   1      -0.733   0.317   1.861  0.00  0.00    -0.073 A 
ATOM      2  C3  UNL d   1      -2.028   0.410   1.339  0.00  0.00    -0.002 A 
ATOM      3  C4  UNL d   1      -2.290   0.016   0.026  0.00  0.00     0.004 A 
ATOM      4  C5  UNL d   1      -1.262  -0.481  -0.775  0.00  0.00    -0.004 A 
ATOM      5  C6  UNL d   1       0.036  -0.593  -0.268  0.00  0.00    -0.075 A 
ATOM      6  C7  UNL d   1       1.153  -1.124  -1.118  0.00  0.00     0.076 C 
ATOM      7  C8  UNL d   1       0.292  -0.193   1.050  0.00  0.00     0.001 A 
ENDROOT
BRANCH   1   8
ATOM      8  C1  UNL d   1      -0.447   0.735   3.280  0.00  0.00     0.053 C 
ATOM      9  C   UNL d   1       0.715  -0.041   3.880  0.00  0.00     0.018 C 
ENDBRANCH   1   8
TORSDOF 1
ENDMDL
