MODEL 1
REMARK minimizedAffinity -4.20878935
REMARK minimizedRMSD -1
REMARK  1 active torsions:
REMARK  status: ('A' for Active; 'I' for Inactive)
REMARK    1  A    between atoms: C1_2  and  C2_3 
ROOT
ATOM      1  C2  UNL d   1      -0.342   0.260   2.236  0.00  0.00    -0.073 A 
ATOM      2  C3  UNL d   1      -1.705   0.508   2.043  0.00  0.00    -0.002 A 
ATOM      3  C4  UNL d   1      -2.268   0.402   0.771  0.00  0.00     0.004 A 
ATOM      4  C5  UNL d   1      -1.476   0.041  -0.319  0.00  0.00    -0.004 A 
ATOM      5  C6  UNL d   1      -0.114  -0.223  -0.145  0.00  0.00    -0.075 A 
ATOM      6  C7  UNL d   1       0.752  -0.610  -1.307  0.00  0.00     0.076 C 
ATOM      7  C8  UNL d   1       0.444  -0.111   1.136  0.00  0.00     0.001 A 
ENDROOT
BRANCH   1   8
ATOM      8  C1  UNL d   1       0.269   0.367   3.609  0.00  0.00     0.053 C 
ATOM      9  C   UNL d   1       1.564  -0.422   3.720  0.00  0.00     0.018 C 
ENDBRANCH   1   8
TORSDOF 1
ENDMDL
