MODEL 1
REMARK minimizedAffinity -3.02241778
REMARK minimizedRMSD -1
REMARK  0 active torsions:
REMARK  status: ('A' for Active; 'I' for Inactive)
ROOT
ATOM      1  C2' OXE d   1      -0.000  -1.180   0.255  0.00  0.00     0.078 C 
ATOM      2  C1' OXE d   1       2.364   0.264   0.705  0.00  0.00     0.078 C 
ATOM      3  C1  OXE d   1       1.063   1.027   0.707  0.00  0.00    -0.078 A 
ATOM      4  C2  OXE d   1      -0.084   0.320   0.440  0.00  0.00    -0.078 A 
ATOM      5  C3  OXE d   1      -1.317   0.964   0.484  0.00  0.00     0.003 A 
ATOM      6  C4  OXE d   1      -1.386   2.353   0.646  0.00  0.00    -0.002 A 
ATOM      7  C5  OXE d   1      -0.225   3.099   0.880  0.00  0.00    -0.002 A 
ATOM      8  C6  OXE d   1       1.000   2.446   0.956  0.00  0.00     0.003 A 
ENDROOT
TORSDOF 0
ENDMDL
