MODEL 1
REMARK minimizedAffinity -3.43228412
REMARK minimizedRMSD -1
REMARK  0 active torsions:
REMARK  status: ('A' for Active; 'I' for Inactive)
ROOT
ATOM      1  C2' OXE d   1      -0.940   2.537   1.762  0.00  0.00     0.078 C 
ATOM      2  C1' OXE d   1       0.538   2.865  -0.602  0.00  0.00     0.078 C 
ATOM      3  C1  OXE d   1      -0.020   1.495  -0.305  0.00  0.00    -0.078 A 
ATOM      4  C2  OXE d   1      -0.702   1.333   0.876  0.00  0.00    -0.078 A 
ATOM      5  C3  OXE d   1      -1.285   0.103   1.173  0.00  0.00     0.003 A 
ATOM      6  C4  OXE d   1      -1.051  -1.007   0.353  0.00  0.00    -0.002 A 
ATOM      7  C5  OXE d   1      -0.325  -0.873  -0.835  0.00  0.00    -0.002 A 
ATOM      8  C6  OXE d   1       0.160   0.378  -1.199  0.00  0.00     0.003 A 
ENDROOT
TORSDOF 0
ENDMDL
