MODEL 1
REMARK minimizedAffinity -2.3828907
REMARK minimizedRMSD -1
REMARK  0 active torsions:
REMARK  status: ('A' for Active; 'I' for Inactive)
ROOT
ATOM      1  C2' OXE d   1      -1.585   0.472   1.464  0.00  0.00     0.078 C 
ATOM      2  C1' OXE d   1       0.459  -1.424   1.138  0.00  0.00     0.078 C 
ATOM      3  C1  OXE d   1       0.586  -0.118   0.395  0.00  0.00    -0.078 A 
ATOM      4  C2  OXE d   1      -0.441   0.785   0.524  0.00  0.00    -0.078 A 
ATOM      5  C3  OXE d   1      -0.348   2.028  -0.096  0.00  0.00     0.003 A 
ATOM      6  C4  OXE d   1       0.708   2.306  -0.972  0.00  0.00    -0.002 A 
ATOM      7  C5  OXE d   1       1.745   1.384  -1.148  0.00  0.00    -0.002 A 
ATOM      8  C6  OXE d   1       1.721   0.187  -0.440  0.00  0.00     0.003 A 
ENDROOT
TORSDOF 0
ENDMDL
