MODEL 1
REMARK minimizedAffinity -5.05811119
REMARK minimizedRMSD -1
REMARK  0 active torsions:
REMARK  status: ('A' for Active; 'I' for Inactive)
ROOT
ATOM      1  C2' OXE d   1      -2.300   0.858   0.713  0.00  0.00     0.078 C 
ATOM      2  C1' OXE d   1      -0.475  -0.553  -0.887  0.00  0.00     0.078 C 
ATOM      3  C1  OXE d   1      -0.135   0.869  -0.519  0.00  0.00    -0.078 A 
ATOM      4  C2  OXE d   1      -1.055   1.567   0.225  0.00  0.00    -0.078 A 
ATOM      5  C3  OXE d   1      -0.767   2.865   0.638  0.00  0.00     0.003 A 
ATOM      6  C4  OXE d   1       0.382   3.517   0.174  0.00  0.00    -0.002 A 
ATOM      7  C5  OXE d   1       1.314   2.837  -0.618  0.00  0.00    -0.002 A 
ATOM      8  C6  OXE d   1       1.091   1.502  -0.937  0.00  0.00     0.003 A 
ENDROOT
TORSDOF 0
ENDMDL
