MODEL 1
REMARK minimizedAffinity -5.01595259
REMARK minimizedRMSD -1
REMARK  0 active torsions:
REMARK  status: ('A' for Active; 'I' for Inactive)
ROOT
ATOM      1  C2' OXE d   1       0.410  -1.350   0.294  0.00  0.00     0.078 C 
ATOM      2  C1' OXE d   1       2.484   0.474  -0.208  0.00  0.00     0.078 C 
ATOM      3  C1  OXE d   1       1.098   1.027   0.013  0.00  0.00    -0.078 A 
ATOM      4  C2  OXE d   1       0.081   0.125   0.211  0.00  0.00    -0.078 A 
ATOM      5  C3  OXE d   1      -1.207   0.584   0.474  0.00  0.00     0.003 A 
ATOM      6  C4  OXE d   1      -1.504   1.949   0.385  0.00  0.00    -0.002 A 
ATOM      7  C5  OXE d   1      -0.490   2.883   0.145  0.00  0.00    -0.002 A 
ATOM      8  C6  OXE d   1       0.821   2.442  -0.001  0.00  0.00     0.003 A 
ENDROOT
TORSDOF 0
ENDMDL
