MODEL 1
REMARK minimizedAffinity -4.49188757
REMARK minimizedRMSD -1
REMARK  0 active torsions:
REMARK  status: ('A' for Active; 'I' for Inactive)
ROOT
ATOM      1  C2' OXE d   1      -1.597   0.742   0.029  0.00  0.00     0.078 C 
ATOM      2  C1' OXE d   1       0.310   2.777  -0.292  0.00  0.00     0.078 C 
ATOM      3  C1  OXE d   1       0.807   1.395   0.050  0.00  0.00    -0.078 A 
ATOM      4  C2  OXE d   1      -0.136   0.416   0.252  0.00  0.00    -0.078 A 
ATOM      5  C3  OXE d   1       0.270  -0.889   0.516  0.00  0.00     0.003 A 
ATOM      6  C4  OXE d   1       1.623  -1.181   0.730  0.00  0.00    -0.002 A 
ATOM      7  C5  OXE d   1       2.597  -0.189   0.569  0.00  0.00    -0.002 A 
ATOM      8  C6  OXE d   1       2.210   1.091   0.188  0.00  0.00     0.003 A 
ENDROOT
TORSDOF 0
ENDMDL
