MODEL 1
REMARK minimizedAffinity -4.18127918
REMARK minimizedRMSD -1
REMARK  0 active torsions:
REMARK  status: ('A' for Active; 'I' for Inactive)
ROOT
ATOM      1  C2' OXE d   1       2.010  -1.232   1.104  0.00  0.00     0.078 C 
ATOM      2  C1' OXE d   1      -0.529  -1.615  -0.029  0.00  0.00     0.078 C 
ATOM      3  C1  OXE d   1       0.034  -0.216  -0.021  0.00  0.00    -0.078 A 
ATOM      4  C2  OXE d   1       1.257  -0.030   0.577  0.00  0.00    -0.078 A 
ATOM      5  C3  OXE d   1       1.846   1.231   0.563  0.00  0.00     0.003 A 
ATOM      6  C4  OXE d   1       1.138   2.339   0.083  0.00  0.00    -0.002 A 
ATOM      7  C5  OXE d   1      -0.125   2.178  -0.495  0.00  0.00    -0.002 A 
ATOM      8  C6  OXE d   1      -0.672   0.904  -0.593  0.00  0.00     0.003 A 
ENDROOT
TORSDOF 0
ENDMDL
