MODEL 1
REMARK minimizedAffinity -2.84005427
REMARK minimizedRMSD -1
REMARK  0 active torsions:
REMARK  status: ('A' for Active; 'I' for Inactive)
ROOT
ATOM      1  C2' OXE d   1      -0.056   2.758   0.213  0.00  0.00     0.078 C 
ATOM      2  C1' OXE d   1      -2.122   1.278   1.407  0.00  0.00     0.078 C 
ATOM      3  C1  OXE d   1      -0.958   0.517   0.821  0.00  0.00    -0.078 A 
ATOM      4  C2  OXE d   1       0.025   1.246   0.198  0.00  0.00    -0.078 A 
ATOM      5  C3  OXE d   1       1.147   0.598  -0.311  0.00  0.00     0.003 A 
ATOM      6  C4  OXE d   1       1.209  -0.801  -0.330  0.00  0.00    -0.002 A 
ATOM      7  C5  OXE d   1       0.199  -1.565   0.264  0.00  0.00    -0.002 A 
ATOM      8  C6  OXE d   1      -0.868  -0.921   0.880  0.00  0.00     0.003 A 
ENDROOT
TORSDOF 0
ENDMDL
