MODEL 1
REMARK minimizedAffinity -4.76110029
REMARK minimizedRMSD -1
REMARK  0 active torsions:
REMARK  status: ('A' for Active; 'I' for Inactive)
ROOT
ATOM      1  C2' OXE d   1       1.992   1.728  -0.776  0.00  0.00     0.078 C 
ATOM      2  C1' OXE d   1       0.427   4.027  -0.398  0.00  0.00     0.078 C 
ATOM      3  C1  OXE d   1      -0.139   2.707   0.063  0.00  0.00    -0.078 A 
ATOM      4  C2  OXE d   1       0.614   1.581  -0.169  0.00  0.00    -0.078 A 
ATOM      5  C3  OXE d   1       0.163   0.345   0.286  0.00  0.00     0.003 A 
ATOM      6  C4  OXE d   1      -1.118   0.217   0.838  0.00  0.00    -0.002 A 
ATOM      7  C5  OXE d   1      -1.917   1.345   1.046  0.00  0.00    -0.002 A 
ATOM      8  C6  OXE d   1      -1.427   2.601   0.704  0.00  0.00     0.003 A 
ENDROOT
TORSDOF 0
ENDMDL
