MODEL 1
REMARK minimizedAffinity -2.69328356
REMARK minimizedRMSD -1
REMARK  0 active torsions:
REMARK  status: ('A' for Active; 'I' for Inactive)
ROOT
ATOM      1  C2' OXE d   1       2.301   0.239   0.028  0.00  0.00     0.078 C 
ATOM      2  C1' OXE d   1       0.220  -1.608  -0.344  0.00  0.00     0.078 C 
ATOM      3  C1  OXE d   1      -0.151  -0.198   0.040  0.00  0.00    -0.078 A 
ATOM      4  C2  OXE d   1       0.876   0.687   0.265  0.00  0.00    -0.078 A 
ATOM      5  C3  OXE d   1       0.587   2.015   0.569  0.00  0.00     0.003 A 
ATOM      6  C4  OXE d   1      -0.734   2.419   0.797  0.00  0.00    -0.002 A 
ATOM      7  C5  OXE d   1      -1.792   1.524   0.611  0.00  0.00    -0.002 A 
ATOM      8  C6  OXE d   1      -1.521   0.226   0.192  0.00  0.00     0.003 A 
ENDROOT
TORSDOF 0
ENDMDL
