MODEL 1
REMARK minimizedAffinity -5.77184391
REMARK minimizedRMSD -1
REMARK  0 active torsions:
REMARK  status: ('A' for Active; 'I' for Inactive)
ROOT
ATOM      1  C2' OXE d   1      -2.206   0.548   0.734  0.00  0.00     0.078 C 
ATOM      2  C1' OXE d   1      -0.005  -1.060   0.061  0.00  0.00     0.078 C 
ATOM      3  C1  OXE d   1       0.208   0.432   0.131  0.00  0.00    -0.078 A 
ATOM      4  C2  OXE d   1      -0.885   1.214   0.416  0.00  0.00    -0.078 A 
ATOM      5  C3  OXE d   1      -0.732   2.591   0.547  0.00  0.00     0.003 A 
ATOM      6  C4  OXE d   1       0.491   3.201   0.241  0.00  0.00    -0.002 A 
ATOM      7  C5  OXE d   1       1.608   2.425  -0.090  0.00  0.00    -0.002 A 
ATOM      8  C6  OXE d   1       1.494   1.040  -0.107  0.00  0.00     0.003 A 
ENDROOT
TORSDOF 0
ENDMDL
