MODEL 1
REMARK minimizedAffinity -2.88194919
REMARK minimizedRMSD -1
REMARK  0 active torsions:
REMARK  status: ('A' for Active; 'I' for Inactive)
ROOT
ATOM      1  C2' OXE d   1      -1.250   2.873   2.644  0.00  0.00     0.078 C 
ATOM      2  C1' OXE d   1       0.662   3.589   0.718  0.00  0.00     0.078 C 
ATOM      3  C1  OXE d   1      -0.147   2.339   0.475  0.00  0.00    -0.078 A 
ATOM      4  C2  OXE d   1      -1.047   1.971   1.446  0.00  0.00    -0.078 A 
ATOM      5  C3  OXE d   1      -1.858   0.857   1.247  0.00  0.00     0.003 A 
ATOM      6  C4  OXE d   1      -1.657   0.022   0.141  0.00  0.00    -0.002 A 
ATOM      7  C5  OXE d   1      -0.718   0.358  -0.840  0.00  0.00    -0.002 A 
ATOM      8  C6  OXE d   1       0.014   1.533  -0.709  0.00  0.00     0.003 A 
ENDROOT
TORSDOF 0
ENDMDL
