MODEL 1
REMARK minimizedAffinity -5.06407785
REMARK minimizedRMSD -1
REMARK  0 active torsions:
REMARK  status: ('A' for Active; 'I' for Inactive)
ROOT
ATOM      1  C2' OXE d   1      -0.222  -0.902  -0.366  0.00  0.00     0.078 C 
ATOM      2  C1' OXE d   1       2.415  -0.270   0.358  0.00  0.00     0.078 C 
ATOM      3  C1  OXE d   1       1.390   0.835   0.403  0.00  0.00    -0.078 A 
ATOM      4  C2  OXE d   1       0.112   0.527   0.003  0.00  0.00    -0.078 A 
ATOM      5  C3  OXE d   1      -0.886   1.496   0.077  0.00  0.00     0.003 A 
ATOM      6  C4  OXE d   1      -0.567   2.818   0.409  0.00  0.00    -0.002 A 
ATOM      7  C5  OXE d   1       0.737   3.161   0.782  0.00  0.00    -0.002 A 
ATOM      8  C6  OXE d   1       1.716   2.174   0.826  0.00  0.00     0.003 A 
ENDROOT
TORSDOF 0
ENDMDL
