MODEL 1
REMARK minimizedAffinity -2.43724418
REMARK minimizedRMSD -1
REMARK  0 active torsions:
REMARK  status: ('A' for Active; 'I' for Inactive)
ROOT
ATOM      1  C2' OXE d   1       2.081   0.013   0.524  0.00  0.00     0.078 C 
ATOM      2  C1' OXE d   1      -0.207  -1.152  -0.610  0.00  0.00     0.078 C 
ATOM      3  C1  OXE d   1      -0.344   0.223  -0.006  0.00  0.00    -0.078 A 
ATOM      4  C2  OXE d   1       0.770   0.766   0.589  0.00  0.00    -0.078 A 
ATOM      5  C3  OXE d   1       0.713   2.054   1.112  0.00  0.00     0.003 A 
ATOM      6  C4  OXE d   1      -0.506   2.740   1.177  0.00  0.00    -0.002 A 
ATOM      7  C5  OXE d   1      -1.661   2.188   0.613  0.00  0.00    -0.002 A 
ATOM      8  C6  OXE d   1      -1.588   0.952  -0.018  0.00  0.00     0.003 A 
ENDROOT
TORSDOF 0
ENDMDL
