MODEL 1
REMARK minimizedAffinity -3.70337558
REMARK minimizedRMSD -1
REMARK  0 active torsions:
REMARK  status: ('A' for Active; 'I' for Inactive)
ROOT
ATOM      1  C2' OXE d   1      -2.047   0.083   0.862  0.00  0.00     0.078 C 
ATOM      2  C1' OXE d   1      -0.802  -2.421   0.612  0.00  0.00     0.078 C 
ATOM      3  C1  OXE d   1       0.082  -1.202   0.705  0.00  0.00    -0.078 A 
ATOM      4  C2  OXE d   1      -0.537   0.023   0.780  0.00  0.00    -0.078 A 
ATOM      5  C3  OXE d   1       0.231   1.175   0.923  0.00  0.00     0.003 A 
ATOM      6  C4  OXE d   1       1.627   1.112   0.837  0.00  0.00    -0.002 A 
ATOM      7  C5  OXE d   1       2.276  -0.122   0.721  0.00  0.00    -0.002 A 
ATOM      8  C6  OXE d   1       1.521  -1.290   0.697  0.00  0.00     0.003 A 
ENDROOT
TORSDOF 0
ENDMDL
