MODEL 1
REMARK minimizedAffinity -2.80613375
REMARK minimizedRMSD -1
REMARK  0 active torsions:
REMARK  status: ('A' for Active; 'I' for Inactive)
ROOT
ATOM      1  C2' OXE d   1      -0.060  -0.953  -0.543  0.00  0.00     0.078 C 
ATOM      2  C1' OXE d   1      -1.660  -0.179   1.630  0.00  0.00     0.078 C 
ATOM      3  C1  OXE d   1      -0.875   0.894   0.917  0.00  0.00    -0.078 A 
ATOM      4  C2  OXE d   1      -0.058   0.499  -0.115  0.00  0.00    -0.078 A 
ATOM      5  C3  OXE d   1       0.645   1.455  -0.842  0.00  0.00     0.003 A 
ATOM      6  C4  OXE d   1       0.649   2.795  -0.433  0.00  0.00    -0.002 A 
ATOM      7  C5  OXE d   1      -0.144   3.212   0.641  0.00  0.00    -0.002 A 
ATOM      8  C6  OXE d   1      -0.943   2.283   1.299  0.00  0.00     0.003 A 
ENDROOT
TORSDOF 0
ENDMDL
