MODEL 1
REMARK minimizedAffinity 1.16717327
REMARK minimizedRMSD -1
REMARK  0 active torsions:
REMARK  status: ('A' for Active; 'I' for Inactive)
ROOT
ATOM      1  C1  BNZ d   1       3.107  -3.080  -1.323  0.00  0.00     0.000 A 
ATOM      2  C2  BNZ d   1       3.174  -1.797  -0.851  0.00  0.00     0.000 A 
ATOM      3  C3  BNZ d   1       2.037  -1.062  -0.659  0.00  0.00     0.000 A 
ATOM      4  C4  BNZ d   1       0.841  -1.596  -0.978  0.00  0.00     0.000 A 
ATOM      5  C5  BNZ d   1       0.758  -2.886  -1.464  0.00  0.00     0.000 A 
ATOM      6  C6  BNZ d   1       1.901  -3.636  -1.618  0.00  0.00     0.000 A 
ENDROOT
TORSDOF 0
ENDMDL
