MODEL 1
REMARK minimizedAffinity -1.76462865
REMARK minimizedRMSD -1
REMARK  0 active torsions:
REMARK  status: ('A' for Active; 'I' for Inactive)
ROOT
ATOM      1  C1  BNZ d   1       1.587   1.391  -2.265  0.00  0.00     0.000 A 
ATOM      2  C2  BNZ d   1       1.887   1.118  -0.957  0.00  0.00     0.000 A 
ATOM      3  C3  BNZ d   1       1.652  -0.120  -0.428  0.00  0.00     0.000 A 
ATOM      4  C4  BNZ d   1       1.081  -1.071  -1.196  0.00  0.00     0.000 A 
ATOM      5  C5  BNZ d   1       0.764  -0.809  -2.513  0.00  0.00     0.000 A 
ATOM      6  C6  BNZ d   1       1.038   0.427  -3.053  0.00  0.00     0.000 A 
ENDROOT
TORSDOF 0
ENDMDL
