MODEL 1
REMARK minimizedAffinity 7.72091627
REMARK minimizedRMSD -1
REMARK  0 active torsions:
REMARK  status: ('A' for Active; 'I' for Inactive)
ROOT
ATOM      1  C1  BNZ d   1      -3.269   2.368   5.697  0.00  0.00     0.000 A 
ATOM      2  C2  BNZ d   1      -3.598   2.788   4.436  0.00  0.00     0.000 A 
ATOM      3  C3  BNZ d   1      -2.901   2.343   3.347  0.00  0.00     0.000 A 
ATOM      4  C4  BNZ d   1      -1.854   1.513   3.523  0.00  0.00     0.000 A 
ATOM      5  C5  BNZ d   1      -1.504   1.088   4.790  0.00  0.00     0.000 A 
ATOM      6  C6  BNZ d   1      -2.231   1.507   5.880  0.00  0.00     0.000 A 
ENDROOT
TORSDOF 0
ENDMDL
