MODEL 1
REMARK minimizedAffinity 6.21695471
REMARK minimizedRMSD -1
REMARK  0 active torsions:
REMARK  status: ('A' for Active; 'I' for Inactive)
ROOT
ATOM      1  C1  BNZ d   1       1.331  -0.255  -0.454  0.00  0.00     0.000 A 
ATOM      2  C2  BNZ d   1       1.450  -1.555  -0.039  0.00  0.00     0.000 A 
ATOM      3  C3  BNZ d   1       1.049  -2.585  -0.842  0.00  0.00     0.000 A 
ATOM      4  C4  BNZ d   1       0.493  -2.314  -2.041  0.00  0.00     0.000 A 
ATOM      5  C5  BNZ d   1       0.358  -1.009  -2.469  0.00  0.00     0.000 A 
ATOM      6  C6  BNZ d   1       0.798   0.025  -1.674  0.00  0.00     0.000 A 
ENDROOT
TORSDOF 0
ENDMDL
