MODEL 1
REMARK minimizedAffinity -1.73990583
REMARK minimizedRMSD -1
REMARK  0 active torsions:
REMARK  status: ('A' for Active; 'I' for Inactive)
ROOT
ATOM      1  C1  BNZ d   1       1.523   1.712  -1.892  0.00  0.00     0.000 A 
ATOM      2  C2  BNZ d   1       1.061   1.154  -3.054  0.00  0.00     0.000 A 
ATOM      3  C3  BNZ d   1       0.568  -0.121  -3.071  0.00  0.00     0.000 A 
ATOM      4  C4  BNZ d   1       0.573  -0.849  -1.936  0.00  0.00     0.000 A 
ATOM      5  C5  BNZ d   1       1.044  -0.304  -0.758  0.00  0.00     0.000 A 
ATOM      6  C6  BNZ d   1       1.504   0.993  -0.737  0.00  0.00     0.000 A 
ENDROOT
TORSDOF 0
ENDMDL
