MODEL 1
REMARK minimizedAffinity -4.21415091
REMARK minimizedRMSD -1
REMARK  0 active torsions:
REMARK  status: ('A' for Active; 'I' for Inactive)
ROOT
ATOM      1  C1  BNZ d   1       0.129  -0.805  -2.651  0.00  0.00     0.000 A 
ATOM      2  C2  BNZ d   1       0.047  -1.045  -1.305  0.00  0.00     0.000 A 
ATOM      3  C3  BNZ d   1       0.594  -0.174  -0.404  0.00  0.00     0.000 A 
ATOM      4  C4  BNZ d   1       1.256   0.913  -0.850  0.00  0.00     0.000 A 
ATOM      5  C5  BNZ d   1       1.356   1.163  -2.204  0.00  0.00     0.000 A 
ATOM      6  C6  BNZ d   1       0.771   0.305  -3.107  0.00  0.00     0.000 A 
ENDROOT
TORSDOF 0
ENDMDL
