MODEL 1
REMARK minimizedAffinity 4.83081627
REMARK minimizedRMSD -1
REMARK  0 active torsions:
REMARK  status: ('A' for Active; 'I' for Inactive)
ROOT
ATOM      1  C1  BNZ d   1       0.745   0.297  -2.181  0.00  0.00     0.000 A 
ATOM      2  C2  BNZ d   1       0.239  -0.951  -2.429  0.00  0.00     0.000 A 
ATOM      3  C3  BNZ d   1       0.517  -1.997  -1.594  0.00  0.00     0.000 A 
ATOM      4  C4  BNZ d   1       1.331  -1.803  -0.536  0.00  0.00     0.000 A 
ATOM      5  C5  BNZ d   1       1.856  -0.552  -0.278  0.00  0.00     0.000 A 
ATOM      6  C6  BNZ d   1       1.543   0.507  -1.099  0.00  0.00     0.000 A 
ENDROOT
TORSDOF 0
ENDMDL
