MODEL 1
REMARK minimizedAffinity 2.52813315
REMARK minimizedRMSD -1
REMARK  0 active torsions:
REMARK  status: ('A' for Active; 'I' for Inactive)
ROOT
ATOM      1  C1  BNZ d   1      -3.418   2.168   2.860  0.00  0.00     0.000 A 
ATOM      2  C2  BNZ d   1      -2.095   2.226   3.211  0.00  0.00     0.000 A 
ATOM      3  C3  BNZ d   1      -1.699   1.968   4.494  0.00  0.00     0.000 A 
ATOM      4  C4  BNZ d   1      -2.628   1.694   5.432  0.00  0.00     0.000 A 
ATOM      5  C5  BNZ d   1      -3.966   1.641   5.096  0.00  0.00     0.000 A 
ATOM      6  C6  BNZ d   1      -4.358   1.862   3.796  0.00  0.00     0.000 A 
ENDROOT
TORSDOF 0
ENDMDL
