MODEL 1
REMARK minimizedAffinity 6.9870801
REMARK minimizedRMSD -1
REMARK  0 active torsions:
REMARK  status: ('A' for Active; 'I' for Inactive)
ROOT
ATOM      1  C1  BNZ d   1       2.974  -1.552  -0.909  0.00  0.00     0.000 A 
ATOM      2  C2  BNZ d   1       2.073  -2.531  -1.231  0.00  0.00     0.000 A 
ATOM      3  C3  BNZ d   1       0.732  -2.333  -1.057  0.00  0.00     0.000 A 
ATOM      4  C4  BNZ d   1       0.297  -1.173  -0.524  0.00  0.00     0.000 A 
ATOM      5  C5  BNZ d   1       1.194  -0.179  -0.186  0.00  0.00     0.000 A 
ATOM      6  C6  BNZ d   1       2.540  -0.367  -0.399  0.00  0.00     0.000 A 
ENDROOT
TORSDOF 0
ENDMDL
