MODEL 1
REMARK minimizedAffinity 1.37121856
REMARK minimizedRMSD -1
REMARK  0 active torsions:
REMARK  status: ('A' for Active; 'I' for Inactive)
ROOT
ATOM      1  C1  BNZ d   1       1.509   1.891  -1.221  0.00  0.00     0.000 A 
ATOM      2  C2  BNZ d   1       0.827   3.069  -1.368  0.00  0.00     0.000 A 
ATOM      3  C3  BNZ d   1       0.596   3.884  -0.295  0.00  0.00     0.000 A 
ATOM      4  C4  BNZ d   1       1.012   3.501   0.929  0.00  0.00     0.000 A 
ATOM      5  C5  BNZ d   1       1.693   2.312   1.096  0.00  0.00     0.000 A 
ATOM      6  C6  BNZ d   1       1.958   1.513   0.007  0.00  0.00     0.000 A 
ENDROOT
TORSDOF 0
ENDMDL
