MODEL 1
REMARK minimizedAffinity 3.05218887
REMARK minimizedRMSD -1
REMARK  0 active torsions:
REMARK  status: ('A' for Active; 'I' for Inactive)
ROOT
ATOM      1  C1  BNZ d   1       1.233  -2.742  -1.569  0.00  0.00     0.000 A 
ATOM      2  C2  BNZ d   1       0.466  -2.426  -2.658  0.00  0.00     0.000 A 
ATOM      3  C3  BNZ d   1       0.122  -1.129  -2.920  0.00  0.00     0.000 A 
ATOM      4  C4  BNZ d   1       0.511  -0.156  -2.071  0.00  0.00     0.000 A 
ATOM      5  C5  BNZ d   1       1.278  -0.460  -0.964  0.00  0.00     0.000 A 
ATOM      6  C6  BNZ d   1       1.655  -1.762  -0.725  0.00  0.00     0.000 A 
ENDROOT
TORSDOF 0
ENDMDL
