MODEL 1
REMARK minimizedAffinity -1.08826101
REMARK minimizedRMSD -1
REMARK  0 active torsions:
REMARK  status: ('A' for Active; 'I' for Inactive)
ROOT
ATOM      1  C1  BNZ d   1      -5.211  -3.488  -5.983  0.00  0.00     0.000 A 
ATOM      2  C2  BNZ d   1      -5.991  -2.363  -6.000  0.00  0.00     0.000 A 
ATOM      3  C3  BNZ d   1      -5.938  -1.459  -4.976  0.00  0.00     0.000 A 
ATOM      4  C4  BNZ d   1      -5.136  -1.701  -3.919  0.00  0.00     0.000 A 
ATOM      5  C5  BNZ d   1      -4.351  -2.836  -3.882  0.00  0.00     0.000 A 
ATOM      6  C6  BNZ d   1      -4.378  -3.724  -4.933  0.00  0.00     0.000 A 
ENDROOT
TORSDOF 0
ENDMDL
