MODEL 1
REMARK minimizedAffinity -1.2519151
REMARK minimizedRMSD -1
REMARK  0 active torsions:
REMARK  status: ('A' for Active; 'I' for Inactive)
ROOT
ATOM      1  C1  BNZ d   1       0.955   1.356   1.390  0.00  0.00     0.000 A 
ATOM      2  C2  BNZ d   1       1.663   2.315   0.717  0.00  0.00     0.000 A 
ATOM      3  C3  BNZ d   1       2.011   2.138  -0.593  0.00  0.00     0.000 A 
ATOM      4  C4  BNZ d   1       1.686   0.986  -1.216  0.00  0.00     0.000 A 
ATOM      5  C5  BNZ d   1       0.980   0.006  -0.548  0.00  0.00     0.000 A 
ATOM      6  C6  BNZ d   1       0.598   0.204   0.759  0.00  0.00     0.000 A 
ENDROOT
TORSDOF 0
ENDMDL
