MODEL 1
REMARK minimizedAffinity 11.6025772
REMARK minimizedRMSD -1
REMARK  0 active torsions:
REMARK  status: ('A' for Active; 'I' for Inactive)
ROOT
ATOM      1  C1  BNZ d   1      -2.984   1.029  -4.955  0.00  0.00     0.000 A 
ATOM      2  C2  BNZ d   1      -2.630   0.192  -3.930  0.00  0.00     0.000 A 
ATOM      3  C3  BNZ d   1      -2.994  -1.125  -3.946  0.00  0.00     0.000 A 
ATOM      4  C4  BNZ d   1      -3.744  -1.594  -4.964  0.00  0.00     0.000 A 
ATOM      5  C5  BNZ d   1      -4.116  -0.761  -5.999  0.00  0.00     0.000 A 
ATOM      6  C6  BNZ d   1      -3.716   0.556  -6.000  0.00  0.00     0.000 A 
ENDROOT
TORSDOF 0
ENDMDL
