MODEL 1
REMARK minimizedAffinity 0.116855644
REMARK minimizedRMSD -1
REMARK  0 active torsions:
REMARK  status: ('A' for Active; 'I' for Inactive)
ROOT
ATOM      1  C1  BNZ d   1      -4.620   1.754  -5.368  0.00  0.00     0.000 A 
ATOM      2  C2  BNZ d   1      -3.895   2.480  -4.461  0.00  0.00     0.000 A 
ATOM      3  C3  BNZ d   1      -2.993   1.869  -3.636  0.00  0.00     0.000 A 
ATOM      4  C4  BNZ d   1      -2.846   0.530  -3.690  0.00  0.00     0.000 A 
ATOM      5  C5  BNZ d   1      -3.576  -0.218  -4.592  0.00  0.00     0.000 A 
ATOM      6  C6  BNZ d   1      -4.455   0.405  -5.448  0.00  0.00     0.000 A 
ENDROOT
TORSDOF 0
ENDMDL
