MODEL 1
REMARK minimizedAffinity 2.38994336
REMARK minimizedRMSD -1
REMARK  0 active torsions:
REMARK  status: ('A' for Active; 'I' for Inactive)
ROOT
ATOM      1  C1  BNZ d   1       1.858   1.453  -0.214  0.00  0.00     0.000 A 
ATOM      2  C2  BNZ d   1       1.340   0.218  -0.501  0.00  0.00     0.000 A 
ATOM      3  C3  BNZ d   1       0.417  -0.363   0.324  0.00  0.00     0.000 A 
ATOM      4  C4  BNZ d   1       0.044   0.273   1.454  0.00  0.00     0.000 A 
ATOM      5  C5  BNZ d   1       0.564   1.514   1.761  0.00  0.00     0.000 A 
ATOM      6  C6  BNZ d   1       1.463   2.113   0.909  0.00  0.00     0.000 A 
ENDROOT
TORSDOF 0
ENDMDL
