MODEL 1
REMARK minimizedAffinity 12.7977266
REMARK minimizedRMSD -1
REMARK  2 active torsions:
REMARK  status: ('A' for Active; 'I' for Inactive)
REMARK    1  A    between atoms: C2'_3  and  C1'_4 
REMARK    2  A    between atoms: C1'_4  and  C1_5 
ROOT
ATOM      1  C1  I4B d   1      -4.021   2.888   0.762  0.00  0.00    -0.075 A 
ATOM      2  C2  I4B d   1      -2.990   3.365  -0.009  0.00  0.00     0.003 A 
ATOM      3  C3  I4B d   1      -1.959   2.495  -0.438  0.00  0.00     0.002 A 
ATOM      4  C4  I4B d   1      -1.971   1.176  -0.033  0.00  0.00    -0.004 A 
ATOM      5  C5  I4B d   1      -3.028   0.689   0.730  0.00  0.00     0.002 A 
ATOM      6  C6  I4B d   1      -4.067   1.547   1.120  0.00  0.00     0.003 A 
ENDROOT
BRANCH   1   7
ATOM      7  C1' I4B d   1      -5.076   3.842   1.224  0.00  0.00     0.060 C 
BRANCH   7   8
ATOM      8  C2' I4B d   1      -5.998   4.121   0.055  0.00  0.00    -0.013 C 
ATOM      9  C4' I4B d   1      -5.566   5.350  -0.700  0.00  0.00     0.013 C 
ATOM     10  C3' I4B d   1      -5.998   2.913  -0.833  0.00  0.00     0.013 C 
ENDBRANCH   7   8
ENDBRANCH   1   7
TORSDOF 2
ENDMDL
