MODEL 1
REMARK minimizedAffinity 9.23092365
REMARK minimizedRMSD -1
REMARK  2 active torsions:
REMARK  status: ('A' for Active; 'I' for Inactive)
REMARK    1  A    between atoms: C2'_3  and  C1'_4 
REMARK    2  A    between atoms: C1'_4  and  C1_5 
ROOT
ATOM      1  C1  I4B d   1      -3.363   2.751  -0.557  0.00  0.00    -0.075 A 
ATOM      2  C2  I4B d   1      -2.466   1.834  -0.071  0.00  0.00     0.003 A 
ATOM      3  C3  I4B d   1      -2.079   0.726  -0.863  0.00  0.00     0.002 A 
ATOM      4  C4  I4B d   1      -2.650   0.547  -2.107  0.00  0.00    -0.004 A 
ATOM      5  C5  I4B d   1      -3.543   1.491  -2.607  0.00  0.00     0.002 A 
ATOM      6  C6  I4B d   1      -3.893   2.606  -1.833  0.00  0.00     0.003 A 
ENDROOT
BRANCH   1   7
ATOM      7  C1' I4B d   1      -3.774   3.892   0.319  0.00  0.00     0.060 C 
BRANCH   7   8
ATOM      8  C2' I4B d   1      -5.277   3.825   0.499  0.00  0.00    -0.013 C 
ATOM      9  C4' I4B d   1      -5.658   3.937   1.952  0.00  0.00     0.013 C 
ATOM     10  C3' I4B d   1      -5.890   4.930  -0.308  0.00  0.00     0.013 C 
ENDBRANCH   7   8
ENDBRANCH   1   7
TORSDOF 2
ENDMDL
