MODEL 1
REMARK minimizedAffinity 13.4315767
REMARK minimizedRMSD -1
REMARK  2 active torsions:
REMARK  status: ('A' for Active; 'I' for Inactive)
REMARK    1  A    between atoms: C2'_3  and  C1'_4 
REMARK    2  A    between atoms: C1'_4  and  C1_5 
ROOT
ATOM      1  C1  I4B d   1      -5.281   3.381  -1.153  0.00  0.00    -0.075 A 
ATOM      2  C2  I4B d   1      -5.983   3.711  -0.021  0.00  0.00     0.003 A 
ATOM      3  C3  I4B d   1      -5.341   3.709   1.241  0.00  0.00     0.002 A 
ATOM      4  C4  I4B d   1      -4.019   3.324   1.331  0.00  0.00    -0.004 A 
ATOM      5  C5  I4B d   1      -3.303   3.012   0.178  0.00  0.00     0.002 A 
ATOM      6  C6  I4B d   1      -3.934   3.053  -1.073  0.00  0.00     0.003 A 
ENDROOT
BRANCH   1   7
ATOM      7  C1' I4B d   1      -5.999   3.362  -2.466  0.00  0.00     0.060 C 
BRANCH   7   8
ATOM      8  C2' I4B d   1      -5.138   2.608  -3.458  0.00  0.00    -0.013 C 
ATOM      9  C4' I4B d   1      -4.960   1.171  -3.045  0.00  0.00     0.013 C 
ATOM     10  C3' I4B d   1      -5.788   2.708  -4.805  0.00  0.00     0.013 C 
ENDBRANCH   7   8
ENDBRANCH   1   7
TORSDOF 2
ENDMDL
