MODEL 1
REMARK minimizedAffinity 10.0171604
REMARK minimizedRMSD -1
REMARK  2 active torsions:
REMARK  status: ('A' for Active; 'I' for Inactive)
REMARK    1  A    between atoms: C2'_3  and  C1'_4 
REMARK    2  A    between atoms: C1'_4  and  C1_5 
ROOT
ATOM      1  C1  I4B d   1      -5.975   3.289  -1.723  0.00  0.00    -0.075 A 
ATOM      2  C2  I4B d   1      -5.908   2.739  -0.468  0.00  0.00     0.003 A 
ATOM      3  C3  I4B d   1      -5.852   3.574   0.674  0.00  0.00     0.002 A 
ATOM      4  C4  I4B d   1      -5.814   4.944   0.513  0.00  0.00    -0.004 A 
ATOM      5  C5  I4B d   1      -5.905   5.500  -0.760  0.00  0.00     0.002 A 
ATOM      6  C6  I4B d   1      -5.998   4.668  -1.885  0.00  0.00     0.003 A 
ENDROOT
BRANCH   1   7
ATOM      7  C1' I4B d   1      -6.000   2.377  -2.909  0.00  0.00     0.060 C 
BRANCH   7   8
ATOM      8  C2' I4B d   1      -4.687   2.538  -3.649  0.00  0.00    -0.013 C 
ATOM      9  C4' I4B d   1      -3.703   1.471  -3.251  0.00  0.00     0.013 C 
ATOM     10  C3' I4B d   1      -4.976   2.487  -5.120  0.00  0.00     0.013 C 
ENDBRANCH   7   8
ENDBRANCH   1   7
TORSDOF 2
ENDMDL
