MODEL 1
REMARK minimizedAffinity 10.3633919
REMARK minimizedRMSD -1
REMARK  2 active torsions:
REMARK  status: ('A' for Active; 'I' for Inactive)
REMARK    1  A    between atoms: C2'_3  and  C1'_4 
REMARK    2  A    between atoms: C1'_4  and  C1_5 
ROOT
ATOM      1  C1  I4B d   1       2.194  -2.186   3.588  0.00  0.00    -0.075 A 
ATOM      2  C2  I4B d   1       1.803  -3.322   2.924  0.00  0.00     0.003 A 
ATOM      3  C3  I4B d   1       2.434  -4.559   3.197  0.00  0.00     0.002 A 
ATOM      4  C4  I4B d   1       3.477  -4.606   4.100  0.00  0.00    -0.004 A 
ATOM      5  C5  I4B d   1       3.855  -3.458   4.790  0.00  0.00     0.002 A 
ATOM      6  C6  I4B d   1       3.202  -2.242   4.541  0.00  0.00     0.003 A 
ENDROOT
BRANCH   1   7
ATOM      7  C1' I4B d   1       1.529  -0.889   3.250  0.00  0.00     0.060 C 
BRANCH   7   8
ATOM      8  C2' I4B d   1       1.839  -0.568   1.803  0.00  0.00    -0.013 C 
ATOM      9  C4' I4B d   1       0.589  -0.568   0.964  0.00  0.00     0.013 C 
ATOM     10  C3' I4B d   1       2.520   0.767   1.760  0.00  0.00     0.013 C 
ENDBRANCH   7   8
ENDBRANCH   1   7
TORSDOF 2
ENDMDL
