MODEL 1
REMARK minimizedAffinity 11.1117096
REMARK minimizedRMSD -1
REMARK  2 active torsions:
REMARK  status: ('A' for Active; 'I' for Inactive)
REMARK    1  A    between atoms: C2'_3  and  C1'_4 
REMARK    2  A    between atoms: C1'_4  and  C1_5 
ROOT
ATOM      1  C1  I4B d   1       1.729  -2.167   3.560  0.00  0.00    -0.075 A 
ATOM      2  C2  I4B d   1       0.909  -3.257   3.403  0.00  0.00     0.003 A 
ATOM      3  C3  I4B d   1       1.362  -4.547   3.770  0.00  0.00     0.002 A 
ATOM      4  C4  I4B d   1       2.650  -4.708   4.239  0.00  0.00    -0.004 A 
ATOM      5  C5  I4B d   1       3.471  -3.599   4.419  0.00  0.00     0.002 A 
ATOM      6  C6  I4B d   1       3.004  -2.318   4.089  0.00  0.00     0.003 A 
ENDROOT
BRANCH   1   7
ATOM      7  C1' I4B d   1       1.231  -0.823   3.131  0.00  0.00     0.060 C 
BRANCH   7   8
ATOM      8  C2' I4B d   1       2.214  -0.260   2.124  0.00  0.00    -0.013 C 
ATOM      9  C4' I4B d   1       2.055  -0.920   0.780  0.00  0.00     0.013 C 
ATOM     10  C3' I4B d   1       1.986   1.219   2.032  0.00  0.00     0.013 C 
ENDBRANCH   7   8
ENDBRANCH   1   7
TORSDOF 2
ENDMDL
