MODEL 1
REMARK minimizedAffinity -3.95056272
REMARK minimizedRMSD -1
REMARK  1 active torsions:
REMARK  status: ('A' for Active; 'I' for Inactive)
REMARK    1  A    between atoms: N_2  and  C1_3 
ROOT
ATOM      1  C1  UNL d   1       2.757   4.832   4.237  0.00  0.00     0.143 A 
ATOM      2  C2  UNL d   1       3.257   3.670   3.639  0.00  0.00    -0.057 A 
ATOM      3  C3  UNL d   1       4.501   3.662   2.997  0.00  0.00     0.033 A 
ATOM      4  C4  UNL d   1       5.256   4.827   2.915  0.00  0.00    -0.042 A 
ATOM      5  C5  UNL d   1       4.767   6.000   3.480  0.00  0.00     0.033 A 
ATOM      6  C6  UNL d   1       3.527   6.000   4.126  0.00  0.00    -0.057 A 
ENDROOT
BRANCH   1   7
ATOM      7  N   UNL d   1       1.484   4.928   4.804  0.00  0.00    -0.732 N 
ATOM      8  C   UNL d   1       0.424   5.637   4.120  0.00  0.00     0.284 C 
ATOM      9  H3  UNL d   1       1.187   4.059   5.243  0.00  0.00     0.395 HD
ENDBRANCH   1   7
TORSDOF 1
ENDMDL
