MODEL 1
REMARK minimizedAffinity 1.17587304
REMARK minimizedRMSD -1
REMARK  1 active torsions:
REMARK  status: ('A' for Active; 'I' for Inactive)
REMARK    1  A    between atoms: N_2  and  C1_3 
ROOT
ATOM      1  C1  UNL d   1       4.273   2.161   0.685  0.00  0.00     0.143 A 
ATOM      2  C2  UNL d   1       4.662   2.180  -0.659  0.00  0.00    -0.057 A 
ATOM      3  C3  UNL d   1       4.170   1.238  -1.570  0.00  0.00     0.033 A 
ATOM      4  C4  UNL d   1       3.301   0.239  -1.146  0.00  0.00    -0.042 A 
ATOM      5  C5  UNL d   1       2.920   0.185   0.190  0.00  0.00     0.033 A 
ATOM      6  C6  UNL d   1       3.409   1.133   1.094  0.00  0.00    -0.057 A 
ENDROOT
BRANCH   1   7
ATOM      7  N   UNL d   1       4.802   3.010   1.660  0.00  0.00    -0.732 N 
ATOM      8  C   UNL d   1       4.140   3.170   2.937  0.00  0.00     0.284 C 
ATOM      9  H3  UNL d   1       5.816   2.945   1.723  0.00  0.00     0.395 HD
ENDBRANCH   1   7
TORSDOF 1
ENDMDL
