MODEL 1
REMARK minimizedAffinity 6.69097853
REMARK minimizedRMSD -1
REMARK  1 active torsions:
REMARK  status: ('A' for Active; 'I' for Inactive)
REMARK    1  A    between atoms: N_2  and  C1_3 
ROOT
ATOM      1  C1  UNL d   1       1.688   0.316  -0.825  0.00  0.00     0.143 A 
ATOM      2  C2  UNL d   1       1.593  -0.831  -1.621  0.00  0.00    -0.057 A 
ATOM      3  C3  UNL d   1       2.325  -1.986  -1.322  0.00  0.00     0.033 A 
ATOM      4  C4  UNL d   1       3.191  -2.005  -0.233  0.00  0.00    -0.042 A 
ATOM      5  C5  UNL d   1       3.320  -0.869   0.558  0.00  0.00     0.033 A 
ATOM      6  C6  UNL d   1       2.581   0.279   0.257  0.00  0.00    -0.057 A 
ENDROOT
BRANCH   1   7
ATOM      7  N   UNL d   1       1.061   1.527  -1.127  0.00  0.00    -0.732 N 
ATOM      8  C   UNL d   1       1.666   2.785  -0.745  0.00  0.00     0.284 C 
ATOM      9  H3  UNL d   1       0.648   1.529  -2.057  0.00  0.00     0.395 HD
ENDBRANCH   1   7
TORSDOF 1
ENDMDL
