MODEL 1
REMARK minimizedAffinity 1.59060538
REMARK minimizedRMSD -1
REMARK  1 active torsions:
REMARK  status: ('A' for Active; 'I' for Inactive)
REMARK    1  A    between atoms: N_2  and  C1_3 
ROOT
ATOM      1  C1  UNL d   1       3.740   1.604   1.597  0.00  0.00     0.143 A 
ATOM      2  C2  UNL d   1       2.857   2.029   0.598  0.00  0.00    -0.057 A 
ATOM      3  C3  UNL d   1       2.317   1.126  -0.326  0.00  0.00     0.033 A 
ATOM      4  C4  UNL d   1       2.674  -0.217  -0.285  0.00  0.00    -0.042 A 
ATOM      5  C5  UNL d   1       3.569  -0.658   0.684  0.00  0.00     0.033 A 
ATOM      6  C6  UNL d   1       4.099   0.248   1.608  0.00  0.00    -0.057 A 
ENDROOT
BRANCH   1   7
ATOM      7  N   UNL d   1       4.387   2.470   2.482  0.00  0.00    -0.732 N 
ATOM      8  C   UNL d   1       3.729   2.913   3.692  0.00  0.00     0.284 C 
ATOM      9  H3  UNL d   1       5.369   2.236   2.605  0.00  0.00     0.395 HD
ENDBRANCH   1   7
TORSDOF 1
ENDMDL
