MODEL 1
REMARK minimizedAffinity -4.31923485
REMARK minimizedRMSD -1
REMARK  1 active torsions:
REMARK  status: ('A' for Active; 'I' for Inactive)
REMARK    1  A    between atoms: N_2  and  C1_3 
ROOT
ATOM      1  C1  UNL d   1       1.926   4.760   5.017  0.00  0.00     0.143 A 
ATOM      2  C2  UNL d   1       1.367   3.768   5.830  0.00  0.00    -0.057 A 
ATOM      3  C3  UNL d   1       1.997   2.529   6.000  0.00  0.00     0.033 A 
ATOM      4  C4  UNL d   1       3.186   2.249   5.334  0.00  0.00    -0.042 A 
ATOM      5  C5  UNL d   1       3.746   3.211   4.501  0.00  0.00     0.033 A 
ATOM      6  C6  UNL d   1       3.116   4.449   4.341  0.00  0.00    -0.057 A 
ENDROOT
BRANCH   1   7
ATOM      7  N   UNL d   1       1.298   5.975   4.729  0.00  0.00    -0.732 N 
ATOM      8  C   UNL d   1      -0.019   6.000   4.129  0.00  0.00     0.284 C 
ATOM      9  H3  UNL d   1       1.433   6.665   5.464  0.00  0.00     0.395 HD
ENDBRANCH   1   7
TORSDOF 1
ENDMDL
