MODEL 1
REMARK minimizedAffinity -1.16823244
REMARK minimizedRMSD -1
REMARK  1 active torsions:
REMARK  status: ('A' for Active; 'I' for Inactive)
REMARK    1  A    between atoms: N_2  and  C1_3 
ROOT
ATOM      1  C1  UNL d   1       3.084   3.721   5.338  0.00  0.00     0.143 A 
ATOM      2  C2  UNL d   1       3.563   4.857   6.000  0.00  0.00    -0.057 A 
ATOM      3  C3  UNL d   1       3.975   5.991   5.290  0.00  0.00     0.033 A 
ATOM      4  C4  UNL d   1       3.942   5.999   3.899  0.00  0.00    -0.042 A 
ATOM      5  C5  UNL d   1       3.493   4.872   3.220  0.00  0.00     0.033 A 
ATOM      6  C6  UNL d   1       3.077   3.744   3.935  0.00  0.00    -0.057 A 
ENDROOT
BRANCH   1   7
ATOM      7  N   UNL d   1       2.752   2.527   5.983  0.00  0.00    -0.732 N 
ATOM      8  C   UNL d   1       3.679   1.416   5.998  0.00  0.00     0.284 C 
ATOM      9  H3  UNL d   1       2.276   2.683   6.869  0.00  0.00     0.395 HD
ENDBRANCH   1   7
TORSDOF 1
ENDMDL
