MODEL 1
REMARK minimizedAffinity 4.83728886
REMARK minimizedRMSD -1
REMARK  1 active torsions:
REMARK  status: ('A' for Active; 'I' for Inactive)
REMARK    1  A    between atoms: N_2  and  C1_3 
ROOT
ATOM      1  C1  UNL d   1      -1.054  -1.271   1.058  0.00  0.00     0.143 A 
ATOM      2  C2  UNL d   1      -0.479  -1.667  -0.154  0.00  0.00    -0.057 A 
ATOM      3  C3  UNL d   1       0.832  -1.307  -0.488  0.00  0.00     0.033 A 
ATOM      4  C4  UNL d   1       1.584  -0.517   0.376  0.00  0.00    -0.042 A 
ATOM      5  C5  UNL d   1       1.024  -0.091   1.575  0.00  0.00     0.033 A 
ATOM      6  C6  UNL d   1      -0.283  -0.460   1.906  0.00  0.00    -0.057 A 
ENDROOT
BRANCH   1   7
ATOM      7  N   UNL d   1      -2.386  -1.514   1.404  0.00  0.00    -0.732 N 
ATOM      8  C   UNL d   1      -3.455  -0.743   0.806  0.00  0.00     0.284 C 
ATOM      9  H3  UNL d   1      -2.589  -2.507   1.492  0.00  0.00     0.395 HD
ENDBRANCH   1   7
TORSDOF 1
ENDMDL
