MODEL 1
REMARK minimizedAffinity 17.061882
REMARK minimizedRMSD -1
REMARK  0 active torsions:
REMARK  status: ('A' for Active; 'I' for Inactive)
ROOT
ATOM      1  C   UNL d   1      -0.524   2.909   0.751  0.00  0.00     0.020 A 
ATOM      2  C1  UNL d   1      -1.034   2.087  -0.253  0.00  0.00     0.020 A 
ATOM      3  C2  UNL d   1      -2.266   2.384  -0.841  0.00  0.00     0.034 A 
ATOM      4  C3  UNL d   1      -2.991   3.506  -0.425  0.00  0.00     0.017 A 
ATOM      5  C4  UNL d   1      -2.479   4.331   0.582  0.00  0.00     0.017 A 
ATOM      6  C5  UNL d   1      -1.245   4.029   1.167  0.00  0.00     0.034 A 
ATOM      7 Cl   UNL d   1      -3.316   5.733   1.148  0.00  0.00    -0.070 Cl
ATOM      8 Cl1  UNL d   1      -4.507   3.814  -1.196  0.00  0.00    -0.070 Cl
ENDROOT
TORSDOF 0
ENDMDL
