MODEL 1
REMARK minimizedAffinity 16.4242153
REMARK minimizedRMSD -1
REMARK  0 active torsions:
REMARK  status: ('A' for Active; 'I' for Inactive)
ROOT
ATOM      1  C   UNL d   1      -3.623  -2.779  -0.406  0.00  0.00     0.020 A 
ATOM      2  C1  UNL d   1      -3.662  -3.476   0.801  0.00  0.00     0.020 A 
ATOM      3  C2  UNL d   1      -2.484  -3.697   1.517  0.00  0.00     0.034 A 
ATOM      4  C3  UNL d   1      -1.262  -3.221   1.028  0.00  0.00     0.017 A 
ATOM      5  C4  UNL d   1      -1.224  -2.522  -0.184  0.00  0.00     0.017 A 
ATOM      6  C5  UNL d   1      -2.406  -2.303  -0.898  0.00  0.00     0.034 A 
ATOM      7 Cl   UNL d   1       0.246  -1.905  -0.852  0.00  0.00    -0.070 Cl
ATOM      8 Cl1  UNL d   1       0.155  -3.531   1.966  0.00  0.00    -0.070 Cl
ENDROOT
TORSDOF 0
ENDMDL
