MODEL 1
REMARK minimizedAffinity 10.3525152
REMARK minimizedRMSD -1
REMARK  0 active torsions:
REMARK  status: ('A' for Active; 'I' for Inactive)
ROOT
ATOM      1  C   UNL d   1      -5.980   1.664   5.999  0.00  0.00     0.020 A 
ATOM      2  C1  UNL d   1      -5.888   2.855   5.280  0.00  0.00     0.020 A 
ATOM      3  C2  UNL d   1      -4.752   3.120   4.511  0.00  0.00     0.034 A 
ATOM      4  C3  UNL d   1      -3.705   2.193   4.460  0.00  0.00     0.017 A 
ATOM      5  C4  UNL d   1      -3.799   0.998   5.182  0.00  0.00     0.017 A 
ATOM      6  C5  UNL d   1      -4.938   0.737   5.950  0.00  0.00     0.034 A 
ATOM      7 Cl   UNL d   1      -2.547  -0.194   5.168  0.00  0.00    -0.070 Cl
ATOM      8 Cl1  UNL d   1      -2.331   2.586   3.489  0.00  0.00    -0.070 Cl
ENDROOT
TORSDOF 0
ENDMDL
