MODEL 1
REMARK minimizedAffinity 9.19009495
REMARK minimizedRMSD -1
REMARK  0 active torsions:
REMARK  status: ('A' for Active; 'I' for Inactive)
ROOT
ATOM      1  C   UNL d   1       4.207  -5.350   5.298  0.00  0.00     0.020 A 
ATOM      2  C1  UNL d   1       5.459  -5.158   5.882  0.00  0.00     0.020 A 
ATOM      3  C2  UNL d   1       5.986  -3.870   5.995  0.00  0.00     0.034 A 
ATOM      4  C3  UNL d   1       5.261  -2.769   5.525  0.00  0.00     0.017 A 
ATOM      5  C4  UNL d   1       4.005  -2.963   4.940  0.00  0.00     0.017 A 
ATOM      6  C5  UNL d   1       3.482  -4.255   4.828  0.00  0.00     0.034 A 
ATOM      7 Cl   UNL d   1       3.051  -1.653   4.336  0.00  0.00    -0.070 Cl
ATOM      8 Cl1  UNL d   1       5.973  -1.204   5.699  0.00  0.00    -0.070 Cl
ENDROOT
TORSDOF 0
ENDMDL
