MODEL 1
REMARK minimizedAffinity 5.45841646
REMARK minimizedRMSD -1
REMARK  0 active torsions:
REMARK  status: ('A' for Active; 'I' for Inactive)
ROOT
ATOM      1  C   UNL d   1       4.407  -4.883  -5.997  0.00  0.00     0.020 A 
ATOM      2  C1  UNL d   1       5.657  -4.266  -5.999  0.00  0.00     0.020 A 
ATOM      3  C2  UNL d   1       5.849  -3.076  -5.293  0.00  0.00     0.034 A 
ATOM      4  C3  UNL d   1       4.790  -2.500  -4.583  0.00  0.00     0.017 A 
ATOM      5  C4  UNL d   1       3.535  -3.121  -4.582  0.00  0.00     0.017 A 
ATOM      6  C5  UNL d   1       3.348  -4.312  -5.290  0.00  0.00     0.034 A 
ATOM      7 Cl   UNL d   1       2.180  -2.470  -3.729  0.00  0.00    -0.070 Cl
ATOM      8 Cl1  UNL d   1       5.099  -1.029  -3.732  0.00  0.00    -0.070 Cl
ENDROOT
TORSDOF 0
ENDMDL
