MODEL 1
REMARK minimizedAffinity 11.9341669
REMARK minimizedRMSD -1
REMARK  0 active torsions:
REMARK  status: ('A' for Active; 'I' for Inactive)
ROOT
ATOM      1  C   UNL d   1       5.477  -4.619   5.997  0.00  0.00     0.020 A 
ATOM      2  C1  UNL d   1       4.106  -4.866   5.936  0.00  0.00     0.020 A 
ATOM      3  C2  UNL d   1       3.206  -3.800   5.877  0.00  0.00     0.034 A 
ATOM      4  C3  UNL d   1       3.676  -2.482   5.879  0.00  0.00     0.017 A 
ATOM      5  C4  UNL d   1       5.052  -2.234   5.940  0.00  0.00     0.017 A 
ATOM      6  C5  UNL d   1       5.948  -3.306   5.999  0.00  0.00     0.034 A 
ATOM      7 Cl   UNL d   1       5.707  -0.635   5.946  0.00  0.00    -0.070 Cl
ATOM      8 Cl1  UNL d   1       2.506  -1.212   5.804  0.00  0.00    -0.070 Cl
ENDROOT
TORSDOF 0
ENDMDL
