MODEL 1
REMARK minimizedAffinity 2.08095026
REMARK minimizedRMSD -1
REMARK  0 active torsions:
REMARK  status: ('A' for Active; 'I' for Inactive)
ROOT
ATOM      1  C   UNL d   1       5.679  -4.323  -5.986  0.00  0.00     0.020 A 
ATOM      2  C1  UNL d   1       4.370  -4.804  -6.000  0.00  0.00     0.020 A 
ATOM      3  C2  UNL d   1       3.380  -4.155  -5.258  0.00  0.00     0.034 A 
ATOM      4  C3  UNL d   1       3.698  -3.023  -4.500  0.00  0.00     0.017 A 
ATOM      5  C4  UNL d   1       5.012  -2.541  -4.487  0.00  0.00     0.017 A 
ATOM      6  C5  UNL d   1       5.999  -3.194  -5.231  0.00  0.00     0.034 A 
ATOM      7 Cl   UNL d   1       5.480  -1.149  -3.575  0.00  0.00    -0.070 Cl
ATOM      8 Cl1  UNL d   1       2.424  -2.271  -3.607  0.00  0.00    -0.070 Cl
ENDROOT
TORSDOF 0
ENDMDL
