MODEL 1
REMARK minimizedAffinity 8.25680065
REMARK minimizedRMSD -1
REMARK  0 active torsions:
REMARK  status: ('A' for Active; 'I' for Inactive)
ROOT
ATOM      1  C   UNL d   1       5.999  -4.028  -5.876  0.00  0.00     0.020 A 
ATOM      2  C1  UNL d   1       5.353  -2.799  -6.000  0.00  0.00     0.020 A 
ATOM      3  C2  UNL d   1       4.306  -2.470  -5.137  0.00  0.00     0.034 A 
ATOM      4  C3  UNL d   1       3.901  -3.372  -4.146  0.00  0.00     0.017 A 
ATOM      5  C4  UNL d   1       4.550  -4.606  -4.022  0.00  0.00     0.017 A 
ATOM      6  C5  UNL d   1       5.598  -4.930  -4.889  0.00  0.00     0.034 A 
ATOM      7 Cl   UNL d   1       4.107  -5.770  -2.824  0.00  0.00    -0.070 Cl
ATOM      8 Cl1  UNL d   1       2.598  -2.900  -3.113  0.00  0.00    -0.070 Cl
ENDROOT
TORSDOF 0
ENDMDL
