MODEL 1
REMARK minimizedAffinity -0.928082943
REMARK minimizedRMSD -1
REMARK  0 active torsions:
REMARK  status: ('A' for Active; 'I' for Inactive)
ROOT
ATOM      1  C   UNL d   1       5.397  -4.502   5.501  0.00  0.00     0.020 A 
ATOM      2  C1  UNL d   1       5.987  -4.187   4.277  0.00  0.00     0.020 A 
ATOM      3  C2  UNL d   1       5.536  -3.084   3.549  0.00  0.00     0.034 A 
ATOM      4  C3  UNL d   1       4.492  -2.293   4.043  0.00  0.00     0.017 A 
ATOM      5  C4  UNL d   1       3.901  -2.610   5.272  0.00  0.00     0.017 A 
ATOM      6  C5  UNL d   1       4.357  -3.716   5.997  0.00  0.00     0.034 A 
ATOM      7 Cl   UNL d   1       2.609  -1.682   5.946  0.00  0.00    -0.070 Cl
ATOM      8 Cl1  UNL d   1       3.985  -0.944   3.090  0.00  0.00    -0.070 Cl
ENDROOT
TORSDOF 0
ENDMDL
