MODEL 1
REMARK minimizedAffinity 14.1968002
REMARK minimizedRMSD -1
REMARK  0 active torsions:
REMARK  status: ('A' for Active; 'I' for Inactive)
ROOT
ATOM      1  C   UNL d   1      -2.903  -1.471   5.625  0.00  0.00     0.020 A 
ATOM      2  C1  UNL d   1      -3.023  -2.578   4.786  0.00  0.00     0.020 A 
ATOM      3  C2  UNL d   1      -2.761  -2.451   3.420  0.00  0.00     0.034 A 
ATOM      4  C3  UNL d   1      -2.379  -1.214   2.889  0.00  0.00     0.017 A 
ATOM      5  C4  UNL d   1      -2.259  -0.103   3.732  0.00  0.00     0.017 A 
ATOM      6  C5  UNL d   1      -2.522  -0.236   5.099  0.00  0.00     0.034 A 
ATOM      7 Cl   UNL d   1      -1.792   1.456   3.150  0.00  0.00    -0.070 Cl
ATOM      8 Cl1  UNL d   1      -2.070  -1.129   1.191  0.00  0.00    -0.070 Cl
ENDROOT
TORSDOF 0
ENDMDL
