MODEL 1
REMARK minimizedAffinity 2.95225382
REMARK minimizedRMSD -1
REMARK  0 active torsions:
REMARK  status: ('A' for Active; 'I' for Inactive)
ROOT
ATOM      1  C   UNL d   1       4.814  -4.109  -5.999  0.00  0.00     0.020 A 
ATOM      2  C1  UNL d   1       5.467  -4.920  -5.072  0.00  0.00     0.020 A 
ATOM      3  C2  UNL d   1       5.825  -4.406  -3.824  0.00  0.00     0.034 A 
ATOM      4  C3  UNL d   1       5.529  -3.077  -3.500  0.00  0.00     0.017 A 
ATOM      5  C4  UNL d   1       4.873  -2.264  -4.431  0.00  0.00     0.017 A 
ATOM      6  C5  UNL d   1       4.517  -2.784  -5.679  0.00  0.00     0.034 A 
ATOM      7 Cl   UNL d   1       4.474  -0.614  -4.102  0.00  0.00    -0.070 Cl
ATOM      8 Cl1  UNL d   1       6.000  -2.507  -1.938  0.00  0.00    -0.070 Cl
ENDROOT
TORSDOF 0
ENDMDL
