MODEL 1
REMARK minimizedAffinity 11.697999
REMARK minimizedRMSD -1
REMARK  0 active torsions:
REMARK  status: ('A' for Active; 'I' for Inactive)
ROOT
ATOM      1  C   UNL d   1       5.999  -3.510   5.916  0.00  0.00     0.020 A 
ATOM      2  C1  UNL d   1       5.786  -2.142   5.747  0.00  0.00     0.020 A 
ATOM      3  C2  UNL d   1       4.485  -1.644   5.653  0.00  0.00     0.034 A 
ATOM      4  C3  UNL d   1       3.391  -2.515   5.728  0.00  0.00     0.017 A 
ATOM      5  C4  UNL d   1       3.606  -3.887   5.897  0.00  0.00     0.017 A 
ATOM      6  C5  UNL d   1       4.911  -4.380   5.991  0.00  0.00     0.034 A 
ATOM      7 Cl   UNL d   1       2.306  -5.023   5.998  0.00  0.00    -0.070 Cl
ATOM      8 Cl1  UNL d   1       1.810  -1.830   5.604  0.00  0.00    -0.070 Cl
ENDROOT
TORSDOF 0
ENDMDL
