MODEL 1
REMARK minimizedAffinity 10.0900908
REMARK minimizedRMSD -1
REMARK  0 active torsions:
REMARK  status: ('A' for Active; 'I' for Inactive)
ROOT
ATOM      1  C   UNL d   1      -4.231   1.052   5.972  0.00  0.00     0.020 A 
ATOM      2  C1  UNL d   1      -5.470   0.414   5.988  0.00  0.00     0.020 A 
ATOM      3  C2  UNL d   1      -5.537  -0.981   5.995  0.00  0.00     0.034 A 
ATOM      4  C3  UNL d   1      -4.362  -1.742   5.986  0.00  0.00     0.017 A 
ATOM      5  C4  UNL d   1      -3.118  -1.100   5.970  0.00  0.00     0.017 A 
ATOM      6  C5  UNL d   1      -3.058   0.297   5.963  0.00  0.00     0.034 A 
ATOM      7 Cl   UNL d   1      -1.626  -1.970   5.959  0.00  0.00    -0.070 Cl
ATOM      8 Cl1  UNL d   1      -4.519  -3.463   5.997  0.00  0.00    -0.070 Cl
ENDROOT
TORSDOF 0
ENDMDL
