MODEL 1
REMARK minimizedAffinity 1.38688779
REMARK minimizedRMSD -1
REMARK  0 active torsions:
REMARK  status: ('A' for Active; 'I' for Inactive)
ROOT
ATOM      1  C   UNL d   1       4.820   6.000  -1.178  0.00  0.00     0.020 A 
ATOM      2  C1  UNL d   1       6.000   5.359  -1.554  0.00  0.00     0.020 A 
ATOM      3  C2  UNL d   1       5.997   4.461  -2.623  0.00  0.00     0.034 A 
ATOM      4  C3  UNL d   1       4.812   4.201  -3.321  0.00  0.00     0.017 A 
ATOM      5  C4  UNL d   1       3.628   4.845  -2.943  0.00  0.00     0.017 A 
ATOM      6  C5  UNL d   1       3.637   5.743  -1.872  0.00  0.00     0.034 A 
ATOM      7 Cl   UNL d   1       2.127   4.576  -3.756  0.00  0.00    -0.070 Cl
ATOM      8 Cl1  UNL d   1       4.881   3.080  -4.633  0.00  0.00    -0.070 Cl
ENDROOT
TORSDOF 0
ENDMDL
