MODEL 1
REMARK minimizedAffinity 3.85664034
REMARK minimizedRMSD -1
REMARK  0 active torsions:
REMARK  status: ('A' for Active; 'I' for Inactive)
ROOT
ATOM      1  C   UNL d   1       6.000   4.504  -2.127  0.00  0.00     0.020 A 
ATOM      2  C1  UNL d   1       5.224   5.568  -1.669  0.00  0.00     0.020 A 
ATOM      3  C2  UNL d   1       4.123   6.000  -2.411  0.00  0.00     0.034 A 
ATOM      4  C3  UNL d   1       3.793   5.367  -3.615  0.00  0.00     0.017 A 
ATOM      5  C4  UNL d   1       4.572   4.299  -4.075  0.00  0.00     0.017 A 
ATOM      6  C5  UNL d   1       5.674   3.871  -3.328  0.00  0.00     0.034 A 
ATOM      7 Cl   UNL d   1       4.228   3.469  -5.551  0.00  0.00    -0.070 Cl
ATOM      8 Cl1  UNL d   1       2.418   5.954  -4.481  0.00  0.00    -0.070 Cl
ENDROOT
TORSDOF 0
ENDMDL
