MODEL 1
REMARK minimizedAffinity 3.61403871
REMARK minimizedRMSD -1
REMARK  0 active torsions:
REMARK  status: ('A' for Active; 'I' for Inactive)
ROOT
ATOM      1  C   UNL d   1      -3.200  -2.929   0.254  0.00  0.00     0.020 A 
ATOM      2  C1  UNL d   1      -3.391  -2.938  -1.127  0.00  0.00     0.020 A 
ATOM      3  C2  UNL d   1      -2.300  -2.781  -1.984  0.00  0.00     0.034 A 
ATOM      4  C3  UNL d   1      -1.012  -2.614  -1.461  0.00  0.00     0.017 A 
ATOM      5  C4  UNL d   1      -0.821  -2.606  -0.074  0.00  0.00     0.017 A 
ATOM      6  C5  UNL d   1      -1.918  -2.763   0.779  0.00  0.00     0.034 A 
ATOM      7 Cl   UNL d   1       0.737  -2.405   0.646  0.00  0.00    -0.070 Cl
ATOM      8 Cl1  UNL d   1       0.291  -2.426  -2.579  0.00  0.00    -0.070 Cl
ENDROOT
TORSDOF 0
ENDMDL
