MODEL 1
REMARK minimizedAffinity -1.1835438
REMARK minimizedRMSD -1
REMARK  0 active torsions:
REMARK  status: ('A' for Active; 'I' for Inactive)
ROOT
ATOM      1  C   UNL d   1       1.036   0.319  -2.053  0.00  0.00     0.020 A 
ATOM      2  C1  UNL d   1       0.611   1.451  -1.359  0.00  0.00     0.020 A 
ATOM      3  C2  UNL d   1      -0.154   1.313  -0.200  0.00  0.00     0.034 A 
ATOM      4  C3  UNL d   1      -0.497   0.040   0.271  0.00  0.00     0.017 A 
ATOM      5  C4  UNL d   1      -0.069  -1.096  -0.426  0.00  0.00     0.017 A 
ATOM      6  C5  UNL d   1       0.697  -0.952  -1.587  0.00  0.00     0.034 A 
ATOM      7 Cl   UNL d   1      -0.452  -2.700   0.093  0.00  0.00    -0.070 Cl
ATOM      8 Cl1  UNL d   1      -1.445  -0.056   1.712  0.00  0.00    -0.070 Cl
ENDROOT
TORSDOF 0
ENDMDL
