MODEL 1
REMARK minimizedAffinity 5.87892628
REMARK minimizedRMSD -1
REMARK  0 active torsions:
REMARK  status: ('A' for Active; 'I' for Inactive)
ROOT
ATOM      1  C   UNL d   1      -3.950   5.227   4.354  0.00  0.00     0.020 A 
ATOM      2  C1  UNL d   1      -4.653   5.783   3.285  0.00  0.00     0.020 A 
ATOM      3  C2  UNL d   1      -4.010   6.000   2.065  0.00  0.00     0.034 A 
ATOM      4  C3  UNL d   1      -2.661   5.661   1.910  0.00  0.00     0.017 A 
ATOM      5  C4  UNL d   1      -1.957   5.103   2.983  0.00  0.00     0.017 A 
ATOM      6  C5  UNL d   1      -2.605   4.888   4.203  0.00  0.00     0.034 A 
ATOM      7 Cl   UNL d   1      -0.290   4.659   2.867  0.00  0.00    -0.070 Cl
ATOM      8 Cl1  UNL d   1      -1.930   5.956   0.372  0.00  0.00    -0.070 Cl
ENDROOT
TORSDOF 0
ENDMDL
