MODEL 1
REMARK minimizedAffinity -2.46418524
REMARK minimizedRMSD -1
REMARK  2 active torsions:
REMARK  status: ('A' for Active; 'I' for Inactive)
REMARK    1  A    between atoms: C1_2  and  C2_3 
REMARK    2  A    between atoms: C2_3  and  C3_4 
ROOT
ATOM      1  C3  UNL d   1       2.127   0.705   1.403  0.00  0.00    -0.075 A 
ATOM      2  C4  UNL d   1       1.203  -0.342   1.281  0.00  0.00     0.002 A 
ATOM      3  C5  UNL d   1       1.121  -1.333   2.260  0.00  0.00     0.002 A 
ATOM      4  C6  UNL d   1       1.967  -1.295   3.366  0.00  0.00    -0.004 A 
ATOM      5  C7  UNL d   1       2.900  -0.268   3.490  0.00  0.00     0.002 A 
ATOM      6  C8  UNL d   1       2.981   0.727   2.514  0.00  0.00     0.002 A 
ENDROOT
BRANCH   1   7
ATOM      7  C2  UNL d   1       2.201   1.797   0.362  0.00  0.00     0.056 C 
BRANCH   7   8
ATOM      8  C1  UNL d   1       0.965   2.701   0.318  0.00  0.00     0.007 C 
ATOM      9  C   UNL d   1       1.192   3.991  -0.458  0.00  0.00     0.009 C 
ENDBRANCH   7   8
ENDBRANCH   1   7
TORSDOF 2
ENDMDL
