MODEL 1
REMARK minimizedAffinity 6.91589928
REMARK minimizedRMSD -1
REMARK  2 active torsions:
REMARK  status: ('A' for Active; 'I' for Inactive)
REMARK    1  A    between atoms: C1_2  and  C2_3 
REMARK    2  A    between atoms: C2_3  and  C3_4 
ROOT
ATOM      1  C3  UNL d   1       2.141   0.850   1.679  0.00  0.00    -0.075 A 
ATOM      2  C4  UNL d   1       2.196   2.233   1.901  0.00  0.00     0.002 A 
ATOM      3  C5  UNL d   1       2.564   2.736   3.149  0.00  0.00     0.002 A 
ATOM      4  C6  UNL d   1       2.872   1.865   4.192  0.00  0.00    -0.004 A 
ATOM      5  C7  UNL d   1       2.804   0.489   3.987  0.00  0.00     0.002 A 
ATOM      6  C8  UNL d   1       2.441  -0.018   2.738  0.00  0.00     0.002 A 
ENDROOT
BRANCH   1   7
ATOM      7  C2  UNL d   1       1.772   0.299   0.322  0.00  0.00     0.056 C 
BRANCH   7   8
ATOM      8  C1  UNL d   1       0.263   0.170   0.091  0.00  0.00     0.007 C 
ATOM      9  C   UNL d   1      -0.211  -1.275   0.009  0.00  0.00     0.009 C 
ENDBRANCH   7   8
ENDBRANCH   1   7
TORSDOF 2
ENDMDL
