MODEL 1
REMARK minimizedAffinity 5.18078232
REMARK minimizedRMSD -1
REMARK  2 active torsions:
REMARK  status: ('A' for Active; 'I' for Inactive)
REMARK    1  A    between atoms: C1_2  and  C2_3 
REMARK    2  A    between atoms: C2_3  and  C3_4 
ROOT
ATOM      1  C3  UNL d   1       1.967   1.651   1.229  0.00  0.00    -0.075 A 
ATOM      2  C4  UNL d   1       2.270   0.324   1.566  0.00  0.00     0.002 A 
ATOM      3  C5  UNL d   1       2.748   0.008   2.839  0.00  0.00     0.002 A 
ATOM      4  C6  UNL d   1       2.938   1.013   3.784  0.00  0.00    -0.004 A 
ATOM      5  C7  UNL d   1       2.656   2.337   3.454  0.00  0.00     0.002 A 
ATOM      6  C8  UNL d   1       2.174   2.655   2.184  0.00  0.00     0.002 A 
ENDROOT
BRANCH   1   7
ATOM      7  C2  UNL d   1       1.421   1.995  -0.136  0.00  0.00     0.056 C 
BRANCH   7   8
ATOM      8  C1  UNL d   1      -0.052   2.415  -0.131  0.00  0.00     0.007 C 
ATOM      9  C   UNL d   1      -0.255   3.891   0.183  0.00  0.00     0.009 C 
ENDBRANCH   7   8
ENDBRANCH   1   7
TORSDOF 2
ENDMDL
