MODEL 1
REMARK minimizedAffinity 8.54232502
REMARK minimizedRMSD -1
REMARK  2 active torsions:
REMARK  status: ('A' for Active; 'I' for Inactive)
REMARK    1  A    between atoms: C1_2  and  C2_3 
REMARK    2  A    between atoms: C2_3  and  C3_4 
ROOT
ATOM      1  C3  UNL d   1      -3.957   3.191  -0.634  0.00  0.00    -0.075 A 
ATOM      2  C4  UNL d   1      -3.494   2.763   0.619  0.00  0.00     0.002 A 
ATOM      3  C5  UNL d   1      -4.274   2.941   1.762  0.00  0.00     0.002 A 
ATOM      4  C6  UNL d   1      -5.520   3.557   1.669  0.00  0.00    -0.004 A 
ATOM      5  C7  UNL d   1      -5.984   4.001   0.432  0.00  0.00     0.002 A 
ATOM      6  C8  UNL d   1      -5.207   3.820  -0.714  0.00  0.00     0.002 A 
ENDROOT
BRANCH   1   7
ATOM      7  C2  UNL d   1      -3.130   2.974  -1.878  0.00  0.00     0.056 C 
BRANCH   7   8
ATOM      8  C1  UNL d   1      -3.889   2.289  -3.020  0.00  0.00     0.007 C 
ATOM      9  C   UNL d   1      -3.365   0.895  -3.337  0.00  0.00     0.009 C 
ENDBRANCH   7   8
ENDBRANCH   1   7
TORSDOF 2
ENDMDL
