MODEL 1
REMARK minimizedAffinity 2.747648
REMARK minimizedRMSD -1
REMARK  2 active torsions:
REMARK  status: ('A' for Active; 'I' for Inactive)
REMARK    1  A    between atoms: C1_2  and  C2_3 
REMARK    2  A    between atoms: C2_3  and  C3_4 
ROOT
ATOM      1  C3  UNL d   1      -2.749  -2.383  -2.760  0.00  0.00    -0.075 A 
ATOM      2  C4  UNL d   1      -3.183  -2.875  -1.520  0.00  0.00     0.002 A 
ATOM      3  C5  UNL d   1      -2.472  -3.885  -0.871  0.00  0.00     0.002 A 
ATOM      4  C6  UNL d   1      -1.328  -4.422  -1.456  0.00  0.00    -0.004 A 
ATOM      5  C7  UNL d   1      -0.898  -3.954  -2.696  0.00  0.00     0.002 A 
ATOM      6  C8  UNL d   1      -1.604  -2.940  -3.346  0.00  0.00     0.002 A 
ENDROOT
BRANCH   1   7
ATOM      7  C2  UNL d   1      -3.497  -1.270  -3.455  0.00  0.00     0.056 C 
BRANCH   7   8
ATOM      8  C1  UNL d   1      -2.626  -0.060  -3.809  0.00  0.00     0.007 C 
ATOM      9  C   UNL d   1      -2.972   1.185  -3.004  0.00  0.00     0.009 C 
ENDBRANCH   7   8
ENDBRANCH   1   7
TORSDOF 2
ENDMDL
