MODEL 1
REMARK minimizedAffinity 2.85299468
REMARK minimizedRMSD -1
REMARK  2 active torsions:
REMARK  status: ('A' for Active; 'I' for Inactive)
REMARK    1  A    between atoms: C1_2  and  C2_3 
REMARK    2  A    between atoms: C2_3  and  C3_4 
ROOT
ATOM      1  C3  UNL d   1       1.548   1.126   1.094  0.00  0.00    -0.075 A 
ATOM      2  C4  UNL d   1       1.429   2.516   0.947  0.00  0.00     0.002 A 
ATOM      3  C5  UNL d   1       0.349   3.065   0.254  0.00  0.00     0.002 A 
ATOM      4  C6  UNL d   1      -0.617   2.234  -0.308  0.00  0.00    -0.004 A 
ATOM      5  C7  UNL d   1      -0.500   0.851  -0.182  0.00  0.00     0.002 A 
ATOM      6  C8  UNL d   1       0.577   0.299   0.514  0.00  0.00     0.002 A 
ENDROOT
BRANCH   1   7
ATOM      7  C2  UNL d   1       2.698   0.527   1.867  0.00  0.00     0.056 C 
BRANCH   7   8
ATOM      8  C1  UNL d   1       2.498   0.532   3.386  0.00  0.00     0.007 C 
ATOM      9  C   UNL d   1       2.530  -0.861   4.001  0.00  0.00     0.009 C 
ENDBRANCH   7   8
ENDBRANCH   1   7
TORSDOF 2
ENDMDL
