MODEL 1
REMARK minimizedAffinity 10.0231209
REMARK minimizedRMSD -1
REMARK  2 active torsions:
REMARK  status: ('A' for Active; 'I' for Inactive)
REMARK    1  A    between atoms: C1_2  and  C2_3 
REMARK    2  A    between atoms: C2_3  and  C3_4 
ROOT
ATOM      1  C3  UNL d   1      -0.054  -2.267   0.177  0.00  0.00    -0.075 A 
ATOM      2  C4  UNL d   1       0.611  -3.298  -0.502  0.00  0.00     0.002 A 
ATOM      3  C5  UNL d   1       0.005  -3.942  -1.581  0.00  0.00     0.002 A 
ATOM      4  C6  UNL d   1      -1.274  -3.572  -1.988  0.00  0.00    -0.004 A 
ATOM      5  C7  UNL d   1      -1.951  -2.560  -1.310  0.00  0.00     0.002 A 
ATOM      6  C8  UNL d   1      -1.346  -1.910  -0.233  0.00  0.00     0.002 A 
ENDROOT
BRANCH   1   7
ATOM      7  C2  UNL d   1       0.608  -1.546   1.327  0.00  0.00     0.056 C 
BRANCH   7   8
ATOM      8  C1  UNL d   1       1.176  -0.172   0.957  0.00  0.00     0.007 C 
ATOM      9  C   UNL d   1       2.112   0.396   2.016  0.00  0.00     0.009 C 
ENDBRANCH   7   8
ENDBRANCH   1   7
TORSDOF 2
ENDMDL
