MODEL 1
REMARK minimizedAffinity 6.8571496
REMARK minimizedRMSD -1
REMARK  1 active torsions:
REMARK  status: ('A' for Active; 'I' for Inactive)
REMARK    1  A    between atoms: C1_2  and  C2_3 
ROOT
ATOM      1  C2  UNL d   1       5.235   1.366  -5.225  0.00  0.00    -0.081 A 
ATOM      2  C3  UNL d   1       5.994   2.308  -4.519  0.00  0.00     0.006 A 
ATOM      3  C4  UNL d   1       5.614   3.652  -4.498  0.00  0.00     0.002 A 
ATOM      4  C5  UNL d   1       4.465   4.075  -5.175  0.00  0.00    -0.080 A 
ATOM      5  C6  UNL d   1       4.029   5.509  -5.136  0.00  0.00     0.076 C 
ATOM      6  C7  UNL d   1       3.716   3.137  -5.894  0.00  0.00     0.002 A 
ATOM      7  C8  UNL d   1       4.096   1.794  -5.916  0.00  0.00     0.006 A 
ENDROOT
BRANCH   1   8
ATOM      8  C1  UNL d   1       5.606  -0.095  -5.196  0.00  0.00     0.054 C 
ATOM      9  C   UNL d   1       5.425  -0.684  -3.804  0.00  0.00     0.018 C 
ENDBRANCH   1   8
TORSDOF 1
ENDMDL
