MODEL 1
REMARK minimizedAffinity 5.59906101
REMARK minimizedRMSD -1
REMARK  1 active torsions:
REMARK  status: ('A' for Active; 'I' for Inactive)
REMARK    1  A    between atoms: C1_2  and  C2_3 
ROOT
ATOM      1  C2  UNL d   1       4.345   2.059  -2.396  0.00  0.00    -0.081 A 
ATOM      2  C3  UNL d   1       4.143   2.684  -3.633  0.00  0.00     0.006 A 
ATOM      3  C4  UNL d   1       4.684   2.138  -4.799  0.00  0.00     0.002 A 
ATOM      4  C5  UNL d   1       5.429   0.954  -4.750  0.00  0.00    -0.080 A 
ATOM      5  C6  UNL d   1       5.989   0.341  -5.998  0.00  0.00     0.076 C 
ATOM      6  C7  UNL d   1       5.646   0.340  -3.512  0.00  0.00     0.002 A 
ATOM      7  C8  UNL d   1       5.106   0.886  -2.345  0.00  0.00     0.006 A 
ENDROOT
BRANCH   1   8
ATOM      8  C1  UNL d   1       3.709   2.610  -1.146  0.00  0.00     0.054 C 
ATOM      9  C   UNL d   1       3.408   1.504  -0.144  0.00  0.00     0.018 C 
ENDBRANCH   1   8
TORSDOF 1
ENDMDL
