MODEL 1
REMARK minimizedAffinity 4.30053139
REMARK minimizedRMSD -1
REMARK  1 active torsions:
REMARK  status: ('A' for Active; 'I' for Inactive)
REMARK    1  A    between atoms: C1_2  and  C2_3 
ROOT
ATOM      1  C2  UNL d   1       5.190   0.987  -4.990  0.00  0.00    -0.081 A 
ATOM      2  C3  UNL d   1       5.974   2.140  -4.866  0.00  0.00     0.006 A 
ATOM      3  C4  UNL d   1       5.449   3.393  -5.192  0.00  0.00     0.002 A 
ATOM      4  C5  UNL d   1       4.129   3.514  -5.639  0.00  0.00    -0.080 A 
ATOM      5  C6  UNL d   1       3.543   4.856  -5.963  0.00  0.00     0.076 C 
ATOM      6  C7  UNL d   1       3.350   2.361  -5.779  0.00  0.00     0.002 A 
ATOM      7  C8  UNL d   1       3.875   1.108  -5.454  0.00  0.00     0.006 A 
ENDROOT
BRANCH   1   8
ATOM      8  C1  UNL d   1       5.733  -0.357  -4.578  0.00  0.00     0.054 C 
ATOM      9  C   UNL d   1       5.744  -0.509  -3.064  0.00  0.00     0.018 C 
ENDBRANCH   1   8
TORSDOF 1
ENDMDL
