MODEL 1
REMARK minimizedAffinity -0.861349881
REMARK minimizedRMSD -1
REMARK  1 active torsions:
REMARK  status: ('A' for Active; 'I' for Inactive)
REMARK    1  A    between atoms: C1_2  and  C2_3 
ROOT
ATOM      1  C2  UNL d   1       3.570   2.800   1.743  0.00  0.00    -0.081 A 
ATOM      2  C3  UNL d   1       3.590   3.823   0.788  0.00  0.00     0.006 A 
ATOM      3  C4  UNL d   1       2.531   3.975  -0.110  0.00  0.00     0.002 A 
ATOM      4  C5  UNL d   1       1.431   3.111  -0.063  0.00  0.00    -0.080 A 
ATOM      5  C6  UNL d   1       0.274   3.282  -1.002  0.00  0.00     0.076 C 
ATOM      6  C7  UNL d   1       1.419   2.078   0.880  0.00  0.00     0.002 A 
ATOM      7  C8  UNL d   1       2.478   1.925   1.778  0.00  0.00     0.006 A 
ENDROOT
BRANCH   1   8
ATOM      8  C1  UNL d   1       4.680   2.673   2.755  0.00  0.00     0.054 C 
ATOM      9  C   UNL d   1       4.156   2.164   4.090  0.00  0.00     0.018 C 
ENDBRANCH   1   8
TORSDOF 1
ENDMDL
