MODEL 1
REMARK minimizedAffinity -1.04471409
REMARK minimizedRMSD -1
REMARK  1 active torsions:
REMARK  status: ('A' for Active; 'I' for Inactive)
REMARK    1  A    between atoms: C1_2  and  C2_3 
ROOT
ATOM      1  C2  UNL d   1      -1.573  -4.146   0.283  0.00  0.00    -0.081 A 
ATOM      2  C3  UNL d   1      -1.277  -5.395   0.844  0.00  0.00     0.006 A 
ATOM      3  C4  UNL d   1      -1.227  -5.555   2.230  0.00  0.00     0.002 A 
ATOM      4  C5  UNL d   1      -1.480  -4.472   3.079  0.00  0.00    -0.080 A 
ATOM      5  C6  UNL d   1      -1.460  -4.637   4.570  0.00  0.00     0.076 C 
ATOM      6  C7  UNL d   1      -1.758  -3.220   2.520  0.00  0.00     0.002 A 
ATOM      7  C8  UNL d   1      -1.807  -3.060   1.133  0.00  0.00     0.006 A 
ENDROOT
BRANCH   1   8
ATOM      8  C1  UNL d   1      -1.691  -3.985  -1.211  0.00  0.00     0.054 C 
ATOM      9  C   UNL d   1      -0.567  -3.119  -1.764  0.00  0.00     0.018 C 
ENDBRANCH   1   8
TORSDOF 1
ENDMDL
