MODEL 1
REMARK minimizedAffinity 0.722752273
REMARK minimizedRMSD -1
REMARK  1 active torsions:
REMARK  status: ('A' for Active; 'I' for Inactive)
REMARK    1  A    between atoms: C1_2  and  C2_3 
ROOT
ATOM      1  C2  UNL d   1       3.931   3.158   2.340  0.00  0.00    -0.081 A 
ATOM      2  C3  UNL d   1       3.814   3.779   1.091  0.00  0.00     0.006 A 
ATOM      3  C4  UNL d   1       2.785   3.421   0.216  0.00  0.00     0.002 A 
ATOM      4  C5  UNL d   1       1.853   2.443   0.579  0.00  0.00    -0.080 A 
ATOM      5  C6  UNL d   1       0.726   2.071  -0.338  0.00  0.00     0.076 C 
ATOM      6  C7  UNL d   1       1.981   1.810   1.820  0.00  0.00     0.002 A 
ATOM      7  C8  UNL d   1       3.009   2.167   2.695  0.00  0.00     0.006 A 
ENDROOT
BRANCH   1   8
ATOM      8  C1  UNL d   1       5.001   3.587   3.312  0.00  0.00     0.054 C 
ATOM      9  C   UNL d   1       4.723   3.056   4.711  0.00  0.00     0.018 C 
ENDBRANCH   1   8
TORSDOF 1
ENDMDL
