MODEL 1
REMARK minimizedAffinity 1.99444366
REMARK minimizedRMSD -1
REMARK  1 active torsions:
REMARK  status: ('A' for Active; 'I' for Inactive)
REMARK    1  A    between atoms: C1_2  and  C2_3 
ROOT
ATOM      1  C2  UNL d   1       3.348   3.102   1.127  0.00  0.00    -0.081 A 
ATOM      2  C3  UNL d   1       2.923   2.118   2.028  0.00  0.00     0.006 A 
ATOM      3  C4  UNL d   1       3.466   2.052   3.313  0.00  0.00     0.002 A 
ATOM      4  C5  UNL d   1       4.437   2.974   3.722  0.00  0.00    -0.080 A 
ATOM      5  C6  UNL d   1       5.006   2.933   5.109  0.00  0.00     0.076 C 
ATOM      6  C7  UNL d   1       4.874   3.946   2.816  0.00  0.00     0.002 A 
ATOM      7  C8  UNL d   1       4.332   4.012   1.530  0.00  0.00     0.006 A 
ENDROOT
BRANCH   1   8
ATOM      8  C1  UNL d   1       2.718   3.216  -0.238  0.00  0.00     0.054 C 
ATOM      9  C   UNL d   1       1.235   2.877  -0.192  0.00  0.00     0.018 C 
ENDBRANCH   1   8
TORSDOF 1
ENDMDL
