MODEL 1
REMARK minimizedAffinity 1.8101505
REMARK minimizedRMSD -1
REMARK  1 active torsions:
REMARK  status: ('A' for Active; 'I' for Inactive)
REMARK    1  A    between atoms: C1_2  and  C2_3 
ROOT
ATOM      1  C2  UNL d   1       1.532   1.920   1.425  0.00  0.00    -0.081 A 
ATOM      2  C3  UNL d   1       2.280   1.673   2.582  0.00  0.00     0.006 A 
ATOM      3  C4  UNL d   1       3.482   2.349   2.806  0.00  0.00     0.002 A 
ATOM      4  C5  UNL d   1       3.950   3.290   1.883  0.00  0.00    -0.080 A 
ATOM      5  C6  UNL d   1       5.222   4.046   2.127  0.00  0.00     0.076 C 
ATOM      6  C7  UNL d   1       3.211   3.525   0.718  0.00  0.00     0.002 A 
ATOM      7  C8  UNL d   1       2.010   2.848   0.493  0.00  0.00     0.006 A 
ENDROOT
BRANCH   1   8
ATOM      8  C1  UNL d   1       0.204   1.240   1.211  0.00  0.00     0.054 C 
ATOM      9  C   UNL d   1      -0.908   1.943   1.976  0.00  0.00     0.018 C 
ENDBRANCH   1   8
TORSDOF 1
ENDMDL
