MODEL 1
REMARK minimizedAffinity 5.90409517
REMARK minimizedRMSD -1
REMARK  1 active torsions:
REMARK  status: ('A' for Active; 'I' for Inactive)
REMARK    1  A    between atoms: C1_2  and  C2_3 
ROOT
ATOM      1  C2  UNL d   1      -1.605  -3.303   1.733  0.00  0.00    -0.081 A 
ATOM      2  C3  UNL d   1      -2.061  -4.266   0.825  0.00  0.00     0.006 A 
ATOM      3  C4  UNL d   1      -1.693  -4.201  -0.521  0.00  0.00     0.002 A 
ATOM      4  C5  UNL d   1      -0.856  -3.178  -0.979  0.00  0.00    -0.080 A 
ATOM      5  C6  UNL d   1      -0.429  -3.114  -2.416  0.00  0.00     0.076 C 
ATOM      6  C7  UNL d   1      -0.414  -2.206  -0.075  0.00  0.00     0.002 A 
ATOM      7  C8  UNL d   1      -0.783  -2.270   1.270  0.00  0.00     0.006 A 
ENDROOT
BRANCH   1   8
ATOM      8  C1  UNL d   1      -1.947  -3.407   3.197  0.00  0.00     0.054 C 
ATOM      9  C   UNL d   1      -2.269  -4.842   3.590  0.00  0.00     0.018 C 
ENDBRANCH   1   8
TORSDOF 1
ENDMDL
