MODEL 1
REMARK minimizedAffinity 0.189659968
REMARK minimizedRMSD -1
REMARK  1 active torsions:
REMARK  status: ('A' for Active; 'I' for Inactive)
REMARK    1  A    between atoms: C1_2  and  C2_3 
ROOT
ATOM      1  C2  UNL d   1       4.374   2.869   3.197  0.00  0.00    -0.081 A 
ATOM      2  C3  UNL d   1       4.464   3.896   2.250  0.00  0.00     0.006 A 
ATOM      3  C4  UNL d   1       3.627   3.904   1.132  0.00  0.00     0.002 A 
ATOM      4  C5  UNL d   1       2.680   2.891   0.947  0.00  0.00    -0.080 A 
ATOM      5  C6  UNL d   1       1.755   2.904  -0.234  0.00  0.00     0.076 C 
ATOM      6  C7  UNL d   1       2.601   1.855   1.884  0.00  0.00     0.002 A 
ATOM      7  C8  UNL d   1       3.439   1.846   3.001  0.00  0.00     0.006 A 
ENDROOT
BRANCH   1   8
ATOM      8  C1  UNL d   1       5.231   2.892   4.437  0.00  0.00     0.054 C 
ATOM      9  C   UNL d   1       5.999   1.588   4.602  0.00  0.00     0.018 C 
ENDBRANCH   1   8
TORSDOF 1
ENDMDL
