MODEL 1
REMARK minimizedAffinity -0.46278125
REMARK minimizedRMSD -1
REMARK  1 active torsions:
REMARK  status: ('A' for Active; 'I' for Inactive)
REMARK    1  A    between atoms: C1_2  and  C2_3 
ROOT
ATOM      1  C2  UNL d   1       3.345   2.662   1.537  0.00  0.00    -0.081 A 
ATOM      2  C3  UNL d   1       3.012   3.573   0.527  0.00  0.00     0.006 A 
ATOM      3  C4  UNL d   1       1.685   3.725   0.120  0.00  0.00     0.002 A 
ATOM      4  C5  UNL d   1       0.668   2.976   0.720  0.00  0.00    -0.080 A 
ATOM      5  C6  UNL d   1      -0.765   3.151   0.314  0.00  0.00     0.076 C 
ATOM      6  C7  UNL d   1       1.002   2.053   1.717  0.00  0.00     0.002 A 
ATOM      7  C8  UNL d   1       2.329   1.899   2.124  0.00  0.00     0.006 A 
ENDROOT
BRANCH   1   8
ATOM      8  C1  UNL d   1       4.767   2.542   2.023  0.00  0.00     0.054 C 
ATOM      9  C   UNL d   1       5.210   3.801   2.754  0.00  0.00     0.018 C 
ENDBRANCH   1   8
TORSDOF 1
ENDMDL
