MODEL 1
REMARK minimizedAffinity 0.659341991
REMARK minimizedRMSD -1
REMARK  1 active torsions:
REMARK  status: ('A' for Active; 'I' for Inactive)
REMARK    1  A    between atoms: C1_2  and  C2_3 
ROOT
ATOM      1  C2  UNL d   1      -0.425   2.517   1.928  0.00  0.00    -0.081 A 
ATOM      2  C3  UNL d   1       0.715   2.967   2.606  0.00  0.00     0.006 A 
ATOM      3  C4  UNL d   1       0.596   3.620   3.835  0.00  0.00     0.002 A 
ATOM      4  C5  UNL d   1      -0.663   3.827   4.410  0.00  0.00    -0.080 A 
ATOM      5  C6  UNL d   1      -0.802   4.500   5.743  0.00  0.00     0.076 C 
ATOM      6  C7  UNL d   1      -1.802   3.393   3.725  0.00  0.00     0.002 A 
ATOM      7  C8  UNL d   1      -1.684   2.740   2.496  0.00  0.00     0.006 A 
ENDROOT
BRANCH   1   8
ATOM      8  C1  UNL d   1      -0.295   1.754   0.634  0.00  0.00     0.054 C 
ATOM      9  C   UNL d   1      -1.542   0.929   0.352  0.00  0.00     0.018 C 
ENDBRANCH   1   8
TORSDOF 1
ENDMDL
