MODEL 1
REMARK minimizedAffinity -4.54593229
REMARK minimizedRMSD -1
REMARK  1 active torsions:
REMARK  status: ('A' for Active; 'I' for Inactive)
REMARK    1  A    between atoms: C1_2  and  C2_3 
ROOT
ATOM      1  C2  UNL d   1       0.771  -0.275  -0.650  0.00  0.00    -0.081 A 
ATOM      2  C3  UNL d   1       1.264  -0.831  -1.837  0.00  0.00     0.006 A 
ATOM      3  C4  UNL d   1       0.560  -1.847  -2.489  0.00  0.00     0.002 A 
ATOM      4  C5  UNL d   1      -0.650  -2.318  -1.969  0.00  0.00    -0.080 A 
ATOM      5  C6  UNL d   1      -1.431  -3.386  -2.675  0.00  0.00     0.076 C 
ATOM      6  C7  UNL d   1      -1.134  -1.774  -0.774  0.00  0.00     0.002 A 
ATOM      7  C8  UNL d   1      -0.430  -0.759  -0.122  0.00  0.00     0.006 A 
ENDROOT
BRANCH   1   8
ATOM      8  C1  UNL d   1       1.495   0.865   0.021  0.00  0.00     0.054 C 
ATOM      9  C   UNL d   1       0.685   2.152  -0.051  0.00  0.00     0.018 C 
ENDBRANCH   1   8
TORSDOF 1
ENDMDL
