MODEL 1
REMARK minimizedAffinity -4.23392248
REMARK minimizedRMSD -1
REMARK  0 active torsions:
REMARK  status: ('A' for Active; 'I' for Inactive)
ROOT
ATOM      1  C1  BNZ d   1       0.191   0.391   0.340  0.00  0.00     0.000 A 
ATOM      2  C2  BNZ d   1       0.378  -0.542   1.324  0.00  0.00     0.000 A 
ATOM      3  C3  BNZ d   1       1.086  -1.686   1.079  0.00  0.00     0.000 A 
ATOM      4  C4  BNZ d   1       1.570  -1.913  -0.159  0.00  0.00     0.000 A 
ATOM      5  C5  BNZ d   1       1.382  -0.986  -1.164  0.00  0.00     0.000 A 
ATOM      6  C6  BNZ d   1       0.702   0.181  -0.904  0.00  0.00     0.000 A 
ENDROOT
TORSDOF 0
ENDMDL
