MODEL 1
REMARK minimizedAffinity -3.54646111
REMARK minimizedRMSD -1
REMARK  0 active torsions:
REMARK  status: ('A' for Active; 'I' for Inactive)
ROOT
ATOM      1  C1  BNZ d   1       1.317  -2.171   0.881  0.00  0.00     0.000 A 
ATOM      2  C2  BNZ d   1       0.088  -1.646   1.183  0.00  0.00     0.000 A 
ATOM      3  C3  BNZ d   1      -0.321  -0.463   0.635  0.00  0.00     0.000 A 
ATOM      4  C4  BNZ d   1       0.513   0.214  -0.181  0.00  0.00     0.000 A 
ATOM      5  C5  BNZ d   1       1.758  -0.297  -0.487  0.00  0.00     0.000 A 
ATOM      6  C6  BNZ d   1       2.152  -1.508   0.035  0.00  0.00     0.000 A 
ENDROOT
TORSDOF 0
ENDMDL
