MODEL 1
REMARK minimizedAffinity -2.7292769
REMARK minimizedRMSD -1
REMARK  0 active torsions:
REMARK  status: ('A' for Active; 'I' for Inactive)
ROOT
ATOM      1  C1  BNZ d   1       1.359  -0.765   0.389  0.00  0.00     0.000 A 
ATOM      2  C2  BNZ d   1       0.433  -1.211   1.294  0.00  0.00     0.000 A 
ATOM      3  C3  BNZ d   1      -0.738  -0.533   1.490  0.00  0.00     0.000 A 
ATOM      4  C4  BNZ d   1      -0.963   0.610   0.810  0.00  0.00     0.000 A 
ATOM      5  C5  BNZ d   1      -0.035   1.077  -0.099  0.00  0.00     0.000 A 
ATOM      6  C6  BNZ d   1       1.125   0.371  -0.322  0.00  0.00     0.000 A 
ENDROOT
TORSDOF 0
ENDMDL
