MODEL 1
REMARK minimizedAffinity -4.20753908
REMARK minimizedRMSD -1
REMARK  0 active torsions:
REMARK  status: ('A' for Active; 'I' for Inactive)
ROOT
ATOM      1  C1  BNZ d   1      -1.908   1.139  -3.024  0.00  0.00     0.000 A 
ATOM      2  C2  BNZ d   1      -1.659   0.304  -1.967  0.00  0.00     0.000 A 
ATOM      3  C3  BNZ d   1      -1.078   0.776  -0.823  0.00  0.00     0.000 A 
ATOM      4  C4  BNZ d   1      -0.712   2.072  -0.752  0.00  0.00     0.000 A 
ATOM      5  C5  BNZ d   1      -0.948   2.925  -1.812  0.00  0.00     0.000 A 
ATOM      6  C6  BNZ d   1      -1.568   2.455  -2.947  0.00  0.00     0.000 A 
ENDROOT
TORSDOF 0
ENDMDL
