MODEL 1
REMARK minimizedAffinity -1.84427691
REMARK minimizedRMSD -1
REMARK  0 active torsions:
REMARK  status: ('A' for Active; 'I' for Inactive)
ROOT
ATOM      1  C1  BNZ d   1       1.374  -2.113   0.774  0.00  0.00     0.000 A 
ATOM      2  C2  BNZ d   1       0.124  -2.254   1.317  0.00  0.00     0.000 A 
ATOM      3  C3  BNZ d   1      -0.856  -1.335   1.066  0.00  0.00     0.000 A 
ATOM      4  C4  BNZ d   1      -0.576  -0.257   0.306  0.00  0.00     0.000 A 
ATOM      5  C5  BNZ d   1       0.682  -0.096  -0.241  0.00  0.00     0.000 A 
ATOM      6  C6  BNZ d   1       1.655  -1.042  -0.018  0.00  0.00     0.000 A 
ENDROOT
TORSDOF 0
ENDMDL
