MODEL 1
REMARK minimizedAffinity -4.08097363
REMARK minimizedRMSD -1
REMARK  0 active torsions:
REMARK  status: ('A' for Active; 'I' for Inactive)
ROOT
ATOM      1  C1  BNZ d   1       0.166   1.428  -0.350  0.00  0.00     0.000 A 
ATOM      2  C2  BNZ d   1       0.794   0.212  -0.403  0.00  0.00     0.000 A 
ATOM      3  C3  BNZ d   1       0.253  -0.882   0.212  0.00  0.00     0.000 A 
ATOM      4  C4  BNZ d   1      -0.892  -0.751   0.912  0.00  0.00     0.000 A 
ATOM      5  C5  BNZ d   1      -1.532   0.470   0.983  0.00  0.00     0.000 A 
ATOM      6  C6  BNZ d   1      -1.005   1.561   0.330  0.00  0.00     0.000 A 
ENDROOT
TORSDOF 0
ENDMDL
