MODEL 1
REMARK minimizedAffinity -2.73150301
REMARK minimizedRMSD -1
REMARK  0 active torsions:
REMARK  status: ('A' for Active; 'I' for Inactive)
ROOT
ATOM      1  C1  BNZ d   1       2.287  -2.120   0.848  0.00  0.00     0.000 A 
ATOM      2  C2  BNZ d   1       2.236  -0.766   0.652  0.00  0.00     0.000 A 
ATOM      3  C3  BNZ d   1       1.263  -0.208  -0.128  0.00  0.00     0.000 A 
ATOM      4  C4  BNZ d   1       0.367  -1.006  -0.743  0.00  0.00     0.000 A 
ATOM      5  C5  BNZ d   1       0.411  -2.374  -0.563  0.00  0.00     0.000 A 
ATOM      6  C6  BNZ d   1       1.368  -2.930   0.254  0.00  0.00     0.000 A 
ENDROOT
TORSDOF 0
ENDMDL
