MODEL 1
REMARK minimizedAffinity -4.4438777
REMARK minimizedRMSD -1
REMARK  0 active torsions:
REMARK  status: ('A' for Active; 'I' for Inactive)
ROOT
ATOM      1  C1  BNZ d   1      -0.678  -1.141   0.085  0.00  0.00     0.000 A 
ATOM      2  C2  BNZ d   1       0.168  -2.160   0.431  0.00  0.00     0.000 A 
ATOM      3  C3  BNZ d   1       1.522  -2.018   0.309  0.00  0.00     0.000 A 
ATOM      4  C4  BNZ d   1       2.025  -0.873  -0.197  0.00  0.00     0.000 A 
ATOM      5  C5  BNZ d   1       1.184   0.160  -0.559  0.00  0.00     0.000 A 
ATOM      6  C6  BNZ d   1      -0.176   0.028  -0.398  0.00  0.00     0.000 A 
ENDROOT
TORSDOF 0
ENDMDL
