MODEL 1
REMARK minimizedAffinity -4.69084406
REMARK minimizedRMSD -1
REMARK  0 active torsions:
REMARK  status: ('A' for Active; 'I' for Inactive)
ROOT
ATOM      1  C1  BNZ d   1      -0.793  -1.829   1.111  0.00  0.00     0.000 A 
ATOM      2  C2  BNZ d   1       0.351  -2.580   1.079  0.00  0.00     0.000 A 
ATOM      3  C3  BNZ d   1       1.547  -2.019   0.728  0.00  0.00     0.000 A 
ATOM      4  C4  BNZ d   1       1.590  -0.719   0.372  0.00  0.00     0.000 A 
ATOM      5  C5  BNZ d   1       0.443   0.050   0.391  0.00  0.00     0.000 A 
ATOM      6  C6  BNZ d   1      -0.752  -0.509   0.782  0.00  0.00     0.000 A 
ENDROOT
TORSDOF 0
ENDMDL
