MODEL 1
REMARK minimizedAffinity -4.27293634
REMARK minimizedRMSD -1
REMARK  0 active torsions:
REMARK  status: ('A' for Active; 'I' for Inactive)
ROOT
ATOM      1  C1  BNZ d   1       1.393  -0.053  -0.303  0.00  0.00     0.000 A 
ATOM      2  C2  BNZ d   1       1.659  -1.230   0.345  0.00  0.00     0.000 A 
ATOM      3  C3  BNZ d   1       0.686  -1.869   1.061  0.00  0.00     0.000 A 
ATOM      4  C4  BNZ d   1      -0.538  -1.313   1.162  0.00  0.00     0.000 A 
ATOM      5  C5  BNZ d   1      -0.819  -0.122   0.522  0.00  0.00     0.000 A 
ATOM      6  C6  BNZ d   1       0.152   0.500  -0.230  0.00  0.00     0.000 A 
ENDROOT
TORSDOF 0
ENDMDL
