MODEL 1
REMARK minimizedAffinity -3.38173318
REMARK minimizedRMSD -1
REMARK  0 active torsions:
REMARK  status: ('A' for Active; 'I' for Inactive)
ROOT
ATOM      1  C1  BNZ d   1       0.996  -0.621  -0.133  0.00  0.00     0.000 A 
ATOM      2  C2  BNZ d   1       2.121  -1.395  -0.034  0.00  0.00     0.000 A 
ATOM      3  C3  BNZ d   1       2.132  -2.516   0.749  0.00  0.00     0.000 A 
ATOM      4  C4  BNZ d   1       1.033  -2.838   1.462  0.00  0.00     0.000 A 
ATOM      5  C5  BNZ d   1      -0.105  -2.062   1.380  0.00  0.00     0.000 A 
ATOM      6  C6  BNZ d   1      -0.126  -0.956   0.560  0.00  0.00     0.000 A 
ENDROOT
TORSDOF 0
ENDMDL
