MODEL 1
REMARK minimizedAffinity -3.44457412
REMARK minimizedRMSD -1
REMARK  0 active torsions:
REMARK  status: ('A' for Active; 'I' for Inactive)
ROOT
ATOM      1  C1  BNZ d   1       0.125   0.773  -0.709  0.00  0.00     0.000 A 
ATOM      2  C2  BNZ d   1       1.346   0.157  -0.781  0.00  0.00     0.000 A 
ATOM      3  C3  BNZ d   1       1.555  -1.055  -0.183  0.00  0.00     0.000 A 
ATOM      4  C4  BNZ d   1       0.556  -1.628   0.519  0.00  0.00     0.000 A 
ATOM      5  C5  BNZ d   1      -0.677  -1.015   0.608  0.00  0.00     0.000 A 
ATOM      6  C6  BNZ d   1      -0.896   0.186  -0.028  0.00  0.00     0.000 A 
ENDROOT
TORSDOF 0
ENDMDL
