MODEL 1
REMARK minimizedAffinity -3.33583903
REMARK minimizedRMSD -1
REMARK  0 active torsions:
REMARK  status: ('A' for Active; 'I' for Inactive)
ROOT
ATOM      1  C1  BNZ d   1       0.914  -1.910   1.188  0.00  0.00     0.000 A 
ATOM      2  C2  BNZ d   1      -0.220  -1.144   1.242  0.00  0.00     0.000 A 
ATOM      3  C3  BNZ d   1      -0.377  -0.067   0.415  0.00  0.00     0.000 A 
ATOM      4  C4  BNZ d   1       0.615   0.266  -0.435  0.00  0.00     0.000 A 
ATOM      5  C5  BNZ d   1       1.769  -0.490  -0.494  0.00  0.00     0.000 A 
ATOM      6  C6  BNZ d   1       1.907  -1.597   0.312  0.00  0.00     0.000 A 
ENDROOT
TORSDOF 0
ENDMDL
