MODEL 1
REMARK minimizedAffinity -4.39372873
REMARK minimizedRMSD -1
REMARK  0 active torsions:
REMARK  status: ('A' for Active; 'I' for Inactive)
ROOT
ATOM      1  C1  BNZ d   1      -0.353  -1.246   0.618  0.00  0.00     0.000 A 
ATOM      2  C2  BNZ d   1      -0.587  -0.002   0.097  0.00  0.00     0.000 A 
ATOM      3  C3  BNZ d   1       0.422   0.718  -0.479  0.00  0.00     0.000 A 
ATOM      4  C4  BNZ d   1       1.671   0.210  -0.498  0.00  0.00     0.000 A 
ATOM      5  C5  BNZ d   1       1.926  -1.040   0.032  0.00  0.00     0.000 A 
ATOM      6  C6  BNZ d   1       0.900  -1.777   0.576  0.00  0.00     0.000 A 
ENDROOT
TORSDOF 0
ENDMDL
