MODEL 1
REMARK minimizedAffinity -4.71724319
REMARK minimizedRMSD -1
REMARK  0 active torsions:
REMARK  status: ('A' for Active; 'I' for Inactive)
ROOT
ATOM      1  C1  BNZ d   1      -0.034  -2.042   0.770  0.00  0.00     0.000 A 
ATOM      2  C2  BNZ d   1      -0.428  -0.826   0.279  0.00  0.00     0.000 A 
ATOM      3  C3  BNZ d   1       0.456  -0.017  -0.378  0.00  0.00     0.000 A 
ATOM      4  C4  BNZ d   1       1.741  -0.406  -0.508  0.00  0.00     0.000 A 
ATOM      5  C5  BNZ d   1       2.156  -1.625  -0.010  0.00  0.00     0.000 A 
ATOM      6  C6  BNZ d   1       1.253  -2.454   0.617  0.00  0.00     0.000 A 
ENDROOT
TORSDOF 0
ENDMDL
