MODEL 1
REMARK minimizedAffinity -4.76134777
REMARK minimizedRMSD -1
REMARK  0 active torsions:
REMARK  status: ('A' for Active; 'I' for Inactive)
ROOT
ATOM      1  C1  BNZ d   1      -0.760   0.260   0.343  0.00  0.00     0.000 A 
ATOM      2  C2  BNZ d   1       0.369   0.638  -0.333  0.00  0.00     0.000 A 
ATOM      3  C3  BNZ d   1       1.433  -0.212  -0.448  0.00  0.00     0.000 A 
ATOM      4  C4  BNZ d   1       1.383  -1.421   0.147  0.00  0.00     0.000 A 
ATOM      5  C5  BNZ d   1       0.256  -1.813   0.840  0.00  0.00     0.000 A 
ATOM      6  C6  BNZ d   1      -0.829  -0.970   0.920  0.00  0.00     0.000 A 
ENDROOT
TORSDOF 0
ENDMDL
