MODEL 1
REMARK minimizedAffinity -4.91676664
REMARK minimizedRMSD -1
REMARK  0 active torsions:
REMARK  status: ('A' for Active; 'I' for Inactive)
ROOT
ATOM      1  C1  BNZ d   1       2.147  -0.812   0.172  0.00  0.00     0.000 A 
ATOM      2  C2  BNZ d   1       1.712   0.410  -0.267  0.00  0.00     0.000 A 
ATOM      3  C3  BNZ d   1       0.400   0.773  -0.139  0.00  0.00     0.000 A 
ATOM      4  C4  BNZ d   1      -0.481  -0.099   0.392  0.00  0.00     0.000 A 
ATOM      5  C5  BNZ d   1      -0.059  -1.339   0.831  0.00  0.00     0.000 A 
ATOM      6  C6  BNZ d   1       1.269  -1.686   0.735  0.00  0.00     0.000 A 
ENDROOT
TORSDOF 0
ENDMDL
