MODEL 1
REMARK minimizedAffinity -4.25760031
REMARK minimizedRMSD -1
REMARK  1 active torsions:
REMARK  status: ('A' for Active; 'I' for Inactive)
REMARK    1  A    between atoms: C1_2  and  C2_3 
ROOT
ATOM      1  C2  UNL d   1      -0.969   0.211   0.645  0.00  0.00    -0.073 A 
ATOM      2  C3  UNL d   1      -0.918   1.510   0.127  0.00  0.00    -0.002 A 
ATOM      3  C4  UNL d   1       0.086   1.872  -0.773  0.00  0.00     0.004 A 
ATOM      4  C5  UNL d   1       1.043   0.938  -1.168  0.00  0.00    -0.004 A 
ATOM      5  C6  UNL d   1       1.002  -0.369  -0.671  0.00  0.00    -0.075 A 
ATOM      6  C7  UNL d   1       2.026  -1.385  -1.085  0.00  0.00     0.076 C 
ATOM      7  C8  UNL d   1      -0.008  -0.723   0.234  0.00  0.00     0.001 A 
ENDROOT
BRANCH   1   8
ATOM      8  C1  UNL d   1      -2.056  -0.185   1.611  0.00  0.00     0.053 C 
ATOM      9  C   UNL d   1      -1.895   0.497   2.960  0.00  0.00     0.018 C 
ENDBRANCH   1   8
TORSDOF 1
ENDMDL
