MODEL 1
REMARK minimizedAffinity -3.75689554
REMARK minimizedRMSD -1
REMARK  1 active torsions:
REMARK  status: ('A' for Active; 'I' for Inactive)
REMARK    1  A    between atoms: C1_2  and  C2_3 
ROOT
ATOM      1  C2  UNL d   1       1.435  -0.915  -0.986  0.00  0.00    -0.073 A 
ATOM      2  C3  UNL d   1       2.765  -0.500  -0.851  0.00  0.00    -0.002 A 
ATOM      3  C4  UNL d   1       3.087   0.858  -0.890  0.00  0.00     0.004 A 
ATOM      4  C5  UNL d   1       2.084   1.813  -1.056  0.00  0.00    -0.004 A 
ATOM      5  C6  UNL d   1       0.748   1.418  -1.180  0.00  0.00    -0.075 A 
ATOM      6  C7  UNL d   1      -0.343   2.432  -1.362  0.00  0.00     0.076 C 
ATOM      7  C8  UNL d   1       0.433   0.053  -1.143  0.00  0.00     0.001 A 
ENDROOT
BRANCH   1   8
ATOM      8  C1  UNL d   1       1.082  -2.379  -0.939  0.00  0.00     0.053 C 
ATOM      9  C   UNL d   1      -0.126  -2.646  -0.055  0.00  0.00     0.018 C 
ENDBRANCH   1   8
TORSDOF 1
ENDMDL
