MODEL 1
REMARK minimizedAffinity -5.40506649
REMARK minimizedRMSD -1
REMARK  1 active torsions:
REMARK  status: ('A' for Active; 'I' for Inactive)
REMARK    1  A    between atoms: C1_2  and  C2_3 
ROOT
ATOM      1  C2  UNL d   1      -0.033  -0.279  -0.064  0.00  0.00    -0.073 A 
ATOM      2  C3  UNL d   1       0.610  -1.512  -0.223  0.00  0.00    -0.002 A 
ATOM      3  C4  UNL d   1       1.725  -1.624  -1.055  0.00  0.00     0.004 A 
ATOM      4  C5  UNL d   1       2.212  -0.505  -1.730  0.00  0.00    -0.004 A 
ATOM      5  C6  UNL d   1       1.590   0.738  -1.575  0.00  0.00    -0.075 A 
ATOM      6  C7  UNL d   1       2.101   1.951  -2.296  0.00  0.00     0.076 C 
ATOM      7  C8  UNL d   1       0.470   0.842  -0.740  0.00  0.00     0.001 A 
ENDROOT
BRANCH   1   8
ATOM      8  C1  UNL d   1      -1.233  -0.152   0.838  0.00  0.00     0.053 C 
ATOM      9  C   UNL d   1      -1.047   0.935   1.884  0.00  0.00     0.018 C 
ENDBRANCH   1   8
TORSDOF 1
ENDMDL
