MODEL 1
REMARK minimizedAffinity -3.45231056
REMARK minimizedRMSD -1
REMARK  1 active torsions:
REMARK  status: ('A' for Active; 'I' for Inactive)
REMARK    1  A    between atoms: C1_2  and  C2_3 
ROOT
ATOM      1  C2  UNL d   1      -0.374   0.443  -0.100  0.00  0.00    -0.073 A 
ATOM      2  C3  UNL d   1      -0.393   1.632  -0.838  0.00  0.00    -0.002 A 
ATOM      3  C4  UNL d   1       0.729   2.025  -1.570  0.00  0.00     0.004 A 
ATOM      4  C5  UNL d   1       1.876   1.231  -1.577  0.00  0.00    -0.004 A 
ATOM      5  C6  UNL d   1       1.909   0.034  -0.855  0.00  0.00    -0.075 A 
ATOM      6  C7  UNL d   1       3.136  -0.830  -0.851  0.00  0.00     0.076 C 
ATOM      7  C8  UNL d   1       0.780  -0.353  -0.121  0.00  0.00     0.001 A 
ENDROOT
BRANCH   1   8
ATOM      8  C1  UNL d   1      -1.585   0.012   0.687  0.00  0.00     0.053 C 
ATOM      9  C   UNL d   1      -1.687   0.737   2.019  0.00  0.00     0.018 C 
ENDBRANCH   1   8
TORSDOF 1
ENDMDL
