MODEL 1
REMARK minimizedAffinity -2.13829303
REMARK minimizedRMSD -1
REMARK  1 active torsions:
REMARK  status: ('A' for Active; 'I' for Inactive)
REMARK    1  A    between atoms: C1_2  and  C2_3 
ROOT
ATOM      1  C2  UNL d   1       1.652   0.399  -1.060  0.00  0.00    -0.073 A 
ATOM      2  C3  UNL d   1       1.289   1.591  -1.697  0.00  0.00    -0.002 A 
ATOM      3  C4  UNL d   1       0.055   2.185  -1.432  0.00  0.00     0.004 A 
ATOM      4  C5  UNL d   1      -0.826   1.598  -0.524  0.00  0.00    -0.004 A 
ATOM      5  C6  UNL d   1      -0.477   0.413   0.132  0.00  0.00    -0.075 A 
ATOM      6  C7  UNL d   1      -1.415  -0.232   1.110  0.00  0.00     0.076 C 
ATOM      7  C8  UNL d   1       0.763  -0.179  -0.142  0.00  0.00     0.001 A 
ENDROOT
BRANCH   1   8
ATOM      8  C1  UNL d   1       2.986  -0.242  -1.338  0.00  0.00     0.053 C 
ATOM      9  C   UNL d   1       2.843  -1.544  -2.111  0.00  0.00     0.018 C 
ENDBRANCH   1   8
TORSDOF 1
ENDMDL
