MODEL 1
REMARK minimizedAffinity -5.17904711
REMARK minimizedRMSD -1
REMARK  1 active torsions:
REMARK  status: ('A' for Active; 'I' for Inactive)
REMARK    1  A    between atoms: C1_2  and  C2_3 
ROOT
ATOM      1  C2  UNL d   1       0.129  -0.084   0.197  0.00  0.00    -0.073 A 
ATOM      2  C3  UNL d   1      -0.094  -1.455   0.361  0.00  0.00    -0.002 A 
ATOM      3  C4  UNL d   1       0.855  -2.381  -0.074  0.00  0.00     0.004 A 
ATOM      4  C5  UNL d   1       2.037  -1.946  -0.672  0.00  0.00    -0.004 A 
ATOM      5  C6  UNL d   1       2.284  -0.579  -0.834  0.00  0.00    -0.075 A 
ATOM      6  C7  UNL d   1       3.550  -0.094  -1.477  0.00  0.00     0.076 C 
ATOM      7  C8  UNL d   1       1.325   0.345  -0.397  0.00  0.00     0.001 A 
ENDROOT
BRANCH   1   8
ATOM      8  C1  UNL d   1      -0.890   0.920   0.671  0.00  0.00     0.053 C 
ATOM      9  C   UNL d   1      -0.851   1.103   2.180  0.00  0.00     0.018 C 
ENDBRANCH   1   8
TORSDOF 1
ENDMDL
