MODEL 1
REMARK minimizedAffinity -5.5451088
REMARK minimizedRMSD -1
REMARK  1 active torsions:
REMARK  status: ('A' for Active; 'I' for Inactive)
REMARK    1  A    between atoms: C1_2  and  C2_3 
ROOT
ATOM      1  C2  UNL d   1      -0.613   0.443   0.122  0.00  0.00    -0.073 A 
ATOM      2  C3  UNL d   1      -0.751   1.696  -0.485  0.00  0.00    -0.002 A 
ATOM      3  C4  UNL d   1       0.203   2.144  -1.400  0.00  0.00     0.004 A 
ATOM      4  C5  UNL d   1       1.298   1.343  -1.722  0.00  0.00    -0.004 A 
ATOM      5  C6  UNL d   1       1.446   0.082  -1.135  0.00  0.00    -0.075 A 
ATOM      6  C7  UNL d   1       2.619  -0.791  -1.470  0.00  0.00     0.076 C 
ATOM      7  C8  UNL d   1       0.486  -0.360  -0.215  0.00  0.00     0.001 A 
ENDROOT
BRANCH   1   8
ATOM      8  C1  UNL d   1      -1.644  -0.048   1.106  0.00  0.00     0.053 C 
ATOM      9  C   UNL d   1      -1.593   0.721   2.416  0.00  0.00     0.018 C 
ENDBRANCH   1   8
TORSDOF 1
ENDMDL
