MODEL 1
REMARK minimizedAffinity 4.630301
REMARK minimizedRMSD -1
REMARK  1 active torsions:
REMARK  status: ('A' for Active; 'I' for Inactive)
REMARK    1  A    between atoms: C1_2  and  C2_3 
ROOT
ATOM      1  C2  UNL d   1       1.618   0.661  -1.656  0.00  0.00    -0.077 A 
ATOM      2  C3  UNL d   1       0.770  -0.372  -2.078  0.00  0.00     0.002 A 
ATOM      3  C4  UNL d   1       1.161  -1.706  -1.948  0.00  0.00     0.002 A 
ATOM      4  C5  UNL d   1       2.400  -2.019  -1.393  0.00  0.00    -0.004 A 
ATOM      5  C6  UNL d   1       3.252  -0.999  -0.972  0.00  0.00     0.002 A 
ATOM      6  C7  UNL d   1       2.863   0.335  -1.102  0.00  0.00     0.002 A 
ENDROOT
BRANCH   1   7
ATOM      7  C1  UNL d   1       1.177   2.098  -1.750  0.00  0.00     0.055 C 
ATOM      8  C   UNL d   1      -0.123   2.328  -0.994  0.00  0.00     0.019 C 
ENDBRANCH   1   7
TORSDOF 1
ENDMDL
