MODEL 1
REMARK minimizedAffinity 7.97304392
REMARK minimizedRMSD -1
REMARK  1 active torsions:
REMARK  status: ('A' for Active; 'I' for Inactive)
REMARK    1  A    between atoms: C1_2  and  C2_3 
ROOT
ATOM      1  C2  UNL d   1       1.584  -0.678  -1.586  0.00  0.00    -0.077 A 
ATOM      2  C3  UNL d   1       0.510  -1.534  -1.303  0.00  0.00     0.002 A 
ATOM      3  C4  UNL d   1       0.719  -2.718  -0.594  0.00  0.00     0.002 A 
ATOM      4  C5  UNL d   1       1.999  -3.055  -0.158  0.00  0.00    -0.004 A 
ATOM      5  C6  UNL d   1       3.073  -2.211  -0.435  0.00  0.00     0.002 A 
ATOM      6  C7  UNL d   1       2.867  -1.027  -1.146  0.00  0.00     0.002 A 
ENDROOT
BRANCH   1   7
ATOM      7  C1  UNL d   1       1.352   0.624  -2.308  0.00  0.00     0.055 C 
ATOM      8  C   UNL d   1       0.776   1.679  -1.375  0.00  0.00     0.019 C 
ENDBRANCH   1   7
TORSDOF 1
ENDMDL
