MODEL 1
REMARK minimizedAffinity 5.03957081
REMARK minimizedRMSD -1
REMARK  1 active torsions:
REMARK  status: ('A' for Active; 'I' for Inactive)
REMARK    1  A    between atoms: C1_2  and  C2_3 
ROOT
ATOM      1  C2  UNL d   1       0.723   0.973  -1.369  0.00  0.00    -0.077 A 
ATOM      2  C3  UNL d   1       0.667   2.227  -1.992  0.00  0.00     0.002 A 
ATOM      3  C4  UNL d   1       1.473   2.503  -3.099  0.00  0.00     0.002 A 
ATOM      4  C5  UNL d   1       2.337   1.528  -3.593  0.00  0.00    -0.004 A 
ATOM      5  C6  UNL d   1       2.402   0.278  -2.979  0.00  0.00     0.002 A 
ATOM      6  C7  UNL d   1       1.598   0.001  -1.872  0.00  0.00     0.002 A 
ENDROOT
BRANCH   1   7
ATOM      7  C1  UNL d   1      -0.181   0.658  -0.206  0.00  0.00     0.055 C 
ATOM      8  C   UNL d   1      -1.348  -0.220  -0.634  0.00  0.00     0.019 C 
ENDBRANCH   1   7
TORSDOF 1
ENDMDL
