MODEL 1
REMARK minimizedAffinity 2.24713373
REMARK minimizedRMSD -1
REMARK  1 active torsions:
REMARK  status: ('A' for Active; 'I' for Inactive)
REMARK    1  A    between atoms: C1_2  and  C2_3 
ROOT
ATOM      1  C2  UNL d   1       2.265   0.573  -2.327  0.00  0.00    -0.077 A 
ATOM      2  C3  UNL d   1       1.823  -0.164  -3.435  0.00  0.00     0.002 A 
ATOM      3  C4  UNL d   1       1.782  -1.559  -3.384  0.00  0.00     0.002 A 
ATOM      4  C5  UNL d   1       2.177  -2.227  -2.227  0.00  0.00    -0.004 A 
ATOM      5  C6  UNL d   1       2.621  -1.503  -1.121  0.00  0.00     0.002 A 
ATOM      6  C7  UNL d   1       2.664  -0.109  -1.171  0.00  0.00     0.002 A 
ENDROOT
BRANCH   1   7
ATOM      7  C1  UNL d   1       2.264   2.079  -2.363  0.00  0.00     0.055 C 
ATOM      8  C   UNL d   1       0.901   2.622  -2.768  0.00  0.00     0.019 C 
ENDBRANCH   1   7
TORSDOF 1
ENDMDL
