MODEL 1
REMARK minimizedAffinity 7.76614904
REMARK minimizedRMSD -1
REMARK  1 active torsions:
REMARK  status: ('A' for Active; 'I' for Inactive)
REMARK    1  A    between atoms: C1_2  and  C2_3 
ROOT
ATOM      1  C2  UNL d   1       1.262   1.734  -0.904  0.00  0.00    -0.077 A 
ATOM      2  C3  UNL d   1       2.089   1.842   0.223  0.00  0.00     0.002 A 
ATOM      3  C4  UNL d   1       1.558   2.232   1.454  0.00  0.00     0.002 A 
ATOM      4  C5  UNL d   1       0.199   2.513   1.571  0.00  0.00    -0.004 A 
ATOM      5  C6  UNL d   1      -0.632   2.410   0.456  0.00  0.00     0.002 A 
ATOM      6  C7  UNL d   1      -0.103   2.022  -0.776  0.00  0.00     0.002 A 
ENDROOT
BRANCH   1   7
ATOM      7  C1  UNL d   1       1.824   1.266  -2.221  0.00  0.00     0.055 C 
ATOM      8  C   UNL d   1       2.511  -0.085  -2.081  0.00  0.00     0.019 C 
ENDBRANCH   1   7
TORSDOF 1
ENDMDL
