MODEL 1
REMARK minimizedAffinity 3.99159956
REMARK minimizedRMSD -1
REMARK  1 active torsions:
REMARK  status: ('A' for Active; 'I' for Inactive)
REMARK    1  A    between atoms: C1_2  and  C2_3 
ROOT
ATOM      1  C2  UNL d   1       0.884  -0.346  -1.071  0.00  0.00    -0.077 A 
ATOM      2  C3  UNL d   1       0.596  -1.587  -0.485  0.00  0.00     0.002 A 
ATOM      3  C4  UNL d   1       1.617  -2.509  -0.245  0.00  0.00     0.002 A 
ATOM      4  C5  UNL d   1       2.932  -2.198  -0.584  0.00  0.00    -0.004 A 
ATOM      5  C6  UNL d   1       3.228  -0.967  -1.169  0.00  0.00     0.002 A 
ATOM      6  C7  UNL d   1       2.209  -0.045  -1.410  0.00  0.00     0.002 A 
ENDROOT
BRANCH   1   7
ATOM      7  C1  UNL d   1      -0.209   0.669  -1.285  0.00  0.00     0.055 C 
ATOM      8  C   UNL d   1       0.256   2.069  -0.911  0.00  0.00     0.019 C 
ENDBRANCH   1   7
TORSDOF 1
ENDMDL
