MODEL 1
REMARK minimizedAffinity 2.02318215
REMARK minimizedRMSD -1
REMARK  1 active torsions:
REMARK  status: ('A' for Active; 'I' for Inactive)
REMARK    1  A    between atoms: C1_2  and  C2_3 
ROOT
ATOM      1  C2  UNL d   1       2.403   0.009  -1.893  0.00  0.00    -0.077 A 
ATOM      2  C3  UNL d   1       3.300  -0.594  -1.001  0.00  0.00     0.002 A 
ATOM      3  C4  UNL d   1       2.890  -1.663  -0.202  0.00  0.00     0.002 A 
ATOM      4  C5  UNL d   1       1.585  -2.141  -0.291  0.00  0.00    -0.004 A 
ATOM      5  C6  UNL d   1       0.684  -1.546  -1.174  0.00  0.00     0.002 A 
ATOM      6  C7  UNL d   1       1.092  -0.477  -1.972  0.00  0.00     0.002 A 
ENDROOT
BRANCH   1   7
ATOM      7  C1  UNL d   1       2.857   1.131  -2.791  0.00  0.00     0.055 C 
ATOM      8  C   UNL d   1       1.672   1.874  -3.390  0.00  0.00     0.019 C 
ENDBRANCH   1   7
TORSDOF 1
ENDMDL
