MODEL 1
REMARK minimizedAffinity 3.09886575
REMARK minimizedRMSD -1
REMARK  1 active torsions:
REMARK  status: ('A' for Active; 'I' for Inactive)
REMARK    1  A    between atoms: C1_2  and  C2_3 
ROOT
ATOM      1  C2  UNL d   1       0.952   0.528  -1.643  0.00  0.00    -0.077 A 
ATOM      2  C3  UNL d   1       2.006  -0.395  -1.679  0.00  0.00     0.002 A 
ATOM      3  C4  UNL d   1       1.860  -1.657  -1.100  0.00  0.00     0.002 A 
ATOM      4  C5  UNL d   1       0.660  -2.009  -0.486  0.00  0.00    -0.004 A 
ATOM      5  C6  UNL d   1      -0.394  -1.097  -0.443  0.00  0.00     0.002 A 
ATOM      6  C7  UNL d   1      -0.249   0.166  -1.019  0.00  0.00     0.002 A 
ENDROOT
BRANCH   1   7
ATOM      7  C1  UNL d   1       1.091   1.872  -2.310  0.00  0.00     0.055 C 
ATOM      8  C   UNL d   1       1.768   1.749  -3.667  0.00  0.00     0.019 C 
ENDBRANCH   1   7
TORSDOF 1
ENDMDL
