MODEL 1
REMARK minimizedAffinity -3.92081642
REMARK minimizedRMSD -1
REMARK  1 active torsions:
REMARK  status: ('A' for Active; 'I' for Inactive)
REMARK    1  A    between atoms: C1_2  and  C2_3 
ROOT
ATOM      1  C2  UNL d   1       1.236   0.363  -1.439  0.00  0.00    -0.077 A 
ATOM      2  C3  UNL d   1       2.327   0.068  -2.268  0.00  0.00     0.002 A 
ATOM      3  C4  UNL d   1       2.991  -1.155  -2.154  0.00  0.00     0.002 A 
ATOM      4  C5  UNL d   1       2.569  -2.094  -1.215  0.00  0.00    -0.004 A 
ATOM      5  C6  UNL d   1       1.486  -1.809  -0.384  0.00  0.00     0.002 A 
ATOM      6  C7  UNL d   1       0.822  -0.587  -0.496  0.00  0.00     0.002 A 
ENDROOT
BRANCH   1   7
ATOM      7  C1  UNL d   1       0.488   1.661  -1.594  0.00  0.00     0.055 C 
ATOM      8  C   UNL d   1      -0.762   1.686  -0.726  0.00  0.00     0.019 C 
ENDBRANCH   1   7
TORSDOF 1
ENDMDL
