MODEL 1
REMARK minimizedAffinity -0.400795519
REMARK minimizedRMSD -1
REMARK  1 active torsions:
REMARK  status: ('A' for Active; 'I' for Inactive)
REMARK    1  A    between atoms: C1_2  and  C2_3 
ROOT
ATOM      1  C2  UNL d   1       1.876  -0.486  -1.916  0.00  0.00    -0.077 A 
ATOM      2  C3  UNL d   1       0.693  -1.236  -1.859  0.00  0.00     0.002 A 
ATOM      3  C4  UNL d   1       0.645  -2.425  -1.128  0.00  0.00     0.002 A 
ATOM      4  C5  UNL d   1       1.775  -2.872  -0.447  0.00  0.00    -0.004 A 
ATOM      5  C6  UNL d   1       2.957  -2.135  -0.499  0.00  0.00     0.002 A 
ATOM      6  C7  UNL d   1       3.007  -0.947  -1.230  0.00  0.00     0.002 A 
ENDROOT
BRANCH   1   7
ATOM      7  C1  UNL d   1       1.916   0.821  -2.663  0.00  0.00     0.055 C 
ATOM      8  C   UNL d   1       1.068   1.879  -1.972  0.00  0.00     0.019 C 
ENDBRANCH   1   7
TORSDOF 1
ENDMDL
