MODEL 1
REMARK minimizedAffinity -1.65881276
REMARK minimizedRMSD -1
REMARK  1 active torsions:
REMARK  status: ('A' for Active; 'I' for Inactive)
REMARK    1  A    between atoms: C1_2  and  C2_3 
ROOT
ATOM      1  C2  UNL d   1       2.204  -0.059  -1.696  0.00  0.00    -0.077 A 
ATOM      2  C3  UNL d   1       3.224  -0.877  -1.191  0.00  0.00     0.002 A 
ATOM      3  C4  UNL d   1       2.916  -1.972  -0.381  0.00  0.00     0.002 A 
ATOM      4  C5  UNL d   1       1.589  -2.261  -0.073  0.00  0.00    -0.004 A 
ATOM      5  C6  UNL d   1       0.567  -1.452  -0.568  0.00  0.00     0.002 A 
ATOM      6  C7  UNL d   1       0.873  -0.356  -1.377  0.00  0.00     0.002 A 
ENDROOT
BRANCH   1   7
ATOM      7  C1  UNL d   1       2.530   1.093  -2.610  0.00  0.00     0.055 C 
ATOM      8  C   UNL d   1       1.267   1.763  -3.130  0.00  0.00     0.019 C 
ENDBRANCH   1   7
TORSDOF 1
ENDMDL
