MODEL 1
REMARK minimizedAffinity 2.36844754
REMARK minimizedRMSD -1
REMARK  1 active torsions:
REMARK  status: ('A' for Active; 'I' for Inactive)
REMARK    1  A    between atoms: C1_2  and  C2_3 
ROOT
ATOM      1  C2  UNL d   1       0.942   1.472  -0.690  0.00  0.00    -0.077 A 
ATOM      2  C3  UNL d   1       1.921   1.870   0.232  0.00  0.00     0.002 A 
ATOM      3  C4  UNL d   1       1.552   2.411   1.465  0.00  0.00     0.002 A 
ATOM      4  C5  UNL d   1       0.205   2.556   1.789  0.00  0.00    -0.004 A 
ATOM      5  C6  UNL d   1      -0.777   2.165   0.879  0.00  0.00     0.002 A 
ATOM      6  C7  UNL d   1      -0.410   1.625  -0.355  0.00  0.00     0.002 A 
ENDROOT
BRANCH   1   7
ATOM      7  C1  UNL d   1       1.337   0.842  -2.000  0.00  0.00     0.055 C 
ATOM      8  C   UNL d   1       2.258  -0.350  -1.785  0.00  0.00     0.019 C 
ENDBRANCH   1   7
TORSDOF 1
ENDMDL
