MODEL 1
REMARK minimizedAffinity 10.0517206
REMARK minimizedRMSD -1
REMARK  1 active torsions:
REMARK  status: ('A' for Active; 'I' for Inactive)
REMARK    1  A    between atoms: C1_2  and  C2_3 
ROOT
ATOM      1  C2  UNL d   1       1.571  -0.304  -2.149  0.00  0.00    -0.077 A 
ATOM      2  C3  UNL d   1       1.974   0.404  -3.290  0.00  0.00     0.002 A 
ATOM      3  C4  UNL d   1       1.546   1.717  -3.494  0.00  0.00     0.002 A 
ATOM      4  C5  UNL d   1       0.717   2.335  -2.560  0.00  0.00    -0.004 A 
ATOM      5  C6  UNL d   1       0.310   1.638  -1.423  0.00  0.00     0.002 A 
ATOM      6  C7  UNL d   1       0.735   0.325  -1.218  0.00  0.00     0.002 A 
ENDROOT
BRANCH   1   7
ATOM      7  C1  UNL d   1       2.071  -1.704  -1.903  0.00  0.00     0.055 C 
ATOM      8  C   UNL d   1       3.120  -1.731  -0.801  0.00  0.00     0.019 C 
ENDBRANCH   1   7
TORSDOF 1
ENDMDL
