MODEL 1
REMARK minimizedAffinity 3.21664834
REMARK minimizedRMSD -1
REMARK  0 active torsions:
REMARK  status: ('A' for Active; 'I' for Inactive)
ROOT
ATOM      1  C   UNL d   1       1.266  -2.368   5.736  0.00  0.00     0.077 C 
ATOM      2  C1  UNL d   1       1.401  -2.183   4.253  0.00  0.00    -0.074 A 
ATOM      3  C2  UNL d   1       2.081  -3.122   3.471  0.00  0.00    -0.005 A 
ATOM      4  C3  UNL d   1       2.191  -2.941   2.092  0.00  0.00     0.006 A 
ATOM      5  C4  UNL d   1       1.623  -1.821   1.483  0.00  0.00    -0.005 A 
ATOM      6  C5  UNL d   1       0.939  -0.872   2.249  0.00  0.00    -0.074 A 
ATOM      7  C6  UNL d   1       0.314   0.332   1.609  0.00  0.00     0.077 C 
ATOM      8  C7  UNL d   1       0.827  -1.064   3.633  0.00  0.00    -0.001 A 
ENDROOT
TORSDOF 0
ENDMDL
