MODEL 1
REMARK minimizedAffinity 9.6089077
REMARK minimizedRMSD -1
REMARK  0 active torsions:
REMARK  status: ('A' for Active; 'I' for Inactive)
ROOT
ATOM      1  C   UNL d   1       1.056  -0.482   2.622  0.00  0.00     0.077 C 
ATOM      2  C1  UNL d   1      -0.008  -0.048   1.658  0.00  0.00    -0.074 A 
ATOM      3  C2  UNL d   1      -0.022   1.251   1.139  0.00  0.00    -0.005 A 
ATOM      4  C3  UNL d   1      -1.012   1.637   0.236  0.00  0.00     0.006 A 
ATOM      5  C4  UNL d   1      -1.997   0.730  -0.157  0.00  0.00    -0.005 A 
ATOM      6  C5  UNL d   1      -1.999  -0.573   0.350  0.00  0.00    -0.074 A 
ATOM      7  C6  UNL d   1      -3.044  -1.563  -0.070  0.00  0.00     0.077 C 
ATOM      8  C7  UNL d   1      -0.996  -0.956   1.251  0.00  0.00    -0.001 A 
ENDROOT
TORSDOF 0
ENDMDL
