MODEL 1
REMARK minimizedAffinity 3.8180666
REMARK minimizedRMSD -1
REMARK  0 active torsions:
REMARK  status: ('A' for Active; 'I' for Inactive)
ROOT
ATOM      1  C   UNL d   1       2.843  -3.365   1.238  0.00  0.00     0.077 C 
ATOM      2  C1  UNL d   1       2.272  -2.398   2.232  0.00  0.00    -0.074 A 
ATOM      3  C2  UNL d   1       1.714  -1.185   1.815  0.00  0.00    -0.005 A 
ATOM      4  C3  UNL d   1       1.178  -0.300   2.751  0.00  0.00     0.006 A 
ATOM      5  C4  UNL d   1       1.195  -0.618   4.109  0.00  0.00    -0.005 A 
ATOM      6  C5  UNL d   1       1.748  -1.827   4.544  0.00  0.00    -0.074 A 
ATOM      7  C6  UNL d   1       1.765  -2.188   6.000  0.00  0.00     0.077 C 
ATOM      8  C7  UNL d   1       2.278  -2.714   3.598  0.00  0.00    -0.001 A 
ENDROOT
TORSDOF 0
ENDMDL
