MODEL 1
REMARK minimizedAffinity -1.54671955
REMARK minimizedRMSD -1
REMARK  0 active torsions:
REMARK  status: ('A' for Active; 'I' for Inactive)
ROOT
ATOM      1  C   UNL d   1      -2.391  -3.305  -0.008  0.00  0.00     0.077 C 
ATOM      2  C1  UNL d   1      -1.393  -2.365   0.600  0.00  0.00    -0.074 A 
ATOM      3  C2  UNL d   1      -1.424  -0.997   0.309  0.00  0.00    -0.005 A 
ATOM      4  C3  UNL d   1      -0.495  -0.133   0.890  0.00  0.00     0.006 A 
ATOM      5  C4  UNL d   1       0.472  -0.628   1.765  0.00  0.00    -0.005 A 
ATOM      6  C5  UNL d   1       0.518  -1.992   2.068  0.00  0.00    -0.074 A 
ATOM      7  C6  UNL d   1       1.545  -2.539   3.015  0.00  0.00     0.077 C 
ATOM      8  C7  UNL d   1      -0.423  -2.853   1.486  0.00  0.00    -0.001 A 
ENDROOT
TORSDOF 0
ENDMDL
