MODEL 1
REMARK minimizedAffinity 10.6477747
REMARK minimizedRMSD -1
REMARK  0 active torsions:
REMARK  status: ('A' for Active; 'I' for Inactive)
ROOT
ATOM      1  C   UNL d   1      -2.533  -3.988   0.116  0.00  0.00     0.077 C 
ATOM      2  C1  UNL d   1      -2.138  -2.561   0.355  0.00  0.00    -0.074 A 
ATOM      3  C2  UNL d   1      -2.878  -1.509  -0.194  0.00  0.00    -0.005 A 
ATOM      4  C3  UNL d   1      -2.504  -0.187   0.045  0.00  0.00     0.006 A 
ATOM      5  C4  UNL d   1      -1.388   0.097   0.833  0.00  0.00    -0.005 A 
ATOM      6  C5  UNL d   1      -0.637  -0.942   1.390  0.00  0.00    -0.074 A 
ATOM      7  C6  UNL d   1       0.560  -0.655   2.248  0.00  0.00     0.077 C 
ATOM      8  C7  UNL d   1      -1.023  -2.268   1.152  0.00  0.00    -0.001 A 
ENDROOT
TORSDOF 0
ENDMDL
