MODEL 1
REMARK minimizedAffinity 3.98507047
REMARK minimizedRMSD -1
REMARK  0 active torsions:
REMARK  status: ('A' for Active; 'I' for Inactive)
ROOT
ATOM      1  C   UNL d   1       2.250  -3.047   5.999  0.00  0.00     0.077 C 
ATOM      2  C1  UNL d   1       1.926  -2.077   4.902  0.00  0.00    -0.074 A 
ATOM      3  C2  UNL d   1       1.455  -0.792   5.194  0.00  0.00    -0.005 A 
ATOM      4  C3  UNL d   1       1.167   0.102   4.163  0.00  0.00     0.006 A 
ATOM      5  C4  UNL d   1       1.345  -0.278   2.832  0.00  0.00    -0.005 A 
ATOM      6  C5  UNL d   1       1.816  -1.558   2.521  0.00  0.00    -0.074 A 
ATOM      7  C6  UNL d   1       2.023  -1.979   1.097  0.00  0.00     0.077 C 
ATOM      8  C7  UNL d   1       2.110  -2.448   3.563  0.00  0.00    -0.001 A 
ENDROOT
TORSDOF 0
ENDMDL
