MODEL 1
REMARK minimizedAffinity -0.373859465
REMARK minimizedRMSD -1
REMARK  0 active torsions:
REMARK  status: ('A' for Active; 'I' for Inactive)
ROOT
ATOM      1  C   UNL d   1      -2.598  -3.994  -0.129  0.00  0.00     0.077 C 
ATOM      2  C1  UNL d   1      -1.991  -2.669   0.229  0.00  0.00    -0.074 A 
ATOM      3  C2  UNL d   1      -2.714  -1.482   0.075  0.00  0.00    -0.005 A 
ATOM      4  C3  UNL d   1      -2.140  -0.259   0.421  0.00  0.00     0.006 A 
ATOM      5  C4  UNL d   1      -0.840  -0.211   0.925  0.00  0.00    -0.005 A 
ATOM      6  C5  UNL d   1      -0.102  -1.388   1.088  0.00  0.00    -0.074 A 
ATOM      7  C6  UNL d   1       1.293  -1.354   1.637  0.00  0.00     0.077 C 
ATOM      8  C7  UNL d   1      -0.688  -2.613   0.744  0.00  0.00    -0.001 A 
ENDROOT
TORSDOF 0
ENDMDL
