MODEL 1
REMARK minimizedAffinity 3.91134501
REMARK minimizedRMSD -1
REMARK  0 active torsions:
REMARK  status: ('A' for Active; 'I' for Inactive)
ROOT
ATOM      1  C   UNL d   1       1.290  -2.790   6.000  0.00  0.00     0.077 C 
ATOM      2  C1  UNL d   1       1.466  -2.646   4.517  0.00  0.00    -0.074 A 
ATOM      3  C2  UNL d   1       2.071  -3.658   3.764  0.00  0.00    -0.005 A 
ATOM      4  C3  UNL d   1       2.220  -3.514   2.385  0.00  0.00     0.006 A 
ATOM      5  C4  UNL d   1       1.766  -2.360   1.746  0.00  0.00    -0.005 A 
ATOM      6  C5  UNL d   1       1.158  -1.338   2.482  0.00  0.00    -0.074 A 
ATOM      7  C6  UNL d   1       0.656  -0.095   1.809  0.00  0.00     0.077 C 
ATOM      8  C7  UNL d   1       1.006  -1.493   3.867  0.00  0.00    -0.001 A 
ENDROOT
TORSDOF 0
ENDMDL
