MODEL 1
REMARK minimizedAffinity 15.7710581
REMARK minimizedRMSD -1
REMARK  0 active torsions:
REMARK  status: ('A' for Active; 'I' for Inactive)
ROOT
ATOM      1  C   UNL d   1       0.926  -1.807   5.845  0.00  0.00     0.077 C 
ATOM      2  C1  UNL d   1       1.088  -1.374   4.418  0.00  0.00    -0.074 A 
ATOM      3  C2  UNL d   1       0.680  -0.103   4.002  0.00  0.00    -0.005 A 
ATOM      4  C3  UNL d   1       0.846   0.289   2.674  0.00  0.00     0.006 A 
ATOM      5  C4  UNL d   1       1.419  -0.585   1.750  0.00  0.00    -0.005 A 
ATOM      6  C5  UNL d   1       1.834  -1.860   2.147  0.00  0.00    -0.074 A 
ATOM      7  C6  UNL d   1       2.461  -2.808   1.169  0.00  0.00     0.077 C 
ATOM      8  C7  UNL d   1       1.670  -2.244   3.485  0.00  0.00    -0.001 A 
ENDROOT
TORSDOF 0
ENDMDL
