MODEL 1
REMARK minimizedAffinity 11.6319628
REMARK minimizedRMSD -1
REMARK  1 active torsions:
REMARK  status: ('A' for Active; 'I' for Inactive)
REMARK    1  A    between atoms: C1_2  and  C2_3 
ROOT
ATOM      1  C2  UNL d   1       4.169   0.488  -2.687  0.00  0.00    -0.073 A 
ATOM      2  C3  UNL d   1       3.029   0.595  -3.492  0.00  0.00    -0.002 A 
ATOM      3  C4  UNL d   1       1.796   0.925  -2.928  0.00  0.00     0.004 A 
ATOM      4  C5  UNL d   1       1.691   1.158  -1.557  0.00  0.00    -0.004 A 
ATOM      5  C6  UNL d   1       2.821   1.068  -0.737  0.00  0.00    -0.075 A 
ATOM      6  C7  UNL d   1       2.725   1.313   0.740  0.00  0.00     0.076 C 
ATOM      7  C8  UNL d   1       4.055   0.733  -1.311  0.00  0.00     0.001 A 
ENDROOT
BRANCH   1   8
ATOM      8  C1  UNL d   1       5.504   0.138  -3.292  0.00  0.00     0.053 C 
ATOM      9  C   UNL d   1       5.995   1.213  -4.248  0.00  0.00     0.018 C 
ENDBRANCH   1   8
TORSDOF 1
ENDMDL
