MODEL 1
REMARK minimizedAffinity 3.50106025
REMARK minimizedRMSD -1
REMARK  1 active torsions:
REMARK  status: ('A' for Active; 'I' for Inactive)
REMARK    1  A    between atoms: C1_2  and  C2_3 
ROOT
ATOM      1  C2  UNL d   1       0.571  -2.265   2.092  0.00  0.00    -0.073 A 
ATOM      2  C3  UNL d   1       1.446  -1.377   2.727  0.00  0.00    -0.002 A 
ATOM      3  C4  UNL d   1       0.950  -0.262   3.404  0.00  0.00     0.004 A 
ATOM      4  C5  UNL d   1      -0.423  -0.028   3.459  0.00  0.00    -0.004 A 
ATOM      5  C6  UNL d   1      -1.315  -0.910   2.840  0.00  0.00    -0.075 A 
ATOM      6  C7  UNL d   1      -2.796  -0.670   2.887  0.00  0.00     0.076 C 
ATOM      7  C8  UNL d   1      -0.809  -2.026   2.160  0.00  0.00     0.001 A 
ENDROOT
BRANCH   1   8
ATOM      8  C1  UNL d   1       1.101  -3.474   1.365  0.00  0.00     0.053 C 
ATOM      9  C   UNL d   1       2.482  -3.876   1.858  0.00  0.00     0.018 C 
ENDBRANCH   1   8
TORSDOF 1
ENDMDL
