MODEL 1
REMARK minimizedAffinity 12.9922276
REMARK minimizedRMSD -1
REMARK  1 active torsions:
REMARK  status: ('A' for Active; 'I' for Inactive)
REMARK    1  A    between atoms: C1_2  and  C2_3 
ROOT
ATOM      1  C2  UNL d   1       1.650  -1.471   1.136  0.00  0.00    -0.073 A 
ATOM      2  C3  UNL d   1       2.369  -0.323   0.784  0.00  0.00    -0.002 A 
ATOM      3  C4  UNL d   1       1.870   0.552  -0.182  0.00  0.00     0.004 A 
ATOM      4  C5  UNL d   1       0.646   0.293  -0.799  0.00  0.00    -0.004 A 
ATOM      5  C6  UNL d   1      -0.093  -0.843  -0.451  0.00  0.00    -0.075 A 
ATOM      6  C7  UNL d   1      -1.410  -1.137  -1.106  0.00  0.00     0.076 C 
ATOM      7  C8  UNL d   1       0.417  -1.718   0.518  0.00  0.00     0.001 A 
ENDROOT
BRANCH   1   8
ATOM      8  C1  UNL d   1       2.182  -2.416   2.183  0.00  0.00     0.053 C 
ATOM      9  C   UNL d   1       2.502  -3.785   1.605  0.00  0.00     0.018 C 
ENDBRANCH   1   8
TORSDOF 1
ENDMDL
