MODEL 1
REMARK minimizedAffinity 11.3199024
REMARK minimizedRMSD -1
REMARK  1 active torsions:
REMARK  status: ('A' for Active; 'I' for Inactive)
REMARK    1  A    between atoms: C1_2  and  C2_3 
ROOT
ATOM      1  C2  UNL d   1       0.861  -1.095   0.505  0.00  0.00    -0.073 A 
ATOM      2  C3  UNL d   1       0.326  -1.190  -0.785  0.00  0.00    -0.002 A 
ATOM      3  C4  UNL d   1       0.561  -0.184  -1.722  0.00  0.00     0.004 A 
ATOM      4  C5  UNL d   1       1.339   0.923  -1.383  0.00  0.00    -0.004 A 
ATOM      5  C6  UNL d   1       1.893   1.031  -0.104  0.00  0.00    -0.075 A 
ATOM      6  C7  UNL d   1       2.730   2.216   0.278  0.00  0.00     0.076 C 
ATOM      7  C8  UNL d   1       1.649   0.018   0.833  0.00  0.00     0.001 A 
ENDROOT
BRANCH   1   8
ATOM      8  C1  UNL d   1       0.614  -2.182   1.518  0.00  0.00     0.053 C 
ATOM      9  C   UNL d   1       0.470  -1.626   2.926  0.00  0.00     0.018 C 
ENDBRANCH   1   8
TORSDOF 1
ENDMDL
