MODEL 1
REMARK minimizedAffinity 5.84447193
REMARK minimizedRMSD -1
REMARK  1 active torsions:
REMARK  status: ('A' for Active; 'I' for Inactive)
REMARK    1  A    between atoms: C1_2  and  C2_3 
ROOT
ATOM      1  C2  UNL d   1       1.002  -1.458   3.337  0.00  0.00    -0.073 A 
ATOM      2  C3  UNL d   1       1.313  -2.030   2.098  0.00  0.00    -0.002 A 
ATOM      3  C4  UNL d   1       2.465  -2.803   1.947  0.00  0.00     0.004 A 
ATOM      4  C5  UNL d   1       3.313  -3.018   3.033  0.00  0.00    -0.004 A 
ATOM      5  C6  UNL d   1       3.014  -2.465   4.282  0.00  0.00    -0.075 A 
ATOM      6  C7  UNL d   1       3.918  -2.684   5.460  0.00  0.00     0.076 C 
ATOM      7  C8  UNL d   1       1.857  -1.687   4.425  0.00  0.00     0.001 A 
ENDROOT
BRANCH   1   8
ATOM      8  C1  UNL d   1      -0.244  -0.628   3.507  0.00  0.00     0.053 C 
ATOM      9  C   UNL d   1      -1.506  -1.471   3.425  0.00  0.00     0.018 C 
ENDBRANCH   1   8
TORSDOF 1
ENDMDL
