MODEL 1
REMARK minimizedAffinity 16.4805737
REMARK minimizedRMSD -1
REMARK  1 active torsions:
REMARK  status: ('A' for Active; 'I' for Inactive)
REMARK    1  A    between atoms: C1_2  and  C2_3 
ROOT
ATOM      1  C2  UNL d   1       0.943  -1.362   0.776  0.00  0.00    -0.073 A 
ATOM      2  C3  UNL d   1       0.369  -1.363  -0.500  0.00  0.00    -0.002 A 
ATOM      3  C4  UNL d   1       0.518  -0.259  -1.341  0.00  0.00     0.004 A 
ATOM      4  C5  UNL d   1       1.248   0.852  -0.919  0.00  0.00    -0.004 A 
ATOM      5  C6  UNL d   1       1.839   0.867   0.349  0.00  0.00    -0.075 A 
ATOM      6  C7  UNL d   1       2.625   2.055   0.819  0.00  0.00     0.076 C 
ATOM      7  C8  UNL d   1       1.682  -0.244   1.189  0.00  0.00     0.001 A 
ENDROOT
BRANCH   1   8
ATOM      8  C1  UNL d   1       0.789  -2.553   1.685  0.00  0.00     0.053 C 
ATOM      9  C   UNL d   1       2.132  -3.078   2.169  0.00  0.00     0.018 C 
ENDBRANCH   1   8
TORSDOF 1
ENDMDL
