MODEL 1
REMARK minimizedAffinity 12.7718716
REMARK minimizedRMSD -1
REMARK  1 active torsions:
REMARK  status: ('A' for Active; 'I' for Inactive)
REMARK    1  A    between atoms: C1_2  and  C2_3 
ROOT
ATOM      1  C2  UNL d   1       2.897  -2.684   3.593  0.00  0.00    -0.073 A 
ATOM      2  C3  UNL d   1       1.914  -1.733   3.294  0.00  0.00    -0.002 A 
ATOM      3  C4  UNL d   1       1.235  -1.780   2.076  0.00  0.00     0.004 A 
ATOM      4  C5  UNL d   1       1.527  -2.780   1.147  0.00  0.00    -0.004 A 
ATOM      5  C6  UNL d   1       2.498  -3.745   1.432  0.00  0.00    -0.075 A 
ATOM      6  C7  UNL d   1       2.825  -4.825   0.444  0.00  0.00     0.076 C 
ATOM      7  C8  UNL d   1       3.177  -3.690   2.657  0.00  0.00     0.001 A 
ENDROOT
BRANCH   1   8
ATOM      8  C1  UNL d   1       3.628  -2.641   4.910  0.00  0.00     0.053 C 
ATOM      9  C   UNL d   1       4.025  -4.029   5.386  0.00  0.00     0.018 C 
ENDBRANCH   1   8
TORSDOF 1
ENDMDL
