MODEL 1
REMARK minimizedAffinity 6.41918898
REMARK minimizedRMSD -1
REMARK  1 active torsions:
REMARK  status: ('A' for Active; 'I' for Inactive)
REMARK    1  A    between atoms: C1_2  and  C2_3 
ROOT
ATOM      1  C2  UNL d   1       2.034   3.987   3.834  0.00  0.00    -0.073 A 
ATOM      2  C3  UNL d   1       0.805   4.515   4.245  0.00  0.00    -0.002 A 
ATOM      3  C4  UNL d   1       0.758   5.513   5.219  0.00  0.00     0.004 A 
ATOM      4  C5  UNL d   1       1.936   5.997   5.787  0.00  0.00    -0.004 A 
ATOM      5  C6  UNL d   1       3.175   5.490   5.381  0.00  0.00    -0.075 A 
ATOM      6  C7  UNL d   1       4.452   5.998   5.983  0.00  0.00     0.076 C 
ATOM      7  C8  UNL d   1       3.214   4.486   4.404  0.00  0.00     0.001 A 
ENDROOT
BRANCH   1   8
ATOM      8  C1  UNL d   1       2.091   2.914   2.777  0.00  0.00     0.053 C 
ATOM      9  C   UNL d   1       2.820   1.671   3.265  0.00  0.00     0.018 C 
ENDBRANCH   1   8
TORSDOF 1
ENDMDL
