MODEL 1
REMARK minimizedAffinity 16.5381203
REMARK minimizedRMSD -1
REMARK  1 active torsions:
REMARK  status: ('A' for Active; 'I' for Inactive)
REMARK    1  A    between atoms: C1_2  and  C2_3 
ROOT
ATOM      1  C2  UNL d   1      -3.482  -1.280  -2.008  0.00  0.00    -0.073 A 
ATOM      2  C3  UNL d   1      -3.985  -0.059  -2.471  0.00  0.00    -0.002 A 
ATOM      3  C4  UNL d   1      -4.979  -0.032  -3.450  0.00  0.00     0.004 A 
ATOM      4  C5  UNL d   1      -5.483  -1.223  -3.971  0.00  0.00    -0.004 A 
ATOM      5  C6  UNL d   1      -5.001  -2.454  -3.513  0.00  0.00    -0.075 A 
ATOM      6  C7  UNL d   1      -5.532  -3.744  -4.065  0.00  0.00     0.076 C 
ATOM      7  C8  UNL d   1      -4.002  -2.472  -2.531  0.00  0.00     0.001 A 
ENDROOT
BRANCH   1   8
ATOM      8  C1  UNL d   1      -2.413  -1.314  -0.946  0.00  0.00     0.053 C 
ATOM      9  C   UNL d   1      -1.015  -1.276  -1.542  0.00  0.00     0.018 C 
ENDBRANCH   1   8
TORSDOF 1
ENDMDL
