MODEL 1
REMARK minimizedAffinity 12.2974453
REMARK minimizedRMSD -1
REMARK  2 active torsions:
REMARK  status: ('A' for Active; 'I' for Inactive)
REMARK    1  A    between atoms: C2'_3  and  C1'_4 
REMARK    2  A    between atoms: C1'_4  and  C1_5 
ROOT
ATOM      1  C1  I4B d   1       2.861   2.391   2.087  0.00  0.00    -0.075 A 
ATOM      2  C2  I4B d   1       1.788   1.654   2.521  0.00  0.00     0.003 A 
ATOM      3  C3  I4B d   1       1.454   0.436   1.880  0.00  0.00     0.002 A 
ATOM      4  C4  I4B d   1       2.185   0.021   0.786  0.00  0.00    -0.004 A 
ATOM      5  C5  I4B d   1       3.287   0.758   0.362  0.00  0.00     0.002 A 
ATOM      6  C6  I4B d   1       3.635   1.944   1.024  0.00  0.00     0.003 A 
ENDROOT
BRANCH   1   7
ATOM      7  C1' I4B d   1       3.165   3.689   2.766  0.00  0.00     0.060 C 
BRANCH   7   8
ATOM      8  C2' I4B d   1       3.986   4.533   1.812  0.00  0.00    -0.013 C 
ATOM      9  C4' I4B d   1       3.848   6.000   2.125  0.00  0.00     0.013 C 
ATOM     10  C3' I4B d   1       5.415   4.090   1.914  0.00  0.00     0.013 C 
ENDBRANCH   7   8
ENDBRANCH   1   7
TORSDOF 2
ENDMDL
