MODEL 1
REMARK minimizedAffinity 7.8679285
REMARK minimizedRMSD -1
REMARK  2 active torsions:
REMARK  status: ('A' for Active; 'I' for Inactive)
REMARK    1  A    between atoms: C2'_3  and  C1'_4 
REMARK    2  A    between atoms: C1'_4  and  C1_5 
ROOT
ATOM      1  C1  I4B d   1       3.245  -4.636  -2.528  0.00  0.00    -0.075 A 
ATOM      2  C2  I4B d   1       2.099  -3.988  -2.139  0.00  0.00     0.003 A 
ATOM      3  C3  I4B d   1       1.517  -3.004  -2.974  0.00  0.00     0.002 A 
ATOM      4  C4  I4B d   1       2.138  -2.666  -4.159  0.00  0.00    -0.004 A 
ATOM      5  C5  I4B d   1       3.287  -3.340  -4.563  0.00  0.00     0.002 A 
ATOM      6  C6  I4B d   1       3.837  -4.340  -3.749  0.00  0.00     0.003 A 
ENDROOT
BRANCH   1   7
ATOM      7  C1' I4B d   1       3.850  -5.646  -1.606  0.00  0.00     0.060 C 
BRANCH   7   8
ATOM      8  C2' I4B d   1       4.952  -4.962  -0.823  0.00  0.00    -0.013 C 
ATOM      9  C4' I4B d   1       4.404  -3.847   0.028  0.00  0.00     0.013 C 
ATOM     10  C3' I4B d   1       5.635  -5.999   0.018  0.00  0.00     0.013 C 
ENDBRANCH   7   8
ENDBRANCH   1   7
TORSDOF 2
ENDMDL
