MODEL 1
REMARK minimizedAffinity 1.63713372
REMARK minimizedRMSD -1
REMARK  2 active torsions:
REMARK  status: ('A' for Active; 'I' for Inactive)
REMARK    1  A    between atoms: C2'_3  and  C1'_4 
REMARK    2  A    between atoms: C1'_4  and  C1_5 
ROOT
ATOM      1  C1  I4B d   1       2.629  -0.493  -1.792  0.00  0.00    -0.075 A 
ATOM      2  C2  I4B d   1       3.732  -0.564  -0.979  0.00  0.00     0.003 A 
ATOM      3  C3  I4B d   1       3.791  -1.525   0.059  0.00  0.00     0.002 A 
ATOM      4  C4  I4B d   1       2.712  -2.356   0.279  0.00  0.00    -0.004 A 
ATOM      5  C5  I4B d   1       1.603  -2.298  -0.561  0.00  0.00     0.002 A 
ATOM      6  C6  I4B d   1       1.566  -1.369  -1.611  0.00  0.00     0.003 A 
ENDROOT
BRANCH   1   7
ATOM      7  C1' I4B d   1       2.585   0.556  -2.858  0.00  0.00     0.060 C 
BRANCH   7   8
ATOM      8  C2' I4B d   1       1.427   0.235  -3.782  0.00  0.00    -0.013 C 
ATOM      9  C4' I4B d   1       0.876   1.484  -4.418  0.00  0.00     0.013 C 
ATOM     10  C3' I4B d   1       1.917  -0.731  -4.819  0.00  0.00     0.013 C 
ENDBRANCH   7   8
ENDBRANCH   1   7
TORSDOF 2
ENDMDL
