MODEL 1
REMARK minimizedAffinity 19.4429073
REMARK minimizedRMSD -1
REMARK  2 active torsions:
REMARK  status: ('A' for Active; 'I' for Inactive)
REMARK    1  A    between atoms: C2'_3  and  C1'_4 
REMARK    2  A    between atoms: C1'_4  and  C1_5 
ROOT
ATOM      1  C1  I4B d   1       2.721   2.575   3.106  0.00  0.00    -0.075 A 
ATOM      2  C2  I4B d   1       3.302   3.505   2.280  0.00  0.00     0.003 A 
ATOM      3  C3  I4B d   1       3.717   3.140   0.976  0.00  0.00     0.002 A 
ATOM      4  C4  I4B d   1       3.579   1.832   0.560  0.00  0.00    -0.004 A 
ATOM      5  C5  I4B d   1       2.969   0.896   1.391  0.00  0.00     0.002 A 
ATOM      6  C6  I4B d   1       2.526   1.272   2.667  0.00  0.00     0.003 A 
ENDROOT
BRANCH   1   7
ATOM      7  C1' I4B d   1       2.325   2.987   4.488  0.00  0.00     0.060 C 
BRANCH   7   8
ATOM      8  C2' I4B d   1       3.540   3.592   5.162  0.00  0.00    -0.013 C 
ATOM      9  C4' I4B d   1       3.162   4.784   6.000  0.00  0.00     0.013 C 
ATOM     10  C3' I4B d   1       4.186   2.526   5.996  0.00  0.00     0.013 C 
ENDBRANCH   7   8
ENDBRANCH   1   7
TORSDOF 2
ENDMDL
