MODEL 1
REMARK minimizedAffinity 15.6886787
REMARK minimizedRMSD -1
REMARK  2 active torsions:
REMARK  status: ('A' for Active; 'I' for Inactive)
REMARK    1  A    between atoms: C2'_3  and  C1'_4 
REMARK    2  A    between atoms: C1'_4  and  C1_5 
ROOT
ATOM      1  C1  I4B d   1       2.124   1.158   5.105  0.00  0.00    -0.075 A 
ATOM      2  C2  I4B d   1       1.539   0.298   6.000  0.00  0.00     0.003 A 
ATOM      3  C3  I4B d   1       0.707  -0.751   5.540  0.00  0.00     0.002 A 
ATOM      4  C4  I4B d   1       0.448  -0.872   4.190  0.00  0.00    -0.004 A 
ATOM      5  C5  I4B d   1       1.061  -0.013   3.282  0.00  0.00     0.002 A 
ATOM      6  C6  I4B d   1       1.914   1.001   3.741  0.00  0.00     0.003 A 
ENDROOT
BRANCH   1   7
ATOM      7  C1' I4B d   1       2.971   2.276   5.627  0.00  0.00     0.060 C 
BRANCH   7   8
ATOM      8  C2' I4B d   1       2.423   3.575   5.073  0.00  0.00    -0.013 C 
ATOM      9  C4' I4B d   1       3.180   4.760   5.612  0.00  0.00     0.013 C 
ATOM     10  C3' I4B d   1       2.507   3.512   3.577  0.00  0.00     0.013 C 
ENDBRANCH   7   8
ENDBRANCH   1   7
TORSDOF 2
ENDMDL
