MODEL 1
REMARK minimizedAffinity 12.2066584
REMARK minimizedRMSD -1
REMARK  2 active torsions:
REMARK  status: ('A' for Active; 'I' for Inactive)
REMARK    1  A    between atoms: C2'_3  and  C1'_4 
REMARK    2  A    between atoms: C1'_4  and  C1_5 
ROOT
ATOM      1  C1  I4B d   1       3.863   2.940   2.032  0.00  0.00    -0.075 A 
ATOM      2  C2  I4B d   1       3.594   1.799   1.319  0.00  0.00     0.003 A 
ATOM      3  C3  I4B d   1       2.646   0.864   1.801  0.00  0.00     0.002 A 
ATOM      4  C4  I4B d   1       2.032   1.084   3.018  0.00  0.00    -0.004 A 
ATOM      5  C5  I4B d   1       2.290   2.253   3.728  0.00  0.00     0.002 A 
ATOM      6  C6  I4B d   1       3.202   3.193   3.227  0.00  0.00     0.003 A 
ENDROOT
BRANCH   1   7
ATOM      7  C1' I4B d   1       4.894   3.890   1.510  0.00  0.00     0.060 C 
BRANCH   7   8
ATOM      8  C2' I4B d   1       4.658   5.238   2.159  0.00  0.00    -0.013 C 
ATOM      9  C4' I4B d   1       5.948   5.999   2.320  0.00  0.00     0.013 C 
ATOM     10  C3' I4B d   1       3.685   5.998   1.308  0.00  0.00     0.013 C 
ENDBRANCH   7   8
ENDBRANCH   1   7
TORSDOF 2
ENDMDL
