MODEL 1
REMARK minimizedAffinity 20.6573219
REMARK minimizedRMSD -1
REMARK  2 active torsions:
REMARK  status: ('A' for Active; 'I' for Inactive)
REMARK    1  A    between atoms: C2'_3  and  C1'_4 
REMARK    2  A    between atoms: C1'_4  and  C1_5 
ROOT
ATOM      1  C1  I4B d   1       1.215   0.631   3.479  0.00  0.00    -0.075 A 
ATOM      2  C2  I4B d   1       1.761   1.872   3.688  0.00  0.00     0.003 A 
ATOM      3  C3  I4B d   1       2.193   2.655   2.590  0.00  0.00     0.002 A 
ATOM      4  C4  I4B d   1       2.107   2.140   1.313  0.00  0.00    -0.004 A 
ATOM      5  C5  I4B d   1       1.532   0.890   1.101  0.00  0.00     0.002 A 
ATOM      6  C6  I4B d   1       1.072   0.135   2.190  0.00  0.00     0.003 A 
ENDROOT
BRANCH   1   7
ATOM      7  C1' I4B d   1       0.799  -0.183   4.664  0.00  0.00     0.060 C 
BRANCH   7   8
ATOM      8  C2' I4B d   1      -0.356  -1.067   4.241  0.00  0.00    -0.013 C 
ATOM      9  C4' I4B d   1       0.034  -2.522   4.264  0.00  0.00     0.013 C 
ATOM     10  C3' I4B d   1      -1.506  -0.801   5.166  0.00  0.00     0.013 C 
ENDBRANCH   7   8
ENDBRANCH   1   7
TORSDOF 2
ENDMDL
