MODEL 1
REMARK minimizedAffinity 12.9436626
REMARK minimizedRMSD -1
REMARK  2 active torsions:
REMARK  status: ('A' for Active; 'I' for Inactive)
REMARK    1  A    between atoms: C2'_3  and  C1'_4 
REMARK    2  A    between atoms: C1'_4  and  C1_5 
ROOT
ATOM      1  C1  I4B d   1      -0.240  -2.331  -2.153  0.00  0.00    -0.075 A 
ATOM      2  C2  I4B d   1      -1.216  -1.481  -2.609  0.00  0.00     0.003 A 
ATOM      3  C3  I4B d   1      -2.521  -1.967  -2.869  0.00  0.00     0.002 A 
ATOM      4  C4  I4B d   1      -2.790  -3.311  -2.708  0.00  0.00    -0.004 A 
ATOM      5  C5  I4B d   1      -1.805  -4.167  -2.223  0.00  0.00     0.002 A 
ATOM      6  C6  I4B d   1      -0.526  -3.672  -1.932  0.00  0.00     0.003 A 
ENDROOT
BRANCH   1   7
ATOM      7  C1' I4B d   1       1.135  -1.791  -1.920  0.00  0.00     0.060 C 
BRANCH   7   8
ATOM      8  C2' I4B d   1       1.483  -2.011  -0.462  0.00  0.00    -0.013 C 
ATOM      9  C4' I4B d   1       2.663  -2.934  -0.316  0.00  0.00     0.013 C 
ATOM     10  C3' I4B d   1       1.763  -0.672   0.154  0.00  0.00     0.013 C 
ENDBRANCH   7   8
ENDBRANCH   1   7
TORSDOF 2
ENDMDL
