MODEL 1
REMARK minimizedAffinity 3.54884601
REMARK minimizedRMSD -1
REMARK  2 active torsions:
REMARK  status: ('A' for Active; 'I' for Inactive)
REMARK    1  A    between atoms: C2'_3  and  C1'_4 
REMARK    2  A    between atoms: C1'_4  and  C1_5 
ROOT
ATOM      1  C1  I4B d   1       1.405  -1.593  -2.200  0.00  0.00    -0.075 A 
ATOM      2  C2  I4B d   1       1.377  -0.307  -2.680  0.00  0.00     0.003 A 
ATOM      3  C3  I4B d   1       2.155   0.702  -2.062  0.00  0.00     0.002 A 
ATOM      4  C4  I4B d   1       2.902   0.394  -0.943  0.00  0.00    -0.004 A 
ATOM      5  C5  I4B d   1       2.947  -0.915  -0.472  0.00  0.00     0.002 A 
ATOM      6  C6  I4B d   1       2.204  -1.917  -1.111  0.00  0.00     0.003 A 
ENDROOT
BRANCH   1   7
ATOM      7  C1' I4B d   1       0.546  -2.626  -2.857  0.00  0.00     0.060 C 
BRANCH   7   8
ATOM      8  C2' I4B d   1      -0.521  -3.045  -1.865  0.00  0.00    -0.013 C 
ATOM      9  C4' I4B d   1      -1.894  -2.650  -2.343  0.00  0.00     0.013 C 
ATOM     10  C3' I4B d   1      -0.419  -4.529  -1.675  0.00  0.00     0.013 C 
ENDBRANCH   7   8
ENDBRANCH   1   7
TORSDOF 2
ENDMDL
