MODEL 1
REMARK minimizedAffinity -3.52831244
REMARK minimizedRMSD -1
REMARK  2 active torsions:
REMARK  status: ('A' for Active; 'I' for Inactive)
REMARK    1  A    between atoms: C2'_3  and  C1'_4 
REMARK    2  A    between atoms: C1'_4  and  C1_5 
ROOT
ATOM      1  C1  I4B d   1       0.928  -0.160  -0.899  0.00  0.00    -0.075 A 
ATOM      2  C2  I4B d   1       1.970  -0.147  -1.793  0.00  0.00     0.003 A 
ATOM      3  C3  I4B d   1       2.575  -1.361  -2.200  0.00  0.00     0.002 A 
ATOM      4  C4  I4B d   1       2.143  -2.552  -1.653  0.00  0.00    -0.004 A 
ATOM      5  C5  I4B d   1       1.072  -2.565  -0.765  0.00  0.00     0.002 A 
ATOM      6  C6  I4B d   1       0.452  -1.363  -0.395  0.00  0.00     0.003 A 
ENDROOT
BRANCH   1   7
ATOM      7  C1' I4B d   1       0.334   1.143  -0.466  0.00  0.00     0.060 C 
BRANCH   7   8
ATOM      8  C2' I4B d   1       0.834   1.442   0.933  0.00  0.00    -0.013 C 
ATOM      9  C4' I4B d   1       1.251   2.883   1.066  0.00  0.00     0.013 C 
ATOM     10  C3' I4B d   1      -0.262   1.104   1.899  0.00  0.00     0.013 C 
ENDBRANCH   7   8
ENDBRANCH   1   7
TORSDOF 2
ENDMDL
