MODEL 1
REMARK minimizedAffinity 11.8574753
REMARK minimizedRMSD -1
REMARK  0 active torsions:
REMARK  status: ('A' for Active; 'I' for Inactive)
ROOT
ATOM      1  C   UNL d   1       2.139  -1.983   2.626  0.00  0.00     0.124 A 
ATOM      2  C1  UNL d   1       1.798  -1.664   3.933  0.00  0.00     0.062 A 
ATOM      3  C2  UNL d   1       1.797  -0.337   4.352  0.00  0.00     0.162 A 
ATOM      4  C3  UNL d   1       2.138   0.683   3.463  0.00  0.00    -0.034 A 
ATOM      5  C4  UNL d   1       2.481   0.354   2.150  0.00  0.00     0.162 A 
ATOM      6  C5  UNL d   1       2.480  -0.974   1.736  0.00  0.00     0.062 A 
ATOM      7  F   UNL d   1       2.810  -1.280   0.473  0.00  0.00    -0.097 F 
ATOM      8  F1  UNL d   1       2.814   1.309   1.269  0.00  0.00    -0.096 F 
ATOM      9  I   UNL d   1       2.138   2.668   4.086  0.00  0.00    -0.060 I 
ATOM     10  F2  UNL d   1       1.464  -0.058   5.621  0.00  0.00    -0.096 F 
ATOM     11  F3  UNL d   1       1.469  -2.637   4.795  0.00  0.00    -0.097 F 
ATOM     12  F4  UNL d   1       2.140  -3.260   2.225  0.00  0.00    -0.092 F 
ENDROOT
TORSDOF 0
ENDMDL
