MODEL 1
REMARK minimizedAffinity 11.1806116
REMARK minimizedRMSD -1
REMARK  0 active torsions:
REMARK  status: ('A' for Active; 'I' for Inactive)
ROOT
ATOM      1  C   UNL d   1       3.036  -2.472   3.531  0.00  0.00     0.124 A 
ATOM      2  C1  UNL d   1       1.800  -1.861   3.369  0.00  0.00     0.062 A 
ATOM      3  C2  UNL d   1       1.670  -0.753   2.537  0.00  0.00     0.162 A 
ATOM      4  C3  UNL d   1       2.781  -0.247   1.860  0.00  0.00    -0.034 A 
ATOM      5  C4  UNL d   1       4.020  -0.866   2.029  0.00  0.00     0.162 A 
ATOM      6  C5  UNL d   1       4.144  -1.974   2.861  0.00  0.00     0.062 A 
ATOM      7  F   UNL d   1       5.339  -2.562   3.017  0.00  0.00    -0.097 F 
ATOM      8  F1  UNL d   1       5.108  -0.406   1.393  0.00  0.00    -0.096 F 
ATOM      9  I   UNL d   1       2.592   1.410   0.616  0.00  0.00    -0.060 I 
ATOM     10  F2  UNL d   1       0.464  -0.183   2.399  0.00  0.00    -0.096 F 
ATOM     11  F3  UNL d   1       0.727  -2.340   4.015  0.00  0.00    -0.097 F 
ATOM     12  F4  UNL d   1       3.157  -3.538   4.332  0.00  0.00    -0.092 F 
ENDROOT
TORSDOF 0
ENDMDL
