MODEL 1
REMARK minimizedAffinity 18.8206558
REMARK minimizedRMSD -1
REMARK  0 active torsions:
REMARK  status: ('A' for Active; 'I' for Inactive)
ROOT
ATOM      1  C   UNL d   1      -4.247   1.509  -2.547  0.00  0.00     0.124 A 
ATOM      2  C1  UNL d   1      -3.313   2.437  -2.106  0.00  0.00     0.062 A 
ATOM      3  C2  UNL d   1      -3.216   2.742  -0.752  0.00  0.00     0.162 A 
ATOM      4  C3  UNL d   1      -4.053   2.118   0.172  0.00  0.00    -0.034 A 
ATOM      5  C4  UNL d   1      -4.990   1.187  -0.279  0.00  0.00     0.162 A 
ATOM      6  C5  UNL d   1      -5.084   0.885  -1.633  0.00  0.00     0.062 A 
ATOM      7  F   UNL d   1      -5.987  -0.012  -2.057  0.00  0.00    -0.097 F 
ATOM      8  F1  UNL d   1      -5.812   0.568   0.583  0.00  0.00    -0.096 F 
ATOM      9  I   UNL d   1      -3.911   2.572   2.198  0.00  0.00    -0.060 I 
ATOM     10  F2  UNL d   1      -2.304   3.643  -0.354  0.00  0.00    -0.096 F 
ATOM     11  F3  UNL d   1      -2.504   3.042  -2.988  0.00  0.00    -0.097 F 
ATOM     12  F4  UNL d   1      -4.339   1.218  -3.851  0.00  0.00    -0.092 F 
ENDROOT
TORSDOF 0
ENDMDL
