MODEL 1
REMARK minimizedAffinity 19.11549
REMARK minimizedRMSD -1
REMARK  0 active torsions:
REMARK  status: ('A' for Active; 'I' for Inactive)
ROOT
ATOM      1  C   UNL d   1       1.869  -0.075   2.079  0.00  0.00     0.124 A 
ATOM      2  C1  UNL d   1       1.871  -1.191   2.904  0.00  0.00     0.062 A 
ATOM      3  C2  UNL d   1       3.049  -1.901   3.117  0.00  0.00     0.162 A 
ATOM      4  C3  UNL d   1       4.236  -1.496   2.506  0.00  0.00    -0.034 A 
ATOM      5  C4  UNL d   1       4.225  -0.372   1.677  0.00  0.00     0.162 A 
ATOM      6  C5  UNL d   1       3.045   0.334   1.467  0.00  0.00     0.062 A 
ATOM      7  F   UNL d   1       3.045   1.412   0.670  0.00  0.00    -0.097 F 
ATOM      8  F1  UNL d   1       5.348   0.045   1.074  0.00  0.00    -0.096 F 
ATOM      9  I   UNL d   1       6.000  -2.554   2.823  0.00  0.00    -0.060 I 
ATOM     10  F2  UNL d   1       3.023  -2.976   3.919  0.00  0.00    -0.096 F 
ATOM     11  F3  UNL d   1       0.736  -1.589   3.495  0.00  0.00    -0.097 F 
ATOM     12  F4  UNL d   1       0.734   0.606   1.874  0.00  0.00    -0.092 F 
ENDROOT
TORSDOF 0
ENDMDL
