MODEL 1
REMARK minimizedAffinity 21.3844852
REMARK minimizedRMSD -1
REMARK  0 active torsions:
REMARK  status: ('A' for Active; 'I' for Inactive)
ROOT
ATOM      1  C   UNL d   1       2.345   0.249   3.951  0.00  0.00     0.124 A 
ATOM      2  C1  UNL d   1       2.209  -1.025   3.416  0.00  0.00     0.062 A 
ATOM      3  C2  UNL d   1       2.293  -1.219   2.041  0.00  0.00     0.162 A 
ATOM      4  C3  UNL d   1       2.516  -0.137   1.189  0.00  0.00    -0.034 A 
ATOM      5  C4  UNL d   1       2.652   1.141   1.734  0.00  0.00     0.162 A 
ATOM      6  C5  UNL d   1       2.567   1.330   3.110  0.00  0.00     0.062 A 
ATOM      7  F   UNL d   1       2.699   2.561   3.625  0.00  0.00    -0.097 F 
ATOM      8  F1  UNL d   1       2.867   2.204   0.945  0.00  0.00    -0.096 F 
ATOM      9  I   UNL d   1       2.643  -0.423  -0.868  0.00  0.00    -0.060 I 
ATOM     10  F2  UNL d   1       2.157  -2.461   1.552  0.00  0.00    -0.096 F 
ATOM     11  F3  UNL d   1       1.994  -2.071   4.227  0.00  0.00    -0.097 F 
ATOM     12  F4  UNL d   1       2.263   0.433   5.275  0.00  0.00    -0.092 F 
ENDROOT
TORSDOF 0
ENDMDL
