MODEL 1
REMARK minimizedAffinity 16.8583717
REMARK minimizedRMSD -1
REMARK  0 active torsions:
REMARK  status: ('A' for Active; 'I' for Inactive)
ROOT
ATOM      1  C   UNL d   1      -4.238  -2.660  -2.426  0.00  0.00     0.124 A 
ATOM      2  C1  UNL d   1      -3.203  -2.010  -3.084  0.00  0.00     0.062 A 
ATOM      3  C2  UNL d   1      -1.908  -2.062  -2.576  0.00  0.00     0.162 A 
ATOM      4  C3  UNL d   1      -1.641  -2.768  -1.403  0.00  0.00    -0.034 A 
ATOM      5  C4  UNL d   1      -2.687  -3.418  -0.746  0.00  0.00     0.162 A 
ATOM      6  C5  UNL d   1      -3.979  -3.363  -1.258  0.00  0.00     0.062 A 
ATOM      7  F   UNL d   1      -4.978  -3.991  -0.621  0.00  0.00    -0.097 F 
ATOM      8  F1  UNL d   1      -2.465  -4.105   0.384  0.00  0.00    -0.096 F 
ATOM      9  I   UNL d   1       0.294  -2.848  -0.639  0.00  0.00    -0.060 I 
ATOM     10  F2  UNL d   1      -0.927  -1.425  -3.233  0.00  0.00    -0.096 F 
ATOM     11  F3  UNL d   1      -3.450  -1.329  -4.213  0.00  0.00    -0.097 F 
ATOM     12  F4  UNL d   1      -5.483  -2.607  -2.917  0.00  0.00    -0.092 F 
ENDROOT
TORSDOF 0
ENDMDL
