MODEL 1
REMARK minimizedAffinity 14.7887125
REMARK minimizedRMSD -1
REMARK  0 active torsions:
REMARK  status: ('A' for Active; 'I' for Inactive)
ROOT
ATOM      1  C   UNL d   1       2.579   0.273   1.494  0.00  0.00     0.124 A 
ATOM      2  C1  UNL d   1       2.211   1.580   1.204  0.00  0.00     0.062 A 
ATOM      3  C2  UNL d   1       0.871   1.954   1.242  0.00  0.00     0.162 A 
ATOM      4  C3  UNL d   1      -0.112   1.020   1.572  0.00  0.00    -0.034 A 
ATOM      5  C4  UNL d   1       0.267  -0.292   1.862  0.00  0.00     0.162 A 
ATOM      6  C5  UNL d   1       1.607  -0.661   1.823  0.00  0.00     0.062 A 
ATOM      7  F   UNL d   1       1.961  -1.924   2.103  0.00  0.00    -0.097 F 
ATOM      8  F1  UNL d   1      -0.652  -1.215   2.183  0.00  0.00    -0.096 F 
ATOM      9  I   UNL d   1      -2.117   1.576   1.630  0.00  0.00    -0.060 I 
ATOM     10  F2  UNL d   1       0.543   3.223   0.957  0.00  0.00    -0.096 F 
ATOM     11  F3  UNL d   1       3.148   2.484   0.886  0.00  0.00    -0.097 F 
ATOM     12  F4  UNL d   1       3.869  -0.084   1.456  0.00  0.00    -0.092 F 
ENDROOT
TORSDOF 0
ENDMDL
