MODEL 1
REMARK minimizedAffinity 8.36733723
REMARK minimizedRMSD -1
REMARK  0 active torsions:
REMARK  status: ('A' for Active; 'I' for Inactive)
ROOT
ATOM      1  C   UNL d   1       2.420   0.043   2.101  0.00  0.00     0.124 A 
ATOM      2  C1  UNL d   1       2.271   1.411   1.920  0.00  0.00     0.062 A 
ATOM      3  C2  UNL d   1       1.024   1.945   1.612  0.00  0.00     0.162 A 
ATOM      4  C3  UNL d   1      -0.087   1.111   1.483  0.00  0.00    -0.034 A 
ATOM      5  C4  UNL d   1       0.070  -0.264   1.666  0.00  0.00     0.162 A 
ATOM      6  C5  UNL d   1       1.320  -0.793   1.974  0.00  0.00     0.062 A 
ATOM      7  F   UNL d   1       1.461  -2.115   2.148  0.00  0.00    -0.097 F 
ATOM      8  F1  UNL d   1      -0.976  -1.095   1.550  0.00  0.00    -0.096 F 
ATOM      9  I   UNL d   1      -1.954   1.906   1.023  0.00  0.00    -0.060 I 
ATOM     10  F2  UNL d   1       0.910   3.271   1.442  0.00  0.00    -0.096 F 
ATOM     11  F3  UNL d   1       3.333   2.221   2.041  0.00  0.00    -0.097 F 
ATOM     12  F4  UNL d   1       3.622  -0.468   2.396  0.00  0.00    -0.092 F 
ENDROOT
TORSDOF 0
ENDMDL
