MODEL 1
REMARK minimizedAffinity 1.3924439
REMARK minimizedRMSD -1
REMARK  0 active torsions:
REMARK  status: ('A' for Active; 'I' for Inactive)
ROOT
ATOM      1  C   UNL d   1      -2.843   4.414  -0.697  0.00  0.00     0.020 A 
ATOM      2  C1  UNL d   1      -3.931   3.862  -0.022  0.00  0.00     0.020 A 
ATOM      3  C2  UNL d   1      -3.892   2.529   0.391  0.00  0.00     0.034 A 
ATOM      4  C3  UNL d   1      -2.764   1.743   0.130  0.00  0.00     0.017 A 
ATOM      5  C4  UNL d   1      -1.672   2.298  -0.548  0.00  0.00     0.017 A 
ATOM      6  C5  UNL d   1      -1.716   3.634  -0.959  0.00  0.00     0.034 A 
ATOM      7 Cl   UNL d   1      -0.245   1.392  -0.906  0.00  0.00    -0.070 Cl
ATOM      8 Cl1  UNL d   1      -2.785   0.102   0.670  0.00  0.00    -0.070 Cl
ENDROOT
TORSDOF 0
ENDMDL
