MODEL 1
REMARK minimizedAffinity -1.94414032
REMARK minimizedRMSD -1
REMARK  0 active torsions:
REMARK  status: ('A' for Active; 'I' for Inactive)
ROOT
ATOM      1  C   UNL d   1      -2.845  -0.730   3.737  0.00  0.00     0.020 A 
ATOM      2  C1  UNL d   1      -2.893   0.658   3.619  0.00  0.00     0.020 A 
ATOM      3  C2  UNL d   1      -2.608   1.265   2.393  0.00  0.00     0.034 A 
ATOM      4  C3  UNL d   1      -2.275   0.483   1.281  0.00  0.00     0.017 A 
ATOM      5  C4  UNL d   1      -2.227  -0.911   1.401  0.00  0.00     0.017 A 
ATOM      6  C5  UNL d   1      -2.513  -1.513   2.630  0.00  0.00     0.034 A 
ATOM      7 Cl   UNL d   1      -1.824  -1.942   0.074  0.00  0.00    -0.070 Cl
ATOM      8 Cl1  UNL d   1      -1.935   1.300  -0.203  0.00  0.00    -0.070 Cl
ENDROOT
TORSDOF 0
ENDMDL
