MODEL 1
REMARK minimizedAffinity -2.16299844
REMARK minimizedRMSD -1
REMARK  0 active torsions:
REMARK  status: ('A' for Active; 'I' for Inactive)
ROOT
ATOM      1  C   UNL d   1      -2.257   1.511   0.679  0.00  0.00     0.020 A 
ATOM      2  C1  UNL d   1      -3.206   0.758  -0.011  0.00  0.00     0.020 A 
ATOM      3  C2  UNL d   1      -4.133  -0.012   0.694  0.00  0.00     0.034 A 
ATOM      4  C3  UNL d   1      -4.113  -0.031   2.094  0.00  0.00     0.017 A 
ATOM      5  C4  UNL d   1      -3.160   0.725   2.785  0.00  0.00     0.017 A 
ATOM      6  C5  UNL d   1      -2.234   1.495   2.074  0.00  0.00     0.034 A 
ATOM      7 Cl   UNL d   1      -3.072   0.753   4.511  0.00  0.00    -0.070 Cl
ATOM      8 Cl1  UNL d   1      -5.289  -1.005   2.901  0.00  0.00    -0.070 Cl
ENDROOT
TORSDOF 0
ENDMDL
