MODEL 1
REMARK minimizedAffinity 8.99735451
REMARK minimizedRMSD -1
REMARK  0 active torsions:
REMARK  status: ('A' for Active; 'I' for Inactive)
ROOT
ATOM      1  C   UNL d   1      -1.738  -0.536   3.794  0.00  0.00     0.020 A 
ATOM      2  C1  UNL d   1      -2.871  -0.738   4.581  0.00  0.00     0.020 A 
ATOM      3  C2  UNL d   1      -4.105  -0.987   3.976  0.00  0.00     0.034 A 
ATOM      4  C3  UNL d   1      -4.209  -1.035   2.581  0.00  0.00     0.017 A 
ATOM      5  C4  UNL d   1      -3.070  -0.833   1.793  0.00  0.00     0.017 A 
ATOM      6  C5  UNL d   1      -1.837  -0.584   2.403  0.00  0.00     0.034 A 
ATOM      7 Cl   UNL d   1      -3.119  -0.878   0.066  0.00  0.00    -0.070 Cl
ATOM      8 Cl1  UNL d   1      -5.766  -1.348   1.902  0.00  0.00    -0.070 Cl
ENDROOT
TORSDOF 0
ENDMDL
