MODEL 1
REMARK minimizedAffinity 0.918693364
REMARK minimizedRMSD -1
REMARK  0 active torsions:
REMARK  status: ('A' for Active; 'I' for Inactive)
ROOT
ATOM      1  C   UNL d   1      -2.351   3.297   0.952  0.00  0.00     0.020 A 
ATOM      2  C1  UNL d   1      -3.316   3.611  -0.005  0.00  0.00     0.020 A 
ATOM      3  C2  UNL d   1      -4.085   2.597  -0.579  0.00  0.00     0.034 A 
ATOM      4  C3  UNL d   1      -3.892   1.264  -0.197  0.00  0.00     0.017 A 
ATOM      5  C4  UNL d   1      -2.923   0.951   0.764  0.00  0.00     0.017 A 
ATOM      6  C5  UNL d   1      -2.156   1.970   1.335  0.00  0.00     0.034 A 
ATOM      7 Cl   UNL d   1      -2.627  -0.670   1.286  0.00  0.00    -0.070 Cl
ATOM      8 Cl1  UNL d   1      -4.879   0.061  -0.948  0.00  0.00    -0.070 Cl
ENDROOT
TORSDOF 0
ENDMDL
