MODEL 1
REMARK minimizedAffinity 4.94701672
REMARK minimizedRMSD -1
REMARK  0 active torsions:
REMARK  status: ('A' for Active; 'I' for Inactive)
ROOT
ATOM      1  C   UNL d   1       5.985   0.767   5.500  0.00  0.00     0.020 A 
ATOM      2  C1  UNL d   1       5.420  -0.045   4.517  0.00  0.00     0.020 A 
ATOM      3  C2  UNL d   1       4.869   0.529   3.369  0.00  0.00     0.034 A 
ATOM      4  C3  UNL d   1       4.882   1.918   3.201  0.00  0.00     0.017 A 
ATOM      5  C4  UNL d   1       5.449   2.732   4.188  0.00  0.00     0.017 A 
ATOM      6  C5  UNL d   1       6.000   2.153   5.335  0.00  0.00     0.034 A 
ATOM      7 Cl   UNL d   1       5.502   4.454   4.051  0.00  0.00    -0.070 Cl
ATOM      8 Cl1  UNL d   1       4.183   2.559   1.757  0.00  0.00    -0.070 Cl
ENDROOT
TORSDOF 0
ENDMDL
