MODEL 1
REMARK minimizedAffinity 5.44566202
REMARK minimizedRMSD -1
REMARK  0 active torsions:
REMARK  status: ('A' for Active; 'I' for Inactive)
ROOT
ATOM      1  C   UNL d   1       5.310   0.415   4.292  0.00  0.00     0.020 A 
ATOM      2  C1  UNL d   1       5.993   1.104   5.293  0.00  0.00     0.020 A 
ATOM      3  C2  UNL d   1       5.999   2.500   5.301  0.00  0.00     0.034 A 
ATOM      4  C3  UNL d   1       5.320   3.212   4.306  0.00  0.00     0.017 A 
ATOM      5  C4  UNL d   1       4.634   2.520   3.301  0.00  0.00     0.017 A 
ATOM      6  C5  UNL d   1       4.631   1.122   3.298  0.00  0.00     0.034 A 
ATOM      7 Cl   UNL d   1       3.773   3.330   2.040  0.00  0.00    -0.070 Cl
ATOM      8 Cl1  UNL d   1       5.369   4.938   4.378  0.00  0.00    -0.070 Cl
ENDROOT
TORSDOF 0
ENDMDL
