MODEL 1
REMARK minimizedAffinity 2.53417993
REMARK minimizedRMSD -1
REMARK  0 active torsions:
REMARK  status: ('A' for Active; 'I' for Inactive)
ROOT
ATOM      1  C   UNL d   1       4.855  -1.212   4.872  0.00  0.00     0.020 A 
ATOM      2  C1  UNL d   1       5.658  -0.659   5.869  0.00  0.00     0.020 A 
ATOM      3  C2  UNL d   1       5.999   0.694   5.820  0.00  0.00     0.034 A 
ATOM      4  C3  UNL d   1       5.537   1.500   4.773  0.00  0.00     0.017 A 
ATOM      5  C4  UNL d   1       4.730   0.944   3.773  0.00  0.00     0.017 A 
ATOM      6  C5  UNL d   1       4.392  -0.411   3.826  0.00  0.00     0.034 A 
ATOM      7 Cl   UNL d   1       4.122   1.875   2.450  0.00  0.00    -0.070 Cl
ATOM      8 Cl1  UNL d   1       5.997   3.165   4.777  0.00  0.00    -0.070 Cl
ENDROOT
TORSDOF 0
ENDMDL
