MODEL 1
REMARK minimizedAffinity 1.75753927
REMARK minimizedRMSD -1
REMARK  0 active torsions:
REMARK  status: ('A' for Active; 'I' for Inactive)
ROOT
ATOM      1  C   UNL d   1      -3.554   4.091   0.039  0.00  0.00     0.020 A 
ATOM      2  C1  UNL d   1      -2.652   3.918   1.088  0.00  0.00     0.020 A 
ATOM      3  C2  UNL d   1      -2.379   2.636   1.570  0.00  0.00     0.034 A 
ATOM      4  C3  UNL d   1      -3.009   1.522   1.004  0.00  0.00     0.017 A 
ATOM      5  C4  UNL d   1      -3.914   1.697  -0.049  0.00  0.00     0.017 A 
ATOM      6  C5  UNL d   1      -4.184   2.983  -0.528  0.00  0.00     0.034 A 
ATOM      7 Cl   UNL d   1      -4.731   0.371  -0.800  0.00  0.00    -0.070 Cl
ATOM      8 Cl1  UNL d   1      -2.624  -0.034   1.649  0.00  0.00    -0.070 Cl
ENDROOT
TORSDOF 0
ENDMDL
