MODEL 1
REMARK minimizedAffinity -1.18644226
REMARK minimizedRMSD -1
REMARK  0 active torsions:
REMARK  status: ('A' for Active; 'I' for Inactive)
ROOT
ATOM      1  C   UNL d   1      -0.836  -4.667   0.206  0.00  0.00     0.020 A 
ATOM      2  C1  UNL d   1      -0.010  -4.975   1.287  0.00  0.00     0.020 A 
ATOM      3  C2  UNL d   1       1.058  -4.136   1.609  0.00  0.00     0.034 A 
ATOM      4  C3  UNL d   1       1.304  -2.986   0.851  0.00  0.00     0.017 A 
ATOM      5  C4  UNL d   1       0.474  -2.678  -0.233  0.00  0.00     0.017 A 
ATOM      6  C5  UNL d   1      -0.594  -3.521  -0.552  0.00  0.00     0.034 A 
ATOM      7 Cl   UNL d   1       0.714  -1.276  -1.215  0.00  0.00    -0.070 Cl
ATOM      8 Cl1  UNL d   1       2.643  -1.993   1.307  0.00  0.00    -0.070 Cl
ENDROOT
TORSDOF 0
ENDMDL
