MODEL 1
REMARK minimizedAffinity 7.76947546
REMARK minimizedRMSD -1
REMARK  0 active torsions:
REMARK  status: ('A' for Active; 'I' for Inactive)
ROOT
ATOM      1  C   UNL d   1       5.940   0.385   4.486  0.00  0.00     0.020 A 
ATOM      2  C1  UNL d   1       5.190  -0.249   3.497  0.00  0.00     0.020 A 
ATOM      3  C2  UNL d   1       4.487   0.511   2.559  0.00  0.00     0.034 A 
ATOM      4  C3  UNL d   1       4.532   1.909   2.610  0.00  0.00     0.017 A 
ATOM      5  C4  UNL d   1       5.285   2.544   3.603  0.00  0.00     0.017 A 
ATOM      6  C5  UNL d   1       5.988   1.779   4.539  0.00  0.00     0.034 A 
ATOM      7 Cl   UNL d   1       5.390   4.265   3.730  0.00  0.00    -0.070 Cl
ATOM      8 Cl1  UNL d   1       3.638   2.785   1.419  0.00  0.00    -0.070 Cl
ENDROOT
TORSDOF 0
ENDMDL
