MODEL 1
REMARK minimizedAffinity 0.971762359
REMARK minimizedRMSD -1
REMARK  0 active torsions:
REMARK  status: ('A' for Active; 'I' for Inactive)
ROOT
ATOM      1  C   UNL d   1       4.883   2.429   1.993  0.00  0.00     0.020 A 
ATOM      2  C1  UNL d   1       5.666   2.984   3.004  0.00  0.00     0.020 A 
ATOM      3  C2  UNL d   1       5.999   2.224   4.127  0.00  0.00     0.034 A 
ATOM      4  C3  UNL d   1       5.549   0.903   4.242  0.00  0.00     0.017 A 
ATOM      5  C4  UNL d   1       4.764   0.346   3.226  0.00  0.00     0.017 A 
ATOM      6  C5  UNL d   1       4.433   1.112   2.104  0.00  0.00     0.034 A 
ATOM      7 Cl   UNL d   1       4.171  -1.276   3.296  0.00  0.00    -0.070 Cl
ATOM      8 Cl1  UNL d   1       6.000   0.021   5.657  0.00  0.00    -0.070 Cl
ENDROOT
TORSDOF 0
ENDMDL
