MODEL 1
REMARK minimizedAffinity 10.1810617
REMARK minimizedRMSD -1
REMARK  0 active torsions:
REMARK  status: ('A' for Active; 'I' for Inactive)
ROOT
ATOM      1  C   UNL d   1       6.000   0.986   4.560  0.00  0.00     0.020 A 
ATOM      2  C1  UNL d   1       5.221   0.234   3.681  0.00  0.00     0.020 A 
ATOM      3  C2  UNL d   1       4.442   0.876   2.716  0.00  0.00     0.034 A 
ATOM      4  C3  UNL d   1       4.439   2.273   2.628  0.00  0.00     0.017 A 
ATOM      5  C4  UNL d   1       5.221   3.026   3.511  0.00  0.00     0.017 A 
ATOM      6  C5  UNL d   1       5.999   2.379   4.476  0.00  0.00     0.034 A 
ATOM      7 Cl   UNL d   1       5.269   4.753   3.464  0.00  0.00    -0.070 Cl
ATOM      8 Cl1  UNL d   1       3.451   2.999   1.411  0.00  0.00    -0.070 Cl
ENDROOT
TORSDOF 0
ENDMDL
