MODEL 1
REMARK minimizedAffinity -0.125507638
REMARK minimizedRMSD -1
REMARK  0 active torsions:
REMARK  status: ('A' for Active; 'I' for Inactive)
ROOT
ATOM      1  C   UNL d   1       5.841   0.366   5.153  0.00  0.00     0.020 A 
ATOM      2  C1  UNL d   1       5.999   1.077   3.964  0.00  0.00     0.020 A 
ATOM      3  C2  UNL d   1       5.129   0.851   2.895  0.00  0.00     0.034 A 
ATOM      4  C3  UNL d   1       4.098  -0.088   3.012  0.00  0.00     0.017 A 
ATOM      5  C4  UNL d   1       3.940  -0.801   4.206  0.00  0.00     0.017 A 
ATOM      6  C5  UNL d   1       4.814  -0.571   5.273  0.00  0.00     0.034 A 
ATOM      7 Cl   UNL d   1       2.692  -1.975   4.426  0.00  0.00    -0.070 Cl
ATOM      8 Cl1  UNL d   1       3.059  -0.315   1.650  0.00  0.00    -0.070 Cl
ENDROOT
TORSDOF 0
ENDMDL
