MODEL 1
REMARK minimizedAffinity 2.75089574
REMARK minimizedRMSD -1
REMARK  0 active torsions:
REMARK  status: ('A' for Active; 'I' for Inactive)
ROOT
ATOM      1  C   UNL d   1      -2.728   5.244   0.490  0.00  0.00     0.020 A 
ATOM      2  C1  UNL d   1      -3.954   4.661   0.806  0.00  0.00     0.020 A 
ATOM      3  C2  UNL d   1      -4.144   3.290   0.618  0.00  0.00     0.034 A 
ATOM      4  C3  UNL d   1      -3.106   2.498   0.113  0.00  0.00     0.017 A 
ATOM      5  C4  UNL d   1      -1.876   3.085  -0.204  0.00  0.00     0.017 A 
ATOM      6  C5  UNL d   1      -1.691   4.458  -0.013  0.00  0.00     0.034 A 
ATOM      7 Cl   UNL d   1      -0.548   2.173  -0.831  0.00  0.00    -0.070 Cl
ATOM      8 Cl1  UNL d   1      -3.411   0.810  -0.094  0.00  0.00    -0.070 Cl
ENDROOT
TORSDOF 0
ENDMDL
