MODEL 1
REMARK minimizedAffinity 2.26500154
REMARK minimizedRMSD -1
REMARK  0 active torsions:
REMARK  status: ('A' for Active; 'I' for Inactive)
ROOT
ATOM      1  C   UNL d   1      -3.352  -0.768   3.840  0.00  0.00     0.020 A 
ATOM      2  C1  UNL d   1      -2.956   0.529   4.166  0.00  0.00     0.020 A 
ATOM      3  C2  UNL d   1      -2.859   1.501   3.169  0.00  0.00     0.034 A 
ATOM      4  C3  UNL d   1      -3.157   1.178   1.840  0.00  0.00     0.017 A 
ATOM      5  C4  UNL d   1      -3.554  -0.123   1.513  0.00  0.00     0.017 A 
ATOM      6  C5  UNL d   1      -3.650  -1.093   2.516  0.00  0.00     0.034 A 
ATOM      7 Cl   UNL d   1      -3.939  -0.597  -0.104  0.00  0.00    -0.070 Cl
ATOM      8 Cl1  UNL d   1      -3.016   2.430   0.658  0.00  0.00    -0.070 Cl
ENDROOT
TORSDOF 0
ENDMDL
