MODEL 1
REMARK minimizedAffinity -0.988258302
REMARK minimizedRMSD -1
REMARK  0 active torsions:
REMARK  status: ('A' for Active; 'I' for Inactive)
ROOT
ATOM      1  C   UNL d   1       5.095   0.924   4.325  0.00  0.00     0.020 A 
ATOM      2  C1  UNL d   1       4.701   1.336   3.052  0.00  0.00     0.020 A 
ATOM      3  C2  UNL d   1       3.893   0.509   2.269  0.00  0.00     0.034 A 
ATOM      4  C3  UNL d   1       3.476  -0.734   2.759  0.00  0.00     0.017 A 
ATOM      5  C4  UNL d   1       3.871  -1.147   4.036  0.00  0.00     0.017 A 
ATOM      6  C5  UNL d   1       4.681  -0.314   4.816  0.00  0.00     0.034 A 
ATOM      7 Cl   UNL d   1       3.396  -2.667   4.708  0.00  0.00    -0.070 Cl
ATOM      8 Cl1  UNL d   1       2.477  -1.706   1.737  0.00  0.00    -0.070 Cl
ENDROOT
TORSDOF 0
ENDMDL
