MODEL 1
REMARK minimizedAffinity 0.108758211
REMARK minimizedRMSD -1
REMARK  0 active torsions:
REMARK  status: ('A' for Active; 'I' for Inactive)
ROOT
ATOM      1  C   UNL d   1      -3.394   3.302  -0.530  0.00  0.00     0.020 A 
ATOM      2  C1  UNL d   1      -2.858   3.678   0.701  0.00  0.00     0.020 A 
ATOM      3  C2  UNL d   1      -2.676   2.723   1.703  0.00  0.00     0.034 A 
ATOM      4  C3  UNL d   1      -3.029   1.388   1.476  0.00  0.00     0.017 A 
ATOM      5  C4  UNL d   1      -3.566   1.012   0.240  0.00  0.00     0.017 A 
ATOM      6  C5  UNL d   1      -3.747   1.972  -0.760  0.00  0.00     0.034 A 
ATOM      7 Cl   UNL d   1      -4.026  -0.616  -0.114  0.00  0.00    -0.070 Cl
ATOM      8 Cl1  UNL d   1      -2.776   0.260   2.761  0.00  0.00    -0.070 Cl
ENDROOT
TORSDOF 0
ENDMDL
