MODEL 1
REMARK minimizedAffinity 1.81088161
REMARK minimizedRMSD -1
REMARK  0 active torsions:
REMARK  status: ('A' for Active; 'I' for Inactive)
ROOT
ATOM      1  C   UNL d   1       0.786  -4.330   1.027  0.00  0.00     0.020 A 
ATOM      2  C1  UNL d   1       1.792  -4.217   0.068  0.00  0.00     0.020 A 
ATOM      3  C2  UNL d   1       1.616  -3.375  -1.032  0.00  0.00     0.034 A 
ATOM      4  C3  UNL d   1       0.432  -2.642  -1.176  0.00  0.00     0.017 A 
ATOM      5  C4  UNL d   1      -0.577  -2.756  -0.213  0.00  0.00     0.017 A 
ATOM      6  C5  UNL d   1      -0.396  -3.601   0.887  0.00  0.00     0.034 A 
ATOM      7 Cl   UNL d   1      -2.066  -1.885  -0.321  0.00  0.00    -0.070 Cl
ATOM      8 Cl1  UNL d   1       0.282  -1.620  -2.561  0.00  0.00    -0.070 Cl
ENDROOT
TORSDOF 0
ENDMDL
