MODEL 1
REMARK minimizedAffinity -0.679544032
REMARK minimizedRMSD -1
REMARK  0 active torsions:
REMARK  status: ('A' for Active; 'I' for Inactive)
ROOT
ATOM      1  C   UNL d   1      -0.872  -2.479   1.324  0.00  0.00     0.023 A 
ATOM      2  C1  UNL d   1      -0.070  -2.569   0.186  0.00  0.00     0.003 A 
ATOM      3  C2  UNL d   1       0.393  -1.408  -0.436  0.00  0.00     0.048 A 
ATOM      4  C3  UNL d   1       0.053  -0.160   0.086  0.00  0.00     0.023 A 
ATOM      5  C4  UNL d   1      -0.748  -0.066   1.225  0.00  0.00     0.048 A 
ATOM      6  C5  UNL d   1      -1.210  -1.229   1.843  0.00  0.00     0.003 A 
ATOM      7  I   UNL d   1       0.742   1.569  -0.838  0.00  0.00    -0.146 I 
ENDROOT
TORSDOF 0
ENDMDL
