MODEL 1
REMARK minimizedAffinity -0.467933834
REMARK minimizedRMSD -1
REMARK  0 active torsions:
REMARK  status: ('A' for Active; 'I' for Inactive)
ROOT
ATOM      1  C   UNL d   1      -0.750  -2.385   1.809  0.00  0.00     0.023 A 
ATOM      2  C1  UNL d   1       0.193  -2.536   0.792  0.00  0.00     0.003 A 
ATOM      3  C2  UNL d   1       0.541  -1.445  -0.007  0.00  0.00     0.048 A 
ATOM      4  C3  UNL d   1      -0.056  -0.205   0.218  0.00  0.00     0.023 A 
ATOM      5  C4  UNL d   1      -0.998  -0.048   1.236  0.00  0.00     0.048 A 
ATOM      6  C5  UNL d   1      -1.344  -1.142   2.031  0.00  0.00     0.003 A 
ATOM      7  I   UNL d   1       0.462   1.421  -0.969  0.00  0.00    -0.146 I 
ENDROOT
TORSDOF 0
ENDMDL
