MODEL 1
REMARK minimizedAffinity -4.86030436
REMARK minimizedRMSD -1
REMARK  0 active torsions:
REMARK  status: ('A' for Active; 'I' for Inactive)
ROOT
ATOM      1  C   UNL d   1      -1.340  -2.038   1.124  0.00  0.00     0.023 A 
ATOM      2  C1  UNL d   1      -2.079  -0.917   0.744  0.00  0.00     0.003 A 
ATOM      3  C2  UNL d   1      -1.480   0.091  -0.014  0.00  0.00     0.048 A 
ATOM      4  C3  UNL d   1      -0.143  -0.028  -0.390  0.00  0.00     0.023 A 
ATOM      5  C4  UNL d   1       0.600  -1.148  -0.013  0.00  0.00     0.048 A 
ATOM      6  C5  UNL d   1      -0.003  -2.153   0.746  0.00  0.00     0.003 A 
ATOM      7  I   UNL d   1       0.750   1.471  -1.519  0.00  0.00    -0.146 I 
ENDROOT
TORSDOF 0
ENDMDL
