MODEL 1
REMARK minimizedAffinity -2.68794346
REMARK minimizedRMSD -1
REMARK  0 active torsions:
REMARK  status: ('A' for Active; 'I' for Inactive)
ROOT
ATOM      1  C   UNL d   1      -0.716  -2.833   1.177  0.00  0.00     0.023 A 
ATOM      2  C1  UNL d   1      -1.608  -2.401   0.195  0.00  0.00     0.003 A 
ATOM      3  C2  UNL d   1      -1.319  -1.264  -0.561  0.00  0.00     0.048 A 
ATOM      4  C3  UNL d   1      -0.136  -0.563  -0.331  0.00  0.00     0.023 A 
ATOM      5  C4  UNL d   1       0.760  -0.991   0.649  0.00  0.00     0.048 A 
ATOM      6  C5  UNL d   1       0.467  -2.129   1.404  0.00  0.00     0.003 A 
ATOM      7  I   UNL d   1       0.296   1.131  -1.456  0.00  0.00    -0.146 I 
ENDROOT
TORSDOF 0
ENDMDL
