MODEL 1
REMARK minimizedAffinity -4.39495897
REMARK minimizedRMSD -1
REMARK  0 active torsions:
REMARK  status: ('A' for Active; 'I' for Inactive)
ROOT
ATOM      1  C   UNL d   1      -1.203  -2.225   1.038  0.00  0.00     0.023 A 
ATOM      2  C1  UNL d   1      -1.878  -1.007   0.945  0.00  0.00     0.003 A 
ATOM      3  C2  UNL d   1      -1.231   0.113   0.420  0.00  0.00     0.048 A 
ATOM      4  C3  UNL d   1       0.091   0.008  -0.013  0.00  0.00     0.023 A 
ATOM      5  C4  UNL d   1       0.770  -1.208   0.077  0.00  0.00     0.048 A 
ATOM      6  C5  UNL d   1       0.119  -2.325   0.605  0.00  0.00     0.003 A 
ATOM      7  I   UNL d   1       1.056   1.674  -0.796  0.00  0.00    -0.146 I 
ENDROOT
TORSDOF 0
ENDMDL
