MODEL 1
REMARK minimizedAffinity 0.105346836
REMARK minimizedRMSD -1
REMARK  0 active torsions:
REMARK  status: ('A' for Active; 'I' for Inactive)
ROOT
ATOM      1  C   UNL d   1      -1.711  -2.375   1.911  0.00  0.00     0.023 A 
ATOM      2  C1  UNL d   1      -2.447  -1.406   1.229  0.00  0.00     0.003 A 
ATOM      3  C2  UNL d   1      -1.797  -0.486   0.404  0.00  0.00     0.048 A 
ATOM      4  C3  UNL d   1      -0.411  -0.541   0.265  0.00  0.00     0.023 A 
ATOM      5  C4  UNL d   1       0.330  -1.509   0.945  0.00  0.00     0.048 A 
ATOM      6  C5  UNL d   1      -0.325  -2.427   1.769  0.00  0.00     0.003 A 
ATOM      7  I   UNL d   1       0.560   0.827  -0.962  0.00  0.00    -0.146 I 
ENDROOT
TORSDOF 0
ENDMDL
