MODEL 1
REMARK minimizedAffinity -4.83666658
REMARK minimizedRMSD -1
REMARK  0 active torsions:
REMARK  status: ('A' for Active; 'I' for Inactive)
ROOT
ATOM      1  C   UNL d   1      -2.171  -2.243   1.689  0.00  0.00     0.023 A 
ATOM      2  C1  UNL d   1      -1.081  -2.672   0.932  0.00  0.00     0.003 A 
ATOM      3  C2  UNL d   1      -0.254  -1.738   0.305  0.00  0.00     0.048 A 
ATOM      4  C3  UNL d   1      -0.522  -0.376   0.440  0.00  0.00     0.023 A 
ATOM      5  C4  UNL d   1      -1.611   0.058   1.197  0.00  0.00     0.048 A 
ATOM      6  C5  UNL d   1      -2.436  -0.879   1.821  0.00  0.00     0.003 A 
ATOM      7  I   UNL d   1       0.709   1.016  -0.492  0.00  0.00    -0.146 I 
ENDROOT
TORSDOF 0
ENDMDL
