MODEL 1
REMARK minimizedAffinity -3.73791337
REMARK minimizedRMSD -1
REMARK  0 active torsions:
REMARK  status: ('A' for Active; 'I' for Inactive)
ROOT
ATOM      1  C   UNL d   1      -0.636  -2.106   1.494  0.00  0.00     0.023 A 
ATOM      2  C1  UNL d   1       0.716  -1.976   1.174  0.00  0.00     0.003 A 
ATOM      3  C2  UNL d   1       1.140  -0.942   0.337  0.00  0.00     0.048 A 
ATOM      4  C3  UNL d   1       0.208  -0.041  -0.177  0.00  0.00     0.023 A 
ATOM      5  C4  UNL d   1      -1.146  -0.167   0.141  0.00  0.00     0.048 A 
ATOM      6  C5  UNL d   1      -1.565  -1.202   0.978  0.00  0.00     0.003 A 
ATOM      7  I   UNL d   1       0.837   1.499  -1.423  0.00  0.00    -0.146 I 
ENDROOT
TORSDOF 0
ENDMDL
