MODEL 1
REMARK minimizedAffinity -0.851222992
REMARK minimizedRMSD -1
REMARK  0 active torsions:
REMARK  status: ('A' for Active; 'I' for Inactive)
ROOT
ATOM      1  C   UNL d   1      -0.933  -1.923   1.306  0.00  0.00     0.023 A 
ATOM      2  C1  UNL d   1      -1.722  -1.261   0.365  0.00  0.00     0.003 A 
ATOM      3  C2  UNL d   1      -1.146  -0.323  -0.494  0.00  0.00     0.048 A 
ATOM      4  C3  UNL d   1       0.219  -0.051  -0.407  0.00  0.00     0.023 A 
ATOM      5  C4  UNL d   1       1.012  -0.711   0.533  0.00  0.00     0.048 A 
ATOM      6  C5  UNL d   1       0.432  -1.648   1.391  0.00  0.00     0.003 A 
ATOM      7  I   UNL d   1       1.078   1.345  -1.684  0.00  0.00    -0.146 I 
ENDROOT
TORSDOF 0
ENDMDL
