MODEL 1
REMARK minimizedAffinity -5.26037312
REMARK minimizedRMSD -1
REMARK  1 active torsions:
REMARK  status: ('A' for Active; 'I' for Inactive)
REMARK    1  A    between atoms: C3_4  and  O_7 
ROOT
ATOM      1  C   UNL d   1      -0.221  -1.804   1.148  0.00  0.00    -0.033 A 
ATOM      2  C1  UNL d   1       0.040  -0.626   0.445  0.00  0.00     0.039 A 
ATOM      3  C2  UNL d   1       0.234  -0.663  -0.937  0.00  0.00    -0.080 A 
ATOM      4  C3  UNL d   1       0.165  -1.883  -1.604  0.00  0.00     0.150 A 
ATOM      5  C4  UNL d   1      -0.098  -3.060  -0.911  0.00  0.00    -0.007 A 
ATOM      6  C5  UNL d   1      -0.291  -3.021   0.469  0.00  0.00     0.039 A 
ENDROOT
BRANCH   4   7
ATOM      7  O   UNL d   1       0.353  -1.971  -2.951  0.00  0.00    -0.526 OA
ATOM      8  H5  UNL d   1       0.554  -1.083  -3.292  0.00  0.00     0.418 HD
ENDBRANCH   4   7
TORSDOF 1
ENDMDL
