MODEL 1
REMARK minimizedAffinity -5.02261782
REMARK minimizedRMSD -1
REMARK  1 active torsions:
REMARK  status: ('A' for Active; 'I' for Inactive)
REMARK    1  A    between atoms: C3_4  and  O_7 
ROOT
ATOM      1  C   UNL d   1      -0.011  -3.735  -1.136  0.00  0.00    -0.033 A 
ATOM      2  C1  UNL d   1       0.098  -2.677  -2.041  0.00  0.00     0.039 A 
ATOM      3  C2  UNL d   1       0.215  -1.366  -1.574  0.00  0.00    -0.080 A 
ATOM      4  C3  UNL d   1       0.224  -1.127  -0.202  0.00  0.00     0.150 A 
ATOM      5  C4  UNL d   1       0.120  -2.177   0.705  0.00  0.00    -0.007 A 
ATOM      6  C5  UNL d   1       0.002  -3.485   0.237  0.00  0.00     0.039 A 
ENDROOT
BRANCH   4   7
ATOM      7  O   UNL d   1       0.331   0.135   0.300  0.00  0.00    -0.526 OA
ATOM      8  H5  UNL d   1       0.366   0.761  -0.443  0.00  0.00     0.418 HD
ENDBRANCH   4   7
TORSDOF 1
ENDMDL
