MODEL 1
REMARK minimizedAffinity -3.18406177
REMARK minimizedRMSD -1
REMARK  1 active torsions:
REMARK  status: ('A' for Active; 'I' for Inactive)
REMARK    1  A    between atoms: C3_4  and  O_7 
ROOT
ATOM      1  C   UNL d   1      -0.944  -1.273   0.538  0.00  0.00    -0.033 A 
ATOM      2  C1  UNL d   1      -0.563   0.045   0.277  0.00  0.00     0.039 A 
ATOM      3  C2  UNL d   1      -0.217   0.429  -1.020  0.00  0.00    -0.080 A 
ATOM      4  C3  UNL d   1      -0.255  -0.511  -2.045  0.00  0.00     0.150 A 
ATOM      5  C4  UNL d   1      -0.637  -1.825  -1.793  0.00  0.00    -0.007 A 
ATOM      6  C5  UNL d   1      -0.982  -2.208  -0.497  0.00  0.00     0.039 A 
ENDROOT
BRANCH   4   7
ATOM      7  O   UNL d   1       0.079  -0.184  -3.325  0.00  0.00    -0.526 OA
ATOM      8  H5  UNL d   1       0.350   0.749  -3.344  0.00  0.00     0.418 HD
ENDBRANCH   4   7
TORSDOF 1
ENDMDL
