MODEL 1
REMARK minimizedAffinity -4.13981581
REMARK minimizedRMSD -1
REMARK  1 active torsions:
REMARK  status: ('A' for Active; 'I' for Inactive)
REMARK    1  A    between atoms: C3_4  and  O_7 
ROOT
ATOM      1  C   UNL d   1       0.200   0.499  -0.354  0.00  0.00    -0.033 A 
ATOM      2  C1  UNL d   1      -0.020   0.264   1.005  0.00  0.00     0.039 A 
ATOM      3  C2  UNL d   1      -0.099  -1.045   1.485  0.00  0.00    -0.080 A 
ATOM      4  C3  UNL d   1       0.044  -2.108   0.597  0.00  0.00     0.150 A 
ATOM      5  C4  UNL d   1       0.267  -1.881  -0.757  0.00  0.00    -0.007 A 
ATOM      6  C5  UNL d   1       0.345  -0.574  -1.234  0.00  0.00     0.039 A 
ENDROOT
BRANCH   4   7
ATOM      7  O   UNL d   1      -0.031  -3.403   1.018  0.00  0.00    -0.526 OA
ATOM      8  H5  UNL d   1      -0.217  -3.406   1.972  0.00  0.00     0.418 HD
ENDBRANCH   4   7
TORSDOF 1
ENDMDL
