MODEL 1
REMARK minimizedAffinity -4.14661694
REMARK minimizedRMSD -1
REMARK  1 active torsions:
REMARK  status: ('A' for Active; 'I' for Inactive)
REMARK    1  A    between atoms: C3_4  and  O_7 
ROOT
ATOM      1  C   UNL d   1      -0.027   0.809  -0.044  0.00  0.00    -0.033 A 
ATOM      2  C1  UNL d   1      -0.513   0.351   1.182  0.00  0.00     0.039 A 
ATOM      3  C2  UNL d   1      -0.743  -1.012   1.379  0.00  0.00    -0.080 A 
ATOM      4  C3  UNL d   1      -0.482  -1.905   0.344  0.00  0.00     0.150 A 
ATOM      5  C4  UNL d   1       0.006  -1.457  -0.879  0.00  0.00    -0.007 A 
ATOM      6  C5  UNL d   1       0.234  -0.095  -1.074  0.00  0.00     0.039 A 
ENDROOT
BRANCH   4   7
ATOM      7  O   UNL d   1      -0.696  -3.244   0.487  0.00  0.00    -0.526 OA
ATOM      8  H5  UNL d   1      -1.061  -3.404   1.373  0.00  0.00     0.418 HD
ENDBRANCH   4   7
TORSDOF 1
ENDMDL
