MODEL 1
REMARK minimizedAffinity 0.380539656
REMARK minimizedRMSD -1
REMARK  1 active torsions:
REMARK  status: ('A' for Active; 'I' for Inactive)
REMARK    1  A    between atoms: C3_4  and  O_7 
ROOT
ATOM      1  C   UNL d   1      -1.074  -1.549   0.837  0.00  0.00    -0.033 A 
ATOM      2  C1  UNL d   1      -0.794  -1.180  -0.480  0.00  0.00     0.039 A 
ATOM      3  C2  UNL d   1      -0.151   0.031  -0.746  0.00  0.00    -0.080 A 
ATOM      4  C3  UNL d   1       0.208   0.861   0.312  0.00  0.00     0.150 A 
ATOM      5  C4  UNL d   1      -0.064   0.497   1.627  0.00  0.00    -0.007 A 
ATOM      6  C5  UNL d   1      -0.707  -0.712   1.890  0.00  0.00     0.039 A 
ENDROOT
BRANCH   4   7
ATOM      7  O   UNL d   1       0.833   2.054   0.102  0.00  0.00    -0.526 OA
ATOM      8  H5  UNL d   1       0.930   2.186  -0.856  0.00  0.00     0.418 HD
ENDBRANCH   4   7
TORSDOF 1
ENDMDL
