MODEL 1
REMARK minimizedAffinity -2.65508676
REMARK minimizedRMSD -1
REMARK  1 active torsions:
REMARK  status: ('A' for Active; 'I' for Inactive)
REMARK    1  A    between atoms: C3_4  and  O_7 
ROOT
ATOM      1  C   UNL d   1      -0.075   0.708   0.493  0.00  0.00    -0.033 A 
ATOM      2  C1  UNL d   1       0.941  -0.025  -0.122  0.00  0.00     0.039 A 
ATOM      3  C2  UNL d   1       0.952  -1.418  -0.033  0.00  0.00    -0.080 A 
ATOM      4  C3  UNL d   1      -0.058  -2.065   0.674  0.00  0.00     0.150 A 
ATOM      5  C4  UNL d   1      -1.076  -1.342   1.286  0.00  0.00    -0.007 A 
ATOM      6  C5  UNL d   1      -1.084   0.050   1.197  0.00  0.00     0.039 A 
ENDROOT
BRANCH   4   7
ATOM      7  O   UNL d   1      -0.087  -3.423   0.793  0.00  0.00    -0.526 OA
ATOM      8  H5  UNL d   1       0.693  -3.788   0.344  0.00  0.00     0.418 HD
ENDBRANCH   4   7
TORSDOF 1
ENDMDL
