MODEL 1
REMARK minimizedAffinity -4.27728176
REMARK minimizedRMSD -1
REMARK  1 active torsions:
REMARK  status: ('A' for Active; 'I' for Inactive)
REMARK    1  A    between atoms: C3_4  and  O_7 
ROOT
ATOM      1  C   UNL d   1      -1.466  -1.601   0.941  0.00  0.00    -0.033 A 
ATOM      2  C1  UNL d   1      -0.612  -1.537   2.044  0.00  0.00     0.039 A 
ATOM      3  C2  UNL d   1       0.433  -0.611   2.067  0.00  0.00    -0.080 A 
ATOM      4  C3  UNL d   1       0.613   0.243   0.984  0.00  0.00     0.150 A 
ATOM      5  C4  UNL d   1      -0.236   0.188  -0.117  0.00  0.00    -0.007 A 
ATOM      6  C5  UNL d   1      -1.278  -0.738  -0.139  0.00  0.00     0.039 A 
ENDROOT
BRANCH   4   7
ATOM      7  O   UNL d   1       1.622   1.160   0.959  0.00  0.00    -0.526 OA
ATOM      8  H5  UNL d   1       2.145   1.064   1.772  0.00  0.00     0.418 HD
ENDBRANCH   4   7
TORSDOF 1
ENDMDL
