MODEL 1
REMARK minimizedAffinity -2.49998832
REMARK minimizedRMSD -1
REMARK  1 active torsions:
REMARK  status: ('A' for Active; 'I' for Inactive)
REMARK    1  A    between atoms: C3_4  and  O_7 
ROOT
ATOM      1  C   UNL d   1       0.100   0.559  -0.390  0.00  0.00    -0.033 A 
ATOM      2  C1  UNL d   1      -0.408   0.277   0.879  0.00  0.00     0.039 A 
ATOM      3  C2  UNL d   1      -0.444  -1.040   1.342  0.00  0.00    -0.080 A 
ATOM      4  C3  UNL d   1       0.032  -2.064   0.527  0.00  0.00     0.150 A 
ATOM      5  C4  UNL d   1       0.543  -1.789  -0.738  0.00  0.00    -0.007 A 
ATOM      6  C5  UNL d   1       0.576  -0.474  -1.198  0.00  0.00     0.039 A 
ENDROOT
BRANCH   4   7
ATOM      7  O   UNL d   1       0.013  -3.365   0.933  0.00  0.00    -0.526 OA
ATOM      8  H5  UNL d   1      -0.393  -3.406   1.815  0.00  0.00     0.418 HD
ENDBRANCH   4   7
TORSDOF 1
ENDMDL
