MODEL 1
REMARK minimizedAffinity -4.77231789
REMARK minimizedRMSD -1
REMARK  1 active torsions:
REMARK  status: ('A' for Active; 'I' for Inactive)
REMARK    1  A    between atoms: C3_4  and  O_7 
ROOT
ATOM      1  C   UNL d   1       0.121  -0.042   0.827  0.00  0.00    -0.033 A 
ATOM      2  C1  UNL d   1       0.579  -0.636  -0.351  0.00  0.00     0.039 A 
ATOM      3  C2  UNL d   1       0.518  -2.022  -0.506  0.00  0.00    -0.080 A 
ATOM      4  C3  UNL d   1      -0.002  -2.802   0.523  0.00  0.00     0.150 A 
ATOM      5  C4  UNL d   1      -0.463  -2.217   1.698  0.00  0.00    -0.007 A 
ATOM      6  C5  UNL d   1      -0.401  -0.833   1.851  0.00  0.00     0.039 A 
ENDROOT
BRANCH   4   7
ATOM      7  O   UNL d   1      -0.077  -4.159   0.420  0.00  0.00    -0.526 OA
ATOM      8  H5  UNL d   1       0.304  -4.425  -0.434  0.00  0.00     0.418 HD
ENDBRANCH   4   7
TORSDOF 1
ENDMDL
