MODEL 1
REMARK minimizedAffinity -3.83255053
REMARK minimizedRMSD -1
REMARK  1 active torsions:
REMARK  status: ('A' for Active; 'I' for Inactive)
REMARK    1  A    between atoms: C3_4  and  O_7 
ROOT
ATOM      1  C   UNL d   1      -0.029   0.320   0.001  0.00  0.00    -0.033 A 
ATOM      2  C1  UNL d   1      -0.433  -0.097   1.271  0.00  0.00     0.039 A 
ATOM      3  C2  UNL d   1      -0.477  -1.458   1.579  0.00  0.00    -0.080 A 
ATOM      4  C3  UNL d   1      -0.115  -2.390   0.611  0.00  0.00     0.150 A 
ATOM      5  C4  UNL d   1       0.292  -1.982  -0.655  0.00  0.00    -0.007 A 
ATOM      6  C5  UNL d   1       0.335  -0.622  -0.961  0.00  0.00     0.039 A 
ENDROOT
BRANCH   4   7
ATOM      7  O   UNL d   1      -0.147  -3.730   0.863  0.00  0.00    -0.526 OA
ATOM      8  H5  UNL d   1      -0.475  -3.864   1.768  0.00  0.00     0.418 HD
ENDBRANCH   4   7
TORSDOF 1
ENDMDL
