MODEL 1
REMARK minimizedAffinity -5.03395462
REMARK minimizedRMSD -1
REMARK  1 active torsions:
REMARK  status: ('A' for Active; 'I' for Inactive)
REMARK    1  A    between atoms: C3_4  and  O_7 
ROOT
ATOM      1  C   UNL d   1      -0.343  -2.698   0.054  0.00  0.00    -0.033 A 
ATOM      2  C1  UNL d   1      -0.702  -1.993   1.204  0.00  0.00     0.039 A 
ATOM      3  C2  UNL d   1      -0.315  -0.660   1.358  0.00  0.00    -0.080 A 
ATOM      4  C3  UNL d   1       0.428  -0.045   0.355  0.00  0.00     0.150 A 
ATOM      5  C4  UNL d   1       0.786  -0.740  -0.796  0.00  0.00    -0.007 A 
ATOM      6  C5  UNL d   1       0.400  -2.071  -0.947  0.00  0.00     0.039 A 
ENDROOT
BRANCH   4   7
ATOM      7  O   UNL d   1       0.833   1.252   0.462  0.00  0.00    -0.526 OA
ATOM      8  H5  UNL d   1       0.538   1.597   1.321  0.00  0.00     0.418 HD
ENDBRANCH   4   7
TORSDOF 1
ENDMDL
