MODEL 1
REMARK minimizedAffinity -4.52838516
REMARK minimizedRMSD -1
REMARK  1 active torsions:
REMARK  status: ('A' for Active; 'I' for Inactive)
REMARK    1  A    between atoms: C3_4  and  O_7 
ROOT
ATOM      1  C   UNL d   1      -0.663  -2.349   0.512  0.00  0.00    -0.033 A 
ATOM      2  C1  UNL d   1      -0.959  -1.532   1.605  0.00  0.00     0.039 A 
ATOM      3  C2  UNL d   1      -0.615  -0.179   1.581  0.00  0.00    -0.080 A 
ATOM      4  C3  UNL d   1       0.022   0.344   0.458  0.00  0.00     0.150 A 
ATOM      5  C4  UNL d   1       0.316  -0.464  -0.635  0.00  0.00    -0.007 A 
ATOM      6  C5  UNL d   1      -0.027  -1.815  -0.608  0.00  0.00     0.039 A 
ENDROOT
BRANCH   4   7
ATOM      7  O   UNL d   1       0.381   1.657   0.390  0.00  0.00    -0.526 OA
ATOM      8  H5  UNL d   1       0.141   2.086   1.229  0.00  0.00     0.418 HD
ENDBRANCH   4   7
TORSDOF 1
ENDMDL
