MODEL 1
REMARK minimizedAffinity -3.42867494
REMARK minimizedRMSD -1
REMARK  1 active torsions:
REMARK  status: ('A' for Active; 'I' for Inactive)
REMARK    1  A    between atoms: C1_2  and  C2_3 
ROOT
ATOM      1  C2  UNL d   1      -1.302   0.329   1.543  0.00  0.00    -0.077 A 
ATOM      2  C3  UNL d   1      -0.845   1.429   2.284  0.00  0.00     0.002 A 
ATOM      3  C4  UNL d   1       0.284   2.139   1.870  0.00  0.00     0.002 A 
ATOM      4  C5  UNL d   1       0.962   1.761   0.714  0.00  0.00    -0.004 A 
ATOM      5  C6  UNL d   1       0.517   0.667  -0.028  0.00  0.00     0.002 A 
ATOM      6  C7  UNL d   1      -0.610  -0.045   0.384  0.00  0.00     0.002 A 
ENDROOT
BRANCH   1   7
ATOM      7  C1  UNL d   1      -2.547  -0.408   1.960  0.00  0.00     0.055 C 
ATOM      8  C   UNL d   1      -2.244  -1.447   3.030  0.00  0.00     0.019 C 
ENDBRANCH   1   7
TORSDOF 1
ENDMDL
