MODEL 1
REMARK minimizedAffinity -2.45646834
REMARK minimizedRMSD -1
REMARK  1 active torsions:
REMARK  status: ('A' for Active; 'I' for Inactive)
REMARK    1  A    between atoms: C1_2  and  C2_3 
ROOT
ATOM      1  C2  UNL d   1       0.284   0.277   1.053  0.00  0.00    -0.077 A 
ATOM      2  C3  UNL d   1      -0.791   1.148   1.284  0.00  0.00     0.002 A 
ATOM      3  C4  UNL d   1      -0.984   1.710   2.548  0.00  0.00     0.002 A 
ATOM      4  C5  UNL d   1      -0.105   1.412   3.587  0.00  0.00    -0.004 A 
ATOM      5  C6  UNL d   1       0.965   0.545   3.367  0.00  0.00     0.002 A 
ATOM      6  C7  UNL d   1       1.159  -0.019   2.105  0.00  0.00     0.002 A 
ENDROOT
BRANCH   1   7
ATOM      7  C1  UNL d   1       0.522  -0.292  -0.322  0.00  0.00     0.055 C 
ATOM      8  C   UNL d   1       0.647   0.811  -1.363  0.00  0.00     0.019 C 
ENDBRANCH   1   7
TORSDOF 1
ENDMDL
