MODEL 1
REMARK minimizedAffinity -1.65767205
REMARK minimizedRMSD -1
REMARK  1 active torsions:
REMARK  status: ('A' for Active; 'I' for Inactive)
REMARK    1  A    between atoms: C1_2  and  C2_3 
ROOT
ATOM      1  C2  UNL d   1       0.736  -0.059  -0.359  0.00  0.00    -0.077 A 
ATOM      2  C3  UNL d   1       0.121   0.819   0.544  0.00  0.00     0.002 A 
ATOM      3  C4  UNL d   1       0.622   0.966   1.839  0.00  0.00     0.002 A 
ATOM      4  C5  UNL d   1       1.743   0.243   2.240  0.00  0.00    -0.004 A 
ATOM      5  C6  UNL d   1       2.362  -0.634   1.350  0.00  0.00     0.002 A 
ATOM      6  C7  UNL d   1       1.861  -0.784   0.056  0.00  0.00     0.002 A 
ENDROOT
BRANCH   1   7
ATOM      7  C1  UNL d   1       0.226  -0.183  -1.771  0.00  0.00     0.055 C 
ATOM      8  C   UNL d   1       0.927   0.797  -2.700  0.00  0.00     0.019 C 
ENDBRANCH   1   7
TORSDOF 1
ENDMDL
