MODEL 1
REMARK minimizedAffinity -1.74150717
REMARK minimizedRMSD -1
REMARK  1 active torsions:
REMARK  status: ('A' for Active; 'I' for Inactive)
REMARK    1  A    between atoms: C1_2  and  C2_3 
ROOT
ATOM      1  C2  UNL d   1      -0.297   0.027  -0.019  0.00  0.00    -0.077 A 
ATOM      2  C3  UNL d   1      -1.535   0.386   0.532  0.00  0.00     0.002 A 
ATOM      3  C4  UNL d   1      -1.604   0.947   1.809  0.00  0.00     0.002 A 
ATOM      4  C5  UNL d   1      -0.439   1.157   2.543  0.00  0.00    -0.004 A 
ATOM      5  C6  UNL d   1       0.797   0.801   2.005  0.00  0.00     0.002 A 
ATOM      6  C7  UNL d   1       0.868   0.239   0.730  0.00  0.00     0.002 A 
ENDROOT
BRANCH   1   7
ATOM      7  C1  UNL d   1      -0.216  -0.533  -1.415  0.00  0.00     0.055 C 
ATOM      8  C   UNL d   1       0.214   0.532  -2.414  0.00  0.00     0.019 C 
ENDBRANCH   1   7
TORSDOF 1
ENDMDL
