MODEL 1
REMARK minimizedAffinity -2.00145793
REMARK minimizedRMSD -1
REMARK  1 active torsions:
REMARK  status: ('A' for Active; 'I' for Inactive)
REMARK    1  A    between atoms: C1_2  and  C2_3 
ROOT
ATOM      1  C2  UNL d   1       1.802   0.799  -3.515  0.00  0.00    -0.077 A 
ATOM      2  C3  UNL d   1       2.555   1.872  -4.011  0.00  0.00     0.002 A 
ATOM      3  C4  UNL d   1       3.907   1.705  -4.317  0.00  0.00     0.002 A 
ATOM      4  C5  UNL d   1       4.516   0.465  -4.134  0.00  0.00    -0.004 A 
ATOM      5  C6  UNL d   1       3.776  -0.608  -3.639  0.00  0.00     0.002 A 
ATOM      6  C7  UNL d   1       2.425  -0.442  -3.332  0.00  0.00     0.002 A 
ENDROOT
BRANCH   1   7
ATOM      7  C1  UNL d   1       0.332   0.964  -3.231  0.00  0.00     0.055 C 
ATOM      8  C   UNL d   1      -0.516   0.207  -4.242  0.00  0.00     0.019 C 
ENDBRANCH   1   7
TORSDOF 1
ENDMDL
