MODEL 1
REMARK minimizedAffinity -1.11425555
REMARK minimizedRMSD -1
REMARK  1 active torsions:
REMARK  status: ('A' for Active; 'I' for Inactive)
REMARK    1  A    between atoms: C1_2  and  C2_3 
ROOT
ATOM      1  C2  UNL d   1       0.428   0.348   0.983  0.00  0.00    -0.077 A 
ATOM      2  C3  UNL d   1       0.501   1.105   2.161  0.00  0.00     0.002 A 
ATOM      3  C4  UNL d   1      -0.659   1.414   2.874  0.00  0.00     0.002 A 
ATOM      4  C5  UNL d   1      -1.898   0.967   2.420  0.00  0.00    -0.004 A 
ATOM      5  C6  UNL d   1      -1.981   0.215   1.249  0.00  0.00     0.002 A 
ATOM      6  C7  UNL d   1      -0.823  -0.094   0.534  0.00  0.00     0.002 A 
ENDROOT
BRANCH   1   7
ATOM      7  C1  UNL d   1       1.683  -0.029   0.239  0.00  0.00     0.055 C 
ATOM      8  C   UNL d   1       2.703  -0.674   1.166  0.00  0.00     0.019 C 
ENDBRANCH   1   7
TORSDOF 1
ENDMDL
