MODEL 1
REMARK minimizedAffinity 0.64073658
REMARK minimizedRMSD -1
REMARK  2 active torsions:
REMARK  status: ('A' for Active; 'I' for Inactive)
REMARK    1  A    between atoms: C2'_3  and  C1'_4 
REMARK    2  A    between atoms: C1'_4  and  C1_5 
ROOT
ATOM      1  C1  I4B d   1       2.760  -5.956  -3.347  0.00  0.00    -0.075 A 
ATOM      2  C2  I4B d   1       1.893  -5.918  -4.410  0.00  0.00     0.003 A 
ATOM      3  C3  I4B d   1       2.391  -5.879  -5.735  0.00  0.00     0.002 A 
ATOM      4  C4  I4B d   1       3.754  -5.829  -5.948  0.00  0.00    -0.004 A 
ATOM      5  C5  I4B d   1       4.632  -5.891  -4.869  0.00  0.00     0.002 A 
ATOM      6  C6  I4B d   1       4.132  -5.968  -3.561  0.00  0.00     0.003 A 
ENDROOT
BRANCH   1   7
ATOM      7  C1' I4B d   1       2.199  -5.964  -1.960  0.00  0.00     0.060 C 
BRANCH   7   8
ATOM      8  C2' I4B d   1       3.301  -5.540  -1.009  0.00  0.00    -0.013 C 
ATOM      9  C4' I4B d   1       3.510  -4.049  -1.047  0.00  0.00     0.013 C 
ATOM     10  C3' I4B d   1       2.925  -6.000   0.368  0.00  0.00     0.013 C 
ENDBRANCH   7   8
ENDBRANCH   1   7
TORSDOF 2
ENDMDL
