MODEL 1
REMARK minimizedAffinity -0.50712657
REMARK minimizedRMSD -1
REMARK  2 active torsions:
REMARK  status: ('A' for Active; 'I' for Inactive)
REMARK    1  A    between atoms: C2'_3  and  C1'_4 
REMARK    2  A    between atoms: C1'_4  and  C1_5 
ROOT
ATOM      1  C1  I4B d   1       3.410  -5.904  -3.438  0.00  0.00    -0.075 A 
ATOM      2  C2  I4B d   1       4.771  -5.985  -3.603  0.00  0.00     0.003 A 
ATOM      3  C3  I4B d   1       5.335  -5.928  -4.901  0.00  0.00     0.002 A 
ATOM      4  C4  I4B d   1       4.506  -5.842  -6.000  0.00  0.00    -0.004 A 
ATOM      5  C5  I4B d   1       3.128  -5.737  -5.829  0.00  0.00     0.002 A 
ATOM      6  C6  I4B d   1       2.577  -5.756  -4.539  0.00  0.00     0.003 A 
ENDROOT
BRANCH   1   7
ATOM      7  C1' I4B d   1       2.846  -6.000  -2.056  0.00  0.00     0.060 C 
BRANCH   7   8
ATOM      8  C2' I4B d   1       3.901  -5.511  -1.085  0.00  0.00    -0.013 C 
ATOM      9  C4' I4B d   1       4.177  -4.042  -1.274  0.00  0.00     0.013 C 
ATOM     10  C3' I4B d   1       3.419  -5.796   0.306  0.00  0.00     0.013 C 
ENDBRANCH   7   8
ENDBRANCH   1   7
TORSDOF 2
ENDMDL
