MODEL 1
REMARK minimizedAffinity 5.36329842
REMARK minimizedRMSD -1
REMARK  2 active torsions:
REMARK  status: ('A' for Active; 'I' for Inactive)
REMARK    1  A    between atoms: C2'_3  and  C1'_4 
REMARK    2  A    between atoms: C1'_4  and  C1_5 
ROOT
ATOM      1  C1  I4B d   1      -2.927   2.409  -0.427  0.00  0.00    -0.075 A 
ATOM      2  C2  I4B d   1      -2.985   2.181  -1.779  0.00  0.00     0.003 A 
ATOM      3  C3  I4B d   1      -2.390   1.021  -2.332  0.00  0.00     0.002 A 
ATOM      4  C4  I4B d   1      -1.709   0.148  -1.509  0.00  0.00    -0.004 A 
ATOM      5  C5  I4B d   1      -1.672   0.368  -0.135  0.00  0.00     0.002 A 
ATOM      6  C6  I4B d   1      -2.295   1.500   0.411  0.00  0.00     0.003 A 
ENDROOT
BRANCH   1   7
ATOM      7  C1' I4B d   1      -3.537   3.660   0.120  0.00  0.00     0.060 C 
BRANCH   7   8
ATOM      8  C2' I4B d   1      -4.829   3.284   0.817  0.00  0.00    -0.013 C 
ATOM      9  C4' I4B d   1      -4.765   3.598   2.289  0.00  0.00     0.013 C 
ATOM     10  C3' I4B d   1      -5.948   4.029   0.152  0.00  0.00     0.013 C 
ENDBRANCH   7   8
ENDBRANCH   1   7
TORSDOF 2
ENDMDL
