MODEL 1
REMARK minimizedAffinity 2.63902426
REMARK minimizedRMSD -1
REMARK  2 active torsions:
REMARK  status: ('A' for Active; 'I' for Inactive)
REMARK    1  A    between atoms: C2'_3  and  C1'_4 
REMARK    2  A    between atoms: C1'_4  and  C1_5 
ROOT
ATOM      1  C1  I4B d   1       3.662  -5.960  -3.320  0.00  0.00    -0.075 A 
ATOM      2  C2  I4B d   1       4.595  -5.999  -4.326  0.00  0.00     0.003 A 
ATOM      3  C3  I4B d   1       4.183  -5.994  -5.680  0.00  0.00     0.002 A 
ATOM      4  C4  I4B d   1       2.836  -6.000  -5.981  0.00  0.00    -0.004 A 
ATOM      5  C5  I4B d   1       1.892  -5.937  -4.960  0.00  0.00     0.002 A 
ATOM      6  C6  I4B d   1       2.307  -5.904  -3.621  0.00  0.00     0.003 A 
ENDROOT
BRANCH   1   7
ATOM      7  C1' I4B d   1       4.131  -6.000  -1.900  0.00  0.00     0.060 C 
BRANCH   7   8
ATOM      8  C2' I4B d   1       3.251  -5.068  -1.091  0.00  0.00    -0.013 C 
ATOM      9  C4' I4B d   1       2.915  -5.663   0.251  0.00  0.00     0.013 C 
ATOM     10  C3' I4B d   1       3.976  -3.764  -0.938  0.00  0.00     0.013 C 
ENDBRANCH   7   8
ENDBRANCH   1   7
TORSDOF 2
ENDMDL
