MODEL 1
REMARK minimizedAffinity 6.23445177
REMARK minimizedRMSD -1
REMARK  2 active torsions:
REMARK  status: ('A' for Active; 'I' for Inactive)
REMARK    1  A    between atoms: C2'_3  and  C1'_4 
REMARK    2  A    between atoms: C1'_4  and  C1_5 
ROOT
ATOM      1  C1  I4B d   1       1.622  -2.212   3.691  0.00  0.00    -0.075 A 
ATOM      2  C2  I4B d   1       2.496  -2.950   2.933  0.00  0.00     0.003 A 
ATOM      3  C3  I4B d   1       2.674  -4.331   3.191  0.00  0.00     0.002 A 
ATOM      4  C4  I4B d   1       2.000  -4.918   4.243  0.00  0.00    -0.004 A 
ATOM      5  C5  I4B d   1       1.097  -4.173   4.996  0.00  0.00     0.002 A 
ATOM      6  C6  I4B d   1       0.897  -2.815   4.711  0.00  0.00     0.003 A 
ENDROOT
BRANCH   1   7
ATOM      7  C1' I4B d   1       1.483  -0.749   3.412  0.00  0.00     0.060 C 
BRANCH   7   8
ATOM      8  C2' I4B d   1       1.966  -0.496   1.998  0.00  0.00    -0.013 C 
ATOM      9  C4' I4B d   1       0.823  -0.528   1.018  0.00  0.00     0.013 C 
ATOM     10  C3' I4B d   1       2.661   0.833   1.977  0.00  0.00     0.013 C 
ENDBRANCH   7   8
ENDBRANCH   1   7
TORSDOF 2
ENDMDL
