MODEL 1
REMARK minimizedAffinity -2.73962188
REMARK minimizedRMSD -1
REMARK  0 active torsions:
REMARK  status: ('A' for Active; 'I' for Inactive)
ROOT
ATOM      1  C   UNL d   1       0.339   0.354  -0.746  0.00  0.00     0.172 C 
ATOM      2  N   UNL d   1      -0.236   1.599  -0.294  0.00  0.00    -0.070 N 
ATOM      3  C1  UNL d   1      -0.084   2.816  -0.903  0.00  0.00    -0.004 A 
ATOM      4  C2  UNL d   1      -0.785   3.747  -0.167  0.00  0.00    -0.047 A 
ATOM      5  C3  UNL d   1      -1.377   3.066   0.923  0.00  0.00    -0.047 A 
ATOM      6  C4  UNL d   1      -1.021   1.738   0.820  0.00  0.00    -0.004 A 
ENDROOT
TORSDOF 0
ENDMDL
