MODEL 1
REMARK minimizedAffinity -4.18974495
REMARK minimizedRMSD -1
REMARK  0 active torsions:
REMARK  status: ('A' for Active; 'I' for Inactive)
ROOT
ATOM      1  C   UNL d   1      -0.091   0.115  -0.079  0.00  0.00     0.172 C 
ATOM      2  N   UNL d   1      -0.838   1.234   0.445  0.00  0.00    -0.070 N 
ATOM      3  C1  UNL d   1      -0.716   2.536   0.039  0.00  0.00    -0.004 A 
ATOM      4  C2  UNL d   1      -1.598   3.294   0.779  0.00  0.00    -0.047 A 
ATOM      5  C3  UNL d   1      -2.272   2.417   1.662  0.00  0.00    -0.047 A 
ATOM      6  C4  UNL d   1      -1.782   1.148   1.434  0.00  0.00    -0.004 A 
ENDROOT
TORSDOF 0
ENDMDL
