MODEL 1
REMARK minimizedAffinity -3.558887
REMARK minimizedRMSD -1
REMARK  0 active torsions:
REMARK  status: ('A' for Active; 'I' for Inactive)
ROOT
ATOM      1  C   UNL d   1      -1.367   1.615   1.425  0.00  0.00     0.172 C 
ATOM      2  N   UNL d   1      -0.425   0.927   0.575  0.00  0.00    -0.070 N 
ATOM      3  C1  UNL d   1       0.004   1.356  -0.654  0.00  0.00    -0.004 A 
ATOM      4  C2  UNL d   1       0.896   0.424  -1.138  0.00  0.00    -0.047 A 
ATOM      5  C3  UNL d   1       1.007  -0.601  -0.168  0.00  0.00    -0.047 A 
ATOM      6  C4  UNL d   1       0.179  -0.264   0.882  0.00  0.00    -0.004 A 
ENDROOT
TORSDOF 0
ENDMDL
