MODEL 1
REMARK minimizedAffinity -3.98426008
REMARK minimizedRMSD -1
REMARK  0 active torsions:
REMARK  status: ('A' for Active; 'I' for Inactive)
ROOT
ATOM      1  C   UNL d   1      -0.277   0.160  -0.130  0.00  0.00     0.172 C 
ATOM      2  N   UNL d   1      -0.961   1.425   0.002  0.00  0.00    -0.070 N 
ATOM      3  C1  UNL d   1      -2.092   1.648   0.742  0.00  0.00    -0.004 A 
ATOM      4  C2  UNL d   1      -2.427   2.978   0.610  0.00  0.00    -0.047 A 
ATOM      5  C3  UNL d   1      -1.465   3.575  -0.239  0.00  0.00    -0.047 A 
ATOM      6  C4  UNL d   1      -0.569   2.591  -0.601  0.00  0.00    -0.004 A 
ENDROOT
TORSDOF 0
ENDMDL
