MODEL 1
REMARK minimizedAffinity -3.88446569
REMARK minimizedRMSD -1
REMARK  0 active torsions:
REMARK  status: ('A' for Active; 'I' for Inactive)
ROOT
ATOM      1  C   UNL d   1      -0.790  -0.065   1.100  0.00  0.00     0.172 C 
ATOM      2  N   UNL d   1      -1.136   1.317   0.866  0.00  0.00    -0.070 N 
ATOM      3  C1  UNL d   1      -0.584   2.128  -0.089  0.00  0.00    -0.004 A 
ATOM      4  C2  UNL d   1      -1.182   3.366   0.011  0.00  0.00    -0.047 A 
ATOM      5  C3  UNL d   1      -2.125   3.297   1.064  0.00  0.00    -0.047 A 
ATOM      6  C4  UNL d   1      -2.077   2.017   1.575  0.00  0.00    -0.004 A 
ENDROOT
TORSDOF 0
ENDMDL
