MODEL 1
REMARK minimizedAffinity -3.61989665
REMARK minimizedRMSD -1
REMARK  0 active torsions:
REMARK  status: ('A' for Active; 'I' for Inactive)
ROOT
ATOM      1  C   UNL d   1       0.433  -0.500   0.164  0.00  0.00     0.172 C 
ATOM      2  N   UNL d   1      -0.462   0.516   0.666  0.00  0.00    -0.070 N 
ATOM      3  C1  UNL d   1      -1.462   0.318   1.581  0.00  0.00    -0.004 A 
ATOM      4  C2  UNL d   1      -2.084   1.529   1.795  0.00  0.00    -0.047 A 
ATOM      5  C3  UNL d   1      -1.436   2.488   0.980  0.00  0.00    -0.047 A 
ATOM      6  C4  UNL d   1      -0.436   1.834   0.292  0.00  0.00    -0.004 A 
ENDROOT
TORSDOF 0
ENDMDL
