MODEL 1
REMARK minimizedAffinity -2.19144821
REMARK minimizedRMSD -1
REMARK  0 active torsions:
REMARK  status: ('A' for Active; 'I' for Inactive)
ROOT
ATOM      1  C   UNL d   1       0.168  -0.612  -0.037  0.00  0.00     0.172 C 
ATOM      2  N   UNL d   1       0.366  -1.661  -1.009  0.00  0.00    -0.070 N 
ATOM      3  C1  UNL d   1      -0.326  -2.842  -1.062  0.00  0.00    -0.004 A 
ATOM      4  C2  UNL d   1       0.159  -3.567  -2.129  0.00  0.00    -0.047 A 
ATOM      5  C3  UNL d   1       1.178  -2.796  -2.737  0.00  0.00    -0.047 A 
ATOM      6  C4  UNL d   1       1.285  -1.622  -2.024  0.00  0.00    -0.004 A 
ENDROOT
TORSDOF 0
ENDMDL
