MODEL 1
REMARK minimizedAffinity 0.456133634
REMARK minimizedRMSD -1
REMARK  0 active torsions:
REMARK  status: ('A' for Active; 'I' for Inactive)
ROOT
ATOM      1  C   UNL d   1       0.456  -0.595   0.225  0.00  0.00     0.172 C 
ATOM      2  N   UNL d   1       0.617  -1.503  -0.886  0.00  0.00    -0.070 N 
ATOM      3  C1  UNL d   1       0.531  -2.868  -0.821  0.00  0.00    -0.004 A 
ATOM      4  C2  UNL d   1       0.743  -3.365  -2.088  0.00  0.00    -0.047 A 
ATOM      5  C3  UNL d   1       0.965  -2.261  -2.945  0.00  0.00    -0.047 A 
ATOM      6  C4  UNL d   1       0.881  -1.120  -2.175  0.00  0.00    -0.004 A 
ENDROOT
TORSDOF 0
ENDMDL
