MODEL 1
REMARK minimizedAffinity -3.10516906
REMARK minimizedRMSD -1
REMARK  0 active torsions:
REMARK  status: ('A' for Active; 'I' for Inactive)
ROOT
ATOM      1  C   UNL d   1      -0.164   3.280  -0.193  0.00  0.00     0.172 C 
ATOM      2  N   UNL d   1      -0.392   2.040   0.511  0.00  0.00    -0.070 N 
ATOM      3  C1  UNL d   1      -0.151   0.786   0.017  0.00  0.00    -0.004 A 
ATOM      4  C2  UNL d   1      -0.497  -0.125   0.992  0.00  0.00    -0.047 A 
ATOM      5  C3  UNL d   1      -0.964   0.607   2.109  0.00  0.00    -0.047 A 
ATOM      6  C4  UNL d   1      -0.888   1.945   1.784  0.00  0.00    -0.004 A 
ENDROOT
TORSDOF 0
ENDMDL
