MODEL 1
REMARK minimizedAffinity -4.03924561
REMARK minimizedRMSD -1
REMARK  0 active torsions:
REMARK  status: ('A' for Active; 'I' for Inactive)
ROOT
ATOM      1  C   UNL d   1      -1.512   0.318   1.736  0.00  0.00     0.172 C 
ATOM      2  N   UNL d   1      -1.503   1.655   1.191  0.00  0.00    -0.070 N 
ATOM      3  C1  UNL d   1      -0.551   2.169   0.351  0.00  0.00    -0.004 A 
ATOM      4  C2  UNL d   1      -0.903   3.469   0.060  0.00  0.00    -0.047 A 
ATOM      5  C3  UNL d   1      -2.107   3.747   0.750  0.00  0.00    -0.047 A 
ATOM      6  C4  UNL d   1      -2.456   2.606   1.442  0.00  0.00    -0.004 A 
ENDROOT
TORSDOF 0
ENDMDL
