MODEL 1
REMARK minimizedAffinity -1.98725033
REMARK minimizedRMSD -1
REMARK  0 active torsions:
REMARK  status: ('A' for Active; 'I' for Inactive)
ROOT
ATOM      1  C   UNL d   1       1.119  -0.749  -0.427  0.00  0.00     0.172 C 
ATOM      2  N   UNL d   1       0.733  -1.973  -1.089  0.00  0.00    -0.070 N 
ATOM      3  C1  UNL d   1       0.263  -2.073  -2.372  0.00  0.00    -0.004 A 
ATOM      4  C2  UNL d   1       0.010  -3.403  -2.626  0.00  0.00    -0.047 A 
ATOM      5  C3  UNL d   1       0.339  -4.128  -1.456  0.00  0.00    -0.047 A 
ATOM      6  C4  UNL d   1       0.784  -3.218  -0.520  0.00  0.00    -0.004 A 
ENDROOT
TORSDOF 0
ENDMDL
