MODEL 1
REMARK minimizedAffinity -4.10638857
REMARK minimizedRMSD -1
REMARK  0 active torsions:
REMARK  status: ('A' for Active; 'I' for Inactive)
ROOT
ATOM      1  C   UNL d   1      -0.784   0.373   1.071  0.00  0.00     0.172 C 
ATOM      2  N   UNL d   1      -1.076   1.705   0.595  0.00  0.00    -0.070 N 
ATOM      3  C1  UNL d   1      -0.281   2.448  -0.236  0.00  0.00    -0.004 A 
ATOM      4  C2  UNL d   1      -0.909   3.655  -0.453  0.00  0.00    -0.047 A 
ATOM      5  C3  UNL d   1      -2.124   3.637   0.273  0.00  0.00    -0.047 A 
ATOM      6  C4  UNL d   1      -2.202   2.418   0.912  0.00  0.00    -0.004 A 
ENDROOT
TORSDOF 0
ENDMDL
