MODEL 1
REMARK minimizedAffinity -3.67677522
REMARK minimizedRMSD -1
REMARK  0 active torsions:
REMARK  status: ('A' for Active; 'I' for Inactive)
ROOT
ATOM      1  C   UNL d   1       0.700   0.266  -1.123  0.00  0.00     0.172 C 
ATOM      2  N   UNL d   1      -0.177   0.985  -0.229  0.00  0.00    -0.070 N 
ATOM      3  C1  UNL d   1      -0.765   0.472   0.897  0.00  0.00    -0.004 A 
ATOM      4  C2  UNL d   1      -1.522   1.471   1.470  0.00  0.00    -0.047 A 
ATOM      5  C3  UNL d   1      -1.385   2.624   0.661  0.00  0.00    -0.047 A 
ATOM      6  C4  UNL d   1      -0.547   2.295  -0.383  0.00  0.00    -0.004 A 
ENDROOT
TORSDOF 0
ENDMDL
