MODEL 1
REMARK minimizedAffinity -2.21687484
REMARK minimizedRMSD -1
REMARK  0 active torsions:
REMARK  status: ('A' for Active; 'I' for Inactive)
ROOT
ATOM      1  C   UNL d   1       0.462  -0.178  -0.211  0.00  0.00     0.172 C 
ATOM      2  N   UNL d   1      -0.387   0.528   0.720  0.00  0.00    -0.070 N 
ATOM      3  C1  UNL d   1      -0.356   1.875   0.965  0.00  0.00    -0.004 A 
ATOM      4  C2  UNL d   1      -1.317   2.154   1.912  0.00  0.00    -0.047 A 
ATOM      5  C3  UNL d   1      -1.948   0.932   2.248  0.00  0.00    -0.047 A 
ATOM      6  C4  UNL d   1      -1.353  -0.058   1.495  0.00  0.00    -0.004 A 
ENDROOT
TORSDOF 0
ENDMDL
