MODEL 1
REMARK minimizedAffinity -3.79835558
REMARK minimizedRMSD -1
REMARK  0 active torsions:
REMARK  status: ('A' for Active; 'I' for Inactive)
ROOT
ATOM      1  C   UNL d   1       0.538   0.078   0.228  0.00  0.00     0.172 C 
ATOM      2  N   UNL d   1      -0.390   1.180   0.331  0.00  0.00    -0.070 N 
ATOM      3  C1  UNL d   1      -0.117   2.486   0.022  0.00  0.00    -0.004 A 
ATOM      4  C2  UNL d   1      -1.258   3.222   0.253  0.00  0.00    -0.047 A 
ATOM      5  C3  UNL d   1      -2.252   2.329   0.719  0.00  0.00    -0.047 A 
ATOM      6  C4  UNL d   1      -1.687   1.071   0.757  0.00  0.00    -0.004 A 
ENDROOT
TORSDOF 0
ENDMDL
