MODEL 1
REMARK minimizedAffinity -4.09321928
REMARK minimizedRMSD -1
REMARK  0 active torsions:
REMARK  status: ('A' for Active; 'I' for Inactive)
ROOT
ATOM      1  C   UNL d   1      -0.284   0.192   1.171  0.00  0.00     0.172 C 
ATOM      2  N   UNL d   1      -0.706   1.539   0.867  0.00  0.00    -0.070 N 
ATOM      3  C1  UNL d   1      -1.724   2.216   1.484  0.00  0.00    -0.004 A 
ATOM      4  C2  UNL d   1      -1.809   3.466   0.910  0.00  0.00    -0.047 A 
ATOM      5  C3  UNL d   1      -0.808   3.542  -0.088  0.00  0.00    -0.047 A 
ATOM      6  C4  UNL d   1      -0.140   2.336  -0.093  0.00  0.00    -0.004 A 
ENDROOT
TORSDOF 0
ENDMDL
