MODEL 1
REMARK minimizedAffinity -4.23820257
REMARK minimizedRMSD -1
REMARK  0 active torsions:
REMARK  status: ('A' for Active; 'I' for Inactive)
ROOT
ATOM      1  C   UNL d   1      -1.236   0.416   1.877  0.00  0.00     0.172 C 
ATOM      2  N   UNL d   1      -1.070   1.537   0.982  0.00  0.00    -0.070 N 
ATOM      3  C1  UNL d   1      -0.072   1.679   0.056  0.00  0.00    -0.004 A 
ATOM      4  C2  UNL d   1      -0.265   2.879  -0.593  0.00  0.00    -0.047 A 
ATOM      5  C3  UNL d   1      -1.420   3.480  -0.037  0.00  0.00    -0.047 A 
ATOM      6  C4  UNL d   1      -1.898   2.628   0.936  0.00  0.00    -0.004 A 
ENDROOT
TORSDOF 0
ENDMDL
