MODEL 1
REMARK minimizedAffinity 5.3902092
REMARK minimizedRMSD -1
REMARK  0 active torsions:
REMARK  status: ('A' for Active; 'I' for Inactive)
ROOT
ATOM      1  C   UNL d   1       1.601   3.755  -2.175  0.00  0.00     0.077 C 
ATOM      2  C1  UNL d   1       1.047   4.146  -3.513  0.00  0.00    -0.074 A 
ATOM      3  C2  UNL d   1       1.706   3.792  -4.695  0.00  0.00    -0.005 A 
ATOM      4  C3  UNL d   1       1.174   4.155  -5.932  0.00  0.00     0.006 A 
ATOM      5  C4  UNL d   1      -0.021   4.873  -6.000  0.00  0.00    -0.005 A 
ATOM      6  C5  UNL d   1      -0.694   5.235  -4.829  0.00  0.00    -0.074 A 
ATOM      7  C6  UNL d   1      -1.984   5.998  -4.884  0.00  0.00     0.077 C 
ATOM      8  C7  UNL d   1      -0.156   4.861  -3.590  0.00  0.00    -0.001 A 
ENDROOT
TORSDOF 0
ENDMDL
