MODEL 1
REMARK minimizedAffinity 8.58425331
REMARK minimizedRMSD -1
REMARK  0 active torsions:
REMARK  status: ('A' for Active; 'I' for Inactive)
ROOT
ATOM      1  C   UNL d   1      -3.269  -1.029   1.161  0.00  0.00     0.077 C 
ATOM      2  C1  UNL d   1      -3.740  -0.700   2.547  0.00  0.00    -0.074 A 
ATOM      3  C2  UNL d   1      -4.956  -1.194   3.029  0.00  0.00    -0.005 A 
ATOM      4  C3  UNL d   1      -5.376  -0.887   4.323  0.00  0.00     0.006 A 
ATOM      5  C4  UNL d   1      -4.586  -0.084   5.147  0.00  0.00    -0.005 A 
ATOM      6  C5  UNL d   1      -3.366   0.418   4.682  0.00  0.00    -0.074 A 
ATOM      7  C6  UNL d   1      -2.501   1.275   5.557  0.00  0.00     0.077 C 
ATOM      8  C7  UNL d   1      -2.948   0.100   3.383  0.00  0.00    -0.001 A 
ENDROOT
TORSDOF 0
ENDMDL
