MODEL 1
REMARK minimizedAffinity 3.44975758
REMARK minimizedRMSD -1
REMARK  0 active torsions:
REMARK  status: ('A' for Active; 'I' for Inactive)
ROOT
ATOM      1  C   UNL d   1       1.951   3.981  -6.000  0.00  0.00     0.077 C 
ATOM      2  C1  UNL d   1       0.796   4.563  -5.241  0.00  0.00    -0.074 A 
ATOM      3  C2  UNL d   1       0.845   4.699  -3.850  0.00  0.00    -0.005 A 
ATOM      4  C3  UNL d   1      -0.234   5.250  -3.158  0.00  0.00     0.006 A 
ATOM      5  C4  UNL d   1      -1.370   5.671  -3.850  0.00  0.00    -0.005 A 
ATOM      6  C5  UNL d   1      -1.437   5.544  -5.241  0.00  0.00    -0.074 A 
ATOM      7  C6  UNL d   1      -2.648   6.000  -6.000  0.00  0.00     0.077 C 
ATOM      8  C7  UNL d   1      -0.347   4.995  -5.929  0.00  0.00    -0.001 A 
ENDROOT
TORSDOF 0
ENDMDL
