MODEL 1
REMARK minimizedAffinity 8.91998672
REMARK minimizedRMSD -1
REMARK  0 active torsions:
REMARK  status: ('A' for Active; 'I' for Inactive)
ROOT
ATOM      1  C   UNL d   1      -5.589  -4.563   1.494  0.00  0.00     0.077 C 
ATOM      2  C1  UNL d   1      -4.435  -3.696   1.087  0.00  0.00    -0.074 A 
ATOM      3  C2  UNL d   1      -4.395  -2.342   1.433  0.00  0.00    -0.005 A 
ATOM      4  C3  UNL d   1      -3.310  -1.550   1.056  0.00  0.00     0.006 A 
ATOM      5  C4  UNL d   1      -2.256  -2.104   0.329  0.00  0.00    -0.005 A 
ATOM      6  C5  UNL d   1      -2.278  -3.457  -0.026  0.00  0.00    -0.074 A 
ATOM      7  C6  UNL d   1      -1.148  -4.070  -0.799  0.00  0.00     0.077 C 
ATOM      8  C7  UNL d   1      -3.368  -4.247   0.363  0.00  0.00    -0.001 A 
ENDROOT
TORSDOF 0
ENDMDL
