MODEL 1
REMARK minimizedAffinity 5.08200502
REMARK minimizedRMSD -1
REMARK  0 active torsions:
REMARK  status: ('A' for Active; 'I' for Inactive)
ROOT
ATOM      1  C   UNL d   1      -1.761  -0.158   3.331  0.00  0.00     0.077 C 
ATOM      2  C1  UNL d   1      -1.005  -1.188   2.544  0.00  0.00    -0.074 A 
ATOM      3  C2  UNL d   1       0.340  -1.456   2.817  0.00  0.00    -0.005 A 
ATOM      4  C3  UNL d   1       1.028  -2.423   2.084  0.00  0.00     0.006 A 
ATOM      5  C4  UNL d   1       0.378  -3.130   1.071  0.00  0.00    -0.005 A 
ATOM      6  C5  UNL d   1      -0.967  -2.876   0.785  0.00  0.00    -0.074 A 
ATOM      7  C6  UNL d   1      -1.683  -3.634  -0.293  0.00  0.00     0.077 C 
ATOM      8  C7  UNL d   1      -1.653  -1.908   1.531  0.00  0.00    -0.001 A 
ENDROOT
TORSDOF 0
ENDMDL
