MODEL 1
REMARK minimizedAffinity 5.97420549
REMARK minimizedRMSD -1
REMARK  0 active torsions:
REMARK  status: ('A' for Active; 'I' for Inactive)
ROOT
ATOM      1  C   UNL d   1       3.276   0.608   1.651  0.00  0.00     0.077 C 
ATOM      2  C1  UNL d   1       2.238  -0.432   1.953  0.00  0.00    -0.074 A 
ATOM      3  C2  UNL d   1       2.544  -1.546   2.741  0.00  0.00    -0.005 A 
ATOM      4  C3  UNL d   1       1.565  -2.499   3.021  0.00  0.00     0.006 A 
ATOM      5  C4  UNL d   1       0.273  -2.350   2.516  0.00  0.00    -0.005 A 
ATOM      6  C5  UNL d   1      -0.052  -1.242   1.727  0.00  0.00    -0.074 A 
ATOM      7  C6  UNL d   1      -1.438  -1.061   1.184  0.00  0.00     0.077 C 
ATOM      8  C7  UNL d   1       0.935  -0.284   1.455  0.00  0.00    -0.001 A 
ENDROOT
TORSDOF 0
ENDMDL
