MODEL 1
REMARK minimizedAffinity 5.56633568
REMARK minimizedRMSD -1
REMARK  0 active torsions:
REMARK  status: ('A' for Active; 'I' for Inactive)
ROOT
ATOM      1  C   UNL d   1       1.976  -0.141   2.148  0.00  0.00     0.077 C 
ATOM      2  C1  UNL d   1       3.380   0.295   2.442  0.00  0.00    -0.074 A 
ATOM      3  C2  UNL d   1       4.465  -0.550   2.186  0.00  0.00    -0.005 A 
ATOM      4  C3  UNL d   1       5.766  -0.127   2.456  0.00  0.00     0.006 A 
ATOM      5  C4  UNL d   1       5.996   1.144   2.984  0.00  0.00    -0.005 A 
ATOM      6  C5  UNL d   1       4.924   2.003   3.246  0.00  0.00    -0.074 A 
ATOM      7  C6  UNL d   1       5.155   3.376   3.805  0.00  0.00     0.077 C 
ATOM      8  C7  UNL d   1       3.620   1.573   2.966  0.00  0.00    -0.001 A 
ENDROOT
TORSDOF 0
ENDMDL
