MODEL 1
REMARK minimizedAffinity 11.1420126
REMARK minimizedRMSD -1
REMARK  0 active torsions:
REMARK  status: ('A' for Active; 'I' for Inactive)
ROOT
ATOM      1  C   UNL d   1       5.083  -0.421   2.055  0.00  0.00     0.077 C 
ATOM      2  C1  UNL d   1       3.627  -0.744   2.216  0.00  0.00    -0.074 A 
ATOM      3  C2  UNL d   1       2.647   0.003   1.554  0.00  0.00    -0.005 A 
ATOM      4  C3  UNL d   1       1.298  -0.316   1.706  0.00  0.00     0.006 A 
ATOM      5  C4  UNL d   1       0.915  -1.383   2.519  0.00  0.00    -0.005 A 
ATOM      6  C5  UNL d   1       1.880  -2.142   3.188  0.00  0.00    -0.074 A 
ATOM      7  C6  UNL d   1       1.486  -3.298   4.058  0.00  0.00     0.077 C 
ATOM      8  C7  UNL d   1       3.235  -1.820   3.025  0.00  0.00    -0.001 A 
ENDROOT
TORSDOF 0
ENDMDL
