MODEL 1
REMARK minimizedAffinity 15.1615324
REMARK minimizedRMSD -1
REMARK  0 active torsions:
REMARK  status: ('A' for Active; 'I' for Inactive)
ROOT
ATOM      1  C   UNL d   1       1.078  -3.598   4.419  0.00  0.00     0.077 C 
ATOM      2  C1  UNL d   1       0.277  -2.906   3.356  0.00  0.00    -0.074 A 
ATOM      3  C2  UNL d   1      -0.130  -1.577   3.513  0.00  0.00    -0.005 A 
ATOM      4  C3  UNL d   1      -0.866  -0.944   2.512  0.00  0.00     0.006 A 
ATOM      5  C4  UNL d   1      -1.202  -1.632   1.345  0.00  0.00    -0.005 A 
ATOM      6  C5  UNL d   1      -0.803  -2.961   1.170  0.00  0.00    -0.074 A 
ATOM      7  C6  UNL d   1      -1.148  -3.712  -0.082  0.00  0.00     0.077 C 
ATOM      8  C7  UNL d   1      -0.058  -3.588   2.178  0.00  0.00    -0.001 A 
ENDROOT
TORSDOF 0
ENDMDL
