MODEL 1
REMARK minimizedAffinity 7.07484007
REMARK minimizedRMSD -1
REMARK  0 active torsions:
REMARK  status: ('A' for Active; 'I' for Inactive)
ROOT
ATOM      1  C   UNL d   1      -0.134   5.885  -5.022  0.00  0.00     0.077 C 
ATOM      2  C1  UNL d   1      -1.626   5.911  -4.863  0.00  0.00    -0.074 A 
ATOM      3  C2  UNL d   1      -2.468   5.888  -5.980  0.00  0.00    -0.005 A 
ATOM      4  C3  UNL d   1      -3.853   5.903  -5.816  0.00  0.00     0.006 A 
ATOM      5  C4  UNL d   1      -4.409   5.941  -4.537  0.00  0.00    -0.005 A 
ATOM      6  C5  UNL d   1      -3.583   5.964  -3.409  0.00  0.00    -0.074 A 
ATOM      7  C6  UNL d   1      -4.164   5.995  -2.026  0.00  0.00     0.077 C 
ATOM      8  C7  UNL d   1      -2.192   5.942  -3.581  0.00  0.00    -0.001 A 
ENDROOT
TORSDOF 0
ENDMDL
