MODEL 1
REMARK minimizedAffinity 0.620936453
REMARK minimizedRMSD -1
REMARK  0 active torsions:
REMARK  status: ('A' for Active; 'I' for Inactive)
ROOT
ATOM      1  C   UNL d   1      -5.252   5.641  -2.241  0.00  0.00     0.077 C 
ATOM      2  C1  UNL d   1      -4.531   5.681  -3.556  0.00  0.00    -0.074 A 
ATOM      3  C2  UNL d   1      -5.216   5.956  -4.744  0.00  0.00    -0.005 A 
ATOM      4  C3  UNL d   1      -4.530   6.000  -5.957  0.00  0.00     0.006 A 
ATOM      5  C4  UNL d   1      -3.155   5.768  -5.996  0.00  0.00    -0.005 A 
ATOM      6  C5  UNL d   1      -2.453   5.492  -4.818  0.00  0.00    -0.074 A 
ATOM      7  C6  UNL d   1      -0.972   5.251  -4.840  0.00  0.00     0.077 C 
ATOM      8  C7  UNL d   1      -3.148   5.458  -3.602  0.00  0.00    -0.001 A 
ENDROOT
TORSDOF 0
ENDMDL
