MODEL 1
REMARK minimizedAffinity 2.41323256
REMARK minimizedRMSD -1
REMARK  0 active torsions:
REMARK  status: ('A' for Active; 'I' for Inactive)
ROOT
ATOM      1  C   UNL d   1      -1.342  -1.276   1.716  0.00  0.00     0.077 C 
ATOM      2  C1  UNL d   1      -2.422  -0.476   1.052  0.00  0.00    -0.074 A 
ATOM      3  C2  UNL d   1      -3.098   0.534   1.745  0.00  0.00    -0.005 A 
ATOM      4  C3  UNL d   1      -4.094   1.277   1.111  0.00  0.00     0.006 A 
ATOM      5  C4  UNL d   1      -4.424   1.018  -0.220  0.00  0.00    -0.005 A 
ATOM      6  C5  UNL d   1      -3.758   0.012  -0.929  0.00  0.00    -0.074 A 
ATOM      7  C6  UNL d   1      -4.094  -0.273  -2.363  0.00  0.00     0.077 C 
ATOM      8  C7  UNL d   1      -2.754  -0.725  -0.287  0.00  0.00    -0.001 A 
ENDROOT
TORSDOF 0
ENDMDL
