MODEL 1
REMARK minimizedAffinity 4.28155088
REMARK minimizedRMSD -1
REMARK  0 active torsions:
REMARK  status: ('A' for Active; 'I' for Inactive)
ROOT
ATOM      1  C   UNL d   1      -2.235  -2.571  -3.418  0.00  0.00     0.077 C 
ATOM      2  C1  UNL d   1      -2.453  -3.746  -4.324  0.00  0.00    -0.074 A 
ATOM      3  C2  UNL d   1      -1.371  -4.467  -4.839  0.00  0.00    -0.005 A 
ATOM      4  C3  UNL d   1      -1.590  -5.564  -5.673  0.00  0.00     0.006 A 
ATOM      5  C4  UNL d   1      -2.890  -5.950  -6.000  0.00  0.00    -0.005 A 
ATOM      6  C5  UNL d   1      -3.984  -5.241  -5.494  0.00  0.00    -0.074 A 
ATOM      7  C6  UNL d   1      -5.389  -5.648  -5.828  0.00  0.00     0.077 C 
ATOM      8  C7  UNL d   1      -3.757  -4.144  -4.651  0.00  0.00    -0.001 A 
ENDROOT
TORSDOF 0
ENDMDL
