MODEL 1
REMARK minimizedAffinity 9.98631477
REMARK minimizedRMSD -1
REMARK  0 active torsions:
REMARK  status: ('A' for Active; 'I' for Inactive)
ROOT
ATOM      1  C   UNL d   1      -4.484   1.269  -0.381  0.00  0.00     0.077 C 
ATOM      2  C1  UNL d   1      -3.453   0.547   0.436  0.00  0.00    -0.074 A 
ATOM      3  C2  UNL d   1      -2.796   1.187   1.492  0.00  0.00    -0.005 A 
ATOM      4  C3  UNL d   1      -1.847   0.500   2.249  0.00  0.00     0.006 A 
ATOM      5  C4  UNL d   1      -1.545  -0.831   1.957  0.00  0.00    -0.005 A 
ATOM      6  C5  UNL d   1      -2.193  -1.487   0.906  0.00  0.00    -0.074 A 
ATOM      7  C6  UNL d   1      -1.888  -2.920   0.585  0.00  0.00     0.077 C 
ATOM      8  C7  UNL d   1      -3.150  -0.792   0.154  0.00  0.00    -0.001 A 
ENDROOT
TORSDOF 0
ENDMDL
