MODEL 1
REMARK minimizedAffinity 4.84850025
REMARK minimizedRMSD -1
REMARK  0 active torsions:
REMARK  status: ('A' for Active; 'I' for Inactive)
ROOT
ATOM      1  C   UNL d   1      -3.830   0.028  -2.117  0.00  0.00     0.077 C 
ATOM      2  C1  UNL d   1      -3.458   0.220  -0.676  0.00  0.00    -0.074 A 
ATOM      3  C2  UNL d   1      -3.806   1.390   0.006  0.00  0.00    -0.005 A 
ATOM      4  C3  UNL d   1      -3.462   1.549   1.349  0.00  0.00     0.006 A 
ATOM      5  C4  UNL d   1      -2.768   0.542   2.021  0.00  0.00    -0.005 A 
ATOM      6  C5  UNL d   1      -2.413  -0.635   1.355  0.00  0.00    -0.074 A 
ATOM      7  C6  UNL d   1      -1.675  -1.731   2.065  0.00  0.00     0.077 C 
ATOM      8  C7  UNL d   1      -2.768  -0.791   0.008  0.00  0.00    -0.001 A 
ENDROOT
TORSDOF 0
ENDMDL
