MODEL 1
REMARK minimizedAffinity 9.0489254
REMARK minimizedRMSD -1
REMARK  1 active torsions:
REMARK  status: ('A' for Active; 'I' for Inactive)
REMARK    1  A    between atoms: C1_2  and  C2_3 
ROOT
ATOM      1  C2  UNL d   1       2.435   0.772   1.072  0.00  0.00    -0.076 A 
ATOM      2  C3  UNL d   1       1.735   1.057  -0.114  0.00  0.00     0.004 A 
ATOM      3  C4  UNL d   1       2.317   0.838  -1.361  0.00  0.00    -0.003 A 
ATOM      4  C5  UNL d   1       3.609   0.331  -1.443  0.00  0.00     0.000 A 
ATOM      5  C6  UNL d   1       4.312   0.027  -0.278  0.00  0.00     0.000 A 
ATOM      6  C7  UNL d   1       3.733   0.225   0.987  0.00  0.00    -0.073 A 
ATOM      7  C8  UNL d   1       4.539  -0.115   2.211  0.00  0.00     0.078 C 
ENDROOT
BRANCH   1   8
ATOM      8  C1  UNL d   1       1.762   1.055   2.396  0.00  0.00     0.053 C 
ATOM      9  C   UNL d   1       0.718   2.156   2.296  0.00  0.00     0.018 C 
ENDBRANCH   1   8
TORSDOF 1
ENDMDL
