MODEL 1
REMARK minimizedAffinity 12.6534338
REMARK minimizedRMSD -1
REMARK  1 active torsions:
REMARK  status: ('A' for Active; 'I' for Inactive)
REMARK    1  A    between atoms: C1_2  and  C2_3 
ROOT
ATOM      1  C2  UNL d   1       3.781   1.895   1.086  0.00  0.00    -0.076 A 
ATOM      2  C3  UNL d   1       4.260   0.577   0.995  0.00  0.00     0.004 A 
ATOM      3  C4  UNL d   1       3.405  -0.477   0.678  0.00  0.00    -0.003 A 
ATOM      4  C5  UNL d   1       2.057  -0.229   0.445  0.00  0.00     0.000 A 
ATOM      5  C6  UNL d   1       1.568   1.075   0.513  0.00  0.00     0.000 A 
ATOM      6  C7  UNL d   1       2.419   2.151   0.816  0.00  0.00    -0.073 A 
ATOM      7  C8  UNL d   1       1.837   3.536   0.883  0.00  0.00     0.078 C 
ENDROOT
BRANCH   1   8
ATOM      8  C1  UNL d   1       4.750   2.994   1.461  0.00  0.00     0.053 C 
ATOM      9  C   UNL d   1       6.000   2.460   2.144  0.00  0.00     0.018 C 
ENDBRANCH   1   8
TORSDOF 1
ENDMDL
