MODEL 1
REMARK minimizedAffinity 4.84464312
REMARK minimizedRMSD -1
REMARK  1 active torsions:
REMARK  status: ('A' for Active; 'I' for Inactive)
REMARK    1  A    between atoms: C1_2  and  C2_3 
ROOT
ATOM      1  C2  UNL d   1      -3.068  -4.235  -0.019  0.00  0.00    -0.076 A 
ATOM      2  C3  UNL d   1      -3.954  -4.222  -1.110  0.00  0.00     0.004 A 
ATOM      3  C4  UNL d   1      -3.766  -3.346  -2.177  0.00  0.00    -0.003 A 
ATOM      4  C5  UNL d   1      -2.688  -2.467  -2.171  0.00  0.00     0.000 A 
ATOM      5  C6  UNL d   1      -1.789  -2.478  -1.105  0.00  0.00     0.000 A 
ATOM      6  C7  UNL d   1      -1.955  -3.367  -0.029  0.00  0.00    -0.073 A 
ATOM      7  C8  UNL d   1      -0.958  -3.331   1.097  0.00  0.00     0.078 C 
ENDROOT
BRANCH   1   8
ATOM      8  C1  UNL d   1      -3.338  -5.189   1.123  0.00  0.00     0.053 C 
ATOM      9  C   UNL d   1      -4.609  -5.998   0.917  0.00  0.00     0.018 C 
ENDBRANCH   1   8
TORSDOF 1
ENDMDL
