MODEL 1
REMARK minimizedAffinity 0.113756768
REMARK minimizedRMSD -1
REMARK  1 active torsions:
REMARK  status: ('A' for Active; 'I' for Inactive)
REMARK    1  A    between atoms: C1_2  and  C2_3 
ROOT
ATOM      1  C2  UNL d   1       4.367   3.590   1.788  0.00  0.00    -0.076 A 
ATOM      2  C3  UNL d   1       3.811   4.837   1.450  0.00  0.00     0.004 A 
ATOM      3  C4  UNL d   1       4.192   5.998   2.121  0.00  0.00    -0.003 A 
ATOM      4  C5  UNL d   1       5.136   5.931   3.140  0.00  0.00     0.000 A 
ATOM      5  C6  UNL d   1       5.711   4.706   3.476  0.00  0.00     0.000 A 
ATOM      6  C7  UNL d   1       5.350   3.529   2.798  0.00  0.00    -0.073 A 
ATOM      7  C8  UNL d   1       5.998   2.234   3.206  0.00  0.00     0.078 C 
ENDROOT
BRANCH   1   8
ATOM      8  C1  UNL d   1       3.895   2.361   1.044  0.00  0.00     0.053 C 
ATOM      9  C   UNL d   1       2.383   2.203   1.081  0.00  0.00     0.018 C 
ENDBRANCH   1   8
TORSDOF 1
ENDMDL
