MODEL 1
REMARK minimizedAffinity 6.10359049
REMARK minimizedRMSD -1
REMARK  1 active torsions:
REMARK  status: ('A' for Active; 'I' for Inactive)
REMARK    1  A    between atoms: C1_2  and  C2_3 
ROOT
ATOM      1  C2  UNL d   1      -1.667  -3.169  -2.981  0.00  0.00    -0.076 A 
ATOM      2  C3  UNL d   1      -2.735  -2.637  -2.237  0.00  0.00     0.004 A 
ATOM      3  C4  UNL d   1      -2.607  -2.394  -0.871  0.00  0.00    -0.003 A 
ATOM      4  C5  UNL d   1      -1.409  -2.678  -0.226  0.00  0.00     0.000 A 
ATOM      5  C6  UNL d   1      -0.333  -3.189  -0.951  0.00  0.00     0.000 A 
ATOM      6  C7  UNL d   1      -0.440  -3.425  -2.332  0.00  0.00    -0.073 A 
ATOM      7  C8  UNL d   1       0.750  -3.983  -3.063  0.00  0.00     0.078 C 
ENDROOT
BRANCH   1   8
ATOM      8  C1  UNL d   1      -1.873  -3.438  -4.454  0.00  0.00     0.053 C 
ATOM      9  C   UNL d   1      -1.265  -2.356  -5.334  0.00  0.00     0.018 C 
ENDBRANCH   1   8
TORSDOF 1
ENDMDL
