MODEL 1
REMARK minimizedAffinity -0.564344108
REMARK minimizedRMSD -1
REMARK  1 active torsions:
REMARK  status: ('A' for Active; 'I' for Inactive)
REMARK    1  A    between atoms: C1_2  and  C2_3 
ROOT
ATOM      1  C2  UNL d   1      -1.327  -3.202  -2.756  0.00  0.00    -0.076 A 
ATOM      2  C3  UNL d   1      -0.041  -3.272  -2.193  0.00  0.00     0.004 A 
ATOM      3  C4  UNL d   1       0.135  -3.321  -0.811  0.00  0.00    -0.003 A 
ATOM      4  C5  UNL d   1      -0.972  -3.301   0.030  0.00  0.00     0.000 A 
ATOM      5  C6  UNL d   1      -2.256  -3.250  -0.512  0.00  0.00     0.000 A 
ATOM      6  C7  UNL d   1      -2.451  -3.217  -1.904  0.00  0.00    -0.073 A 
ATOM      7  C8  UNL d   1      -3.858  -3.156  -2.434  0.00  0.00     0.078 C 
ENDROOT
BRANCH   1   8
ATOM      8  C1  UNL d   1      -1.455  -3.124  -4.261  0.00  0.00     0.053 C 
ATOM      9  C   UNL d   1      -1.672  -1.701  -4.754  0.00  0.00     0.018 C 
ENDBRANCH   1   8
TORSDOF 1
ENDMDL
