MODEL 1
REMARK minimizedAffinity 7.21276093
REMARK minimizedRMSD -1
REMARK  1 active torsions:
REMARK  status: ('A' for Active; 'I' for Inactive)
REMARK    1  A    between atoms: C1_2  and  C2_3 
ROOT
ATOM      1  C2  UNL d   1       3.414   0.286   2.056  0.00  0.00    -0.076 A 
ATOM      2  C3  UNL d   1       2.914  -0.080   3.318  0.00  0.00     0.004 A 
ATOM      3  C4  UNL d   1       1.739   0.482   3.814  0.00  0.00    -0.003 A 
ATOM      4  C5  UNL d   1       1.045   1.419   3.056  0.00  0.00     0.000 A 
ATOM      5  C6  UNL d   1       1.517   1.780   1.795  0.00  0.00     0.000 A 
ATOM      6  C7  UNL d   1       2.691   1.211   1.273  0.00  0.00    -0.073 A 
ATOM      7  C8  UNL d   1       3.158   1.641  -0.090  0.00  0.00     0.078 C 
ENDROOT
BRANCH   1   8
ATOM      8  C1  UNL d   1       4.708  -0.337   1.582  0.00  0.00     0.053 C 
ATOM      9  C   UNL d   1       5.933   0.333   2.185  0.00  0.00     0.018 C 
ENDBRANCH   1   8
TORSDOF 1
ENDMDL
