MODEL 1
REMARK minimizedAffinity 2.4217999
REMARK minimizedRMSD -1
REMARK  1 active torsions:
REMARK  status: ('A' for Active; 'I' for Inactive)
REMARK    1  A    between atoms: C1_2  and  C2_3 
ROOT
ATOM      1  C2  UNL d   1      -2.837  -3.409  -2.772  0.00  0.00    -0.076 A 
ATOM      2  C3  UNL d   1      -3.112  -3.583  -1.404  0.00  0.00     0.004 A 
ATOM      3  C4  UNL d   1      -2.240  -3.101  -0.430  0.00  0.00    -0.003 A 
ATOM      4  C5  UNL d   1      -1.078  -2.436  -0.807  0.00  0.00     0.000 A 
ATOM      5  C6  UNL d   1      -0.798  -2.238  -2.159  0.00  0.00     0.000 A 
ATOM      6  C7  UNL d   1      -1.675  -2.703  -3.154  0.00  0.00    -0.073 A 
ATOM      7  C8  UNL d   1      -1.321  -2.468  -4.596  0.00  0.00     0.078 C 
ENDROOT
BRANCH   1   8
ATOM      8  C1  UNL d   1      -3.806  -3.977  -3.784  0.00  0.00     0.053 C 
ATOM      9  C   UNL d   1      -5.142  -4.353  -3.163  0.00  0.00     0.018 C 
ENDBRANCH   1   8
TORSDOF 1
ENDMDL
