MODEL 1
REMARK minimizedAffinity 9.23407936
REMARK minimizedRMSD -1
REMARK  1 active torsions:
REMARK  status: ('A' for Active; 'I' for Inactive)
REMARK    1  A    between atoms: C1_2  and  C2_3 
ROOT
ATOM      1  C2  UNL d   1      -4.044  -5.152  -1.264  0.00  0.00    -0.076 A 
ATOM      2  C3  UNL d   1      -5.128  -5.999  -1.550  0.00  0.00     0.004 A 
ATOM      3  C4  UNL d   1      -6.000  -5.720  -2.601  0.00  0.00    -0.003 A 
ATOM      4  C5  UNL d   1      -5.800  -4.589  -3.384  0.00  0.00     0.000 A 
ATOM      5  C6  UNL d   1      -4.719  -3.747  -3.127  0.00  0.00     0.000 A 
ATOM      6  C7  UNL d   1      -3.822  -4.023  -2.081  0.00  0.00    -0.073 A 
ATOM      7  C8  UNL d   1      -2.676  -3.077  -1.844  0.00  0.00     0.078 C 
ENDROOT
BRANCH   1   8
ATOM      8  C1  UNL d   1      -3.148  -5.492  -0.094  0.00  0.00     0.053 C 
ATOM      9  C   UNL d   1      -3.928  -6.000   1.108  0.00  0.00     0.018 C 
ENDBRANCH   1   8
TORSDOF 1
ENDMDL
