MODEL 1
REMARK minimizedAffinity 11.7539206
REMARK minimizedRMSD -1
REMARK  1 active torsions:
REMARK  status: ('A' for Active; 'I' for Inactive)
REMARK    1  A    between atoms: C1_2  and  C2_3 
ROOT
ATOM      1  C2  UNL d   1      -1.148  -3.686  -1.994  0.00  0.00    -0.076 A 
ATOM      2  C3  UNL d   1      -0.019  -3.716  -1.158  0.00  0.00     0.004 A 
ATOM      3  C4  UNL d   1       0.055  -2.910  -0.023  0.00  0.00    -0.003 A 
ATOM      4  C5  UNL d   1      -1.000  -2.061   0.294  0.00  0.00     0.000 A 
ATOM      5  C6  UNL d   1      -2.136  -2.032  -0.514  0.00  0.00     0.000 A 
ATOM      6  C7  UNL d   1      -2.233  -2.851  -1.652  0.00  0.00    -0.073 A 
ATOM      7  C8  UNL d   1      -3.479  -2.774  -2.492  0.00  0.00     0.078 C 
ENDROOT
BRANCH   1   8
ATOM      8  C1  UNL d   1      -1.161  -4.563  -3.226  0.00  0.00     0.053 C 
ATOM      9  C   UNL d   1      -1.559  -5.998  -2.916  0.00  0.00     0.018 C 
ENDBRANCH   1   8
TORSDOF 1
ENDMDL
