MODEL 1
REMARK minimizedAffinity 2.25148702
REMARK minimizedRMSD -1
REMARK  1 active torsions:
REMARK  status: ('A' for Active; 'I' for Inactive)
REMARK    1  A    between atoms: C1_2  and  C2_3 
ROOT
ATOM      1  C2  UNL d   1       2.697   1.365  -0.814  0.00  0.00    -0.076 A 
ATOM      2  C3  UNL d   1       2.090   1.481   0.449  0.00  0.00     0.004 A 
ATOM      3  C4  UNL d   1       2.463   0.648   1.503  0.00  0.00    -0.003 A 
ATOM      4  C5  UNL d   1       3.449  -0.313   1.311  0.00  0.00     0.000 A 
ATOM      5  C6  UNL d   1       4.074  -0.430   0.070  0.00  0.00     0.000 A 
ATOM      6  C7  UNL d   1       3.722   0.412  -0.998  0.00  0.00    -0.073 A 
ATOM      7  C8  UNL d   1       4.424   0.238  -2.317  0.00  0.00     0.078 C 
ENDROOT
BRANCH   1   8
ATOM      8  C1  UNL d   1       2.233   2.278  -1.927  0.00  0.00     0.053 C 
ATOM      9  C   UNL d   1       0.728   2.221  -2.137  0.00  0.00     0.018 C 
ENDBRANCH   1   8
TORSDOF 1
ENDMDL
