MODEL 1
REMARK minimizedAffinity 2.26413226
REMARK minimizedRMSD -1
REMARK  1 active torsions:
REMARK  status: ('A' for Active; 'I' for Inactive)
REMARK    1  A    between atoms: C1_2  and  C2_3 
ROOT
ATOM      1  C2  UNL d   1      -1.108  -3.285  -0.993  0.00  0.00    -0.076 A 
ATOM      2  C3  UNL d   1       0.283  -3.484  -1.018  0.00  0.00     0.004 A 
ATOM      3  C4  UNL d   1       0.951  -3.732  -2.216  0.00  0.00    -0.003 A 
ATOM      4  C5  UNL d   1       0.238  -3.786  -3.409  0.00  0.00     0.000 A 
ATOM      5  C6  UNL d   1      -1.140  -3.573  -3.405  0.00  0.00     0.000 A 
ATOM      6  C7  UNL d   1      -1.826  -3.305  -2.208  0.00  0.00    -0.073 A 
ATOM      7  C8  UNL d   1      -3.314  -3.090  -2.261  0.00  0.00     0.078 C 
ENDROOT
BRANCH   1   8
ATOM      8  C1  UNL d   1      -1.781  -3.047   0.340  0.00  0.00     0.053 C 
ATOM      9  C   UNL d   1      -1.275  -3.985   1.425  0.00  0.00     0.018 C 
ENDBRANCH   1   8
TORSDOF 1
ENDMDL
