MODEL 1
REMARK minimizedAffinity 9.59707642
REMARK minimizedRMSD -1
REMARK  1 active torsions:
REMARK  status: ('A' for Active; 'I' for Inactive)
REMARK    1  A    between atoms: C1_2  and  C2_3 
ROOT
ATOM      1  C2  UNL d   1      -0.986  -3.781  -2.132  0.00  0.00    -0.076 A 
ATOM      2  C3  UNL d   1      -0.148  -3.729  -1.005  0.00  0.00     0.004 A 
ATOM      3  C4  UNL d   1      -0.558  -3.092   0.165  0.00  0.00    -0.003 A 
ATOM      4  C5  UNL d   1      -1.814  -2.498   0.227  0.00  0.00     0.000 A 
ATOM      5  C6  UNL d   1      -2.665  -2.556  -0.876  0.00  0.00     0.000 A 
ATOM      6  C7  UNL d   1      -2.274  -3.208  -2.057  0.00  0.00    -0.073 A 
ATOM      7  C8  UNL d   1      -3.230  -3.235  -3.218  0.00  0.00     0.078 C 
ENDROOT
BRANCH   1   8
ATOM      8  C1  UNL d   1      -0.477  -4.462  -3.383  0.00  0.00     0.053 C 
ATOM      9  C   UNL d   1      -0.680  -5.969  -3.349  0.00  0.00     0.018 C 
ENDBRANCH   1   8
TORSDOF 1
ENDMDL
