MODEL 1
REMARK minimizedAffinity 4.81802034
REMARK minimizedRMSD -1
REMARK  0 active torsions:
REMARK  status: ('A' for Active; 'I' for Inactive)
ROOT
ATOM      1  C   UNL d   1       6.000   6.000  -5.066  0.00  0.00     0.020 A 
ATOM      2  C1  UNL d   1       5.977   4.878  -5.893  0.00  0.00     0.020 A 
ATOM      3  C2  UNL d   1       5.327   3.715  -5.475  0.00  0.00     0.034 A 
ATOM      4  C3  UNL d   1       4.697   3.671  -4.226  0.00  0.00     0.017 A 
ATOM      5  C4  UNL d   1       4.720   4.798  -3.396  0.00  0.00     0.017 A 
ATOM      6  C5  UNL d   1       5.373   5.960  -3.820  0.00  0.00     0.034 A 
ATOM      7 Cl   UNL d   1       3.966   4.820  -1.841  0.00  0.00    -0.070 Cl
ATOM      8 Cl1  UNL d   1       3.912   2.200  -3.773  0.00  0.00    -0.070 Cl
ENDROOT
TORSDOF 0
ENDMDL
