MODEL 1
REMARK minimizedAffinity 1.6768266
REMARK minimizedRMSD -1
REMARK  0 active torsions:
REMARK  status: ('A' for Active; 'I' for Inactive)
ROOT
ATOM      1  C   UNL d   1       5.025   5.944  -2.291  0.00  0.00     0.020 A 
ATOM      2  C1  UNL d   1       5.820   4.850  -1.955  0.00  0.00     0.020 A 
ATOM      3  C2  UNL d   1       5.995   3.807  -2.867  0.00  0.00     0.034 A 
ATOM      4  C3  UNL d   1       5.373   3.857  -4.120  0.00  0.00     0.017 A 
ATOM      5  C4  UNL d   1       4.575   4.956  -4.457  0.00  0.00     0.017 A 
ATOM      6  C5  UNL d   1       4.404   5.997  -3.539  0.00  0.00     0.034 A 
ATOM      7 Cl   UNL d   1       3.776   5.089  -5.983  0.00  0.00    -0.070 Cl
ATOM      8 Cl1  UNL d   1       5.633   2.533  -5.199  0.00  0.00    -0.070 Cl
ENDROOT
TORSDOF 0
ENDMDL
