MODEL 1
REMARK minimizedAffinity 19.0202522
REMARK minimizedRMSD -1
REMARK  0 active torsions:
REMARK  status: ('A' for Active; 'I' for Inactive)
ROOT
ATOM      1  C   UNL d   1       1.212   5.984   1.797  0.00  0.00     0.020 A 
ATOM      2  C1  UNL d   1       1.843   4.866   1.253  0.00  0.00     0.020 A 
ATOM      3  C2  UNL d   1       1.089   3.753   0.875  0.00  0.00     0.034 A 
ATOM      4  C3  UNL d   1      -0.301   3.756   1.040  0.00  0.00     0.017 A 
ATOM      5  C4  UNL d   1      -0.934   4.878   1.586  0.00  0.00     0.017 A 
ATOM      6  C5  UNL d   1      -0.174   5.990   1.963  0.00  0.00     0.034 A 
ATOM      7 Cl   UNL d   1      -2.644   4.956   1.821  0.00  0.00    -0.070 Cl
ATOM      8 Cl1  UNL d   1      -1.171   2.345   0.551  0.00  0.00    -0.070 Cl
ENDROOT
TORSDOF 0
ENDMDL
