MODEL 1
REMARK minimizedAffinity 1.64006293
REMARK minimizedRMSD -1
REMARK  0 active torsions:
REMARK  status: ('A' for Active; 'I' for Inactive)
ROOT
ATOM      1  C   UNL d   1       4.837   3.939  -5.626  0.00  0.00     0.020 A 
ATOM      2  C1  UNL d   1       6.000   3.870  -4.860  0.00  0.00     0.020 A 
ATOM      3  C2  UNL d   1       6.000   4.344  -3.547  0.00  0.00     0.034 A 
ATOM      4  C3  UNL d   1       4.835   4.890  -2.996  0.00  0.00     0.017 A 
ATOM      5  C4  UNL d   1       3.668   4.959  -3.766  0.00  0.00     0.017 A 
ATOM      6  C5  UNL d   1       3.674   4.482  -5.080  0.00  0.00     0.034 A 
ATOM      7 Cl   UNL d   1       2.192   5.619  -3.155  0.00  0.00    -0.070 Cl
ATOM      8 Cl1  UNL d   1       4.907   5.458  -1.366  0.00  0.00    -0.070 Cl
ENDROOT
TORSDOF 0
ENDMDL
