MODEL 1
REMARK minimizedAffinity -2.87500381
REMARK minimizedRMSD -1
REMARK  0 active torsions:
REMARK  status: ('A' for Active; 'I' for Inactive)
ROOT
ATOM      1  C   UNL d   1       6.000  -4.472   5.433  0.00  0.00     0.020 A 
ATOM      2  C1  UNL d   1       5.793  -4.822   4.099  0.00  0.00     0.020 A 
ATOM      3  C2  UNL d   1       4.862  -4.121   3.331  0.00  0.00     0.034 A 
ATOM      4  C3  UNL d   1       4.133  -3.068   3.895  0.00  0.00     0.017 A 
ATOM      5  C4  UNL d   1       4.341  -2.718   5.234  0.00  0.00     0.017 A 
ATOM      6  C5  UNL d   1       5.275  -3.423   5.999  0.00  0.00     0.034 A 
ATOM      7 Cl   UNL d   1       3.480  -1.430   6.000  0.00  0.00    -0.070 Cl
ATOM      8 Cl1  UNL d   1       2.997  -2.245   2.885  0.00  0.00    -0.070 Cl
ENDROOT
TORSDOF 0
ENDMDL
