MODEL 1
REMARK minimizedAffinity 4.24816656
REMARK minimizedRMSD -1
REMARK  0 active torsions:
REMARK  status: ('A' for Active; 'I' for Inactive)
ROOT
ATOM      1  C   UNL d   1       5.350  -4.723   5.990  0.00  0.00     0.020 A 
ATOM      2  C1  UNL d   1       3.960  -4.826   5.990  0.00  0.00     0.020 A 
ATOM      3  C2  UNL d   1       3.175  -3.671   5.992  0.00  0.00     0.034 A 
ATOM      4  C3  UNL d   1       3.780  -2.408   5.993  0.00  0.00     0.017 A 
ATOM      5  C4  UNL d   1       5.175  -2.307   5.992  0.00  0.00     0.017 A 
ATOM      6  C5  UNL d   1       5.957  -3.466   5.991  0.00  0.00     0.034 A 
ATOM      7 Cl   UNL d   1       5.994  -0.784   5.993  0.00  0.00    -0.070 Cl
ATOM      8 Cl1  UNL d   1       2.747  -1.023   5.994  0.00  0.00    -0.070 Cl
ENDROOT
TORSDOF 0
ENDMDL
