MODEL 1
REMARK minimizedAffinity 7.71869135
REMARK minimizedRMSD -1
REMARK  0 active torsions:
REMARK  status: ('A' for Active; 'I' for Inactive)
ROOT
ATOM      1  C   UNL d   1       6.000   4.617  -1.638  0.00  0.00     0.020 A 
ATOM      2  C1  UNL d   1       5.138   5.711  -1.567  0.00  0.00     0.020 A 
ATOM      3  C2  UNL d   1       4.276   5.991  -2.629  0.00  0.00     0.034 A 
ATOM      4  C3  UNL d   1       4.273   5.176  -3.767  0.00  0.00     0.017 A 
ATOM      5  C4  UNL d   1       5.138   4.078  -3.837  0.00  0.00     0.017 A 
ATOM      6  C5  UNL d   1       6.000   3.802  -2.771  0.00  0.00     0.034 A 
ATOM      7 Cl   UNL d   1       5.192   3.026  -5.208  0.00  0.00    -0.070 Cl
ATOM      8 Cl1  UNL d   1       3.180   5.580  -5.043  0.00  0.00    -0.070 Cl
ENDROOT
TORSDOF 0
ENDMDL
