MODEL 1
REMARK minimizedAffinity 3.78117371
REMARK minimizedRMSD -1
REMARK  0 active torsions:
REMARK  status: ('A' for Active; 'I' for Inactive)
ROOT
ATOM      1  C   UNL d   1       4.876   3.541  -5.248  0.00  0.00     0.020 A 
ATOM      2  C1  UNL d   1       5.995   3.542  -4.418  0.00  0.00     0.020 A 
ATOM      3  C2  UNL d   1       5.998   4.308  -3.250  0.00  0.00     0.034 A 
ATOM      4  C3  UNL d   1       4.879   5.077  -2.910  0.00  0.00     0.017 A 
ATOM      5  C4  UNL d   1       3.756   5.076  -3.745  0.00  0.00     0.017 A 
ATOM      6  C5  UNL d   1       3.758   4.307  -4.913  0.00  0.00     0.034 A 
ATOM      7 Cl   UNL d   1       2.338   5.999  -3.392  0.00  0.00    -0.070 Cl
ATOM      8 Cl1  UNL d   1       4.952   6.000  -1.451  0.00  0.00    -0.070 Cl
ENDROOT
TORSDOF 0
ENDMDL
