MODEL 1
REMARK minimizedAffinity 5.26161957
REMARK minimizedRMSD -1
REMARK  0 active torsions:
REMARK  status: ('A' for Active; 'I' for Inactive)
ROOT
ATOM      1  C   UNL d   1       4.858   3.950  -5.546  0.00  0.00     0.020 A 
ATOM      2  C1  UNL d   1       5.994   3.851  -4.744  0.00  0.00     0.020 A 
ATOM      3  C2  UNL d   1       6.000   4.419  -3.468  0.00  0.00     0.034 A 
ATOM      4  C3  UNL d   1       4.868   5.089  -2.991  0.00  0.00     0.017 A 
ATOM      5  C4  UNL d   1       3.728   5.188  -3.798  0.00  0.00     0.017 A 
ATOM      6  C5  UNL d   1       3.728   4.618  -5.074  0.00  0.00     0.034 A 
ATOM      7 Cl   UNL d   1       2.293   6.000  -3.278  0.00  0.00    -0.070 Cl
ATOM      8 Cl1  UNL d   1       4.945   5.768  -1.404  0.00  0.00    -0.070 Cl
ENDROOT
TORSDOF 0
ENDMDL
