MODEL 1
REMARK minimizedAffinity -2.65284967
REMARK minimizedRMSD -1
REMARK  0 active torsions:
REMARK  status: ('A' for Active; 'I' for Inactive)
ROOT
ATOM      1  C   UNL d   1       5.999  -4.468   5.431  0.00  0.00     0.020 A 
ATOM      2  C1  UNL d   1       5.826  -4.796   4.086  0.00  0.00     0.020 A 
ATOM      3  C2  UNL d   1       4.899  -4.097   3.311  0.00  0.00     0.034 A 
ATOM      4  C3  UNL d   1       4.139  -3.068   3.879  0.00  0.00     0.017 A 
ATOM      5  C4  UNL d   1       4.313  -2.739   5.228  0.00  0.00     0.017 A 
ATOM      6  C5  UNL d   1       5.243  -3.442   6.000  0.00  0.00     0.034 A 
ATOM      7 Cl   UNL d   1       3.413  -1.481   5.999  0.00  0.00    -0.070 Cl
ATOM      8 Cl1  UNL d   1       3.010  -2.246   2.860  0.00  0.00    -0.070 Cl
ENDROOT
TORSDOF 0
ENDMDL
