MODEL 1
REMARK minimizedAffinity -1.365785
REMARK minimizedRMSD -1
REMARK  0 active torsions:
REMARK  status: ('A' for Active; 'I' for Inactive)
ROOT
ATOM      1  C   UNL d   1       2.567  -1.991   3.389  0.00  0.00     0.020 A 
ATOM      2  C1  UNL d   1       1.806  -3.159   3.389  0.00  0.00     0.020 A 
ATOM      3  C2  UNL d   1       2.174  -4.233   4.202  0.00  0.00     0.034 A 
ATOM      4  C3  UNL d   1       3.307  -4.141   5.019  0.00  0.00     0.017 A 
ATOM      5  C4  UNL d   1       4.071  -2.968   5.019  0.00  0.00     0.017 A 
ATOM      6  C5  UNL d   1       3.697  -1.896   4.203  0.00  0.00     0.034 A 
ATOM      7 Cl   UNL d   1       5.481  -2.780   6.000  0.00  0.00    -0.070 Cl
ATOM      8 Cl1  UNL d   1       3.704  -5.507   6.000  0.00  0.00    -0.070 Cl
ENDROOT
TORSDOF 0
ENDMDL
