MODEL 1
REMARK minimizedAffinity 5.84964371
REMARK minimizedRMSD -1
REMARK  0 active torsions:
REMARK  status: ('A' for Active; 'I' for Inactive)
ROOT
ATOM      1  C   UNL d   1       5.919   5.413  -4.441  0.00  0.00     0.020 A 
ATOM      2  C1  UNL d   1       6.000   4.031  -4.603  0.00  0.00     0.020 A 
ATOM      3  C2  UNL d   1       4.878   3.233  -4.364  0.00  0.00     0.034 A 
ATOM      4  C3  UNL d   1       3.672   3.818  -3.962  0.00  0.00     0.017 A 
ATOM      5  C4  UNL d   1       3.592   5.206  -3.800  0.00  0.00     0.017 A 
ATOM      6  C5  UNL d   1       4.718   5.999  -4.040  0.00  0.00     0.034 A 
ATOM      7 Cl   UNL d   1       2.138   5.999  -3.306  0.00  0.00    -0.070 Cl
ATOM      8 Cl1  UNL d   1       2.325   2.771  -3.685  0.00  0.00    -0.070 Cl
ENDROOT
TORSDOF 0
ENDMDL
