MODEL 1
REMARK minimizedAffinity 1.88324451
REMARK minimizedRMSD -1
REMARK  0 active torsions:
REMARK  status: ('A' for Active; 'I' for Inactive)
ROOT
ATOM      1  C   UNL d   1       4.657   5.958  -2.365  0.00  0.00     0.020 A 
ATOM      2  C1  UNL d   1       5.714   5.054  -2.262  0.00  0.00     0.020 A 
ATOM      3  C2  UNL d   1       6.000   4.191  -3.321  0.00  0.00     0.034 A 
ATOM      4  C3  UNL d   1       5.229   4.230  -4.489  0.00  0.00     0.017 A 
ATOM      5  C4  UNL d   1       4.168   5.138  -4.591  0.00  0.00     0.017 A 
ATOM      6  C5  UNL d   1       3.886   6.000  -3.527  0.00  0.00     0.034 A 
ATOM      7 Cl   UNL d   1       3.172   5.244  -6.000  0.00  0.00    -0.070 Cl
ATOM      8 Cl1  UNL d   1       5.639   3.133  -5.760  0.00  0.00    -0.070 Cl
ENDROOT
TORSDOF 0
ENDMDL
