MODEL 1
REMARK minimizedAffinity 4.23723984
REMARK minimizedRMSD -1
REMARK  0 active torsions:
REMARK  status: ('A' for Active; 'I' for Inactive)
ROOT
ATOM      1  C   UNL d   1       2.969  -1.316   4.027  0.00  0.00     0.020 A 
ATOM      2  C1  UNL d   1       3.127  -1.329   5.412  0.00  0.00     0.020 A 
ATOM      3  C2  UNL d   1       4.068  -2.177   6.000  0.00  0.00     0.034 A 
ATOM      4  C3  UNL d   1       4.855  -3.015   5.202  0.00  0.00     0.017 A 
ATOM      5  C4  UNL d   1       4.696  -3.002   3.812  0.00  0.00     0.017 A 
ATOM      6  C5  UNL d   1       3.752  -2.150   3.228  0.00  0.00     0.034 A 
ATOM      7 Cl   UNL d   1       5.631  -4.007   2.762  0.00  0.00    -0.070 Cl
ATOM      8 Cl1  UNL d   1       6.000  -4.038   5.996  0.00  0.00    -0.070 Cl
ENDROOT
TORSDOF 0
ENDMDL
