MODEL 1
REMARK minimizedAffinity 8.77722168
REMARK minimizedRMSD -1
REMARK  0 active torsions:
REMARK  status: ('A' for Active; 'I' for Inactive)
ROOT
ATOM      1  C   UNL d   1       6.000  -4.179   5.016  0.00  0.00     0.020 A 
ATOM      2  C1  UNL d   1       5.673  -3.245   5.999  0.00  0.00     0.020 A 
ATOM      3  C2  UNL d   1       4.716  -2.263   5.738  0.00  0.00     0.034 A 
ATOM      4  C3  UNL d   1       4.081  -2.212   4.491  0.00  0.00     0.017 A 
ATOM      5  C4  UNL d   1       4.410  -3.150   3.505  0.00  0.00     0.017 A 
ATOM      6  C5  UNL d   1       5.369  -4.131   3.772  0.00  0.00     0.034 A 
ATOM      7 Cl   UNL d   1       3.670  -3.151   1.943  0.00  0.00    -0.070 Cl
ATOM      8 Cl1  UNL d   1       2.907  -0.970   4.237  0.00  0.00    -0.070 Cl
ENDROOT
TORSDOF 0
ENDMDL
