MODEL 1
REMARK minimizedAffinity -1.67181909
REMARK minimizedRMSD -1
REMARK  0 active torsions:
REMARK  status: ('A' for Active; 'I' for Inactive)
ROOT
ATOM      1  C   UNL d   1       5.967  -4.888   4.232  0.00  0.00     0.020 A 
ATOM      2  C1  UNL d   1       5.490  -4.904   5.542  0.00  0.00     0.020 A 
ATOM      3  C2  UNL d   1       4.669  -3.871   5.999  0.00  0.00     0.034 A 
ATOM      4  C3  UNL d   1       4.323  -2.817   5.145  0.00  0.00     0.017 A 
ATOM      5  C4  UNL d   1       4.803  -2.802   3.831  0.00  0.00     0.017 A 
ATOM      6  C5  UNL d   1       5.624  -3.839   3.378  0.00  0.00     0.034 A 
ATOM      7 Cl   UNL d   1       4.419  -1.536   2.719  0.00  0.00    -0.070 Cl
ATOM      8 Cl1  UNL d   1       3.304  -1.573   5.777  0.00  0.00    -0.070 Cl
ENDROOT
TORSDOF 0
ENDMDL
