MODEL 1
REMARK minimizedAffinity -0.4518179
REMARK minimizedRMSD -1
REMARK  0 active torsions:
REMARK  status: ('A' for Active; 'I' for Inactive)
ROOT
ATOM      1  C   UNL d   1       5.945  -2.852   5.936  0.00  0.00     0.020 A 
ATOM      2  C1  UNL d   1       6.000  -3.759   4.879  0.00  0.00     0.020 A 
ATOM      3  C2  UNL d   1       5.019  -3.733   3.885  0.00  0.00     0.034 A 
ATOM      4  C3  UNL d   1       3.980  -2.798   3.946  0.00  0.00     0.017 A 
ATOM      5  C4  UNL d   1       3.926  -1.888   5.007  0.00  0.00     0.017 A 
ATOM      6  C5  UNL d   1       4.910  -1.918   6.000  0.00  0.00     0.034 A 
ATOM      7 Cl   UNL d   1       2.674  -0.704   5.151  0.00  0.00    -0.070 Cl
ATOM      8 Cl1  UNL d   1       2.802  -2.823   2.682  0.00  0.00    -0.070 Cl
ENDROOT
TORSDOF 0
ENDMDL
