MODEL 1
REMARK minimizedAffinity 4.91351557
REMARK minimizedRMSD -1
REMARK  0 active torsions:
REMARK  status: ('A' for Active; 'I' for Inactive)
ROOT
ATOM      1  C   UNL d   1       5.999  -3.560   5.478  0.00  0.00     0.020 A 
ATOM      2  C1  UNL d   1       5.747  -4.117   4.225  0.00  0.00     0.020 A 
ATOM      3  C2  UNL d   1       4.630  -3.710   3.492  0.00  0.00     0.034 A 
ATOM      4  C3  UNL d   1       3.760  -2.744   4.012  0.00  0.00     0.017 A 
ATOM      5  C4  UNL d   1       4.014  -2.186   5.270  0.00  0.00     0.017 A 
ATOM      6  C5  UNL d   1       5.134  -2.597   6.000  0.00  0.00     0.034 A 
ATOM      7 Cl   UNL d   1       2.987  -0.990   5.977  0.00  0.00    -0.070 Cl
ATOM      8 Cl1  UNL d   1       2.399  -2.289   3.051  0.00  0.00    -0.070 Cl
ENDROOT
TORSDOF 0
ENDMDL
