MODEL 1
REMARK minimizedAffinity 0.314255148
REMARK minimizedRMSD -1
REMARK  0 active torsions:
REMARK  status: ('A' for Active; 'I' for Inactive)
ROOT
ATOM      1  C   UNL d   1      -0.308  -0.407   1.834  0.00  0.00     0.077 C 
ATOM      2  C1  UNL d   1       0.773  -1.092   1.051  0.00  0.00    -0.074 A 
ATOM      3  C2  UNL d   1       1.695  -0.355   0.302  0.00  0.00    -0.005 A 
ATOM      4  C3  UNL d   1       2.701  -1.005  -0.413  0.00  0.00     0.006 A 
ATOM      5  C4  UNL d   1       2.794  -2.397  -0.386  0.00  0.00    -0.005 A 
ATOM      6  C5  UNL d   1       1.881  -3.151   0.359  0.00  0.00    -0.074 A 
ATOM      7  C6  UNL d   1       1.973  -4.647   0.407  0.00  0.00     0.077 C 
ATOM      8  C7  UNL d   1       0.878  -2.490   1.080  0.00  0.00    -0.001 A 
ENDROOT
TORSDOF 0
ENDMDL
