MODEL 1
REMARK minimizedAffinity -4.9020195
REMARK minimizedRMSD -1
REMARK  0 active torsions:
REMARK  status: ('A' for Active; 'I' for Inactive)
ROOT
ATOM      1  C   UNL d   1       1.262  -0.470   0.410  0.00  0.00     0.077 C 
ATOM      2  C1  UNL d   1       0.892  -1.799   1.001  0.00  0.00    -0.074 A 
ATOM      3  C2  UNL d   1      -0.312  -1.968   1.691  0.00  0.00    -0.005 A 
ATOM      4  C3  UNL d   1      -0.647  -3.212   2.227  0.00  0.00     0.006 A 
ATOM      5  C4  UNL d   1       0.217  -4.297   2.078  0.00  0.00    -0.005 A 
ATOM      6  C5  UNL d   1       1.426  -4.146   1.390  0.00  0.00    -0.074 A 
ATOM      7  C6  UNL d   1       2.362  -5.305   1.212  0.00  0.00     0.077 C 
ATOM      8  C7  UNL d   1       1.752  -2.895   0.849  0.00  0.00    -0.001 A 
ENDROOT
TORSDOF 0
ENDMDL
