MODEL 1
REMARK minimizedAffinity 7.05669022
REMARK minimizedRMSD -1
REMARK  0 active torsions:
REMARK  status: ('A' for Active; 'I' for Inactive)
ROOT
ATOM      1  C   UNL d   1       1.880   1.448   2.120  0.00  0.00     0.077 C 
ATOM      2  C1  UNL d   1       1.201   0.176   1.707  0.00  0.00    -0.074 A 
ATOM      3  C2  UNL d   1      -0.122  -0.085   2.078  0.00  0.00    -0.005 A 
ATOM      4  C3  UNL d   1      -0.744  -1.268   1.679  0.00  0.00     0.006 A 
ATOM      5  C4  UNL d   1      -0.050  -2.200   0.905  0.00  0.00    -0.005 A 
ATOM      6  C5  UNL d   1       1.273  -1.955   0.524  0.00  0.00    -0.074 A 
ATOM      7  C6  UNL d   1       2.030  -2.942  -0.315  0.00  0.00     0.077 C 
ATOM      8  C7  UNL d   1       1.889  -0.761   0.924  0.00  0.00    -0.001 A 
ENDROOT
TORSDOF 0
ENDMDL
