MODEL 1
REMARK minimizedAffinity -2.91964555
REMARK minimizedRMSD -1
REMARK  0 active torsions:
REMARK  status: ('A' for Active; 'I' for Inactive)
ROOT
ATOM      1  C   UNL d   1      -1.277  -3.503   2.611  0.00  0.00     0.077 C 
ATOM      2  C1  UNL d   1      -0.094  -2.979   1.853  0.00  0.00    -0.074 A 
ATOM      3  C2  UNL d   1       0.059  -1.609   1.617  0.00  0.00    -0.005 A 
ATOM      4  C3  UNL d   1       1.169  -1.135   0.919  0.00  0.00     0.006 A 
ATOM      5  C4  UNL d   1       2.137  -2.025   0.450  0.00  0.00    -0.005 A 
ATOM      6  C5  UNL d   1       2.001  -3.398   0.677  0.00  0.00    -0.074 A 
ATOM      7  C6  UNL d   1       3.037  -4.367   0.188  0.00  0.00     0.077 C 
ATOM      8  C7  UNL d   1       0.886  -3.866   1.385  0.00  0.00    -0.001 A 
ENDROOT
TORSDOF 0
ENDMDL
