MODEL 1
REMARK minimizedAffinity 1.94403207
REMARK minimizedRMSD -1
REMARK  0 active torsions:
REMARK  status: ('A' for Active; 'I' for Inactive)
ROOT
ATOM      1  C   UNL d   1       2.234  -4.963   1.135  0.00  0.00     0.077 C 
ATOM      2  C1  UNL d   1       1.720  -3.596   0.795  0.00  0.00    -0.074 A 
ATOM      3  C2  UNL d   1       2.253  -2.874  -0.278  0.00  0.00    -0.005 A 
ATOM      4  C3  UNL d   1       1.758  -1.607  -0.588  0.00  0.00     0.006 A 
ATOM      5  C4  UNL d   1       0.727  -1.051   0.170  0.00  0.00    -0.005 A 
ATOM      6  C5  UNL d   1       0.182  -1.758   1.246  0.00  0.00    -0.074 A 
ATOM      7  C6  UNL d   1      -0.933  -1.178   2.066  0.00  0.00     0.077 C 
ATOM      8  C7  UNL d   1       0.680  -3.033   1.547  0.00  0.00    -0.001 A 
ENDROOT
TORSDOF 0
ENDMDL
