MODEL 1
REMARK minimizedAffinity 15.7491236
REMARK minimizedRMSD -1
REMARK  0 active torsions:
REMARK  status: ('A' for Active; 'I' for Inactive)
ROOT
ATOM      1  C   UNL d   1       1.324   3.024  -6.000  0.00  0.00     0.077 C 
ATOM      2  C1  UNL d   1       1.488   1.600  -5.558  0.00  0.00    -0.074 A 
ATOM      3  C2  UNL d   1       0.380   0.831  -5.189  0.00  0.00    -0.005 A 
ATOM      4  C3  UNL d   1       0.546  -0.495  -4.790  0.00  0.00     0.006 A 
ATOM      5  C4  UNL d   1       1.820  -1.064  -4.756  0.00  0.00    -0.005 A 
ATOM      6  C5  UNL d   1       2.940  -0.310  -5.122  0.00  0.00    -0.074 A 
ATOM      7  C6  UNL d   1       4.314  -0.909  -5.101  0.00  0.00     0.077 C 
ATOM      8  C7  UNL d   1       2.763   1.019  -5.529  0.00  0.00    -0.001 A 
ENDROOT
TORSDOF 0
ENDMDL
