MODEL 1
REMARK minimizedAffinity 1.83100152
REMARK minimizedRMSD -1
REMARK  0 active torsions:
REMARK  status: ('A' for Active; 'I' for Inactive)
ROOT
ATOM      1  C   UNL d   1       2.077  -4.572   1.259  0.00  0.00     0.077 C 
ATOM      2  C1  UNL d   1       1.525  -3.234   0.866  0.00  0.00    -0.074 A 
ATOM      3  C2  UNL d   1       2.070  -2.517  -0.204  0.00  0.00    -0.005 A 
ATOM      4  C3  UNL d   1       1.540  -1.278  -0.563  0.00  0.00     0.006 A 
ATOM      5  C4  UNL d   1       0.460  -0.745   0.142  0.00  0.00    -0.005 A 
ATOM      6  C5  UNL d   1      -0.099  -1.447   1.214  0.00  0.00    -0.074 A 
ATOM      7  C6  UNL d   1      -1.266  -0.893   1.976  0.00  0.00     0.077 C 
ATOM      8  C7  UNL d   1       0.435  -2.695   1.565  0.00  0.00    -0.001 A 
ENDROOT
TORSDOF 0
ENDMDL
