MODEL 1
REMARK minimizedAffinity 0.777181149
REMARK minimizedRMSD -1
REMARK  0 active torsions:
REMARK  status: ('A' for Active; 'I' for Inactive)
ROOT
ATOM      1  C   UNL d   1       3.100  -4.549   0.989  0.00  0.00     0.077 C 
ATOM      2  C1  UNL d   1       2.262  -3.318   0.811  0.00  0.00    -0.074 A 
ATOM      3  C2  UNL d   1       2.494  -2.438  -0.252  0.00  0.00    -0.005 A 
ATOM      4  C3  UNL d   1       1.700  -1.302  -0.411  0.00  0.00     0.006 A 
ATOM      5  C4  UNL d   1       0.669  -1.035   0.490  0.00  0.00    -0.005 A 
ATOM      6  C5  UNL d   1       0.421  -1.903   1.558  0.00  0.00    -0.074 A 
ATOM      7  C6  UNL d   1      -0.690  -1.635   2.529  0.00  0.00     0.077 C 
ATOM      8  C7  UNL d   1       1.219  -3.046   1.707  0.00  0.00    -0.001 A 
ENDROOT
TORSDOF 0
ENDMDL
