MODEL 1
REMARK minimizedAffinity 5.35449696
REMARK minimizedRMSD -1
REMARK  0 active torsions:
REMARK  status: ('A' for Active; 'I' for Inactive)
ROOT
ATOM      1  C   UNL d   1      -3.563   1.572   2.559  0.00  0.00     0.077 C 
ATOM      2  C1  UNL d   1      -4.248   2.187   3.743  0.00  0.00    -0.074 A 
ATOM      3  C2  UNL d   1      -5.379   1.589   4.310  0.00  0.00    -0.005 A 
ATOM      4  C3  UNL d   1      -6.000   2.168   5.416  0.00  0.00     0.006 A 
ATOM      5  C4  UNL d   1      -5.498   3.348   5.967  0.00  0.00    -0.005 A 
ATOM      6  C5  UNL d   1      -4.368   3.959   5.414  0.00  0.00    -0.074 A 
ATOM      7  C6  UNL d   1      -3.810   5.222   6.000  0.00  0.00     0.077 C 
ATOM      8  C7  UNL d   1      -3.745   3.368   4.307  0.00  0.00    -0.001 A 
ENDROOT
TORSDOF 0
ENDMDL
