MODEL 1
REMARK minimizedAffinity -2.54178905
REMARK minimizedRMSD -1
REMARK  0 active torsions:
REMARK  status: ('A' for Active; 'I' for Inactive)
ROOT
ATOM      1  N1  IND d   1      -1.081  -2.670   1.073  0.00  0.00    -0.196 N 
ATOM      2  C2  IND d   1      -0.714  -3.628   0.169  0.00  0.00     0.054 A 
ATOM      3  C3  IND d   1      -0.082  -3.063  -0.884  0.00  0.00    -0.031 A 
ATOM      4  C4  IND d   1       0.547  -0.599  -1.285  0.00  0.00     0.051 A 
ATOM      5  C5  IND d   1       0.390   0.652  -0.758  0.00  0.00    -0.031 A 
ATOM      6  C6  IND d   1      -0.275   0.864   0.432  0.00  0.00     0.015 A 
ATOM      7  C7  IND d   1      -0.802  -0.174   1.148  0.00  0.00    -0.016 A 
ATOM      8  C8  IND d   1      -0.652  -1.445   0.612  0.00  0.00    -0.047 A 
ATOM      9  C9  IND d   1      -0.014  -1.662  -0.617  0.00  0.00    -0.096 A 
ATOM     10  HN1 IND d   1      -1.509  -2.810   1.806  0.00  0.00     0.298 HD
ENDROOT
TORSDOF 0
ENDMDL
