MODEL 1
REMARK minimizedAffinity -5.4408412
REMARK minimizedRMSD -1
REMARK  0 active torsions:
REMARK  status: ('A' for Active; 'I' for Inactive)
ROOT
ATOM      1  N1  IND d   1       0.068   0.180  -1.359  0.00  0.00    -0.196 N 
ATOM      2  C2  IND d   1      -0.292   0.939  -0.281  0.00  0.00     0.054 A 
ATOM      3  C3  IND d   1      -0.505   0.153   0.798  0.00  0.00    -0.031 A 
ATOM      4  C4  IND d   1      -0.222  -2.394   1.046  0.00  0.00     0.051 A 
ATOM      5  C5  IND d   1       0.055  -3.523   0.326  0.00  0.00    -0.031 A 
ATOM      6  C6  IND d   1       0.359  -3.473  -1.019  0.00  0.00     0.015 A 
ATOM      7  C7  IND d   1       0.409  -2.287  -1.695  0.00  0.00    -0.016 A 
ATOM      8  C8  IND d   1       0.122  -1.140  -0.968  0.00  0.00    -0.047 A 
ATOM      9  C9  IND d   1      -0.229  -1.188   0.387  0.00  0.00    -0.096 A 
ATOM     10  HN1 IND d   1       0.233   0.477  -2.149  0.00  0.00     0.298 HD
ENDROOT
TORSDOF 0
ENDMDL
