MODEL 1
REMARK minimizedAffinity -4.16689444
REMARK minimizedRMSD -1
REMARK  0 active torsions:
REMARK  status: ('A' for Active; 'I' for Inactive)
ROOT
ATOM      1  N1  IND d   1       0.550   0.514  -1.610  0.00  0.00    -0.196 N 
ATOM      2  C2  IND d   1       0.238   1.096  -0.414  0.00  0.00     0.054 A 
ATOM      3  C3  IND d   1      -0.176   0.161   0.470  0.00  0.00    -0.031 A 
ATOM      4  C4  IND d   1      -0.323  -2.395   0.199  0.00  0.00     0.051 A 
ATOM      5  C5  IND d   1      -0.178  -3.390  -0.727  0.00  0.00    -0.031 A 
ATOM      6  C6  IND d   1       0.228  -3.130  -2.020  0.00  0.00     0.015 A 
ATOM      7  C7  IND d   1       0.517  -1.860  -2.434  0.00  0.00    -0.016 A 
ATOM      8  C8  IND d   1       0.364  -0.846  -1.498  0.00  0.00    -0.047 A 
ATOM      9  C9  IND d   1      -0.089  -1.099  -0.197  0.00  0.00    -0.096 A 
ATOM     10  HN1 IND d   1       0.818   0.928  -2.315  0.00  0.00     0.298 HD
ENDROOT
TORSDOF 0
ENDMDL
