MODEL 1
REMARK minimizedAffinity -6.53417873
REMARK minimizedRMSD -1
REMARK  0 active torsions:
REMARK  status: ('A' for Active; 'I' for Inactive)
ROOT
ATOM      1  N1  IND d   1       0.402  -0.283  -2.342  0.00  0.00    -0.196 N 
ATOM      2  C2  IND d   1       0.302   0.888  -1.643  0.00  0.00     0.054 A 
ATOM      3  C3  IND d   1       0.136   0.636  -0.325  0.00  0.00    -0.031 A 
ATOM      4  C4  IND d   1       0.101  -1.619   0.917  0.00  0.00     0.051 A 
ATOM      5  C5  IND d   1       0.119  -2.968   0.701  0.00  0.00    -0.031 A 
ATOM      6  C6  IND d   1       0.238  -3.502  -0.566  0.00  0.00     0.015 A 
ATOM      7  C7  IND d   1       0.354  -2.703  -1.668  0.00  0.00    -0.016 A 
ATOM      8  C8  IND d   1       0.329  -1.332  -1.453  0.00  0.00    -0.047 A 
ATOM      9  C9  IND d   1       0.167  -0.785  -0.174  0.00  0.00    -0.096 A 
ATOM     10  HN1 IND d   1       0.495  -0.352  -3.194  0.00  0.00     0.298 HD
ENDROOT
TORSDOF 0
ENDMDL
