MODEL 1
REMARK minimizedAffinity -5.35292959
REMARK minimizedRMSD -1
REMARK  0 active torsions:
REMARK  status: ('A' for Active; 'I' for Inactive)
ROOT
ATOM      1  N1  IND d   1      -0.555  -1.535   0.786  0.00  0.00    -0.196 N 
ATOM      2  C2  IND d   1      -0.712  -2.892   0.811  0.00  0.00     0.054 A 
ATOM      3  C3  IND d   1      -0.465  -3.417  -0.410  0.00  0.00    -0.031 A 
ATOM      4  C4  IND d   1       0.311  -2.245  -2.567  0.00  0.00     0.051 A 
ATOM      5  C5  IND d   1       0.557  -1.008  -3.092  0.00  0.00    -0.031 A 
ATOM      6  C6  IND d   1       0.445   0.141  -2.335  0.00  0.00     0.015 A 
ATOM      7  C7  IND d   1       0.093   0.093  -1.016  0.00  0.00    -0.016 A 
ATOM      8  C8  IND d   1      -0.165  -1.162  -0.482  0.00  0.00    -0.047 A 
ATOM      9  C9  IND d   1      -0.094  -2.327  -1.256  0.00  0.00    -0.096 A 
ATOM     10  HN1 IND d   1      -0.679  -1.003   1.450  0.00  0.00     0.298 HD
ENDROOT
TORSDOF 0
ENDMDL
