MODEL 1
REMARK minimizedAffinity -5.84766912
REMARK minimizedRMSD -1
REMARK  0 active torsions:
REMARK  status: ('A' for Active; 'I' for Inactive)
ROOT
ATOM      1  N1  IND d   1       0.397   0.487  -1.223  0.00  0.00    -0.196 N 
ATOM      2  C2  IND d   1      -0.139   1.136  -0.146  0.00  0.00     0.054 A 
ATOM      3  C3  IND d   1      -0.601   0.243   0.759  0.00  0.00    -0.031 A 
ATOM      4  C4  IND d   1      -0.489  -2.328   0.723  0.00  0.00     0.051 A 
ATOM      5  C5  IND d   1      -0.124  -3.380  -0.070  0.00  0.00    -0.031 A 
ATOM      6  C6  IND d   1       0.447  -3.192  -1.312  0.00  0.00     0.015 A 
ATOM      7  C7  IND d   1       0.687  -1.940  -1.804  0.00  0.00    -0.016 A 
ATOM      8  C8  IND d   1       0.311  -0.871  -1.005  0.00  0.00    -0.047 A 
ATOM      9  C9  IND d   1      -0.309  -1.055   0.238  0.00  0.00    -0.096 A 
ATOM     10  HN1 IND d   1       0.732   0.863  -1.920  0.00  0.00     0.298 HD
ENDROOT
TORSDOF 0
ENDMDL
