MODEL 1
REMARK minimizedAffinity -0.50926441
REMARK minimizedRMSD -1
REMARK  0 active torsions:
REMARK  status: ('A' for Active; 'I' for Inactive)
ROOT
ATOM      1  N1  IND d   1       1.511   1.559  -0.856  0.00  0.00    -0.196 N 
ATOM      2  C2  IND d   1       1.306   2.723  -0.169  0.00  0.00     0.054 A 
ATOM      3  C3  IND d   1       0.425   2.526   0.838  0.00  0.00    -0.031 A 
ATOM      4  C4  IND d   1      -0.726   0.353   1.602  0.00  0.00     0.051 A 
ATOM      5  C5  IND d   1      -0.879  -0.962   1.262  0.00  0.00    -0.031 A 
ATOM      6  C6  IND d   1      -0.228  -1.515   0.178  0.00  0.00     0.015 A 
ATOM      7  C7  IND d   1       0.613  -0.774  -0.602  0.00  0.00    -0.016 A 
ATOM      8  C8  IND d   1       0.765   0.563  -0.264  0.00  0.00    -0.047 A 
ATOM      9  C9  IND d   1       0.075   1.141   0.809  0.00  0.00    -0.096 A 
ATOM     10  HN1 IND d   1       2.020   1.465  -1.543  0.00  0.00     0.298 HD
ENDROOT
TORSDOF 0
ENDMDL
