MODEL 1
REMARK minimizedAffinity -6.34007931
REMARK minimizedRMSD -1
REMARK  0 active torsions:
REMARK  status: ('A' for Active; 'I' for Inactive)
ROOT
ATOM      1  N1  IND d   1      -0.021   0.288  -0.722  0.00  0.00    -0.196 N 
ATOM      2  C2  IND d   1      -0.273   0.787   0.526  0.00  0.00     0.054 A 
ATOM      3  C3  IND d   1      -0.392  -0.220   1.420  0.00  0.00    -0.031 A 
ATOM      4  C4  IND d   1      -0.111  -2.755   1.075  0.00  0.00     0.051 A 
ATOM      5  C5  IND d   1       0.087  -3.695   0.102  0.00  0.00    -0.031 A 
ATOM      6  C6  IND d   1       0.266  -3.347  -1.221  0.00  0.00     0.015 A 
ATOM      7  C7  IND d   1       0.265  -2.041  -1.621  0.00  0.00    -0.016 A 
ATOM      8  C8  IND d   1       0.056  -1.085  -0.637  0.00  0.00    -0.047 A 
ATOM      9  C9  IND d   1      -0.168  -1.434   0.701  0.00  0.00    -0.096 A 
ATOM     10  HN1 IND d   1       0.073   0.754  -1.438  0.00  0.00     0.298 HD
ENDROOT
TORSDOF 0
ENDMDL
