MODEL 1
REMARK minimizedAffinity -5.83654404
REMARK minimizedRMSD -1
REMARK  0 active torsions:
REMARK  status: ('A' for Active; 'I' for Inactive)
ROOT
ATOM      1  N1  IND d   1       0.642  -0.334  -0.858  0.00  0.00    -0.196 N 
ATOM      2  C2  IND d   1       0.589   0.188   0.405  0.00  0.00     0.054 A 
ATOM      3  C3  IND d   1       0.126  -0.736   1.276  0.00  0.00    -0.031 A 
ATOM      4  C4  IND d   1      -0.509  -3.198   0.867  0.00  0.00     0.051 A 
ATOM      5  C5  IND d   1      -0.660  -4.120  -0.130  0.00  0.00    -0.031 A 
ATOM      6  C6  IND d   1      -0.376  -3.822  -1.447  0.00  0.00     0.015 A 
ATOM      7  C7  IND d   1       0.082  -2.589  -1.816  0.00  0.00    -0.016 A 
ATOM      8  C8  IND d   1       0.229  -1.648  -0.807  0.00  0.00    -0.047 A 
ATOM      9  C9  IND d   1      -0.097  -1.931   0.525  0.00  0.00    -0.096 A 
ATOM     10  HN1 IND d   1       0.890   0.087  -1.565  0.00  0.00     0.298 HD
ENDROOT
TORSDOF 0
ENDMDL
