MODEL 1
REMARK minimizedAffinity -2.62096477
REMARK minimizedRMSD -1
REMARK  0 active torsions:
REMARK  status: ('A' for Active; 'I' for Inactive)
ROOT
ATOM      1  N1  IND d   1      -0.199   1.520   1.446  0.00  0.00    -0.196 N 
ATOM      2  C2  IND d   1       0.526   2.096   0.440  0.00  0.00     0.054 A 
ATOM      3  C3  IND d   1       0.922   1.159  -0.450  0.00  0.00    -0.031 A 
ATOM      4  C4  IND d   1       0.408  -1.363  -0.508  0.00  0.00     0.051 A 
ATOM      5  C5  IND d   1      -0.185  -2.358   0.216  0.00  0.00    -0.031 A 
ATOM      6  C6  IND d   1      -0.829  -2.106   1.410  0.00  0.00     0.015 A 
ATOM      7  C7  IND d   1      -0.914  -0.842   1.921  0.00  0.00    -0.016 A 
ATOM      8  C8  IND d   1      -0.306   0.170   1.192  0.00  0.00    -0.047 A 
ATOM      9  C9  IND d   1       0.386  -0.086   0.001  0.00  0.00    -0.096 A 
ATOM     10  HN1 IND d   1      -0.532   1.931   2.124  0.00  0.00     0.298 HD
ENDROOT
TORSDOF 0
ENDMDL
