MODEL 1
REMARK minimizedAffinity -4.35474062
REMARK minimizedRMSD -1
REMARK  0 active torsions:
REMARK  status: ('A' for Active; 'I' for Inactive)
ROOT
ATOM      1  N1  IND d   1       0.360  -1.616  -2.268  0.00  0.00    -0.196 N 
ATOM      2  C2  IND d   1       0.324  -2.974  -2.417  0.00  0.00     0.054 A 
ATOM      3  C3  IND d   1       0.059  -3.570  -1.232  0.00  0.00    -0.031 A 
ATOM      4  C4  IND d   1      -0.451  -2.506   1.056  0.00  0.00     0.051 A 
ATOM      5  C5  IND d   1      -0.498  -1.300   1.697  0.00  0.00    -0.031 A 
ATOM      6  C6  IND d   1      -0.259  -0.113   1.035  0.00  0.00     0.015 A 
ATOM      7  C7  IND d   1       0.026  -0.087  -0.301  0.00  0.00    -0.016 A 
ATOM      8  C8  IND d   1       0.081  -1.311  -0.954  0.00  0.00    -0.047 A 
ATOM      9  C9  IND d   1      -0.118  -2.522  -0.278  0.00  0.00    -0.096 A 
ATOM     10  HN1 IND d   1       0.529  -1.047  -2.891  0.00  0.00     0.298 HD
ENDROOT
TORSDOF 0
ENDMDL
