MODEL 1
REMARK minimizedAffinity -3.61359572
REMARK minimizedRMSD -1
REMARK  0 active torsions:
REMARK  status: ('A' for Active; 'I' for Inactive)
ROOT
ATOM      1  N1  IND d   1       0.819   0.502  -1.108  0.00  0.00    -0.196 N 
ATOM      2  C2  IND d   1       0.272   1.572  -0.457  0.00  0.00     0.054 A 
ATOM      3  C3  IND d   1      -0.531   1.152   0.546  0.00  0.00    -0.031 A 
ATOM      4  C4  IND d   1      -1.014  -1.241   1.362  0.00  0.00     0.051 A 
ATOM      5  C5  IND d   1      -0.773  -2.552   1.058  0.00  0.00    -0.031 A 
ATOM      6  C6  IND d   1       0.030  -2.919  -0.002  0.00  0.00     0.015 A 
ATOM      7  C7  IND d   1       0.633  -1.985  -0.796  0.00  0.00    -0.016 A 
ATOM      8  C8  IND d   1       0.385  -0.653  -0.495  0.00  0.00    -0.047 A 
ATOM      9  C9  IND d   1      -0.463  -0.275   0.554  0.00  0.00    -0.096 A 
ATOM     10  HN1 IND d   1       1.346   0.543  -1.786  0.00  0.00     0.298 HD
ENDROOT
TORSDOF 0
ENDMDL
