MODEL 1
REMARK minimizedAffinity -6.18928862
REMARK minimizedRMSD -1
REMARK  0 active torsions:
REMARK  status: ('A' for Active; 'I' for Inactive)
ROOT
ATOM      1  N1  IND d   1       0.380   0.420  -0.987  0.00  0.00    -0.196 N 
ATOM      2  C2  IND d   1      -0.197   0.849   0.176  0.00  0.00     0.054 A 
ATOM      3  C3  IND d   1      -0.674  -0.203   0.879  0.00  0.00    -0.031 A 
ATOM      4  C4  IND d   1      -0.526  -2.720   0.361  0.00  0.00     0.051 A 
ATOM      5  C5  IND d   1      -0.122  -3.599  -0.604  0.00  0.00    -0.031 A 
ATOM      6  C6  IND d   1       0.485  -3.175  -1.769  0.00  0.00     0.015 A 
ATOM      7  C7  IND d   1       0.721  -1.851  -2.007  0.00  0.00    -0.016 A 
ATOM      8  C8  IND d   1       0.306  -0.955  -1.033  0.00  0.00    -0.047 A 
ATOM      9  C9  IND d   1      -0.348  -1.376   0.132  0.00  0.00    -0.096 A 
ATOM     10  HN1 IND d   1       0.731   0.925  -1.589  0.00  0.00     0.298 HD
ENDROOT
TORSDOF 0
ENDMDL
