MODEL 1
REMARK minimizedAffinity -5.35156059
REMARK minimizedRMSD -1
REMARK  0 active torsions:
REMARK  status: ('A' for Active; 'I' for Inactive)
ROOT
ATOM      1  N1  IND d   1       0.254  -1.289  -2.326  0.00  0.00    -0.196 N 
ATOM      2  C2  IND d   1       0.395  -2.635  -2.519  0.00  0.00     0.054 A 
ATOM      3  C3  IND d   1       0.118  -3.305  -1.378  0.00  0.00    -0.031 A 
ATOM      4  C4  IND d   1      -0.685  -2.403   0.895  0.00  0.00     0.051 A 
ATOM      5  C5  IND d   1      -0.926  -1.237   1.567  0.00  0.00    -0.031 A 
ATOM      6  C6  IND d   1      -0.785  -0.005   0.963  0.00  0.00     0.015 A 
ATOM      7  C7  IND d   1      -0.408   0.108  -0.345  0.00  0.00    -0.016 A 
ATOM      8  C8  IND d   1      -0.156  -1.073  -1.029  0.00  0.00    -0.047 A 
ATOM      9  C9  IND d   1      -0.256  -2.325  -0.409  0.00  0.00    -0.096 A 
ATOM     10  HN1 IND d   1       0.398  -0.680  -2.916  0.00  0.00     0.298 HD
ENDROOT
TORSDOF 0
ENDMDL
