MODEL 1
REMARK minimizedAffinity -5.90457201
REMARK minimizedRMSD -1
REMARK  0 active torsions:
REMARK  status: ('A' for Active; 'I' for Inactive)
ROOT
ATOM      1  N1  IND d   1       0.259  -0.055  -0.990  0.00  0.00    -0.196 N 
ATOM      2  C2  IND d   1      -0.210   0.399   0.211  0.00  0.00     0.054 A 
ATOM      3  C3  IND d   1      -0.661  -0.632   0.960  0.00  0.00    -0.031 A 
ATOM      4  C4  IND d   1      -0.631  -3.156   0.454  0.00  0.00     0.051 A 
ATOM      5  C5  IND d   1      -0.333  -4.054  -0.532  0.00  0.00    -0.031 A 
ATOM      6  C6  IND d   1       0.191  -3.656  -1.746  0.00  0.00     0.015 A 
ATOM      7  C7  IND d   1       0.448  -2.342  -2.014  0.00  0.00    -0.016 A 
ATOM      8  C8  IND d   1       0.140  -1.427  -1.017  0.00  0.00    -0.047 A 
ATOM      9  C9  IND d   1      -0.432  -1.820   0.200  0.00  0.00    -0.096 A 
ATOM     10  HN1 IND d   1       0.575   0.435  -1.623  0.00  0.00     0.298 HD
ENDROOT
TORSDOF 0
ENDMDL
