MODEL 1
REMARK minimizedAffinity -6.08913326
REMARK minimizedRMSD -1
REMARK  0 active torsions:
REMARK  status: ('A' for Active; 'I' for Inactive)
ROOT
ATOM      1  N1  IND d   1      -0.065  -1.281  -2.467  0.00  0.00    -0.196 N 
ATOM      2  C2  IND d   1      -0.130  -2.629  -2.683  0.00  0.00     0.054 A 
ATOM      3  C3  IND d   1      -0.251  -3.288  -1.509  0.00  0.00    -0.031 A 
ATOM      4  C4  IND d   1      -0.464  -2.350   0.879  0.00  0.00     0.051 A 
ATOM      5  C5  IND d   1      -0.421  -1.181   1.585  0.00  0.00    -0.031 A 
ATOM      6  C6  IND d   1      -0.257   0.040   0.963  0.00  0.00     0.015 A 
ATOM      7  C7  IND d   1      -0.140   0.138  -0.394  0.00  0.00    -0.016 A 
ATOM      8  C8  IND d   1      -0.176  -1.048  -1.113  0.00  0.00    -0.047 A 
ATOM      9  C9  IND d   1      -0.300  -2.293  -0.485  0.00  0.00    -0.096 A 
ATOM     10  HN1 IND d   1       0.030  -0.679  -3.074  0.00  0.00     0.298 HD
ENDROOT
TORSDOF 0
ENDMDL
