MODEL 1
REMARK minimizedAffinity 3.10518003
REMARK minimizedRMSD -1
REMARK  0 active torsions:
REMARK  status: ('A' for Active; 'I' for Inactive)
ROOT
ATOM      1  C   UNL d   1      -1.426   0.822   0.637  0.00  0.00     0.078 C 
ATOM      2  C1  UNL d   1      -1.950   0.574  -0.746  0.00  0.00    -0.077 A 
ATOM      3  C2  UNL d   1      -2.511  -0.660  -1.094  0.00  0.00    -0.001 A 
ATOM      4  C3  UNL d   1      -2.986  -0.880  -2.388  0.00  0.00     0.003 A 
ATOM      5  C4  UNL d   1      -2.904   0.130  -3.345  0.00  0.00    -0.005 A 
ATOM      6  C5  UNL d   1      -2.345   1.361  -3.008  0.00  0.00     0.003 A 
ATOM      7  C6  UNL d   1      -1.870   1.583  -1.715  0.00  0.00    -0.001 A 
ENDROOT
TORSDOF 0
ENDMDL
