MODEL 1
REMARK minimizedAffinity 7.85362864
REMARK minimizedRMSD -1
REMARK  0 active torsions:
REMARK  status: ('A' for Active; 'I' for Inactive)
ROOT
ATOM      1  C   UNL d   1       2.777  -5.984   1.852  0.00  0.00     0.078 C 
ATOM      2  C1  UNL d   1       1.303  -5.996   1.575  0.00  0.00    -0.077 A 
ATOM      3  C2  UNL d   1       0.816  -5.998   0.262  0.00  0.00    -0.001 A 
ATOM      4  C3  UNL d   1      -0.558  -5.999   0.020  0.00  0.00     0.003 A 
ATOM      5  C4  UNL d   1      -1.457  -5.997   1.084  0.00  0.00    -0.005 A 
ATOM      6  C5  UNL d   1      -0.982  -5.992   2.394  0.00  0.00     0.003 A 
ATOM      7  C6  UNL d   1       0.392  -5.991   2.639  0.00  0.00    -0.001 A 
ENDROOT
TORSDOF 0
ENDMDL
