MODEL 1
REMARK minimizedAffinity 4.0039835
REMARK minimizedRMSD -1
REMARK  0 active torsions:
REMARK  status: ('A' for Active; 'I' for Inactive)
ROOT
ATOM      1  C   UNL d   1      -1.346  -0.250  -3.555  0.00  0.00     0.078 C 
ATOM      2  C1  UNL d   1      -0.003   0.196  -3.056  0.00  0.00    -0.077 A 
ATOM      3  C2  UNL d   1       1.106  -0.657  -3.111  0.00  0.00    -0.001 A 
ATOM      4  C3  UNL d   1       2.347  -0.232  -2.635  0.00  0.00     0.003 A 
ATOM      5  C4  UNL d   1       2.491   1.046  -2.099  0.00  0.00    -0.005 A 
ATOM      6  C5  UNL d   1       1.392   1.901  -2.038  0.00  0.00     0.003 A 
ATOM      7  C6  UNL d   1       0.150   1.478  -2.514  0.00  0.00    -0.001 A 
ENDROOT
TORSDOF 0
ENDMDL
