MODEL 1
REMARK minimizedAffinity 2.04209709
REMARK minimizedRMSD -1
REMARK  0 active torsions:
REMARK  status: ('A' for Active; 'I' for Inactive)
ROOT
ATOM      1  C   UNL d   1      -2.782   0.475  -5.441  0.00  0.00     0.078 C 
ATOM      2  C1  UNL d   1      -2.000   0.876  -4.226  0.00  0.00    -0.077 A 
ATOM      3  C2  UNL d   1      -2.462   0.576  -2.939  0.00  0.00    -0.001 A 
ATOM      4  C3  UNL d   1      -1.729   0.964  -1.817  0.00  0.00     0.003 A 
ATOM      5  C4  UNL d   1      -0.530   1.657  -1.970  0.00  0.00    -0.005 A 
ATOM      6  C5  UNL d   1      -0.063   1.963  -3.246  0.00  0.00     0.003 A 
ATOM      7  C6  UNL d   1      -0.795   1.575  -4.370  0.00  0.00    -0.001 A 
ENDROOT
TORSDOF 0
ENDMDL
