MODEL 1
REMARK minimizedAffinity 5.72493219
REMARK minimizedRMSD -1
REMARK  0 active torsions:
REMARK  status: ('A' for Active; 'I' for Inactive)
ROOT
ATOM      1  C   UNL d   1      -5.786   3.618   5.570  0.00  0.00     0.078 C 
ATOM      2  C1  UNL d   1      -5.864   2.199   5.092  0.00  0.00    -0.077 A 
ATOM      3  C2  UNL d   1      -5.921   1.134   6.000  0.00  0.00    -0.001 A 
ATOM      4  C3  UNL d   1      -5.984  -0.183   5.541  0.00  0.00     0.003 A 
ATOM      5  C4  UNL d   1      -5.987  -0.447   4.173  0.00  0.00    -0.005 A 
ATOM      6  C5  UNL d   1      -5.928   0.605   3.262  0.00  0.00     0.003 A 
ATOM      7  C6  UNL d   1      -5.866   1.923   3.719  0.00  0.00    -0.001 A 
ENDROOT
TORSDOF 0
ENDMDL
