MODEL 1
REMARK minimizedAffinity 9.53291035
REMARK minimizedRMSD -1
REMARK  0 active torsions:
REMARK  status: ('A' for Active; 'I' for Inactive)
ROOT
ATOM      1  C   UNL d   1      -2.264  -5.611   0.776  0.00  0.00     0.078 C 
ATOM      2  C1  UNL d   1      -0.894  -5.754   1.369  0.00  0.00    -0.077 A 
ATOM      3  C2  UNL d   1      -0.717  -5.877   2.753  0.00  0.00    -0.001 A 
ATOM      4  C3  UNL d   1       0.565  -6.000   3.292  0.00  0.00     0.003 A 
ATOM      5  C4  UNL d   1       1.679  -5.999   2.455  0.00  0.00    -0.005 A 
ATOM      6  C5  UNL d   1       1.513  -5.875   1.077  0.00  0.00     0.003 A 
ATOM      7  C6  UNL d   1       0.232  -5.752   0.536  0.00  0.00    -0.001 A 
ENDROOT
TORSDOF 0
ENDMDL
