MODEL 1
REMARK minimizedAffinity 1.60014558
REMARK minimizedRMSD -1
REMARK  0 active torsions:
REMARK  status: ('A' for Active; 'I' for Inactive)
ROOT
ATOM      1  C   UNL d   1      -3.730   0.803  -4.910  0.00  0.00     0.078 C 
ATOM      2  C1  UNL d   1      -2.469   0.994  -4.122  0.00  0.00    -0.077 A 
ATOM      3  C2  UNL d   1      -1.603  -0.078  -3.875  0.00  0.00    -0.001 A 
ATOM      4  C3  UNL d   1      -0.438   0.113  -3.131  0.00  0.00     0.003 A 
ATOM      5  C4  UNL d   1      -0.128   1.374  -2.626  0.00  0.00    -0.005 A 
ATOM      6  C5  UNL d   1      -0.985   2.446  -2.864  0.00  0.00     0.003 A 
ATOM      7  C6  UNL d   1      -2.151   2.258  -3.608  0.00  0.00    -0.001 A 
ENDROOT
TORSDOF 0
ENDMDL
