MODEL 1
REMARK minimizedAffinity -3.09650517
REMARK minimizedRMSD -1
REMARK  0 active torsions:
REMARK  status: ('A' for Active; 'I' for Inactive)
ROOT
ATOM      1  C   UNL d   1      -1.468  -0.132  -4.442  0.00  0.00     0.078 C 
ATOM      2  C1  UNL d   1      -0.196   0.083  -3.677  0.00  0.00    -0.077 A 
ATOM      3  C2  UNL d   1      -0.036   1.195  -2.841  0.00  0.00    -0.001 A 
ATOM      4  C3  UNL d   1       1.157   1.387  -2.142  0.00  0.00     0.003 A 
ATOM      5  C4  UNL d   1       2.199   0.472  -2.272  0.00  0.00    -0.005 A 
ATOM      6  C5  UNL d   1       2.050  -0.637  -3.103  0.00  0.00     0.003 A 
ATOM      7  C6  UNL d   1       0.858  -0.831  -3.803  0.00  0.00    -0.001 A 
ENDROOT
TORSDOF 0
ENDMDL
