MODEL 1
REMARK minimizedAffinity 0.212802872
REMARK minimizedRMSD -1
REMARK  0 active torsions:
REMARK  status: ('A' for Active; 'I' for Inactive)
ROOT
ATOM      1  C   UNL d   1      -3.001   0.362   2.452  0.00  0.00     0.078 C 
ATOM      2  C1  UNL d   1      -3.831   0.239   3.695  0.00  0.00    -0.077 A 
ATOM      3  C2  UNL d   1      -3.320  -0.375   4.845  0.00  0.00    -0.001 A 
ATOM      4  C3  UNL d   1      -4.107  -0.491   5.992  0.00  0.00     0.003 A 
ATOM      5  C4  UNL d   1      -5.410   0.003   5.999  0.00  0.00    -0.005 A 
ATOM      6  C5  UNL d   1      -5.928   0.613   4.859  0.00  0.00     0.003 A 
ATOM      7  C6  UNL d   1      -5.142   0.730   3.711  0.00  0.00    -0.001 A 
ENDROOT
TORSDOF 0
ENDMDL
