MODEL 1
REMARK minimizedAffinity 6.48649406
REMARK minimizedRMSD -1
REMARK  0 active torsions:
REMARK  status: ('A' for Active; 'I' for Inactive)
ROOT
ATOM      1  C   UNL d   1       0.292   2.586  -2.406  0.00  0.00     0.078 C 
ATOM      2  C1  UNL d   1      -0.690   1.792  -3.214  0.00  0.00    -0.077 A 
ATOM      3  C2  UNL d   1      -1.494   2.408  -4.181  0.00  0.00    -0.001 A 
ATOM      4  C3  UNL d   1      -2.410   1.657  -4.920  0.00  0.00     0.003 A 
ATOM      5  C4  UNL d   1      -2.532   0.287  -4.698  0.00  0.00    -0.005 A 
ATOM      6  C5  UNL d   1      -1.738  -0.335  -3.737  0.00  0.00     0.003 A 
ATOM      7  C6  UNL d   1      -0.821   0.414  -2.997  0.00  0.00    -0.001 A 
ENDROOT
TORSDOF 0
ENDMDL
