MODEL 1
REMARK minimizedAffinity -2.23158145
REMARK minimizedRMSD -1
REMARK  0 active torsions:
REMARK  status: ('A' for Active; 'I' for Inactive)
ROOT
ATOM      1  C   UNL d   1       2.139  -1.608  -3.544  0.00  0.00     0.078 C 
ATOM      2  C1  UNL d   1       1.314  -0.401  -3.211  0.00  0.00    -0.077 A 
ATOM      3  C2  UNL d   1      -0.058  -0.366  -3.492  0.00  0.00    -0.001 A 
ATOM      4  C3  UNL d   1      -0.812   0.768  -3.186  0.00  0.00     0.003 A 
ATOM      5  C4  UNL d   1      -0.204   1.875  -2.600  0.00  0.00    -0.005 A 
ATOM      6  C5  UNL d   1       1.161   1.851  -2.319  0.00  0.00     0.003 A 
ATOM      7  C6  UNL d   1       1.917   0.718  -2.624  0.00  0.00    -0.001 A 
ENDROOT
TORSDOF 0
ENDMDL
