MODEL 1
REMARK minimizedAffinity 4.76245165
REMARK minimizedRMSD -1
REMARK  0 active torsions:
REMARK  status: ('A' for Active; 'I' for Inactive)
ROOT
ATOM      1  C   UNL d   1       2.939   1.223  -0.905  0.00  0.00     0.078 C 
ATOM      2  C1  UNL d   1       2.905   1.940  -2.222  0.00  0.00    -0.077 A 
ATOM      3  C2  UNL d   1       3.869   1.687  -3.206  0.00  0.00    -0.001 A 
ATOM      4  C3  UNL d   1       3.832   2.369  -4.423  0.00  0.00     0.003 A 
ATOM      5  C4  UNL d   1       2.833   3.309  -4.668  0.00  0.00    -0.005 A 
ATOM      6  C5  UNL d   1       1.870   3.569  -3.694  0.00  0.00     0.003 A 
ATOM      7  C6  UNL d   1       1.906   2.888  -2.476  0.00  0.00    -0.001 A 
ENDROOT
TORSDOF 0
ENDMDL
