MODEL 1
REMARK minimizedAffinity 7.48454523
REMARK minimizedRMSD -1
REMARK  0 active torsions:
REMARK  status: ('A' for Active; 'I' for Inactive)
ROOT
ATOM      1  C   UNL d   1       1.270  -2.281   2.717  0.00  0.00     0.078 C 
ATOM      2  C1  UNL d   1       0.680  -3.572   2.233  0.00  0.00    -0.077 A 
ATOM      3  C2  UNL d   1      -0.425  -3.581   1.372  0.00  0.00    -0.001 A 
ATOM      4  C3  UNL d   1      -0.970  -4.790   0.936  0.00  0.00     0.003 A 
ATOM      5  C4  UNL d   1      -0.418  -5.998   1.357  0.00  0.00    -0.005 A 
ATOM      6  C5  UNL d   1       0.680  -5.999   2.215  0.00  0.00     0.003 A 
ATOM      7  C6  UNL d   1       1.226  -4.791   2.652  0.00  0.00    -0.001 A 
ENDROOT
TORSDOF 0
ENDMDL
