MODEL 1
REMARK minimizedAffinity 8.15961361
REMARK minimizedRMSD -1
REMARK  0 active torsions:
REMARK  status: ('A' for Active; 'I' for Inactive)
ROOT
ATOM      1  C1  DEN d   1       0.813  -0.484   1.587  0.00  0.00     0.130 A 
ATOM      2  C2  DEN d   1       0.093  -0.848   0.370  0.00  0.00    -0.031 A 
ATOM      3  C3  DEN d   1      -0.400   0.394  -0.258  0.00  0.00     0.027 A 
ATOM      4  C4  DEN d   1      -0.115   2.834   0.529  0.00  0.00     0.027 A 
ATOM      5  C5  DEN d   1       0.411   3.641   1.513  0.00  0.00    -0.003 A 
ATOM      6  C6  DEN d   1       1.073   3.133   2.599  0.00  0.00     0.001 A 
ATOM      7  C7  DEN d   1       1.266   1.781   2.704  0.00  0.00     0.017 A 
ATOM      8  C8  DEN d   1       0.732   0.959   1.720  0.00  0.00    -0.094 A 
ATOM      9  C9  DEN d   1       0.077   1.493   0.624  0.00  0.00    -0.072 A 
ENDROOT
TORSDOF 0
ENDMDL
