MODEL 1
REMARK minimizedAffinity 10.0960226
REMARK minimizedRMSD -1
REMARK  0 active torsions:
REMARK  status: ('A' for Active; 'I' for Inactive)
ROOT
ATOM      1  C1  DEN d   1      -3.069   3.204  -2.924  0.00  0.00     0.130 A 
ATOM      2  C2  DEN d   1      -4.481   3.073  -2.575  0.00  0.00    -0.031 A 
ATOM      3  C3  DEN d   1      -4.678   1.743  -1.963  0.00  0.00     0.027 A 
ATOM      4  C4  DEN d   1      -2.943  -0.113  -1.521  0.00  0.00     0.027 A 
ATOM      5  C5  DEN d   1      -1.618  -0.467  -1.655  0.00  0.00    -0.003 A 
ATOM      6  C6  DEN d   1      -0.699   0.357  -2.248  0.00  0.00     0.001 A 
ATOM      7  C7  DEN d   1      -1.083   1.597  -2.688  0.00  0.00     0.017 A 
ATOM      8  C8  DEN d   1      -2.418   1.957  -2.563  0.00  0.00    -0.094 A 
ATOM      9  C9  DEN d   1      -3.329   1.115  -1.949  0.00  0.00    -0.072 A 
ENDROOT
TORSDOF 0
ENDMDL
