MODEL 1
REMARK minimizedAffinity 16.8772621
REMARK minimizedRMSD -1
REMARK  0 active torsions:
REMARK  status: ('A' for Active; 'I' for Inactive)
ROOT
ATOM      1  C1  DEN d   1      -1.132   0.737  -1.710  0.00  0.00     0.130 A 
ATOM      2  C2  DEN d   1      -2.209  -0.235  -1.873  0.00  0.00    -0.031 A 
ATOM      3  C3  DEN d   1      -3.402   0.484  -2.366  0.00  0.00     0.027 A 
ATOM      4  C4  DEN d   1      -3.680   2.993  -2.896  0.00  0.00     0.027 A 
ATOM      5  C5  DEN d   1      -3.046   4.216  -2.903  0.00  0.00    -0.003 A 
ATOM      6  C6  DEN d   1      -1.751   4.369  -2.484  0.00  0.00     0.001 A 
ATOM      7  C7  DEN d   1      -1.033   3.274  -2.083  0.00  0.00     0.017 A 
ATOM      8  C8  DEN d   1      -1.668   2.039  -2.066  0.00  0.00    -0.094 A 
ATOM      9  C9  DEN d   1      -2.974   1.902  -2.505  0.00  0.00    -0.072 A 
ENDROOT
TORSDOF 0
ENDMDL
