MODEL 1
REMARK minimizedAffinity 4.58090687
REMARK minimizedRMSD -1
REMARK  0 active torsions:
REMARK  status: ('A' for Active; 'I' for Inactive)
ROOT
ATOM      1  C1  DEN d   1      -1.483   2.875   2.151  0.00  0.00     0.130 A 
ATOM      2  C2  DEN d   1      -0.874   1.646   1.652  0.00  0.00    -0.031 A 
ATOM      3  C3  DEN d   1      -0.288   1.932   0.327  0.00  0.00     0.027 A 
ATOM      4  C4  DEN d   1      -0.259   4.149  -0.991  0.00  0.00     0.027 A 
ATOM      5  C5  DEN d   1      -0.660   5.467  -0.979  0.00  0.00    -0.003 A 
ATOM      6  C6  DEN d   1      -1.386   6.000   0.052  0.00  0.00     0.001 A 
ATOM      7  C7  DEN d   1      -1.696   5.223   1.137  0.00  0.00     0.017 A 
ATOM      8  C8  DEN d   1      -1.302   3.891   1.130  0.00  0.00    -0.094 A 
ATOM      9  C9  DEN d   1      -0.558   3.374   0.083  0.00  0.00    -0.072 A 
ENDROOT
TORSDOF 0
ENDMDL
