MODEL 1
REMARK minimizedAffinity -1.75549006
REMARK minimizedRMSD -1
REMARK  0 active torsions:
REMARK  status: ('A' for Active; 'I' for Inactive)
ROOT
ATOM      1  C1  DEN d   1      -0.196   1.043   0.204  0.00  0.00     0.130 A 
ATOM      2  C2  DEN d   1      -0.451   1.542  -1.145  0.00  0.00    -0.031 A 
ATOM      3  C3  DEN d   1       0.053   2.927  -1.222  0.00  0.00     0.027 A 
ATOM      4  C4  DEN d   1       1.204   4.339   0.604  0.00  0.00     0.027 A 
ATOM      5  C5  DEN d   1       1.629   4.349   1.914  0.00  0.00    -0.003 A 
ATOM      6  C6  DEN d   1       1.447   3.278   2.749  0.00  0.00     0.001 A 
ATOM      7  C7  DEN d   1       0.863   2.135   2.270  0.00  0.00     0.017 A 
ATOM      8  C8  DEN d   1       0.425   2.121   0.952  0.00  0.00    -0.094 A 
ATOM      9  C9  DEN d   1       0.630   3.209   0.121  0.00  0.00    -0.072 A 
ENDROOT
TORSDOF 0
ENDMDL
