MODEL 1
REMARK minimizedAffinity 7.6968317
REMARK minimizedRMSD -1
REMARK  0 active torsions:
REMARK  status: ('A' for Active; 'I' for Inactive)
ROOT
ATOM      1  C1  DEN d   1      -5.584  -1.420   1.785  0.00  0.00     0.130 A 
ATOM      2  C2  DEN d   1      -5.239  -0.001   1.814  0.00  0.00    -0.031 A 
ATOM      3  C3  DEN d   1      -5.096   0.406   3.226  0.00  0.00     0.027 A 
ATOM      4  C4  DEN d   1      -5.369  -1.017   5.360  0.00  0.00     0.027 A 
ATOM      5  C5  DEN d   1      -5.670  -2.271   5.842  0.00  0.00    -0.003 A 
ATOM      6  C6  DEN d   1      -5.994  -3.313   5.014  0.00  0.00     0.001 A 
ATOM      7  C7  DEN d   1      -5.980  -3.131   3.656  0.00  0.00     0.017 A 
ATOM      8  C8  DEN d   1      -5.685  -1.866   3.163  0.00  0.00    -0.094 A 
ATOM      9  C9  DEN d   1      -5.349  -0.829   4.016  0.00  0.00    -0.072 A 
ENDROOT
TORSDOF 0
ENDMDL
