MODEL 1
REMARK minimizedAffinity -4.39273405
REMARK minimizedRMSD -1
REMARK  0 active torsions:
REMARK  status: ('A' for Active; 'I' for Inactive)
ROOT
ATOM      1  C1  DEN d   1       0.483   3.774   1.758  0.00  0.00     0.130 A 
ATOM      2  C2  DEN d   1       0.496   4.610   0.560  0.00  0.00    -0.031 A 
ATOM      3  C3  DEN d   1       0.320   3.730  -0.613  0.00  0.00     0.027 A 
ATOM      4  C4  DEN d   1       0.025   1.169  -0.690  0.00  0.00     0.027 A 
ATOM      5  C5  DEN d   1      -0.040   0.023   0.071  0.00  0.00    -0.003 A 
ATOM      6  C6  DEN d   1       0.098   0.043   1.434  0.00  0.00     0.001 A 
ATOM      7  C7  DEN d   1       0.263   1.238   2.082  0.00  0.00     0.017 A 
ATOM      8  C8  DEN d   1       0.337   2.397   1.321  0.00  0.00    -0.094 A 
ATOM      9  C9  DEN d   1       0.183   2.358  -0.055  0.00  0.00    -0.072 A 
ENDROOT
TORSDOF 0
ENDMDL
