MODEL 1
REMARK minimizedAffinity -0.270057231
REMARK minimizedRMSD -1
REMARK  0 active torsions:
REMARK  status: ('A' for Active; 'I' for Inactive)
ROOT
ATOM      1  C1  DEN d   1      -0.052   1.922   1.975  0.00  0.00     0.130 A 
ATOM      2  C2  DEN d   1       0.499   1.094   3.044  0.00  0.00    -0.031 A 
ATOM      3  C3  DEN d   1       1.131  -0.089   2.427  0.00  0.00     0.027 A 
ATOM      4  C4  DEN d   1       1.314  -0.714  -0.069  0.00  0.00     0.027 A 
ATOM      5  C5  DEN d   1       0.987  -0.327  -1.350  0.00  0.00    -0.003 A 
ATOM      6  C6  DEN d   1       0.268   0.810  -1.608  0.00  0.00     0.001 A 
ATOM      7  C7  DEN d   1      -0.110   1.624  -0.573  0.00  0.00     0.017 A 
ATOM      8  C8  DEN d   1       0.209   1.236   0.722  0.00  0.00    -0.094 A 
ATOM      9  C9  DEN d   1       0.948   0.090   0.961  0.00  0.00    -0.072 A 
ENDROOT
TORSDOF 0
ENDMDL
