MODEL 1
REMARK minimizedAffinity -5.89374256
REMARK minimizedRMSD -1
REMARK  0 active torsions:
REMARK  status: ('A' for Active; 'I' for Inactive)
ROOT
ATOM      1  C   UNL d   1       0.164  -1.218  -0.922  0.00  0.00     0.078 C 
ATOM      2  C1  UNL d   1      -0.256  -0.320   0.203  0.00  0.00    -0.077 A 
ATOM      3  C2  UNL d   1      -1.610  -0.082   0.468  0.00  0.00    -0.001 A 
ATOM      4  C3  UNL d   1      -1.986   0.764   1.512  0.00  0.00     0.003 A 
ATOM      5  C4  UNL d   1      -1.015   1.381   2.298  0.00  0.00    -0.005 A 
ATOM      6  C5  UNL d   1       0.335   1.152   2.040  0.00  0.00     0.003 A 
ATOM      7  C6  UNL d   1       0.714   0.306   0.997  0.00  0.00    -0.001 A 
ENDROOT
TORSDOF 0
ENDMDL
