MODEL 1
REMARK minimizedAffinity -2.59317327
REMARK minimizedRMSD -1
REMARK  0 active torsions:
REMARK  status: ('A' for Active; 'I' for Inactive)
ROOT
ATOM      1  C   UNL d   1       0.038   1.939   2.070  0.00  0.00     0.078 C 
ATOM      2  C1  UNL d   1       0.422   0.896   1.064  0.00  0.00    -0.077 A 
ATOM      3  C2  UNL d   1      -0.192   0.845  -0.194  0.00  0.00    -0.001 A 
ATOM      4  C3  UNL d   1       0.170  -0.137  -1.117  0.00  0.00     0.003 A 
ATOM      5  C4  UNL d   1       1.145  -1.078  -0.792  0.00  0.00    -0.005 A 
ATOM      6  C5  UNL d   1       1.760  -1.037   0.458  0.00  0.00     0.003 A 
ATOM      7  C6  UNL d   1       1.400  -0.055   1.383  0.00  0.00    -0.001 A 
ENDROOT
TORSDOF 0
ENDMDL
