MODEL 1
REMARK minimizedAffinity -4.63738632
REMARK minimizedRMSD -1
REMARK  0 active torsions:
REMARK  status: ('A' for Active; 'I' for Inactive)
ROOT
ATOM      1  C   UNL d   1       1.536   1.248  -3.160  0.00  0.00     0.078 C 
ATOM      2  C1  UNL d   1       0.959   0.849  -1.835  0.00  0.00    -0.077 A 
ATOM      3  C2  UNL d   1       0.764   1.793  -0.819  0.00  0.00    -0.001 A 
ATOM      4  C3  UNL d   1       0.235   1.406   0.413  0.00  0.00     0.003 A 
ATOM      5  C4  UNL d   1      -0.102   0.074   0.642  0.00  0.00    -0.005 A 
ATOM      6  C5  UNL d   1       0.090  -0.874  -0.362  0.00  0.00     0.003 A 
ATOM      7  C6  UNL d   1       0.619  -0.488  -1.595  0.00  0.00    -0.001 A 
ENDROOT
TORSDOF 0
ENDMDL
