MODEL 1
REMARK minimizedAffinity -5.15954399
REMARK minimizedRMSD -1
REMARK  0 active torsions:
REMARK  status: ('A' for Active; 'I' for Inactive)
ROOT
ATOM      1  C   UNL d   1       0.584  -0.779  -0.558  0.00  0.00     0.078 C 
ATOM      2  C1  UNL d   1      -0.157   0.062   0.438  0.00  0.00    -0.077 A 
ATOM      3  C2  UNL d   1      -1.546   0.216   0.361  0.00  0.00    -0.001 A 
ATOM      4  C3  UNL d   1      -2.221   1.009   1.290  0.00  0.00     0.003 A 
ATOM      5  C4  UNL d   1      -1.515   1.656   2.303  0.00  0.00    -0.005 A 
ATOM      6  C5  UNL d   1      -0.132   1.510   2.386  0.00  0.00     0.003 A 
ATOM      7  C6  UNL d   1       0.545   0.717   1.458  0.00  0.00    -0.001 A 
ENDROOT
TORSDOF 0
ENDMDL
