MODEL 1
REMARK minimizedAffinity -5.86413717
REMARK minimizedRMSD -1
REMARK  0 active torsions:
REMARK  status: ('A' for Active; 'I' for Inactive)
ROOT
ATOM      1  C   UNL d   1       1.609  -1.060   0.353  0.00  0.00     0.078 C 
ATOM      2  C1  UNL d   1       0.454  -0.291   0.921  0.00  0.00    -0.077 A 
ATOM      3  C2  UNL d   1      -0.752  -0.177   0.218  0.00  0.00    -0.001 A 
ATOM      4  C3  UNL d   1      -1.816   0.550   0.755  0.00  0.00     0.003 A 
ATOM      5  C4  UNL d   1      -1.684   1.170   1.996  0.00  0.00    -0.005 A 
ATOM      6  C5  UNL d   1      -0.487   1.064   2.701  0.00  0.00     0.003 A 
ATOM      7  C6  UNL d   1       0.578   0.338   2.166  0.00  0.00    -0.001 A 
ENDROOT
TORSDOF 0
ENDMDL
