MODEL 1
REMARK minimizedAffinity -4.65510225
REMARK minimizedRMSD -1
REMARK  1 active torsions:
REMARK  status: ('A' for Active; 'I' for Inactive)
REMARK    1  A    between atoms: C1_2  and  C2_3 
ROOT
ATOM      1  C2  UNL d   1      -0.108  -0.959  -0.382  0.00  0.00    -0.081 A 
ATOM      2  C3  UNL d   1      -0.855  -0.061  -1.155  0.00  0.00     0.006 A 
ATOM      3  C4  UNL d   1      -1.381   1.100  -0.581  0.00  0.00     0.002 A 
ATOM      4  C5  UNL d   1      -1.163   1.385   0.771  0.00  0.00    -0.080 A 
ATOM      5  C6  UNL d   1      -1.696   2.642   1.391  0.00  0.00     0.076 C 
ATOM      6  C7  UNL d   1      -0.432   0.479   1.547  0.00  0.00     0.002 A 
ATOM      7  C8  UNL d   1       0.094  -0.682   0.975  0.00  0.00     0.006 A 
ENDROOT
BRANCH   1   8
ATOM      8  C1  UNL d   1       0.515  -2.178  -1.012  0.00  0.00     0.054 C 
ATOM      9  C   UNL d   1      -0.049  -2.431  -2.403  0.00  0.00     0.018 C 
ENDBRANCH   1   8
TORSDOF 1
ENDMDL
