MODEL 1
REMARK minimizedAffinity -2.97004128
REMARK minimizedRMSD -1
REMARK  1 active torsions:
REMARK  status: ('A' for Active; 'I' for Inactive)
REMARK    1  A    between atoms: C1_2  and  C2_3 
ROOT
ATOM      1  C2  UNL d   1       0.077  -0.083   0.302  0.00  0.00    -0.081 A 
ATOM      2  C3  UNL d   1      -0.644  -0.195   1.498  0.00  0.00     0.006 A 
ATOM      3  C4  UNL d   1      -1.450   0.856   1.940  0.00  0.00     0.002 A 
ATOM      4  C5  UNL d   1      -1.555   2.033   1.191  0.00  0.00    -0.080 A 
ATOM      5  C6  UNL d   1      -2.441   3.158   1.638  0.00  0.00     0.076 C 
ATOM      6  C7  UNL d   1      -0.822   2.152   0.005  0.00  0.00     0.002 A 
ATOM      7  C8  UNL d   1      -0.015   1.101  -0.437  0.00  0.00     0.006 A 
ENDROOT
BRANCH   1   8
ATOM      8  C1  UNL d   1       0.896  -1.240  -0.210  0.00  0.00     0.054 C 
ATOM      9  C   UNL d   1       0.387  -1.725  -1.560  0.00  0.00     0.018 C 
ENDBRANCH   1   8
TORSDOF 1
ENDMDL
