MODEL 1
REMARK minimizedAffinity -2.59429646
REMARK minimizedRMSD -1
REMARK  1 active torsions:
REMARK  status: ('A' for Active; 'I' for Inactive)
REMARK    1  A    between atoms: C1_2  and  C2_3 
ROOT
ATOM      1  C2  UNL d   1      -0.007  -0.902  -0.390  0.00  0.00    -0.081 A 
ATOM      2  C3  UNL d   1      -0.830  -1.947  -0.826  0.00  0.00     0.006 A 
ATOM      3  C4  UNL d   1      -0.356  -2.886  -1.745  0.00  0.00     0.002 A 
ATOM      4  C5  UNL d   1       0.951  -2.800  -2.237  0.00  0.00    -0.080 A 
ATOM      5  C6  UNL d   1       1.483  -3.819  -3.200  0.00  0.00     0.076 C 
ATOM      6  C7  UNL d   1       1.768  -1.746  -1.814  0.00  0.00     0.002 A 
ATOM      7  C8  UNL d   1       1.294  -0.806  -0.895  0.00  0.00     0.006 A 
ENDROOT
BRANCH   1   8
ATOM      8  C1  UNL d   1      -0.495   0.075   0.650  0.00  0.00     0.054 C 
ATOM      9  C   UNL d   1       0.057  -0.263   2.028  0.00  0.00     0.018 C 
ENDBRANCH   1   8
TORSDOF 1
ENDMDL
