MODEL 1
REMARK minimizedAffinity -3.68892002
REMARK minimizedRMSD -1
REMARK  1 active torsions:
REMARK  status: ('A' for Active; 'I' for Inactive)
REMARK    1  A    between atoms: C1_2  and  C2_3 
ROOT
ATOM      1  C2  UNL d   1      -0.723   2.319   0.066  0.00  0.00    -0.081 A 
ATOM      2  C3  UNL d   1      -1.031   1.071   0.621  0.00  0.00     0.006 A 
ATOM      3  C4  UNL d   1      -0.339  -0.074   0.216  0.00  0.00     0.002 A 
ATOM      4  C5  UNL d   1       0.676   0.012  -0.743  0.00  0.00    -0.080 A 
ATOM      5  C6  UNL d   1       1.446  -1.204  -1.163  0.00  0.00     0.076 C 
ATOM      6  C7  UNL d   1       0.971   1.256  -1.309  0.00  0.00     0.002 A 
ATOM      7  C8  UNL d   1       0.280   2.401  -0.906  0.00  0.00     0.006 A 
ENDROOT
BRANCH   1   8
ATOM      8  C1  UNL d   1      -1.422   3.565   0.547  0.00  0.00     0.054 C 
ATOM      9  C   UNL d   1      -2.413   3.249   1.658  0.00  0.00     0.018 C 
ENDBRANCH   1   8
TORSDOF 1
ENDMDL
