MODEL 1
REMARK minimizedAffinity -4.68397331
REMARK minimizedRMSD -1
REMARK  1 active torsions:
REMARK  status: ('A' for Active; 'I' for Inactive)
REMARK    1  A    between atoms: C1_2  and  C2_3 
ROOT
ATOM      1  C2  UNL d   1      -1.185   1.188   0.916  0.00  0.00    -0.081 A 
ATOM      2  C3  UNL d   1      -0.766   0.161   1.770  0.00  0.00     0.006 A 
ATOM      3  C4  UNL d   1       0.155  -0.793   1.331  0.00  0.00     0.002 A 
ATOM      4  C5  UNL d   1       0.678  -0.732   0.035  0.00  0.00    -0.080 A 
ATOM      5  C6  UNL d   1       1.690  -1.732  -0.438  0.00  0.00     0.076 C 
ATOM      6  C7  UNL d   1       0.246   0.284  -0.824  0.00  0.00     0.002 A 
ATOM      7  C8  UNL d   1      -0.675   1.238  -0.386  0.00  0.00     0.006 A 
ENDROOT
BRANCH   1   8
ATOM      8  C1  UNL d   1      -2.129   2.256   1.407  0.00  0.00     0.054 C 
ATOM      9  C   UNL d   1      -1.673   3.641   0.969  0.00  0.00     0.018 C 
ENDBRANCH   1   8
TORSDOF 1
ENDMDL
