MODEL 1
REMARK minimizedAffinity -2.69494629
REMARK minimizedRMSD -1
REMARK  1 active torsions:
REMARK  status: ('A' for Active; 'I' for Inactive)
REMARK    1  A    between atoms: C1_2  and  C2_3 
ROOT
ATOM      1  C2  UNL d   1       1.040  -1.256  -0.491  0.00  0.00    -0.081 A 
ATOM      2  C3  UNL d   1       0.756  -1.491   0.860  0.00  0.00     0.006 A 
ATOM      3  C4  UNL d   1       0.040  -0.553   1.607  0.00  0.00     0.002 A 
ATOM      4  C5  UNL d   1      -0.411   0.631   1.015  0.00  0.00    -0.080 A 
ATOM      5  C6  UNL d   1      -1.207   1.633   1.798  0.00  0.00     0.076 C 
ATOM      6  C7  UNL d   1      -0.112   0.875  -0.330  0.00  0.00     0.002 A 
ATOM      7  C8  UNL d   1       0.604  -0.062  -1.078  0.00  0.00     0.006 A 
ENDROOT
BRANCH   1   8
ATOM      8  C1  UNL d   1       1.756  -2.294  -1.316  0.00  0.00     0.054 C 
ATOM      9  C   UNL d   1       0.774  -3.140  -2.114  0.00  0.00     0.018 C 
ENDBRANCH   1   8
TORSDOF 1
ENDMDL
