MODEL 1
REMARK minimizedAffinity -5.95607233
REMARK minimizedRMSD -1
REMARK  1 active torsions:
REMARK  status: ('A' for Active; 'I' for Inactive)
REMARK    1  A    between atoms: C1_2  and  C2_3 
ROOT
ATOM      1  C2  UNL d   1      -0.702   0.979   0.960  0.00  0.00    -0.081 A 
ATOM      2  C3  UNL d   1      -0.333   1.237  -0.367  0.00  0.00     0.006 A 
ATOM      3  C4  UNL d   1       0.381   0.287  -1.100  0.00  0.00     0.002 A 
ATOM      4  C5  UNL d   1       0.732  -0.938  -0.523  0.00  0.00    -0.080 A 
ATOM      5  C6  UNL d   1       1.473  -1.979  -1.310  0.00  0.00     0.076 C 
ATOM      6  C7  UNL d   1       0.380  -1.189   0.807  0.00  0.00     0.002 A 
ATOM      7  C8  UNL d   1      -0.335  -0.239   1.541  0.00  0.00     0.006 A 
ENDROOT
BRANCH   1   8
ATOM      8  C1  UNL d   1      -1.529   1.974   1.733  0.00  0.00     0.054 C 
ATOM      9  C   UNL d   1      -1.431   3.366   1.124  0.00  0.00     0.018 C 
ENDBRANCH   1   8
TORSDOF 1
ENDMDL
