MODEL 1
REMARK minimizedAffinity -5.98626232
REMARK minimizedRMSD -1
REMARK  1 active torsions:
REMARK  status: ('A' for Active; 'I' for Inactive)
REMARK    1  A    between atoms: C1_2  and  C2_3 
ROOT
ATOM      1  C2  UNL d   1      -0.828   2.375   0.473  0.00  0.00    -0.081 A 
ATOM      2  C3  UNL d   1      -1.486   2.103   1.679  0.00  0.00     0.006 A 
ATOM      3  C4  UNL d   1      -1.460   0.818   2.226  0.00  0.00     0.002 A 
ATOM      4  C5  UNL d   1      -0.769  -0.214   1.582  0.00  0.00    -0.080 A 
ATOM      5  C6  UNL d   1      -0.707  -1.590   2.174  0.00  0.00     0.076 C 
ATOM      6  C7  UNL d   1      -0.126   0.054   0.368  0.00  0.00     0.002 A 
ATOM      7  C8  UNL d   1      -0.153   1.338  -0.180  0.00  0.00     0.006 A 
ENDROOT
BRANCH   1   8
ATOM      8  C1  UNL d   1      -0.800   3.774  -0.087  0.00  0.00     0.054 C 
ATOM      9  C   UNL d   1       0.213   3.899  -1.216  0.00  0.00     0.018 C 
ENDBRANCH   1   8
TORSDOF 1
ENDMDL
