MODEL 1
REMARK minimizedAffinity 12.8126574
REMARK minimizedRMSD -1
REMARK  2 active torsions:
REMARK  status: ('A' for Active; 'I' for Inactive)
REMARK    1  A    between atoms: C1_2  and  C2_3 
REMARK    2  A    between atoms: C2_3  and  C3_4 
ROOT
ATOM      1  C3  UNL d   1      -2.486  -0.179  -0.174  0.00  0.00    -0.075 A 
ATOM      2  C4  UNL d   1      -1.559   0.679   0.435  0.00  0.00     0.002 A 
ATOM      3  C5  UNL d   1      -0.292   0.861  -0.119  0.00  0.00     0.002 A 
ATOM      4  C6  UNL d   1       0.068   0.181  -1.281  0.00  0.00    -0.004 A 
ATOM      5  C7  UNL d   1      -0.839  -0.687  -1.885  0.00  0.00     0.002 A 
ATOM      6  C8  UNL d   1      -2.110  -0.867  -1.335  0.00  0.00     0.002 A 
ENDROOT
BRANCH   1   7
ATOM      7  C2  UNL d   1      -3.870  -0.356   0.404  0.00  0.00     0.056 C 
BRANCH   7   8
ATOM      8  C1  UNL d   1      -4.981   0.297  -0.425  0.00  0.00     0.007 C 
ATOM      9  C   UNL d   1      -5.964  -0.708  -1.010  0.00  0.00     0.009 C 
ENDBRANCH   7   8
ENDBRANCH   1   7
TORSDOF 2
ENDMDL
