MODEL 1
REMARK minimizedAffinity 2.13362646
REMARK minimizedRMSD -1
REMARK  2 active torsions:
REMARK  status: ('A' for Active; 'I' for Inactive)
REMARK    1  A    between atoms: C1_2  and  C2_3 
REMARK    2  A    between atoms: C2_3  and  C3_4 
ROOT
ATOM      1  C3  UNL d   1      -0.357  -2.032  -1.678  0.00  0.00    -0.075 A 
ATOM      2  C4  UNL d   1       0.982  -2.127  -1.271  0.00  0.00     0.002 A 
ATOM      3  C5  UNL d   1       1.595  -1.068  -0.601  0.00  0.00     0.002 A 
ATOM      4  C6  UNL d   1       0.884   0.101  -0.340  0.00  0.00    -0.004 A 
ATOM      5  C7  UNL d   1      -0.441   0.213  -0.755  0.00  0.00     0.002 A 
ATOM      6  C8  UNL d   1      -1.059  -0.847  -1.421  0.00  0.00     0.002 A 
ENDROOT
BRANCH   1   7
ATOM      7  C2  UNL d   1      -1.036  -3.185  -2.377  0.00  0.00     0.056 C 
BRANCH   7   8
ATOM      8  C1  UNL d   1      -1.651  -2.819  -3.731  0.00  0.00     0.007 C 
ATOM      9  C   UNL d   1      -2.245  -4.015  -4.464  0.00  0.00     0.009 C 
ENDBRANCH   7   8
ENDBRANCH   1   7
TORSDOF 2
ENDMDL
