MODEL 1
REMARK minimizedAffinity 3.69005013
REMARK minimizedRMSD -1
REMARK  2 active torsions:
REMARK  status: ('A' for Active; 'I' for Inactive)
REMARK    1  A    between atoms: C1_2  and  C2_3 
REMARK    2  A    between atoms: C2_3  and  C3_4 
ROOT
ATOM      1  C3  UNL d   1      -1.195  -0.376  -1.056  0.00  0.00    -0.075 A 
ATOM      2  C4  UNL d   1      -0.449   0.774  -0.760  0.00  0.00     0.002 A 
ATOM      3  C5  UNL d   1       0.880   0.670  -0.348  0.00  0.00     0.002 A 
ATOM      4  C6  UNL d   1       1.476  -0.582  -0.217  0.00  0.00    -0.004 A 
ATOM      5  C7  UNL d   1       0.740  -1.732  -0.492  0.00  0.00     0.002 A 
ATOM      6  C8  UNL d   1      -0.589  -1.631  -0.909  0.00  0.00     0.002 A 
ENDROOT
BRANCH   1   7
ATOM      7  C2  UNL d   1      -2.624  -0.269  -1.530  0.00  0.00     0.056 C 
BRANCH   7   8
ATOM      8  C1  UNL d   1      -3.661  -0.694  -0.485  0.00  0.00     0.007 C 
ATOM      9  C   UNL d   1      -5.057  -0.881  -1.066  0.00  0.00     0.009 C 
ENDBRANCH   7   8
ENDBRANCH   1   7
TORSDOF 2
ENDMDL
