MODEL 1
REMARK minimizedAffinity 0.379069686
REMARK minimizedRMSD -1
REMARK  2 active torsions:
REMARK  status: ('A' for Active; 'I' for Inactive)
REMARK    1  A    between atoms: C1_2  and  C2_3 
REMARK    2  A    between atoms: C2_3  and  C3_4 
ROOT
ATOM      1  C3  UNL d   1       1.065  -3.502   5.973  0.00  0.00    -0.075 A 
ATOM      2  C4  UNL d   1      -0.000  -4.414   5.998  0.00  0.00     0.002 A 
ATOM      3  C5  UNL d   1      -1.320  -3.962   5.998  0.00  0.00     0.002 A 
ATOM      4  C6  UNL d   1      -1.591  -2.595   5.985  0.00  0.00    -0.004 A 
ATOM      5  C7  UNL d   1      -0.541  -1.680   5.977  0.00  0.00     0.002 A 
ATOM      6  C8  UNL d   1       0.781  -2.130   5.972  0.00  0.00     0.002 A 
ENDROOT
BRANCH   1   7
ATOM      7  C2  UNL d   1       2.495  -3.986   5.942  0.00  0.00     0.056 C 
BRANCH   7   8
ATOM      8  C1  UNL d   1       2.638  -5.511   5.927  0.00  0.00     0.007 C 
ATOM      9  C   UNL d   1       3.808  -5.997   5.082  0.00  0.00     0.009 C 
ENDBRANCH   7   8
ENDBRANCH   1   7
TORSDOF 2
ENDMDL
