MODEL 1
REMARK minimizedAffinity 2.78871584
REMARK minimizedRMSD -1
REMARK  2 active torsions:
REMARK  status: ('A' for Active; 'I' for Inactive)
REMARK    1  A    between atoms: C1_2  and  C2_3 
REMARK    2  A    between atoms: C2_3  and  C3_4 
ROOT
ATOM      1  C3  UNL d   1      -0.087  -1.003  -0.955  0.00  0.00    -0.075 A 
ATOM      2  C4  UNL d   1       1.268  -1.360  -0.907  0.00  0.00     0.002 A 
ATOM      3  C5  UNL d   1       2.118  -0.789   0.040  0.00  0.00     0.002 A 
ATOM      4  C6  UNL d   1       1.627   0.152   0.943  0.00  0.00    -0.004 A 
ATOM      5  C7  UNL d   1       0.286   0.526   0.894  0.00  0.00     0.002 A 
ATOM      6  C8  UNL d   1      -0.567  -0.047  -0.050  0.00  0.00     0.002 A 
ENDROOT
BRANCH   1   7
ATOM      7  C2  UNL d   1      -1.019  -1.640  -1.959  0.00  0.00     0.056 C 
BRANCH   7   8
ATOM      8  C1  UNL d   1      -0.897  -3.165  -2.044  0.00  0.00     0.007 C 
ATOM      9  C   UNL d   1      -1.696  -3.768  -3.191  0.00  0.00     0.009 C 
ENDBRANCH   7   8
ENDBRANCH   1   7
TORSDOF 2
ENDMDL
