MODEL 1
REMARK minimizedAffinity 6.20396709
REMARK minimizedRMSD -1
REMARK  2 active torsions:
REMARK  status: ('A' for Active; 'I' for Inactive)
REMARK    1  A    between atoms: C1_2  and  C2_3 
REMARK    2  A    between atoms: C2_3  and  C3_4 
ROOT
ATOM      1  C3  UNL d   1       0.319  -1.875   5.993  0.00  0.00    -0.075 A 
ATOM      2  C4  UNL d   1       1.556  -2.535   5.999  0.00  0.00     0.002 A 
ATOM      3  C5  UNL d   1       1.616  -3.928   5.988  0.00  0.00     0.002 A 
ATOM      4  C6  UNL d   1       0.442  -4.679   5.982  0.00  0.00    -0.004 A 
ATOM      5  C7  UNL d   1      -0.793  -4.034   5.993  0.00  0.00     0.002 A 
ATOM      6  C8  UNL d   1      -0.856  -2.639   5.999  0.00  0.00     0.002 A 
ENDROOT
BRANCH   1   7
ATOM      7  C2  UNL d   1       0.248  -0.366   5.975  0.00  0.00     0.056 C 
BRANCH   7   8
ATOM      8  C1  UNL d   1       1.119   0.286   4.897  0.00  0.00     0.007 C 
ATOM      9  C   UNL d   1       0.727  -0.119   3.482  0.00  0.00     0.009 C 
ENDBRANCH   7   8
ENDBRANCH   1   7
TORSDOF 2
ENDMDL
