MODEL 1
REMARK minimizedAffinity 4.88046503
REMARK minimizedRMSD -1
REMARK  2 active torsions:
REMARK  status: ('A' for Active; 'I' for Inactive)
REMARK    1  A    between atoms: C1_2  and  C2_3 
REMARK    2  A    between atoms: C2_3  and  C3_4 
ROOT
ATOM      1  C3  UNL d   1      -5.931  -0.142  -0.613  0.00  0.00    -0.075 A 
ATOM      2  C4  UNL d   1      -5.921   0.582  -1.815  0.00  0.00     0.002 A 
ATOM      3  C5  UNL d   1      -5.939  -0.082  -3.042  0.00  0.00     0.002 A 
ATOM      4  C6  UNL d   1      -5.957  -1.475  -3.083  0.00  0.00    -0.004 A 
ATOM      5  C7  UNL d   1      -5.951  -2.204  -1.896  0.00  0.00     0.002 A 
ATOM      6  C8  UNL d   1      -5.937  -1.542  -0.667  0.00  0.00     0.002 A 
ENDROOT
BRANCH   1   7
ATOM      7  C2  UNL d   1      -5.942   0.571   0.718  0.00  0.00     0.056 C 
BRANCH   7   8
ATOM      8  C1  UNL d   1      -4.602   1.216   1.091  0.00  0.00     0.007 C 
ATOM      9  C   UNL d   1      -4.672   2.055   2.360  0.00  0.00     0.009 C 
ENDBRANCH   7   8
ENDBRANCH   1   7
TORSDOF 2
ENDMDL
