MODEL 1
REMARK minimizedAffinity 2.63030767
REMARK minimizedRMSD -1
REMARK  2 active torsions:
REMARK  status: ('A' for Active; 'I' for Inactive)
REMARK    1  A    between atoms: C1_2  and  C2_3 
REMARK    2  A    between atoms: C2_3  and  C3_4 
ROOT
ATOM      1  C3  UNL d   1       0.609  -2.656   5.998  0.00  0.00    -0.075 A 
ATOM      2  C4  UNL d   1       0.880  -4.032   5.998  0.00  0.00     0.002 A 
ATOM      3  C5  UNL d   1      -0.162  -4.959   5.971  0.00  0.00     0.002 A 
ATOM      4  C6  UNL d   1      -1.485  -4.525   5.954  0.00  0.00    -0.004 A 
ATOM      5  C7  UNL d   1      -1.767  -3.160   5.970  0.00  0.00     0.002 A 
ATOM      6  C8  UNL d   1      -0.726  -2.230   5.993  0.00  0.00     0.002 A 
ENDROOT
BRANCH   1   7
ATOM      7  C2  UNL d   1       1.733  -1.647   5.997  0.00  0.00     0.056 C 
BRANCH   7   8
ATOM      8  C1  UNL d   1       1.263  -0.191   5.923  0.00  0.00     0.007 C 
ATOM      9  C   UNL d   1       1.391   0.412   4.531  0.00  0.00     0.009 C 
ENDBRANCH   7   8
ENDBRANCH   1   7
TORSDOF 2
ENDMDL
