MODEL 1
REMARK minimizedAffinity 7.19080973
REMARK minimizedRMSD -1
REMARK  2 active torsions:
REMARK  status: ('A' for Active; 'I' for Inactive)
REMARK    1  A    between atoms: C1_2  and  C2_3 
REMARK    2  A    between atoms: C2_3  and  C3_4 
ROOT
ATOM      1  C3  UNL d   1       1.129   0.906   1.386  0.00  0.00    -0.075 A 
ATOM      2  C4  UNL d   1       0.404   1.162   0.213  0.00  0.00     0.002 A 
ATOM      3  C5  UNL d   1       0.389   0.233  -0.827  0.00  0.00     0.002 A 
ATOM      4  C6  UNL d   1       1.106  -0.957  -0.713  0.00  0.00    -0.004 A 
ATOM      5  C7  UNL d   1       1.843  -1.214   0.441  0.00  0.00     0.002 A 
ATOM      6  C8  UNL d   1       1.855  -0.288   1.486  0.00  0.00     0.002 A 
ENDROOT
BRANCH   1   7
ATOM      7  C2  UNL d   1       1.125   1.895   2.528  0.00  0.00     0.056 C 
BRANCH   7   8
ATOM      8  C1  UNL d   1       1.405   3.340   2.102  0.00  0.00     0.007 C 
ATOM      9  C   UNL d   1       2.583   3.965   2.838  0.00  0.00     0.009 C 
ENDBRANCH   7   8
ENDBRANCH   1   7
TORSDOF 2
ENDMDL
