MODEL 1
REMARK minimizedAffinity 3.59782338
REMARK minimizedRMSD -1
REMARK  2 active torsions:
REMARK  status: ('A' for Active; 'I' for Inactive)
REMARK    1  A    between atoms: C1_2  and  C2_3 
REMARK    2  A    between atoms: C2_3  and  C3_4 
ROOT
ATOM      1  C3  UNL d   1       0.197  -2.736   5.787  0.00  0.00    -0.075 A 
ATOM      2  C4  UNL d   1      -0.296  -4.032   5.998  0.00  0.00     0.002 A 
ATOM      3  C5  UNL d   1       0.538  -5.140   5.847  0.00  0.00     0.002 A 
ATOM      4  C6  UNL d   1       1.869  -4.969   5.474  0.00  0.00    -0.004 A 
ATOM      5  C7  UNL d   1       2.365  -3.687   5.246  0.00  0.00     0.002 A 
ATOM      6  C8  UNL d   1       1.534  -2.576   5.401  0.00  0.00     0.002 A 
ENDROOT
BRANCH   1   7
ATOM      7  C2  UNL d   1      -0.692  -1.531   5.978  0.00  0.00     0.056 C 
BRANCH   7   8
ATOM      8  C1  UNL d   1       0.061  -0.196   5.996  0.00  0.00     0.007 C 
ATOM      9  C   UNL d   1      -0.863   1.015   5.997  0.00  0.00     0.009 C 
ENDBRANCH   7   8
ENDBRANCH   1   7
TORSDOF 2
ENDMDL
