MODEL 1
REMARK minimizedAffinity 16.5417633
REMARK minimizedRMSD -1
REMARK  0 active torsions:
REMARK  status: ('A' for Active; 'I' for Inactive)
ROOT
ATOM      1  C   UNL d   1       4.497  -1.333   2.388  0.00  0.00    -0.002 A 
ATOM      2  C1  UNL d   1       3.474  -2.149   1.924  0.00  0.00     0.010 A 
ATOM      3  C2  UNL d   1       2.455  -1.625   1.126  0.00  0.00     0.041 A 
ATOM      4  C3  UNL d   1       2.483  -0.256   0.796  0.00  0.00    -0.075 A 
ATOM      5  S   UNL d   1       1.342   0.605  -0.168  0.00  0.00     0.015 SA
ATOM      6  C4  UNL d   1       2.186   2.074   0.011  0.00  0.00     0.022 A 
ATOM      7  C5  UNL d   1       3.313   1.930   0.786  0.00  0.00     0.026 A 
ATOM      8  C6  UNL d   1       3.503   0.585   1.250  0.00  0.00    -0.082 A 
ATOM      9  C7  UNL d   1       4.521   0.025   2.059  0.00  0.00     0.045 A 
ENDROOT
TORSDOF 0
ENDMDL
