MODEL 1
REMARK minimizedAffinity 24.4210491
REMARK minimizedRMSD -1
REMARK  0 active torsions:
REMARK  status: ('A' for Active; 'I' for Inactive)
ROOT
ATOM      1  C   UNL d   1      -1.967  -0.004  -2.300  0.00  0.00    -0.002 A 
ATOM      2  C1  UNL d   1      -2.691  -1.183  -2.412  0.00  0.00     0.010 A 
ATOM      3  C2  UNL d   1      -2.039  -2.417  -2.431  0.00  0.00     0.041 A 
ATOM      4  C3  UNL d   1      -0.634  -2.448  -2.333  0.00  0.00    -0.075 A 
ATOM      5  S   UNL d   1       0.378  -3.844  -2.334  0.00  0.00     0.015 SA
ATOM      6  C4  UNL d   1       1.795  -2.908  -2.185  0.00  0.00     0.022 A 
ATOM      7  C5  UNL d   1       1.521  -1.562  -2.134  0.00  0.00     0.026 A 
ATOM      8  C6  UNL d   1       0.117  -1.274  -2.218  0.00  0.00    -0.082 A 
ATOM      9  C7  UNL d   1      -0.573  -0.038  -2.203  0.00  0.00     0.045 A 
ENDROOT
TORSDOF 0
ENDMDL
