MODEL 1
REMARK minimizedAffinity 10.8334503
REMARK minimizedRMSD -1
REMARK  0 active torsions:
REMARK  status: ('A' for Active; 'I' for Inactive)
ROOT
ATOM      1  C   UNL d   1       3.361  -1.073  -3.551  0.00  0.00    -0.002 A 
ATOM      2  C1  UNL d   1       2.967  -2.299  -3.033  0.00  0.00     0.010 A 
ATOM      3  C2  UNL d   1       2.606  -2.419  -1.690  0.00  0.00     0.041 A 
ATOM      4  C3  UNL d   1       2.645  -1.276  -0.868  0.00  0.00    -0.075 A 
ATOM      5  S   UNL d   1       2.246  -1.185   0.806  0.00  0.00     0.015 SA
ATOM      6  C4  UNL d   1       2.588   0.484   0.874  0.00  0.00     0.022 A 
ATOM      7  C5  UNL d   1       2.998   0.975  -0.343  0.00  0.00     0.026 A 
ATOM      8  C6  UNL d   1       3.038  -0.030  -1.367  0.00  0.00    -0.082 A 
ATOM      9  C7  UNL d   1       3.399   0.059  -2.733  0.00  0.00     0.045 A 
ENDROOT
TORSDOF 0
ENDMDL
