MODEL 1
REMARK minimizedAffinity 10.4854584
REMARK minimizedRMSD -1
REMARK  0 active torsions:
REMARK  status: ('A' for Active; 'I' for Inactive)
ROOT
ATOM      1  C   UNL d   1       4.218  -2.229   2.031  0.00  0.00    -0.002 A 
ATOM      2  C1  UNL d   1       5.403  -1.614   1.651  0.00  0.00     0.010 A 
ATOM      3  C2  UNL d   1       5.385  -0.487   0.826  0.00  0.00     0.041 A 
ATOM      4  C3  UNL d   1       4.145   0.017   0.387  0.00  0.00    -0.075 A 
ATOM      5  S   UNL d   1       3.880   1.385  -0.627  0.00  0.00     0.015 SA
ATOM      6  C4  UNL d   1       2.188   1.186  -0.580  0.00  0.00     0.022 A 
ATOM      7  C5  UNL d   1       1.817   0.107   0.187  0.00  0.00     0.026 A 
ATOM      8  C6  UNL d   1       2.939  -0.585   0.757  0.00  0.00    -0.082 A 
ATOM      9  C7  UNL d   1       2.990  -1.726   1.593  0.00  0.00     0.045 A 
ENDROOT
TORSDOF 0
ENDMDL
