MODEL 1
REMARK minimizedAffinity 17.9543629
REMARK minimizedRMSD -1
REMARK  0 active torsions:
REMARK  status: ('A' for Active; 'I' for Inactive)
ROOT
ATOM      1  C   UNL d   1       3.562   1.690  -1.305  0.00  0.00    -0.002 A 
ATOM      2  C1  UNL d   1       3.150   1.026  -0.159  0.00  0.00     0.010 A 
ATOM      3  C2  UNL d   1       3.583   1.446   1.100  0.00  0.00     0.041 A 
ATOM      4  C3  UNL d   1       4.444   2.558   1.189  0.00  0.00    -0.075 A 
ATOM      5  S   UNL d   1       5.101   3.252   2.623  0.00  0.00     0.015 SA
ATOM      6  C4  UNL d   1       5.944   4.448   1.748  0.00  0.00     0.022 A 
ATOM      7  C5  UNL d   1       5.740   4.334   0.393  0.00  0.00     0.026 A 
ATOM      8  C6  UNL d   1       4.872   3.244   0.049  0.00  0.00    -0.082 A 
ATOM      9  C7  UNL d   1       4.416   2.792  -1.213  0.00  0.00     0.045 A 
ENDROOT
TORSDOF 0
ENDMDL
