MODEL 1
REMARK minimizedAffinity 15.4547825
REMARK minimizedRMSD -1
REMARK  0 active torsions:
REMARK  status: ('A' for Active; 'I' for Inactive)
ROOT
ATOM      1  C   UNL d   1       3.361   0.882  -1.300  0.00  0.00    -0.002 A 
ATOM      2  C1  UNL d   1       3.136   1.270   0.013  0.00  0.00     0.010 A 
ATOM      3  C2  UNL d   1       3.714   2.437   0.517  0.00  0.00     0.041 A 
ATOM      4  C3  UNL d   1       4.527   3.216  -0.329  0.00  0.00    -0.075 A 
ATOM      5  S   UNL d   1       5.337   4.684   0.070  0.00  0.00     0.015 SA
ATOM      6  C4  UNL d   1       6.000   4.832  -1.493  0.00  0.00     0.022 A 
ATOM      7  C5  UNL d   1       5.622   3.794  -2.313  0.00  0.00     0.026 A 
ATOM      8  C6  UNL d   1       4.767   2.846  -1.656  0.00  0.00    -0.082 A 
ATOM      9  C7  UNL d   1       4.168   1.657  -2.137  0.00  0.00     0.045 A 
ENDROOT
TORSDOF 0
ENDMDL
