MODEL 1
REMARK minimizedAffinity 12.5083122
REMARK minimizedRMSD -1
REMARK  0 active torsions:
REMARK  status: ('A' for Active; 'I' for Inactive)
ROOT
ATOM      1  C   UNL d   1       2.752   0.811   1.301  0.00  0.00    -0.002 A 
ATOM      2  C1  UNL d   1       2.355   1.652   0.272  0.00  0.00     0.010 A 
ATOM      3  C2  UNL d   1       1.962   1.129  -0.962  0.00  0.00     0.041 A 
ATOM      4  C3  UNL d   1       1.974  -0.268  -1.144  0.00  0.00    -0.075 A 
ATOM      5  S   UNL d   1       1.533  -1.134  -2.568  0.00  0.00     0.015 SA
ATOM      6  C4  UNL d   1       1.861  -2.641  -1.844  0.00  0.00     0.022 A 
ATOM      7  C5  UNL d   1       2.298  -2.506  -0.547  0.00  0.00     0.026 A 
ATOM      8  C6  UNL d   1       2.369  -1.136  -0.122  0.00  0.00    -0.082 A 
ATOM      9  C7  UNL d   1       2.763  -0.574   1.116  0.00  0.00     0.045 A 
ENDROOT
TORSDOF 0
ENDMDL
