MODEL 1
REMARK minimizedAffinity 14.8240843
REMARK minimizedRMSD -1
REMARK  0 active torsions:
REMARK  status: ('A' for Active; 'I' for Inactive)
ROOT
ATOM      1  C   UNL d   1       1.863   5.996   5.540  0.00  0.00    -0.002 A 
ATOM      2  C1  UNL d   1       0.940   6.000   4.503  0.00  0.00     0.010 A 
ATOM      3  C2  UNL d   1       1.129   5.189   3.382  0.00  0.00     0.041 A 
ATOM      4  C3  UNL d   1       2.270   4.365   3.321  0.00  0.00    -0.075 A 
ATOM      5  S   UNL d   1       2.708   3.288   2.048  0.00  0.00     0.015 SA
ATOM      6  C4  UNL d   1       4.129   2.797   2.851  0.00  0.00     0.022 A 
ATOM      7  C5  UNL d   1       4.281   3.430   4.062  0.00  0.00     0.026 A 
ATOM      8  C6  UNL d   1       3.212   4.343   4.354  0.00  0.00    -0.082 A 
ATOM      9  C7  UNL d   1       2.993   5.177   5.476  0.00  0.00     0.045 A 
ENDROOT
TORSDOF 0
ENDMDL
