MODEL 1
REMARK minimizedAffinity -0.669191837
REMARK minimizedRMSD -1
REMARK  0 active torsions:
REMARK  status: ('A' for Active; 'I' for Inactive)
ROOT
ATOM      1  C   UNL d   1      -1.373  -5.248  -1.561  0.00  0.00    -0.002 A 
ATOM      2  C1  UNL d   1      -2.561  -5.650  -2.154  0.00  0.00     0.010 A 
ATOM      3  C2  UNL d   1      -2.619  -5.903  -3.526  0.00  0.00     0.041 A 
ATOM      4  C3  UNL d   1      -1.451  -5.745  -4.299  0.00  0.00    -0.075 A 
ATOM      5  S   UNL d   1      -1.285  -6.000  -5.996  0.00  0.00     0.015 SA
ATOM      6  C4  UNL d   1       0.367  -5.581  -5.972  0.00  0.00     0.022 A 
ATOM      7  C5  UNL d   1       0.798  -5.252  -4.709  0.00  0.00     0.026 A 
ATOM      8  C6  UNL d   1      -0.243  -5.342  -3.723  0.00  0.00    -0.082 A 
ATOM      9  C7  UNL d   1      -0.216  -5.092  -2.330  0.00  0.00     0.045 A 
ENDROOT
TORSDOF 0
ENDMDL
