MODEL 1
REMARK minimizedAffinity 1.6848433
REMARK minimizedRMSD -1
REMARK  0 active torsions:
REMARK  status: ('A' for Active; 'I' for Inactive)
ROOT
ATOM      1  C   UNL d   1       4.801  -0.065   2.992  0.00  0.00    -0.002 A 
ATOM      2  C1  UNL d   1       4.209  -0.404   4.201  0.00  0.00     0.010 A 
ATOM      3  C2  UNL d   1       2.927  -0.957   4.233  0.00  0.00     0.041 A 
ATOM      4  C3  UNL d   1       2.244  -1.167   3.019  0.00  0.00    -0.075 A 
ATOM      5  S   UNL d   1       0.667  -1.832   2.815  0.00  0.00     0.015 SA
ATOM      6  C4  UNL d   1       0.742  -1.681   1.119  0.00  0.00     0.022 A 
ATOM      7  C5  UNL d   1       1.934  -1.139   0.702  0.00  0.00     0.026 A 
ATOM      8  C6  UNL d   1       2.820  -0.834   1.790  0.00  0.00    -0.082 A 
ATOM      9  C7  UNL d   1       4.120  -0.274   1.790  0.00  0.00     0.045 A 
ENDROOT
TORSDOF 0
ENDMDL
