MODEL 1
REMARK minimizedAffinity 0.693205655
REMARK minimizedRMSD -1
REMARK  0 active torsions:
REMARK  status: ('A' for Active; 'I' for Inactive)
ROOT
ATOM      1  C   UNL d   1       4.106  -1.245   3.796  0.00  0.00    -0.002 A 
ATOM      2  C1  UNL d   1       4.822  -0.494   2.874  0.00  0.00     0.010 A 
ATOM      3  C2  UNL d   1       4.208  -0.023   1.712  0.00  0.00     0.041 A 
ATOM      4  C3  UNL d   1       2.849  -0.320   1.491  0.00  0.00    -0.075 A 
ATOM      5  S   UNL d   1       1.888   0.153   0.140  0.00  0.00     0.015 SA
ATOM      6  C4  UNL d   1       0.504  -0.629   0.755  0.00  0.00     0.022 A 
ATOM      7  C5  UNL d   1       0.751  -1.242   1.960  0.00  0.00     0.026 A 
ATOM      8  C6  UNL d   1       2.106  -1.073   2.405  0.00  0.00    -0.082 A 
ATOM      9  C7  UNL d   1       2.758  -1.537   3.573  0.00  0.00     0.045 A 
ENDROOT
TORSDOF 0
ENDMDL
