MODEL 1
REMARK minimizedAffinity -0.574574351
REMARK minimizedRMSD -1
REMARK  0 active torsions:
REMARK  status: ('A' for Active; 'I' for Inactive)
ROOT
ATOM      1  C   UNL d   1       2.179  -2.964   2.541  0.00  0.00    -0.002 A 
ATOM      2  C1  UNL d   1       1.445  -2.353   3.547  0.00  0.00     0.010 A 
ATOM      3  C2  UNL d   1       0.631  -1.254   3.266  0.00  0.00     0.041 A 
ATOM      4  C3  UNL d   1       0.566  -0.775   1.943  0.00  0.00    -0.075 A 
ATOM      5  S   UNL d   1      -0.364   0.556   1.364  0.00  0.00     0.015 SA
ATOM      6  C4  UNL d   1       0.191   0.345  -0.234  0.00  0.00     0.022 A 
ATOM      7  C5  UNL d   1       1.065  -0.711  -0.341  0.00  0.00     0.026 A 
ATOM      8  C6  UNL d   1       1.295  -1.374   0.912  0.00  0.00    -0.082 A 
ATOM      9  C7  UNL d   1       2.111  -2.486   1.229  0.00  0.00     0.045 A 
ENDROOT
TORSDOF 0
ENDMDL
