MODEL 1
REMARK minimizedAffinity 4.93807125
REMARK minimizedRMSD -1
REMARK  0 active torsions:
REMARK  status: ('A' for Active; 'I' for Inactive)
ROOT
ATOM      1  C   UNL d   1       4.082  -0.885   2.819  0.00  0.00    -0.002 A 
ATOM      2  C1  UNL d   1       2.948  -1.188   3.560  0.00  0.00     0.010 A 
ATOM      3  C2  UNL d   1       1.676  -1.043   3.002  0.00  0.00     0.041 A 
ATOM      4  C3  UNL d   1       1.562  -0.587   1.674  0.00  0.00    -0.075 A 
ATOM      5  S   UNL d   1       0.108  -0.334   0.783  0.00  0.00     0.015 SA
ATOM      6  C4  UNL d   1       0.958   0.180  -0.602  0.00  0.00     0.022 A 
ATOM      7  C5  UNL d   1       2.319   0.166  -0.407  0.00  0.00     0.026 A 
ATOM      8  C6  UNL d   1       2.689  -0.277   0.908  0.00  0.00    -0.082 A 
ATOM      9  C7  UNL d   1       3.965  -0.433   1.502  0.00  0.00     0.045 A 
ENDROOT
TORSDOF 0
ENDMDL
