MODEL 1
REMARK minimizedAffinity 10.5017214
REMARK minimizedRMSD -1
REMARK  0 active torsions:
REMARK  status: ('A' for Active; 'I' for Inactive)
ROOT
ATOM      1  C   UNL d   1       4.173  -1.348   4.036  0.00  0.00    -0.002 A 
ATOM      2  C1  UNL d   1       5.008  -0.924   3.012  0.00  0.00     0.010 A 
ATOM      3  C2  UNL d   1       4.488  -0.619   1.752  0.00  0.00     0.041 A 
ATOM      4  C3  UNL d   1       3.102  -0.747   1.538  0.00  0.00    -0.075 A 
ATOM      5  S   UNL d   1       2.242  -0.428   0.078  0.00  0.00     0.015 SA
ATOM      6  C4  UNL d   1       0.746  -0.848   0.779  0.00  0.00     0.022 A 
ATOM      7  C5  UNL d   1       0.881  -1.224   2.094  0.00  0.00     0.026 A 
ATOM      8  C6  UNL d   1       2.241  -1.172   2.554  0.00  0.00    -0.082 A 
ATOM      9  C7  UNL d   1       2.798  -1.474   3.819  0.00  0.00     0.045 A 
ENDROOT
TORSDOF 0
ENDMDL
