MODEL 1
REMARK minimizedAffinity -0.694624543
REMARK minimizedRMSD -1
REMARK  0 active torsions:
REMARK  status: ('A' for Active; 'I' for Inactive)
ROOT
ATOM      1  C   UNL d   1       4.169   2.986  -0.595  0.00  0.00    -0.002 A 
ATOM      2  C1  UNL d   1       3.102   3.746  -0.135  0.00  0.00     0.010 A 
ATOM      3  C2  UNL d   1       1.893   3.138   0.209  0.00  0.00     0.041 A 
ATOM      4  C3  UNL d   1       1.774   1.740   0.083  0.00  0.00    -0.075 A 
ATOM      5  S   UNL d   1       0.390   0.778   0.446  0.00  0.00     0.015 SA
ATOM      6  C4  UNL d   1       1.182  -0.664  -0.001  0.00  0.00     0.022 A 
ATOM      7  C5  UNL d   1       2.471  -0.435  -0.419  0.00  0.00     0.026 A 
ATOM      8  C6  UNL d   1       2.834   0.953  -0.377  0.00  0.00    -0.082 A 
ATOM      9  C7  UNL d   1       4.046   1.600  -0.719  0.00  0.00     0.045 A 
ENDROOT
TORSDOF 0
ENDMDL
