MODEL 1
REMARK minimizedAffinity 9.73799038
REMARK minimizedRMSD -1
REMARK  0 active torsions:
REMARK  status: ('A' for Active; 'I' for Inactive)
ROOT
ATOM      1  C   UNL d   1       3.646   3.418  -0.409  0.00  0.00    -0.002 A 
ATOM      2  C1  UNL d   1       2.444   3.970   0.012  0.00  0.00     0.010 A 
ATOM      3  C2  UNL d   1       1.341   3.155   0.274  0.00  0.00     0.041 A 
ATOM      4  C3  UNL d   1       1.468   1.762   0.106  0.00  0.00    -0.075 A 
ATOM      5  S   UNL d   1       0.251   0.569   0.368  0.00  0.00     0.015 SA
ATOM      6  C4  UNL d   1       1.298  -0.702  -0.072  0.00  0.00     0.022 A 
ATOM      7  C5  UNL d   1       2.549  -0.245  -0.414  0.00  0.00     0.026 A 
ATOM      8  C6  UNL d   1       2.667   1.183  -0.317  0.00  0.00    -0.082 A 
ATOM      9  C7  UNL d   1       3.767   2.036  -0.575  0.00  0.00     0.045 A 
ENDROOT
TORSDOF 0
ENDMDL
