MODEL 1
REMARK minimizedAffinity 10.1112833
REMARK minimizedRMSD -1
REMARK  0 active torsions:
REMARK  status: ('A' for Active; 'I' for Inactive)
ROOT
ATOM      1  C   UNL d   1      -2.027  -5.186  -4.164  0.00  0.00    -0.002 A 
ATOM      2  C1  UNL d   1      -1.897  -5.866  -5.367  0.00  0.00     0.010 A 
ATOM      3  C2  UNL d   1      -0.655  -5.966  -5.995  0.00  0.00     0.041 A 
ATOM      4  C3  UNL d   1       0.467  -5.368  -5.388  0.00  0.00    -0.075 A 
ATOM      5  S   UNL d   1       2.088  -5.363  -5.975  0.00  0.00     0.015 SA
ATOM      6  C4  UNL d   1       2.647  -4.460  -4.642  0.00  0.00     0.022 A 
ATOM      7  C5  UNL d   1       1.635  -4.160  -3.762  0.00  0.00     0.026 A 
ATOM      8  C6  UNL d   1       0.362  -4.679  -4.177  0.00  0.00    -0.082 A 
ATOM      9  C7  UNL d   1      -0.912  -4.593  -3.565  0.00  0.00     0.045 A 
ENDROOT
TORSDOF 0
ENDMDL
