MODEL 1
REMARK minimizedAffinity -3.6440165
REMARK minimizedRMSD -1
REMARK  0 active torsions:
REMARK  status: ('A' for Active; 'I' for Inactive)
ROOT
ATOM      1  C1  BNZ d   1      -0.168   0.839  -0.335  0.00  0.00     0.000 A 
ATOM      2  C2  BNZ d   1       0.537   0.121  -1.265  0.00  0.00     0.000 A 
ATOM      3  C3  BNZ d   1       1.544  -0.720  -0.882  0.00  0.00     0.000 A 
ATOM      4  C4  BNZ d   1       1.871  -0.813   0.423  0.00  0.00     0.000 A 
ATOM      5  C5  BNZ d   1       1.175  -0.089   1.371  0.00  0.00     0.000 A 
ATOM      6  C6  BNZ d   1       0.137   0.727   0.986  0.00  0.00     0.000 A 
ENDROOT
TORSDOF 0
ENDMDL
