MODEL 1
REMARK minimizedAffinity -3.4456296
REMARK minimizedRMSD -1
REMARK  0 active torsions:
REMARK  status: ('A' for Active; 'I' for Inactive)
ROOT
ATOM      1  C1  BNZ d   1       0.625   0.844   1.099  0.00  0.00     0.000 A 
ATOM      2  C2  BNZ d   1       1.377  -0.021   0.351  0.00  0.00     0.000 A 
ATOM      3  C3  BNZ d   1       0.867  -0.593  -0.781  0.00  0.00     0.000 A 
ATOM      4  C4  BNZ d   1      -0.406  -0.331  -1.140  0.00  0.00     0.000 A 
ATOM      5  C5  BNZ d   1      -1.181   0.532  -0.391  0.00  0.00     0.000 A 
ATOM      6  C6  BNZ d   1      -0.651   1.136   0.726  0.00  0.00     0.000 A 
ENDROOT
TORSDOF 0
ENDMDL
