MODEL 1
REMARK minimizedAffinity -4.10142469
REMARK minimizedRMSD -1
REMARK  0 active torsions:
REMARK  status: ('A' for Active; 'I' for Inactive)
ROOT
ATOM      1  C1  BNZ d   1       0.819  -0.106   0.114  0.00  0.00     0.000 A 
ATOM      2  C2  BNZ d   1       0.791   0.018   1.478  0.00  0.00     0.000 A 
ATOM      3  C3  BNZ d   1      -0.263   0.621   2.104  0.00  0.00     0.000 A 
ATOM      4  C4  BNZ d   1      -1.268   1.135   1.365  0.00  0.00     0.000 A 
ATOM      5  C5  BNZ d   1      -1.249   1.027  -0.011  0.00  0.00     0.000 A 
ATOM      6  C6  BNZ d   1      -0.205   0.384  -0.636  0.00  0.00     0.000 A 
ENDROOT
TORSDOF 0
ENDMDL
