MODEL 1
REMARK minimizedAffinity -3.76469922
REMARK minimizedRMSD -1
REMARK  0 active torsions:
REMARK  status: ('A' for Active; 'I' for Inactive)
ROOT
ATOM      1  C1  BNZ d   1      -1.207   0.352   0.611  0.00  0.00     0.000 A 
ATOM      2  C2  BNZ d   1      -0.512   1.360  -0.003  0.00  0.00     0.000 A 
ATOM      3  C3  BNZ d   1       0.509   1.081  -0.868  0.00  0.00     0.000 A 
ATOM      4  C4  BNZ d   1       0.859  -0.203  -1.087  0.00  0.00     0.000 A 
ATOM      5  C5  BNZ d   1       0.174  -1.230  -0.469  0.00  0.00     0.000 A 
ATOM      6  C6  BNZ d   1      -0.878  -0.946   0.371  0.00  0.00     0.000 A 
ENDROOT
TORSDOF 0
ENDMDL
