MODEL 1
REMARK minimizedAffinity -3.91819596
REMARK minimizedRMSD -1
REMARK  0 active torsions:
REMARK  status: ('A' for Active; 'I' for Inactive)
ROOT
ATOM      1  C1  BNZ d   1       0.289   0.659   1.567  0.00  0.00     0.000 A 
ATOM      2  C2  BNZ d   1       0.430   0.131   0.311  0.00  0.00     0.000 A 
ATOM      3  C3  BNZ d   1      -0.622  -0.479  -0.313  0.00  0.00     0.000 A 
ATOM      4  C4  BNZ d   1      -1.800  -0.596   0.333  0.00  0.00     0.000 A 
ATOM      5  C5  BNZ d   1      -1.954  -0.077   1.603  0.00  0.00     0.000 A 
ATOM      6  C6  BNZ d   1      -0.905   0.571   2.213  0.00  0.00     0.000 A 
ENDROOT
TORSDOF 0
ENDMDL
