MODEL 1
REMARK minimizedAffinity -4.56113625
REMARK minimizedRMSD -1
REMARK  0 active torsions:
REMARK  status: ('A' for Active; 'I' for Inactive)
ROOT
ATOM      1  C1  BNZ d   1       0.347  -0.117  -0.290  0.00  0.00     0.000 A 
ATOM      2  C2  BNZ d   1      -0.196  -0.674   0.837  0.00  0.00     0.000 A 
ATOM      3  C3  BNZ d   1      -1.035   0.046   1.639  0.00  0.00     0.000 A 
ATOM      4  C4  BNZ d   1      -1.299   1.334   1.336  0.00  0.00     0.000 A 
ATOM      5  C5  BNZ d   1      -0.752   1.913   0.209  0.00  0.00     0.000 A 
ATOM      6  C6  BNZ d   1       0.062   1.173  -0.618  0.00  0.00     0.000 A 
ENDROOT
TORSDOF 0
ENDMDL
