MODEL 1
REMARK minimizedAffinity -5.12439871
REMARK minimizedRMSD -1
REMARK  0 active torsions:
REMARK  status: ('A' for Active; 'I' for Inactive)
ROOT
ATOM      1  C1  BNZ d   1       1.184  -0.396   2.452  0.00  0.00     0.000 A 
ATOM      2  C2  BNZ d   1       1.367  -0.651   1.119  0.00  0.00     0.000 A 
ATOM      3  C3  BNZ d   1       0.350  -0.465   0.225  0.00  0.00     0.000 A 
ATOM      4  C4  BNZ d   1      -0.859  -0.063   0.669  0.00  0.00     0.000 A 
ATOM      5  C5  BNZ d   1      -1.061   0.189   2.011  0.00  0.00     0.000 A 
ATOM      6  C6  BNZ d   1      -0.025   0.038   2.903  0.00  0.00     0.000 A 
ENDROOT
TORSDOF 0
ENDMDL
