MODEL 1
REMARK minimizedAffinity -4.28021002
REMARK minimizedRMSD -1
REMARK  0 active torsions:
REMARK  status: ('A' for Active; 'I' for Inactive)
ROOT
ATOM      1  C1  BNZ d   1      -0.234  -0.020   1.043  0.00  0.00     0.000 A 
ATOM      2  C2  BNZ d   1       0.270  -0.528   2.211  0.00  0.00     0.000 A 
ATOM      3  C3  BNZ d   1      -0.155  -0.056   3.421  0.00  0.00     0.000 A 
ATOM      4  C4  BNZ d   1      -1.053   0.949   3.462  0.00  0.00     0.000 A 
ATOM      5  C5  BNZ d   1      -1.564   1.478   2.293  0.00  0.00     0.000 A 
ATOM      6  C6  BNZ d   1      -1.162   0.974   1.078  0.00  0.00     0.000 A 
ENDROOT
TORSDOF 0
ENDMDL
