MODEL 1
REMARK minimizedAffinity -3.62055206
REMARK minimizedRMSD -1
REMARK  0 active torsions:
REMARK  status: ('A' for Active; 'I' for Inactive)
ROOT
ATOM      1  C1  BNZ d   1      -1.102   0.738   2.704  0.00  0.00     0.000 A 
ATOM      2  C2  BNZ d   1      -1.890   1.000   1.615  0.00  0.00     0.000 A 
ATOM      3  C3  BNZ d   1      -1.572   0.500   0.384  0.00  0.00     0.000 A 
ATOM      4  C4  BNZ d   1      -0.445  -0.227   0.234  0.00  0.00     0.000 A 
ATOM      5  C5  BNZ d   1       0.364  -0.492   1.321  0.00  0.00     0.000 A 
ATOM      6  C6  BNZ d   1       0.020  -0.020   2.566  0.00  0.00     0.000 A 
ENDROOT
TORSDOF 0
ENDMDL
