MODEL 1
REMARK minimizedAffinity -0.966715515
REMARK minimizedRMSD -1
REMARK  0 active torsions:
REMARK  status: ('A' for Active; 'I' for Inactive)
ROOT
ATOM      1  C1  BNZ d   1      -1.864   0.636   0.573  0.00  0.00     0.000 A 
ATOM      2  C2  BNZ d   1      -1.201   0.218  -0.550  0.00  0.00     0.000 A 
ATOM      3  C3  BNZ d   1       0.122  -0.119  -0.497  0.00  0.00     0.000 A 
ATOM      4  C4  BNZ d   1       0.790  -0.000   0.669  0.00  0.00     0.000 A 
ATOM      5  C5  BNZ d   1       0.138   0.429   1.808  0.00  0.00     0.000 A 
ATOM      6  C6  BNZ d   1      -1.203   0.730   1.759  0.00  0.00     0.000 A 
ENDROOT
TORSDOF 0
ENDMDL
