MODEL 1
REMARK minimizedAffinity 2.26563978
REMARK minimizedRMSD -1
REMARK  0 active torsions:
REMARK  status: ('A' for Active; 'I' for Inactive)
ROOT
ATOM      1  C   UNL d   1       3.140   0.946   0.761  0.00  0.00     0.020 A 
ATOM      2  C1  UNL d   1       2.263   0.187   1.535  0.00  0.00     0.020 A 
ATOM      3  C2  UNL d   1       0.916   0.544   1.615  0.00  0.00     0.034 A 
ATOM      4  C3  UNL d   1       0.441   1.662   0.919  0.00  0.00     0.017 A 
ATOM      5  C4  UNL d   1       1.322   2.422   0.142  0.00  0.00     0.017 A 
ATOM      6  C5  UNL d   1       2.670   2.061   0.066  0.00  0.00     0.034 A 
ATOM      7 Cl   UNL d   1       0.810   3.815  -0.745  0.00  0.00    -0.070 Cl
ATOM      8 Cl1  UNL d   1      -1.238   2.044   1.063  0.00  0.00    -0.070 Cl
ENDROOT
TORSDOF 0
ENDMDL
