MODEL 1
REMARK minimizedAffinity 3.81029487
REMARK minimizedRMSD -1
REMARK  0 active torsions:
REMARK  status: ('A' for Active; 'I' for Inactive)
ROOT
ATOM      1  C   UNL d   1      -2.906  -2.102  -1.523  0.00  0.00     0.020 A 
ATOM      2  C1  UNL d   1      -2.342  -2.133  -2.798  0.00  0.00     0.020 A 
ATOM      3  C2  UNL d   1      -0.954  -2.143  -2.948  0.00  0.00     0.034 A 
ATOM      4  C3  UNL d   1      -0.124  -2.123  -1.821  0.00  0.00     0.017 A 
ATOM      5  C4  UNL d   1      -0.690  -2.093  -0.541  0.00  0.00     0.017 A 
ATOM      6  C5  UNL d   1      -2.081  -2.082  -0.397  0.00  0.00     0.034 A 
ATOM      7 Cl   UNL d   1       0.269  -2.067   0.896  0.00  0.00    -0.070 Cl
ATOM      8 Cl1  UNL d   1       1.584  -2.138  -2.080  0.00  0.00    -0.070 Cl
ENDROOT
TORSDOF 0
ENDMDL
