MODEL 1
REMARK minimizedAffinity 2.34971476
REMARK minimizedRMSD -1
REMARK  0 active torsions:
REMARK  status: ('A' for Active; 'I' for Inactive)
ROOT
ATOM      1  C   UNL d   1      -1.491  -1.609  -1.906  0.00  0.00     0.020 A 
ATOM      2  C1  UNL d   1      -2.608  -2.438  -1.810  0.00  0.00     0.020 A 
ATOM      3  C2  UNL d   1      -2.449  -3.791  -1.501  0.00  0.00     0.034 A 
ATOM      4  C3  UNL d   1      -1.170  -4.318  -1.287  0.00  0.00     0.017 A 
ATOM      5  C4  UNL d   1      -0.050  -3.485  -1.384  0.00  0.00     0.017 A 
ATOM      6  C5  UNL d   1      -0.215  -2.131  -1.694  0.00  0.00     0.034 A 
ATOM      7 Cl   UNL d   1       1.560  -4.063  -1.134  0.00  0.00    -0.070 Cl
ATOM      8 Cl1  UNL d   1      -1.047  -6.000  -0.909  0.00  0.00    -0.070 Cl
ENDROOT
TORSDOF 0
ENDMDL
