MODEL 1
REMARK minimizedAffinity 12.0260048
REMARK minimizedRMSD -1
REMARK  0 active torsions:
REMARK  status: ('A' for Active; 'I' for Inactive)
ROOT
ATOM      1  C   UNL d   1       2.576   0.948   2.363  0.00  0.00     0.020 A 
ATOM      2  C1  UNL d   1       2.994  -0.295   1.890  0.00  0.00     0.020 A 
ATOM      3  C2  UNL d   1       3.297  -0.462   0.537  0.00  0.00     0.034 A 
ATOM      4  C3  UNL d   1       3.182   0.617  -0.348  0.00  0.00     0.017 A 
ATOM      5  C4  UNL d   1       2.763   1.864   0.127  0.00  0.00     0.017 A 
ATOM      6  C5  UNL d   1       2.461   2.025   1.483  0.00  0.00     0.034 A 
ATOM      7 Cl   UNL d   1       2.597   3.241  -0.904  0.00  0.00    -0.070 Cl
ATOM      8 Cl1  UNL d   1       3.573   0.339  -2.008  0.00  0.00    -0.070 Cl
ENDROOT
TORSDOF 0
ENDMDL
