MODEL 1
REMARK minimizedAffinity 5.51175022
REMARK minimizedRMSD -1
REMARK  0 active torsions:
REMARK  status: ('A' for Active; 'I' for Inactive)
ROOT
ATOM      1  C   UNL d   1       2.037  -3.237   5.746  0.00  0.00     0.020 A 
ATOM      2  C1  UNL d   1       1.313  -4.185   5.024  0.00  0.00     0.020 A 
ATOM      3  C2  UNL d   1       0.518  -3.786   3.948  0.00  0.00     0.034 A 
ATOM      4  C3  UNL d   1       0.445  -2.435   3.590  0.00  0.00     0.017 A 
ATOM      5  C4  UNL d   1       1.172  -1.484   4.315  0.00  0.00     0.017 A 
ATOM      6  C5  UNL d   1       1.966  -1.889   5.392  0.00  0.00     0.034 A 
ATOM      7 Cl   UNL d   1       1.132   0.202   3.933  0.00  0.00    -0.070 Cl
ATOM      8 Cl1  UNL d   1      -0.558  -2.012   2.248  0.00  0.00    -0.070 Cl
ENDROOT
TORSDOF 0
ENDMDL
