MODEL 1
REMARK minimizedAffinity -1.8750757
REMARK minimizedRMSD -1
REMARK  0 active torsions:
REMARK  status: ('A' for Active; 'I' for Inactive)
ROOT
ATOM      1  C   UNL d   1       1.227   1.681   0.088  0.00  0.00     0.020 A 
ATOM      2  C1  UNL d   1       2.235   1.774   1.047  0.00  0.00     0.020 A 
ATOM      3  C2  UNL d   1       2.334   0.809   2.051  0.00  0.00     0.034 A 
ATOM      4  C3  UNL d   1       1.424  -0.253   2.099  0.00  0.00     0.017 A 
ATOM      5  C4  UNL d   1       0.412  -0.345   1.136  0.00  0.00     0.017 A 
ATOM      6  C5  UNL d   1       0.318   0.624   0.132  0.00  0.00     0.034 A 
ATOM      7 Cl   UNL d   1      -0.748  -1.627   1.130  0.00  0.00    -0.070 Cl
ATOM      8 Cl1  UNL d   1       1.606  -1.411   3.369  0.00  0.00    -0.070 Cl
ENDROOT
TORSDOF 0
ENDMDL
