MODEL 1
REMARK minimizedAffinity -4.2376771
REMARK minimizedRMSD -1
REMARK  0 active torsions:
REMARK  status: ('A' for Active; 'I' for Inactive)
ROOT
ATOM      1  C2' OXE d   1      -1.096   0.480  -0.067  0.00  0.00     0.078 C 
ATOM      2  C1' OXE d   1       1.404   1.640   0.465  0.00  0.00     0.078 C 
ATOM      3  C1  OXE d   1       1.367   0.167   0.143  0.00  0.00    -0.078 A 
ATOM      4  C2  OXE d   1       0.134  -0.402  -0.070  0.00  0.00    -0.078 A 
ATOM      5  C3  OXE d   1       0.048  -1.745  -0.425  0.00  0.00     0.003 A 
ATOM      6  C4  OXE d   1       1.189  -2.556  -0.416  0.00  0.00    -0.002 A 
ATOM      7  C5  OXE d   1       2.450  -2.004  -0.163  0.00  0.00    -0.002 A 
ATOM      8  C6  OXE d   1       2.560  -0.639   0.076  0.00  0.00     0.003 A 
ENDROOT
TORSDOF 0
ENDMDL
