MODEL 1
REMARK minimizedAffinity -2.74890351
REMARK minimizedRMSD -1
REMARK  0 active torsions:
REMARK  status: ('A' for Active; 'I' for Inactive)
ROOT
ATOM      1  C2' OXE d   1      -1.106  -2.922   0.707  0.00  0.00     0.078 C 
ATOM      2  C1' OXE d   1       1.337  -1.729   0.008  0.00  0.00     0.078 C 
ATOM      3  C1  OXE d   1       0.115  -0.847   0.067  0.00  0.00    -0.078 A 
ATOM      4  C2  OXE d   1      -1.085  -1.448   0.364  0.00  0.00    -0.078 A 
ATOM      5  C3  OXE d   1      -2.234  -0.671   0.485  0.00  0.00     0.003 A 
ATOM      6  C4  OXE d   1      -2.207   0.690   0.156  0.00  0.00    -0.002 A 
ATOM      7  C5  OXE d   1      -1.003   1.314  -0.187  0.00  0.00    -0.002 A 
ATOM      8  C6  OXE d   1       0.172   0.570  -0.195  0.00  0.00     0.003 A 
ENDROOT
TORSDOF 0
ENDMDL
