MODEL 1
REMARK minimizedAffinity 7.07887173
REMARK minimizedRMSD -1
REMARK  0 active torsions:
REMARK  status: ('A' for Active; 'I' for Inactive)
ROOT
ATOM      1  C2' OXE d   1       2.575  -1.789  -1.554  0.00  0.00     0.078 C 
ATOM      2  C1' OXE d   1       0.962   0.363  -0.747  0.00  0.00     0.078 C 
ATOM      3  C1  OXE d   1       0.670  -0.995  -0.159  0.00  0.00    -0.078 A 
ATOM      4  C2  OXE d   1       1.433  -2.051  -0.595  0.00  0.00    -0.078 A 
ATOM      5  C3  OXE d   1       1.241  -3.315  -0.044  0.00  0.00     0.003 A 
ATOM      6  C4  OXE d   1       0.177  -3.550   0.834  0.00  0.00    -0.002 A 
ATOM      7  C5  OXE d   1      -0.638  -2.497   1.261  0.00  0.00    -0.002 A 
ATOM      8  C6  OXE d   1      -0.379  -1.208   0.807  0.00  0.00     0.003 A 
ENDROOT
TORSDOF 0
ENDMDL
