MODEL 1
REMARK minimizedAffinity -5.161057
REMARK minimizedRMSD -1
REMARK  0 active torsions:
REMARK  status: ('A' for Active; 'I' for Inactive)
ROOT
ATOM      1  C2' OXE d   1      -0.090  -1.464  -1.840  0.00  0.00     0.078 C 
ATOM      2  C1' OXE d   1      -0.520   1.029  -0.622  0.00  0.00     0.078 C 
ATOM      3  C1  OXE d   1       0.621   0.184  -0.111  0.00  0.00    -0.078 A 
ATOM      4  C2  OXE d   1       0.794  -1.054  -0.682  0.00  0.00    -0.078 A 
ATOM      5  C3  OXE d   1       1.864  -1.852  -0.286  0.00  0.00     0.003 A 
ATOM      6  C4  OXE d   1       2.672  -1.470   0.792  0.00  0.00    -0.002 A 
ATOM      7  C5  OXE d   1       2.487  -0.231   1.414  0.00  0.00    -0.002 A 
ATOM      8  C6  OXE d   1       1.495   0.625   0.947  0.00  0.00     0.003 A 
ENDROOT
TORSDOF 0
ENDMDL
