MODEL 1
REMARK minimizedAffinity -5.00567579
REMARK minimizedRMSD -1
REMARK  0 active torsions:
REMARK  status: ('A' for Active; 'I' for Inactive)
ROOT
ATOM      1  C2' OXE d   1      -0.755   0.433  -0.259  0.00  0.00     0.078 C 
ATOM      2  C1' OXE d   1      -0.224  -2.050  -1.455  0.00  0.00     0.078 C 
ATOM      3  C1  OXE d   1       0.796  -1.503  -0.488  0.00  0.00    -0.078 A 
ATOM      4  C2  OXE d   1       0.549  -0.265   0.057  0.00  0.00    -0.078 A 
ATOM      5  C3  OXE d   1       1.431   0.262   0.996  0.00  0.00     0.003 A 
ATOM      6  C4  OXE d   1       2.640  -0.386   1.276  0.00  0.00    -0.002 A 
ATOM      7  C5  OXE d   1       2.929  -1.628   0.702  0.00  0.00    -0.002 A 
ATOM      8  C6  OXE d   1       2.000  -2.219  -0.148  0.00  0.00     0.003 A 
ENDROOT
TORSDOF 0
ENDMDL
