MODEL 1
REMARK minimizedAffinity -4.55365467
REMARK minimizedRMSD -1
REMARK  0 active torsions:
REMARK  status: ('A' for Active; 'I' for Inactive)
ROOT
ATOM      1  C   UNL d   1      -2.266   2.401   3.409  0.00  0.00     0.077 C 
ATOM      2  C1  UNL d   1      -1.576   1.501   2.428  0.00  0.00    -0.074 A 
ATOM      3  C2  UNL d   1      -2.217   0.368   1.917  0.00  0.00    -0.005 A 
ATOM      4  C3  UNL d   1      -1.566  -0.454   0.998  0.00  0.00     0.006 A 
ATOM      5  C4  UNL d   1      -0.269  -0.152   0.580  0.00  0.00    -0.005 A 
ATOM      6  C5  UNL d   1       0.387   0.978   1.078  0.00  0.00    -0.074 A 
ATOM      7  C6  UNL d   1       1.777   1.323   0.632  0.00  0.00     0.077 C 
ATOM      8  C7  UNL d   1      -0.276   1.803   1.997  0.00  0.00    -0.001 A 
ENDROOT
TORSDOF 0
ENDMDL
