MODEL 1
REMARK minimizedAffinity -5.01344538
REMARK minimizedRMSD -1
REMARK  0 active torsions:
REMARK  status: ('A' for Active; 'I' for Inactive)
ROOT
ATOM      1  C   UNL d   1       0.628   2.235   1.181  0.00  0.00     0.077 C 
ATOM      2  C1  UNL d   1      -0.557   1.482   1.709  0.00  0.00    -0.074 A 
ATOM      3  C2  UNL d   1      -0.629   0.090   1.603  0.00  0.00    -0.005 A 
ATOM      4  C3  UNL d   1      -1.733  -0.598   2.107  0.00  0.00     0.006 A 
ATOM      5  C4  UNL d   1      -2.774   0.099   2.722  0.00  0.00    -0.005 A 
ATOM      6  C5  UNL d   1      -2.719   1.492   2.837  0.00  0.00    -0.074 A 
ATOM      7  C6  UNL d   1      -3.825   2.256   3.503  0.00  0.00     0.077 C 
ATOM      8  C7  UNL d   1      -1.603   2.175   2.334  0.00  0.00    -0.001 A 
ENDROOT
TORSDOF 0
ENDMDL
