MODEL 1
REMARK minimizedAffinity 1.23521221
REMARK minimizedRMSD -1
REMARK  0 active torsions:
REMARK  status: ('A' for Active; 'I' for Inactive)
ROOT
ATOM      1  C   UNL d   1      -0.179   2.770   1.434  0.00  0.00     0.077 C 
ATOM      2  C1  UNL d   1      -1.231   1.780   1.838  0.00  0.00    -0.074 A 
ATOM      3  C2  UNL d   1      -1.110   0.427   1.506  0.00  0.00    -0.005 A 
ATOM      4  C3  UNL d   1      -2.092  -0.484   1.897  0.00  0.00     0.006 A 
ATOM      5  C4  UNL d   1      -3.203  -0.051   2.621  0.00  0.00    -0.005 A 
ATOM      6  C5  UNL d   1      -3.341   1.298   2.962  0.00  0.00    -0.074 A 
ATOM      7  C6  UNL d   1      -4.524   1.778   3.749  0.00  0.00     0.077 C 
ATOM      8  C7  UNL d   1      -2.347   2.206   2.573  0.00  0.00    -0.001 A 
ENDROOT
TORSDOF 0
ENDMDL
