MODEL 1
REMARK minimizedAffinity -4.02008247
REMARK minimizedRMSD -1
REMARK  0 active torsions:
REMARK  status: ('A' for Active; 'I' for Inactive)
ROOT
ATOM      1  C   UNL d   1      -0.237   2.536   1.576  0.00  0.00     0.077 C 
ATOM      2  C1  UNL d   1      -1.217   1.494   2.025  0.00  0.00    -0.074 A 
ATOM      3  C2  UNL d   1      -1.009   0.141   1.741  0.00  0.00    -0.005 A 
ATOM      4  C3  UNL d   1      -1.924  -0.818   2.173  0.00  0.00     0.006 A 
ATOM      5  C4  UNL d   1      -3.056  -0.434   2.894  0.00  0.00    -0.005 A 
ATOM      6  C5  UNL d   1      -3.281   0.914   3.188  0.00  0.00    -0.074 A 
ATOM      7  C6  UNL d   1      -4.488   1.343   3.969  0.00  0.00     0.077 C 
ATOM      8  C7  UNL d   1      -2.353   1.871   2.756  0.00  0.00    -0.001 A 
ENDROOT
TORSDOF 0
ENDMDL
