MODEL 1
REMARK minimizedAffinity 0.418169528
REMARK minimizedRMSD -1
REMARK  0 active torsions:
REMARK  status: ('A' for Active; 'I' for Inactive)
ROOT
ATOM      1  C   UNL d   1      -3.055  -1.313   3.058  0.00  0.00     0.077 C 
ATOM      2  C1  UNL d   1      -2.312  -0.078   2.643  0.00  0.00    -0.074 A 
ATOM      3  C2  UNL d   1      -2.723   1.187   3.072  0.00  0.00    -0.005 A 
ATOM      4  C3  UNL d   1      -2.016   2.326   2.686  0.00  0.00     0.006 A 
ATOM      5  C4  UNL d   1      -0.892   2.211   1.867  0.00  0.00    -0.005 A 
ATOM      6  C5  UNL d   1      -0.465   0.953   1.428  0.00  0.00    -0.074 A 
ATOM      7  C6  UNL d   1       0.746   0.811   0.555  0.00  0.00     0.077 C 
ATOM      8  C7  UNL d   1      -1.177  -0.187   1.826  0.00  0.00    -0.001 A 
ENDROOT
TORSDOF 0
ENDMDL
