MODEL 1
REMARK minimizedAffinity -3.64775705
REMARK minimizedRMSD -1
REMARK  0 active torsions:
REMARK  status: ('A' for Active; 'I' for Inactive)
ROOT
ATOM      1  C   UNL d   1      -2.912   2.364   3.383  0.00  0.00     0.077 C 
ATOM      2  C1  UNL d   1      -2.102   1.334   2.653  0.00  0.00    -0.074 A 
ATOM      3  C2  UNL d   1      -2.494  -0.008   2.633  0.00  0.00    -0.005 A 
ATOM      4  C3  UNL d   1      -1.735  -0.952   1.942  0.00  0.00     0.006 A 
ATOM      5  C4  UNL d   1      -0.578  -0.565   1.264  0.00  0.00    -0.005 A 
ATOM      6  C5  UNL d   1      -0.171   0.773   1.272  0.00  0.00    -0.074 A 
ATOM      7  C6  UNL d   1       1.064   1.208   0.541  0.00  0.00     0.077 C 
ATOM      8  C7  UNL d   1      -0.943   1.717   1.963  0.00  0.00    -0.001 A 
ENDROOT
TORSDOF 0
ENDMDL
