MODEL 1
REMARK minimizedAffinity -2.48426056
REMARK minimizedRMSD -1
REMARK  0 active torsions:
REMARK  status: ('A' for Active; 'I' for Inactive)
ROOT
ATOM      1  C   UNL d   1      -3.745   1.383   3.355  0.00  0.00     0.077 C 
ATOM      2  C1  UNL d   1      -2.598   0.730   2.643  0.00  0.00    -0.074 A 
ATOM      3  C2  UNL d   1      -2.543  -0.660   2.491  0.00  0.00    -0.005 A 
ATOM      4  C3  UNL d   1      -1.475  -1.252   1.818  0.00  0.00     0.006 A 
ATOM      5  C4  UNL d   1      -0.452  -0.463   1.291  0.00  0.00    -0.005 A 
ATOM      6  C5  UNL d   1      -0.490   0.928   1.431  0.00  0.00    -0.074 A 
ATOM      7  C6  UNL d   1       0.595   1.792   0.862  0.00  0.00     0.077 C 
ATOM      8  C7  UNL d   1      -1.571   1.516   2.103  0.00  0.00    -0.001 A 
ENDROOT
TORSDOF 0
ENDMDL
