MODEL 1
REMARK minimizedAffinity -2.84083104
REMARK minimizedRMSD -1
REMARK  0 active torsions:
REMARK  status: ('A' for Active; 'I' for Inactive)
ROOT
ATOM      1  C   UNL d   1      -3.044   2.331   3.248  0.00  0.00     0.077 C 
ATOM      2  C1  UNL d   1      -1.851   2.286   2.340  0.00  0.00    -0.074 A 
ATOM      3  C2  UNL d   1      -1.255   3.464   1.877  0.00  0.00    -0.005 A 
ATOM      4  C3  UNL d   1      -0.140   3.406   1.041  0.00  0.00     0.006 A 
ATOM      5  C4  UNL d   1       0.390   2.173   0.660  0.00  0.00    -0.005 A 
ATOM      6  C5  UNL d   1      -0.192   0.985   1.114  0.00  0.00    -0.074 A 
ATOM      7  C6  UNL d   1       0.371  -0.349   0.722  0.00  0.00     0.077 C 
ATOM      8  C7  UNL d   1      -1.308   1.051   1.959  0.00  0.00    -0.001 A 
ENDROOT
TORSDOF 0
ENDMDL
