MODEL 1
REMARK minimizedAffinity -5.86872339
REMARK minimizedRMSD -1
REMARK  0 active torsions:
REMARK  status: ('A' for Active; 'I' for Inactive)
ROOT
ATOM      1  C   UNL d   1      -2.600   2.665   3.055  0.00  0.00     0.077 C 
ATOM      2  C1  UNL d   1      -1.604   1.919   2.218  0.00  0.00    -0.074 A 
ATOM      3  C2  UNL d   1      -0.621   2.600   1.493  0.00  0.00    -0.005 A 
ATOM      4  C3  UNL d   1       0.304   1.893   0.726  0.00  0.00     0.006 A 
ATOM      5  C4  UNL d   1       0.256   0.499   0.675  0.00  0.00    -0.005 A 
ATOM      6  C5  UNL d   1      -0.719  -0.199   1.394  0.00  0.00    -0.074 A 
ATOM      7  C6  UNL d   1      -0.779  -1.698   1.359  0.00  0.00     0.077 C 
ATOM      8  C7  UNL d   1      -1.641   0.519   2.168  0.00  0.00    -0.001 A 
ENDROOT
TORSDOF 0
ENDMDL
