MODEL 1
REMARK minimizedAffinity -1.86071181
REMARK minimizedRMSD -1
REMARK  0 active torsions:
REMARK  status: ('A' for Active; 'I' for Inactive)
ROOT
ATOM      1  C   UNL d   1       1.642   2.232   0.942  0.00  0.00     0.077 C 
ATOM      2  C1  UNL d   1       0.410   1.485   1.358  0.00  0.00    -0.074 A 
ATOM      3  C2  UNL d   1       0.269   0.122   1.082  0.00  0.00    -0.005 A 
ATOM      4  C3  UNL d   1      -0.879  -0.562   1.483  0.00  0.00     0.006 A 
ATOM      5  C4  UNL d   1      -1.896   0.111   2.163  0.00  0.00    -0.005 A 
ATOM      6  C5  UNL d   1      -1.772   1.474   2.448  0.00  0.00    -0.074 A 
ATOM      7  C6  UNL d   1      -2.850   2.210   3.187  0.00  0.00     0.077 C 
ATOM      8  C7  UNL d   1      -0.612   2.152   2.048  0.00  0.00    -0.001 A 
ENDROOT
TORSDOF 0
ENDMDL
