MODEL 1
REMARK minimizedAffinity 4.29582262
REMARK minimizedRMSD -1
REMARK  0 active torsions:
REMARK  status: ('A' for Active; 'I' for Inactive)
ROOT
ATOM      1  C   UNL d   1       1.136   2.849   0.196  0.00  0.00     0.077 C 
ATOM      2  C1  UNL d   1      -0.050   2.474   1.033  0.00  0.00    -0.074 A 
ATOM      3  C2  UNL d   1      -0.925   3.451   1.519  0.00  0.00    -0.005 A 
ATOM      4  C3  UNL d   1      -2.029   3.087   2.289  0.00  0.00     0.006 A 
ATOM      5  C4  UNL d   1      -2.270   1.744   2.580  0.00  0.00    -0.005 A 
ATOM      6  C5  UNL d   1      -1.407   0.752   2.102  0.00  0.00    -0.074 A 
ATOM      7  C6  UNL d   1      -1.657  -0.697   2.398  0.00  0.00     0.077 C 
ATOM      8  C7  UNL d   1      -0.303   1.126   1.324  0.00  0.00    -0.001 A 
ENDROOT
TORSDOF 0
ENDMDL
