MODEL 1
REMARK minimizedAffinity 1.22205257
REMARK minimizedRMSD -1
REMARK  0 active torsions:
REMARK  status: ('A' for Active; 'I' for Inactive)
ROOT
ATOM      1  C   UNL d   1       3.179   1.155  -2.078  0.00  0.00     0.077 C 
ATOM      2  C1  UNL d   1       2.551   0.722  -0.787  0.00  0.00    -0.074 A 
ATOM      3  C2  UNL d   1       2.983  -0.434  -0.129  0.00  0.00    -0.005 A 
ATOM      4  C3  UNL d   1       2.396  -0.819   1.076  0.00  0.00     0.006 A 
ATOM      5  C4  UNL d   1       1.372  -0.053   1.635  0.00  0.00    -0.005 A 
ATOM      6  C5  UNL d   1       0.927   1.106   0.993  0.00  0.00    -0.074 A 
ATOM      7  C6  UNL d   1      -0.165   1.946   1.585  0.00  0.00     0.077 C 
ATOM      8  C7  UNL d   1       1.527   1.491  -0.214  0.00  0.00    -0.001 A 
ENDROOT
TORSDOF 0
ENDMDL
