MODEL 1
REMARK minimizedAffinity -3.0968833
REMARK minimizedRMSD -1
REMARK  0 active torsions:
REMARK  status: ('A' for Active; 'I' for Inactive)
ROOT
ATOM      1  C   UNL d   1      -3.810   1.828   3.666  0.00  0.00     0.077 C 
ATOM      2  C1  UNL d   1      -2.535   1.789   2.876  0.00  0.00    -0.074 A 
ATOM      3  C2  UNL d   1      -1.837   2.964   2.581  0.00  0.00    -0.005 A 
ATOM      4  C3  UNL d   1      -0.648   2.911   1.853  0.00  0.00     0.006 A 
ATOM      5  C4  UNL d   1      -0.146   1.685   1.414  0.00  0.00    -0.005 A 
ATOM      6  C5  UNL d   1      -0.831   0.500   1.701  0.00  0.00    -0.074 A 
ATOM      7  C6  UNL d   1      -0.301  -0.827   1.245  0.00  0.00     0.077 C 
ATOM      8  C7  UNL d   1      -2.021   0.560   2.438  0.00  0.00    -0.001 A 
ENDROOT
TORSDOF 0
ENDMDL
