MODEL 1
REMARK minimizedAffinity -1.4192915
REMARK minimizedRMSD -1
REMARK  0 active torsions:
REMARK  status: ('A' for Active; 'I' for Inactive)
ROOT
ATOM      1  C   UNL d   1      -1.607   2.730   1.516  0.00  0.00     0.077 C 
ATOM      2  C1  UNL d   1      -0.303   1.991   1.569  0.00  0.00    -0.074 A 
ATOM      3  C2  UNL d   1       0.658   2.157   0.566  0.00  0.00    -0.005 A 
ATOM      4  C3  UNL d   1       1.871   1.471   0.633  0.00  0.00     0.006 A 
ATOM      5  C4  UNL d   1       2.134   0.613   1.702  0.00  0.00    -0.005 A 
ATOM      6  C5  UNL d   1       1.186   0.435   2.714  0.00  0.00    -0.074 A 
ATOM      7  C6  UNL d   1       1.457  -0.476   3.874  0.00  0.00     0.077 C 
ATOM      8  C7  UNL d   1      -0.027   1.133   2.643  0.00  0.00    -0.001 A 
ENDROOT
TORSDOF 0
ENDMDL
