MODEL 1
REMARK minimizedAffinity -3.70129204
REMARK minimizedRMSD -1
REMARK  1 active torsions:
REMARK  status: ('A' for Active; 'I' for Inactive)
REMARK    1  A    between atoms: N_2  and  C1_3 
ROOT
ATOM      1  C1  UNL d   1       0.004   0.528  -0.426  0.00  0.00     0.143 A 
ATOM      2  C2  UNL d   1       0.633  -0.572  -1.018  0.00  0.00    -0.057 A 
ATOM      3  C3  UNL d   1       0.438  -1.870  -0.531  0.00  0.00     0.033 A 
ATOM      4  C4  UNL d   1      -0.369  -2.088   0.581  0.00  0.00    -0.042 A 
ATOM      5  C5  UNL d   1      -0.985  -1.007   1.201  0.00  0.00     0.033 A 
ATOM      6  C6  UNL d   1      -0.792   0.286   0.705  0.00  0.00    -0.057 A 
ENDROOT
BRANCH   1   7
ATOM      7  N   UNL d   1       0.235   1.853  -0.803  0.00  0.00    -0.732 N 
ATOM      8  C   UNL d   1       1.068   2.716   0.008  0.00  0.00     0.284 C 
ATOM      9  H3  UNL d   1       0.386   1.951  -1.804  0.00  0.00     0.395 HD
ENDBRANCH   1   7
TORSDOF 1
ENDMDL
