MODEL 1
REMARK minimizedAffinity -4.50386715
REMARK minimizedRMSD -1
REMARK  1 active torsions:
REMARK  status: ('A' for Active; 'I' for Inactive)
REMARK    1  A    between atoms: N_2  and  C1_3 
ROOT
ATOM      1  C1  UNL d   1       0.342  -1.216  -0.666  0.00  0.00     0.143 A 
ATOM      2  C2  UNL d   1       0.061  -2.005   0.454  0.00  0.00    -0.057 A 
ATOM      3  C3  UNL d   1      -0.210  -3.373   0.329  0.00  0.00     0.033 A 
ATOM      4  C4  UNL d   1      -0.233  -3.971  -0.927  0.00  0.00    -0.042 A 
ATOM      5  C5  UNL d   1       0.018  -3.201  -2.056  0.00  0.00     0.033 A 
ATOM      6  C6  UNL d   1       0.295  -1.837  -1.924  0.00  0.00    -0.057 A 
ENDROOT
BRANCH   1   7
ATOM      7  N   UNL d   1       0.522   0.169  -0.616  0.00  0.00    -0.732 N 
ATOM      8  C   UNL d   1      -0.359   0.999   0.178  0.00  0.00     0.284 C 
ATOM      9  H3  UNL d   1       1.503   0.431  -0.560  0.00  0.00     0.395 HD
ENDBRANCH   1   7
TORSDOF 1
ENDMDL
