MODEL 1
REMARK minimizedAffinity -3.34354925
REMARK minimizedRMSD -1
REMARK  1 active torsions:
REMARK  status: ('A' for Active; 'I' for Inactive)
REMARK    1  A    between atoms: N_2  and  C1_3 
ROOT
ATOM      1  C1  UNL d   1       0.167   1.473  -0.476  0.00  0.00     0.143 A 
ATOM      2  C2  UNL d   1      -0.201   1.107  -1.775  0.00  0.00    -0.057 A 
ATOM      3  C3  UNL d   1      -0.245  -0.237  -2.166  0.00  0.00     0.033 A 
ATOM      4  C4  UNL d   1       0.107  -1.240  -1.270  0.00  0.00    -0.042 A 
ATOM      5  C5  UNL d   1       0.500  -0.899   0.019  0.00  0.00     0.033 A 
ATOM      6  C6  UNL d   1       0.535   0.444   0.406  0.00  0.00    -0.057 A 
ENDROOT
BRANCH   1   7
ATOM      7  N   UNL d   1       0.325   2.795  -0.055  0.00  0.00    -0.732 N 
ATOM      8  C   UNL d   1       1.620   3.286   0.362  0.00  0.00     0.284 C 
ATOM      9  H3  UNL d   1      -0.203   3.450  -0.627  0.00  0.00     0.395 HD
ENDBRANCH   1   7
TORSDOF 1
ENDMDL
