MODEL 1
REMARK minimizedAffinity -4.24083281
REMARK minimizedRMSD -1
REMARK  1 active torsions:
REMARK  status: ('A' for Active; 'I' for Inactive)
REMARK    1  A    between atoms: N_2  and  C1_3 
ROOT
ATOM      1  C1  UNL d   1       0.190   0.396  -0.180  0.00  0.00     0.143 A 
ATOM      2  C2  UNL d   1      -0.579   0.131   0.958  0.00  0.00    -0.057 A 
ATOM      3  C3  UNL d   1      -0.738  -1.174   1.439  0.00  0.00     0.033 A 
ATOM      4  C4  UNL d   1      -0.153  -2.244   0.771  0.00  0.00    -0.042 A 
ATOM      5  C5  UNL d   1       0.595  -2.007  -0.377  0.00  0.00     0.033 A 
ATOM      6  C6  UNL d   1       0.756  -0.701  -0.849  0.00  0.00    -0.057 A 
ENDROOT
BRANCH   1   7
ATOM      7  N   UNL d   1       0.304   1.660  -0.765  0.00  0.00    -0.732 N 
ATOM      8  C   UNL d   1       0.473   2.839   0.057  0.00  0.00     0.284 C 
ATOM      9  H3  UNL d   1       0.883   1.650  -1.602  0.00  0.00     0.395 HD
ENDBRANCH   1   7
TORSDOF 1
ENDMDL
