MODEL 1
REMARK minimizedAffinity -3.94463754
REMARK minimizedRMSD -1
REMARK  1 active torsions:
REMARK  status: ('A' for Active; 'I' for Inactive)
REMARK    1  A    between atoms: N_2  and  C1_3 
ROOT
ATOM      1  C1  UNL d   1      -0.268  -1.114  -0.221  0.00  0.00     0.143 A 
ATOM      2  C2  UNL d   1       0.459  -1.375  -1.388  0.00  0.00    -0.057 A 
ATOM      3  C3  UNL d   1       0.704  -2.686  -1.812  0.00  0.00     0.033 A 
ATOM      4  C4  UNL d   1       0.249  -3.764  -1.059  0.00  0.00    -0.042 A 
ATOM      5  C5  UNL d   1      -0.454  -3.528   0.117  0.00  0.00     0.033 A 
ATOM      6  C6  UNL d   1      -0.701  -2.216   0.532  0.00  0.00    -0.057 A 
ENDROOT
BRANCH   1   7
ATOM      7  N   UNL d   1      -0.460   0.166   0.306  0.00  0.00    -0.732 N 
ATOM      8  C   UNL d   1       0.342   1.280  -0.153  0.00  0.00     0.284 C 
ATOM      9  H3  UNL d   1      -1.444   0.388   0.437  0.00  0.00     0.395 HD
ENDBRANCH   1   7
TORSDOF 1
ENDMDL
