MODEL 1
REMARK minimizedAffinity -4.40702057
REMARK minimizedRMSD -1
REMARK  1 active torsions:
REMARK  status: ('A' for Active; 'I' for Inactive)
REMARK    1  A    between atoms: N_2  and  C1_3 
ROOT
ATOM      1  C1  UNL d   1       0.726   1.447   0.401  0.00  0.00     0.143 A 
ATOM      2  C2  UNL d   1       0.388   2.701  -0.120  0.00  0.00    -0.057 A 
ATOM      3  C3  UNL d   1       1.034   3.865   0.312  0.00  0.00     0.033 A 
ATOM      4  C4  UNL d   1       2.013   3.799   1.298  0.00  0.00    -0.042 A 
ATOM      5  C5  UNL d   1       2.348   2.567   1.848  0.00  0.00     0.033 A 
ATOM      6  C6  UNL d   1       1.704   1.407   1.407  0.00  0.00    -0.057 A 
ENDROOT
BRANCH   1   7
ATOM      7  N   UNL d   1       0.052   0.265   0.083  0.00  0.00    -0.732 N 
ATOM      8  C   UNL d   1       0.542  -1.012   0.555  0.00  0.00     0.284 C 
ATOM      9  H3  UNL d   1      -0.958   0.368   0.136  0.00  0.00     0.395 HD
ENDBRANCH   1   7
TORSDOF 1
ENDMDL
