MODEL 1
REMARK minimizedAffinity -2.1802578
REMARK minimizedRMSD -1
REMARK  1 active torsions:
REMARK  status: ('A' for Active; 'I' for Inactive)
REMARK    1  A    between atoms: N_2  and  C1_3 
ROOT
ATOM      1  C1  UNL d   1      -0.520   0.890  -0.281  0.00  0.00     0.143 A 
ATOM      2  C2  UNL d   1      -0.123   0.874  -1.623  0.00  0.00    -0.057 A 
ATOM      3  C3  UNL d   1       0.289  -0.310  -2.245  0.00  0.00     0.033 A 
ATOM      4  C4  UNL d   1       0.339  -1.500  -1.525  0.00  0.00    -0.042 A 
ATOM      5  C5  UNL d   1      -0.027  -1.504  -0.184  0.00  0.00     0.033 A 
ATOM      6  C6  UNL d   1      -0.444  -0.318   0.430  0.00  0.00    -0.057 A 
ENDROOT
BRANCH   1   7
ATOM      7  N   UNL d   1      -0.846   2.053   0.421  0.00  0.00    -0.732 N 
ATOM      8  C   UNL d   1       0.146   3.084   0.639  0.00  0.00     0.284 C 
ATOM      9  H3  UNL d   1      -1.768   2.407   0.178  0.00  0.00     0.395 HD
ENDBRANCH   1   7
TORSDOF 1
ENDMDL
