MODEL 1
REMARK minimizedAffinity -3.09916139
REMARK minimizedRMSD -1
REMARK  1 active torsions:
REMARK  status: ('A' for Active; 'I' for Inactive)
REMARK    1  A    between atoms: N_2  and  C1_3 
ROOT
ATOM      1  C1  UNL d   1       0.055  -1.335  -0.233  0.00  0.00     0.143 A 
ATOM      2  C2  UNL d   1       0.414  -0.928  -1.522  0.00  0.00    -0.057 A 
ATOM      3  C3  UNL d   1       0.378   0.421  -1.895  0.00  0.00     0.033 A 
ATOM      4  C4  UNL d   1      -0.047   1.387  -0.990  0.00  0.00    -0.042 A 
ATOM      5  C5  UNL d   1      -0.433   1.004   0.289  0.00  0.00     0.033 A 
ATOM      6  C6  UNL d   1      -0.388  -0.344   0.658  0.00  0.00    -0.057 A 
ENDROOT
BRANCH   1   7
ATOM      7  N   UNL d   1      -0.024  -2.671   0.168  0.00  0.00    -0.732 N 
ATOM      8  C   UNL d   1      -1.309  -3.301   0.383  0.00  0.00     0.284 C 
ATOM      9  H3  UNL d   1       0.654  -3.260  -0.310  0.00  0.00     0.395 HD
ENDBRANCH   1   7
TORSDOF 1
ENDMDL
