MODEL 1
REMARK minimizedAffinity -3.30859923
REMARK minimizedRMSD -1
REMARK  1 active torsions:
REMARK  status: ('A' for Active; 'I' for Inactive)
REMARK    1  A    between atoms: N_2  and  C1_3 
ROOT
ATOM      1  C1  UNL d   1      -0.102   0.185  -0.405  0.00  0.00     0.143 A 
ATOM      2  C2  UNL d   1      -0.938  -0.376   0.567  0.00  0.00    -0.057 A 
ATOM      3  C3  UNL d   1      -0.986  -1.761   0.772  0.00  0.00     0.033 A 
ATOM      4  C4  UNL d   1      -0.218  -2.613  -0.014  0.00  0.00    -0.042 A 
ATOM      5  C5  UNL d   1       0.601  -2.079  -1.003  0.00  0.00     0.033 A 
ATOM      6  C6  UNL d   1       0.649  -0.696  -1.198  0.00  0.00    -0.057 A 
ENDROOT
BRANCH   1   7
ATOM      7  N   UNL d   1      -0.084   1.545  -0.723  0.00  0.00    -0.732 N 
ATOM      8  C   UNL d   1       0.676   2.479   0.080  0.00  0.00     0.284 C 
ATOM      9  H3  UNL d   1      -0.018   1.708  -1.725  0.00  0.00     0.395 HD
ENDBRANCH   1   7
TORSDOF 1
ENDMDL
