MODEL 1
REMARK minimizedAffinity -2.94319963
REMARK minimizedRMSD -1
REMARK  1 active torsions:
REMARK  status: ('A' for Active; 'I' for Inactive)
REMARK    1  A    between atoms: N_2  and  C1_3 
ROOT
ATOM      1  C1  UNL d   1       0.371  -1.620  -0.731  0.00  0.00     0.143 A 
ATOM      2  C2  UNL d   1       0.130  -0.243  -0.668  0.00  0.00    -0.057 A 
ATOM      3  C3  UNL d   1      -0.674   0.307   0.338  0.00  0.00     0.033 A 
ATOM      4  C4  UNL d   1      -1.276  -0.516   1.284  0.00  0.00    -0.042 A 
ATOM      5  C5  UNL d   1      -1.071  -1.890   1.225  0.00  0.00     0.033 A 
ATOM      6  C6  UNL d   1      -0.262  -2.433   0.222  0.00  0.00    -0.057 A 
ENDROOT
BRANCH   1   7
ATOM      7  N   UNL d   1       1.080  -2.238  -1.764  0.00  0.00    -0.732 N 
ATOM      8  C   UNL d   1       0.686  -2.051  -3.144  0.00  0.00     0.284 C 
ATOM      9  H3  UNL d   1       2.086  -2.216  -1.612  0.00  0.00     0.395 HD
ENDBRANCH   1   7
TORSDOF 1
ENDMDL
