MODEL 1
REMARK minimizedAffinity 18.9660587
REMARK minimizedRMSD -1
REMARK  0 active torsions:
REMARK  status: ('A' for Active; 'I' for Inactive)
ROOT
ATOM      1  C   UNL d   1      -3.052   2.578  -4.394  0.00  0.00     0.124 A 
ATOM      2  C1  UNL d   1      -1.806   1.973  -4.478  0.00  0.00     0.062 A 
ATOM      3  C2  UNL d   1      -0.685   2.724  -4.821  0.00  0.00     0.162 A 
ATOM      4  C3  UNL d   1      -0.805   4.089  -5.081  0.00  0.00    -0.034 A 
ATOM      5  C4  UNL d   1      -2.062   4.690  -4.996  0.00  0.00     0.162 A 
ATOM      6  C5  UNL d   1      -3.179   3.935  -4.653  0.00  0.00     0.062 A 
ATOM      7  F   UNL d   1      -4.383   4.521  -4.572  0.00  0.00    -0.097 F 
ATOM      8  F1  UNL d   1      -2.214   6.000  -5.240  0.00  0.00    -0.096 F 
ATOM      9  I   UNL d   1       0.868   5.215  -5.594  0.00  0.00    -0.060 I 
ATOM     10  F2  UNL d   1       0.507   2.113  -4.894  0.00  0.00    -0.096 F 
ATOM     11  F3  UNL d   1      -1.680   0.661  -4.229  0.00  0.00    -0.097 F 
ATOM     12  F4  UNL d   1      -4.129   1.852  -4.065  0.00  0.00    -0.092 F 
ENDROOT
TORSDOF 0
ENDMDL
