MODEL 1
REMARK minimizedAffinity 19.1488533
REMARK minimizedRMSD -1
REMARK  0 active torsions:
REMARK  status: ('A' for Active; 'I' for Inactive)
ROOT
ATOM      1  C   UNL d   1       1.411  -1.320   1.117  0.00  0.00     0.124 A 
ATOM      2  C1  UNL d   1       0.401  -2.268   1.041  0.00  0.00     0.062 A 
ATOM      3  C2  UNL d   1       0.711  -3.605   0.808  0.00  0.00     0.162 A 
ATOM      4  C3  UNL d   1       2.039  -4.002   0.651  0.00  0.00    -0.034 A 
ATOM      5  C4  UNL d   1       3.050  -3.042   0.728  0.00  0.00     0.162 A 
ATOM      6  C5  UNL d   1       2.735  -1.707   0.961  0.00  0.00     0.062 A 
ATOM      7  F   UNL d   1       3.712  -0.792   1.034  0.00  0.00    -0.097 F 
ATOM      8  F1  UNL d   1       4.338  -3.389   0.582  0.00  0.00    -0.096 F 
ATOM      9  I   UNL d   1       2.508  -5.999   0.303  0.00  0.00    -0.060 I 
ATOM     10  F2  UNL d   1      -0.285  -4.500   0.739  0.00  0.00    -0.096 F 
ATOM     11  F3  UNL d   1      -0.879  -1.896   1.191  0.00  0.00    -0.097 F 
ATOM     12  F4  UNL d   1       1.110  -0.034   1.340  0.00  0.00    -0.092 F 
ENDROOT
TORSDOF 0
ENDMDL
