MODEL 1
REMARK minimizedAffinity 9.63749218
REMARK minimizedRMSD -1
REMARK  0 active torsions:
REMARK  status: ('A' for Active; 'I' for Inactive)
ROOT
ATOM      1  C   UNL d   1      -3.727  -1.776  -3.491  0.00  0.00     0.124 A 
ATOM      2  C1  UNL d   1      -3.156  -1.294  -2.321  0.00  0.00     0.062 A 
ATOM      3  C2  UNL d   1      -3.541  -0.057  -1.813  0.00  0.00     0.162 A 
ATOM      4  C3  UNL d   1      -4.504   0.707  -2.473  0.00  0.00    -0.034 A 
ATOM      5  C4  UNL d   1      -5.072   0.216  -3.650  0.00  0.00     0.162 A 
ATOM      6  C5  UNL d   1      -4.684  -1.021  -4.154  0.00  0.00     0.062 A 
ATOM      7  F   UNL d   1      -5.236  -1.485  -5.285  0.00  0.00    -0.097 F 
ATOM      8  F1  UNL d   1      -6.000   0.924  -4.311  0.00  0.00    -0.096 F 
ATOM      9  I   UNL d   1      -5.082   2.557  -1.716  0.00  0.00    -0.060 I 
ATOM     10  F2  UNL d   1      -2.974   0.384  -0.680  0.00  0.00    -0.096 F 
ATOM     11  F3  UNL d   1      -2.231  -2.021  -1.679  0.00  0.00    -0.097 F 
ATOM     12  F4  UNL d   1      -3.353  -2.966  -3.979  0.00  0.00    -0.092 F 
ENDROOT
TORSDOF 0
ENDMDL
