MODEL 1
REMARK minimizedAffinity 16.7988586
REMARK minimizedRMSD -1
REMARK  0 active torsions:
REMARK  status: ('A' for Active; 'I' for Inactive)
ROOT
ATOM      1  C   UNL d   1       1.652  -3.566   0.597  0.00  0.00     0.124 A 
ATOM      2  C1  UNL d   1       1.899  -2.238   0.917  0.00  0.00     0.062 A 
ATOM      3  C2  UNL d   1       0.998  -1.529   1.706  0.00  0.00     0.162 A 
ATOM      4  C3  UNL d   1      -0.159  -2.146   2.182  0.00  0.00    -0.034 A 
ATOM      5  C4  UNL d   1      -0.401  -3.482   1.855  0.00  0.00     0.162 A 
ATOM      6  C5  UNL d   1       0.503  -4.187   1.066  0.00  0.00     0.062 A 
ATOM      7  F   UNL d   1       0.262  -5.470   0.759  0.00  0.00    -0.097 F 
ATOM      8  F1  UNL d   1      -1.503  -4.106   2.296  0.00  0.00    -0.096 F 
ATOM      9  I   UNL d   1      -1.509  -1.089   3.361  0.00  0.00    -0.060 I 
ATOM     10  F2  UNL d   1       1.262  -0.247   1.999  0.00  0.00    -0.096 F 
ATOM     11  F3  UNL d   1       3.008  -1.636   0.464  0.00  0.00    -0.097 F 
ATOM     12  F4  UNL d   1       2.520  -4.246  -0.163  0.00  0.00    -0.092 F 
ENDROOT
TORSDOF 0
ENDMDL
