MODEL 1
REMARK minimizedAffinity 28.070116
REMARK minimizedRMSD -1
REMARK  0 active torsions:
REMARK  status: ('A' for Active; 'I' for Inactive)
ROOT
ATOM      1  C   UNL d   1      -0.453  -2.056   0.823  0.00  0.00     0.124 A 
ATOM      2  C1  UNL d   1      -0.711  -3.398   0.578  0.00  0.00     0.062 A 
ATOM      3  C2  UNL d   1       0.294  -4.226   0.087  0.00  0.00     0.162 A 
ATOM      4  C3  UNL d   1       1.568  -3.715  -0.161  0.00  0.00    -0.034 A 
ATOM      5  C4  UNL d   1       1.820  -2.364   0.087  0.00  0.00     0.162 A 
ATOM      6  C5  UNL d   1       0.812  -1.541   0.577  0.00  0.00     0.062 A 
ATOM      7  F   UNL d   1       1.063  -0.245   0.813  0.00  0.00    -0.097 F 
ATOM      8  F1  UNL d   1       3.033  -1.840  -0.140  0.00  0.00    -0.096 F 
ATOM      9  I   UNL d   1       3.074  -4.950  -0.894  0.00  0.00    -0.060 I 
ATOM     10  F2  UNL d   1       0.016  -5.518  -0.140  0.00  0.00    -0.096 F 
ATOM     11  F3  UNL d   1      -1.933  -3.898   0.813  0.00  0.00    -0.097 F 
ATOM     12  F4  UNL d   1      -1.423  -1.261   1.294  0.00  0.00    -0.092 F 
ENDROOT
TORSDOF 0
ENDMDL
