MODEL 1
REMARK minimizedAffinity 16.4282627
REMARK minimizedRMSD -1
REMARK  0 active torsions:
REMARK  status: ('A' for Active; 'I' for Inactive)
ROOT
ATOM      1  C   UNL d   1       1.803  -4.326   0.379  0.00  0.00     0.124 A 
ATOM      2  C1  UNL d   1       2.226  -3.050   0.725  0.00  0.00     0.062 A 
ATOM      3  C2  UNL d   1       1.397  -2.214   1.467  0.00  0.00     0.162 A 
ATOM      4  C3  UNL d   1       0.135  -2.652   1.870  0.00  0.00    -0.034 A 
ATOM      5  C4  UNL d   1      -0.284  -3.936   1.518  0.00  0.00     0.162 A 
ATOM      6  C5  UNL d   1       0.549  -4.768   0.776  0.00  0.00     0.062 A 
ATOM      7  F   UNL d   1       0.138  -6.000   0.443  0.00  0.00    -0.097 F 
ATOM      8  F1  UNL d   1      -1.491  -4.389   1.888  0.00  0.00    -0.096 F 
ATOM      9  I   UNL d   1      -1.108  -1.405   2.980  0.00  0.00    -0.060 I 
ATOM     10  F2  UNL d   1       1.832  -0.986   1.787  0.00  0.00    -0.096 F 
ATOM     11  F3  UNL d   1       3.438  -2.621   0.343  0.00  0.00    -0.097 F 
ATOM     12  F4  UNL d   1       2.603  -5.128  -0.336  0.00  0.00    -0.092 F 
ENDROOT
TORSDOF 0
ENDMDL
