MODEL 1
REMARK minimizedAffinity 12.5683393
REMARK minimizedRMSD -1
REMARK  0 active torsions:
REMARK  status: ('A' for Active; 'I' for Inactive)
ROOT
ATOM      1  C   UNL d   1       0.062  -3.596   1.352  0.00  0.00     0.124 A 
ATOM      2  C1  UNL d   1       0.171  -2.278   1.772  0.00  0.00     0.062 A 
ATOM      3  C2  UNL d   1       1.207  -1.477   1.299  0.00  0.00     0.162 A 
ATOM      4  C3  UNL d   1       2.141  -1.992   0.400  0.00  0.00    -0.034 A 
ATOM      5  C4  UNL d   1       2.025  -3.319  -0.016  0.00  0.00     0.162 A 
ATOM      6  C5  UNL d   1       0.988  -4.116   0.459  0.00  0.00     0.062 A 
ATOM      7  F   UNL d   1       0.884  -5.389   0.053  0.00  0.00    -0.097 F 
ATOM      8  F1  UNL d   1       2.906  -3.846  -0.879  0.00  0.00    -0.096 F 
ATOM      9  I   UNL d   1       3.691  -0.797  -0.308  0.00  0.00    -0.060 I 
ATOM     10  F2  UNL d   1       1.288  -0.206   1.721  0.00  0.00    -0.096 F 
ATOM     11  F3  UNL d   1      -0.722  -1.774   2.635  0.00  0.00    -0.097 F 
ATOM     12  F4  UNL d   1      -0.935  -4.365   1.809  0.00  0.00    -0.092 F 
ENDROOT
TORSDOF 0
ENDMDL
