MODEL 1
REMARK minimizedAffinity 18.2052116
REMARK minimizedRMSD -1
REMARK  0 active torsions:
REMARK  status: ('A' for Active; 'I' for Inactive)
ROOT
ATOM      1  C   UNL d   1       3.008  -2.820   0.528  0.00  0.00     0.124 A 
ATOM      2  C1  UNL d   1       2.565  -1.539   0.827  0.00  0.00     0.062 A 
ATOM      3  C2  UNL d   1       1.243  -1.326   1.209  0.00  0.00     0.162 A 
ATOM      4  C3  UNL d   1       0.354  -2.397   1.294  0.00  0.00    -0.034 A 
ATOM      5  C4  UNL d   1       0.807  -3.683   0.991  0.00  0.00     0.162 A 
ATOM      6  C5  UNL d   1       2.128  -3.890   0.610  0.00  0.00     0.062 A 
ATOM      7  F   UNL d   1       2.554  -5.129   0.321  0.00  0.00    -0.097 F 
ATOM      8  F1  UNL d   1      -0.022  -4.735   1.062  0.00  0.00    -0.096 F 
ATOM      9  I   UNL d   1      -1.623  -2.083   1.864  0.00  0.00    -0.060 I 
ATOM     10  F2  UNL d   1       0.843  -0.077   1.492  0.00  0.00    -0.096 F 
ATOM     11  F3  UNL d   1       3.412  -0.503   0.748  0.00  0.00    -0.097 F 
ATOM     12  F4  UNL d   1       4.279  -3.021   0.160  0.00  0.00    -0.092 F 
ENDROOT
TORSDOF 0
ENDMDL
