MODEL 1
REMARK minimizedAffinity 17.092247
REMARK minimizedRMSD -1
REMARK  0 active torsions:
REMARK  status: ('A' for Active; 'I' for Inactive)
ROOT
ATOM      1  C   UNL d   1       0.533  -2.497   0.983  0.00  0.00     0.124 A 
ATOM      2  C1  UNL d   1       0.043  -3.775   0.755  0.00  0.00     0.062 A 
ATOM      3  C2  UNL d   1       0.885  -4.774   0.276  0.00  0.00     0.162 A 
ATOM      4  C3  UNL d   1       2.229  -4.498   0.021  0.00  0.00    -0.034 A 
ATOM      5  C4  UNL d   1       2.715  -3.210   0.251  0.00  0.00     0.162 A 
ATOM      6  C5  UNL d   1       1.868  -2.215   0.730  0.00  0.00     0.062 A 
ATOM      7  F   UNL d   1       2.344  -0.981   0.949  0.00  0.00    -0.097 F 
ATOM      8  F1  UNL d   1       4.001  -2.910   0.016  0.00  0.00    -0.096 F 
ATOM      9  I   UNL d   1       3.493  -5.988  -0.697  0.00  0.00    -0.060 I 
ATOM     10  F2  UNL d   1       0.384  -6.000   0.065  0.00  0.00    -0.096 F 
ATOM     11  F3  UNL d   1      -1.247  -4.050   0.998  0.00  0.00    -0.097 F 
ATOM     12  F4  UNL d   1      -0.280  -1.538   1.443  0.00  0.00    -0.092 F 
ENDROOT
TORSDOF 0
ENDMDL
