MODEL 1
REMARK minimizedAffinity 16.7612572
REMARK minimizedRMSD -1
REMARK  0 active torsions:
REMARK  status: ('A' for Active; 'I' for Inactive)
ROOT
ATOM      1  C   UNL d   1       1.901  -4.262   0.133  0.00  0.00     0.124 A 
ATOM      2  C1  UNL d   1       0.670  -4.732   0.570  0.00  0.00     0.062 A 
ATOM      3  C2  UNL d   1      -0.185  -3.898   1.284  0.00  0.00     0.162 A 
ATOM      4  C3  UNL d   1       0.188  -2.584   1.567  0.00  0.00    -0.034 A 
ATOM      5  C4  UNL d   1       1.428  -2.118   1.126  0.00  0.00     0.162 A 
ATOM      6  C5  UNL d   1       2.279  -2.956   0.412  0.00  0.00     0.062 A 
ATOM      7  F   UNL d   1       3.468  -2.500  -0.009  0.00  0.00    -0.097 F 
ATOM      8  F1  UNL d   1       1.818  -0.860   1.380  0.00  0.00    -0.096 F 
ATOM      9  I   UNL d   1      -1.087  -1.333   2.635  0.00  0.00    -0.060 I 
ATOM     10  F2  UNL d   1      -1.368  -4.379   1.693  0.00  0.00    -0.096 F 
ATOM     11  F3  UNL d   1       0.303  -5.994   0.303  0.00  0.00    -0.097 F 
ATOM     12  F4  UNL d   1       2.721  -5.067  -0.553  0.00  0.00    -0.092 F 
ENDROOT
TORSDOF 0
ENDMDL
