MODEL 1
REMARK minimizedAffinity 0.309529394
REMARK minimizedRMSD -1
REMARK  1 active torsions:
REMARK  status: ('A' for Active; 'I' for Inactive)
REMARK    1  A    between atoms: C1_2  and  C2_3 
ROOT
ATOM      1  C2  UNL d   1       4.891   2.122  -1.878  0.00  0.00    -0.073 A 
ATOM      2  C3  UNL d   1       5.420   2.183  -0.584  0.00  0.00    -0.002 A 
ATOM      3  C4  UNL d   1       4.802   1.498   0.463  0.00  0.00     0.004 A 
ATOM      4  C5  UNL d   1       3.654   0.742   0.226  0.00  0.00    -0.004 A 
ATOM      5  C6  UNL d   1       3.117   0.660  -1.062  0.00  0.00    -0.075 A 
ATOM      6  C7  UNL d   1       1.881  -0.148  -1.333  0.00  0.00     0.076 C 
ATOM      7  C8  UNL d   1       3.742   1.352  -2.108  0.00  0.00     0.001 A 
ENDROOT
BRANCH   1   8
ATOM      8  C1  UNL d   1       5.559   2.855  -3.013  0.00  0.00     0.053 C 
ATOM      9  C   UNL d   1       5.228   4.339  -3.007  0.00  0.00     0.018 C 
ENDBRANCH   1   8
TORSDOF 1
ENDMDL
