MODEL 1
REMARK minimizedAffinity 7.30508566
REMARK minimizedRMSD -1
REMARK  1 active torsions:
REMARK  status: ('A' for Active; 'I' for Inactive)
REMARK    1  A    between atoms: C1_2  and  C2_3 
ROOT
ATOM      1  C2  UNL d   1       3.525   0.836  -1.199  0.00  0.00    -0.073 A 
ATOM      2  C3  UNL d   1       4.131   0.763   0.060  0.00  0.00    -0.002 A 
ATOM      3  C4  UNL d   1       5.339   1.418   0.301  0.00  0.00     0.004 A 
ATOM      4  C5  UNL d   1       5.949   2.159  -0.711  0.00  0.00    -0.004 A 
ATOM      5  C6  UNL d   1       5.353   2.255  -1.973  0.00  0.00    -0.075 A 
ATOM      6  C7  UNL d   1       5.998   3.046  -3.073  0.00  0.00     0.076 C 
ATOM      7  C8  UNL d   1       4.141   1.591  -2.207  0.00  0.00     0.001 A 
ENDROOT
BRANCH   1   8
ATOM      8  C1  UNL d   1       2.217   0.135  -1.461  0.00  0.00     0.053 C 
ATOM      9  C   UNL d   1       1.061   0.791  -0.723  0.00  0.00     0.018 C 
ENDBRANCH   1   8
TORSDOF 1
ENDMDL
