MODEL 1
REMARK minimizedAffinity 8.86634541
REMARK minimizedRMSD -1
REMARK  1 active torsions:
REMARK  status: ('A' for Active; 'I' for Inactive)
REMARK    1  A    between atoms: C1_2  and  C2_3 
ROOT
ATOM      1  C2  UNL d   1       5.105   1.795  -2.069  0.00  0.00    -0.073 A 
ATOM      2  C3  UNL d   1       5.580   2.112  -0.792  0.00  0.00    -0.002 A 
ATOM      3  C4  UNL d   1       4.864   1.725   0.342  0.00  0.00     0.004 A 
ATOM      4  C5  UNL d   1       3.672   1.014   0.211  0.00  0.00    -0.004 A 
ATOM      5  C6  UNL d   1       3.187   0.678  -1.057  0.00  0.00    -0.075 A 
ATOM      6  C7  UNL d   1       1.904  -0.085  -1.215  0.00  0.00     0.076 C 
ATOM      7  C8  UNL d   1       3.909   1.072  -2.191  0.00  0.00     0.001 A 
ENDROOT
BRANCH   1   8
ATOM      8  C1  UNL d   1       5.877   2.205  -3.296  0.00  0.00     0.053 C 
ATOM      9  C   UNL d   1       5.998   3.716  -3.416  0.00  0.00     0.018 C 
ENDBRANCH   1   8
TORSDOF 1
ENDMDL
