MODEL 1
REMARK minimizedAffinity 12.1300163
REMARK minimizedRMSD -1
REMARK  1 active torsions:
REMARK  status: ('A' for Active; 'I' for Inactive)
REMARK    1  A    between atoms: C1_2  and  C2_3 
ROOT
ATOM      1  C2  UNL d   1      -0.558   3.506   0.499  0.00  0.00    -0.073 A 
ATOM      2  C3  UNL d   1      -0.608   4.904   0.458  0.00  0.00    -0.002 A 
ATOM      3  C4  UNL d   1      -0.368   5.652   1.612  0.00  0.00     0.004 A 
ATOM      4  C5  UNL d   1      -0.068   5.011   2.814  0.00  0.00    -0.004 A 
ATOM      5  C6  UNL d   1      -0.001   3.616   2.872  0.00  0.00    -0.075 A 
ATOM      6  C7  UNL d   1       0.318   2.911   4.158  0.00  0.00     0.076 C 
ATOM      7  C8  UNL d   1      -0.246   2.871   1.710  0.00  0.00     0.001 A 
ENDROOT
BRANCH   1   8
ATOM      8  C1  UNL d   1      -0.810   2.694  -0.745  0.00  0.00     0.053 C 
ATOM      9  C   UNL d   1      -1.512   1.381  -0.436  0.00  0.00     0.018 C 
ENDBRANCH   1   8
TORSDOF 1
ENDMDL
