MODEL 1
REMARK minimizedAffinity 19.197649
REMARK minimizedRMSD -1
REMARK  1 active torsions:
REMARK  status: ('A' for Active; 'I' for Inactive)
REMARK    1  A    between atoms: C1_2  and  C2_3 
ROOT
ATOM      1  C2  UNL d   1      -5.249  -0.713  -5.256  0.00  0.00    -0.073 A 
ATOM      2  C3  UNL d   1      -5.528  -0.759  -3.886  0.00  0.00    -0.002 A 
ATOM      3  C4  UNL d   1      -5.898   0.400  -3.202  0.00  0.00     0.004 A 
ATOM      4  C5  UNL d   1      -5.999   1.614  -3.882  0.00  0.00    -0.004 A 
ATOM      5  C6  UNL d   1      -5.736   1.678  -5.254  0.00  0.00    -0.075 A 
ATOM      6  C7  UNL d   1      -5.838   2.976  -6.000  0.00  0.00     0.076 C 
ATOM      7  C8  UNL d   1      -5.362   0.510  -5.933  0.00  0.00     0.001 A 
ENDROOT
BRANCH   1   8
ATOM      8  C1  UNL d   1      -4.856  -1.963  -6.000  0.00  0.00     0.053 C 
ATOM      9  C   UNL d   1      -3.422  -2.374  -5.705  0.00  0.00     0.018 C 
ENDBRANCH   1   8
TORSDOF 1
ENDMDL
