MODEL 1
REMARK minimizedAffinity -3.20084095
REMARK minimizedRMSD -1
REMARK  0 active torsions:
REMARK  status: ('A' for Active; 'I' for Inactive)
ROOT
ATOM      1  C   UNL d   1       1.092  -1.423  -0.662  0.00  0.00     0.023 A 
ATOM      2  C1  UNL d   1       1.838  -1.009   0.441  0.00  0.00     0.003 A 
ATOM      3  C2  UNL d   1       1.277  -0.141   1.380  0.00  0.00     0.048 A 
ATOM      4  C3  UNL d   1      -0.032   0.309   1.210  0.00  0.00     0.023 A 
ATOM      5  C4  UNL d   1      -0.783  -0.103   0.108  0.00  0.00     0.048 A 
ATOM      6  C5  UNL d   1      -0.217  -0.970  -0.829  0.00  0.00     0.003 A 
ATOM      7  I   UNL d   1      -0.869   1.601   2.606  0.00  0.00    -0.146 I 
ENDROOT
TORSDOF 0
ENDMDL
