MODEL 1
REMARK minimizedAffinity 8.03931999
REMARK minimizedRMSD -1
REMARK  0 active torsions:
REMARK  status: ('A' for Active; 'I' for Inactive)
ROOT
ATOM      1  C   UNL d   1       1.948   0.743  -5.132  0.00  0.00     0.023 A 
ATOM      2  C1  UNL d   1       0.758   0.194  -4.654  0.00  0.00     0.003 A 
ATOM      3  C2  UNL d   1       0.651  -0.182  -3.313  0.00  0.00     0.048 A 
ATOM      4  C3  UNL d   1       1.737  -0.006  -2.457  0.00  0.00     0.023 A 
ATOM      5  C4  UNL d   1       2.929   0.544  -2.931  0.00  0.00     0.048 A 
ATOM      6  C5  UNL d   1       3.032   0.918  -4.272  0.00  0.00     0.003 A 
ATOM      7  I   UNL d   1       1.579  -0.565  -0.461  0.00  0.00    -0.146 I 
ENDROOT
TORSDOF 0
ENDMDL
