MODEL 1
REMARK minimizedAffinity 3.35796356
REMARK minimizedRMSD -1
REMARK  0 active torsions:
REMARK  status: ('A' for Active; 'I' for Inactive)
ROOT
ATOM      1  C   UNL d   1       1.877   0.054   1.751  0.00  0.00     0.023 A 
ATOM      2  C1  UNL d   1       2.131   1.334   1.259  0.00  0.00     0.003 A 
ATOM      3  C2  UNL d   1       2.108   1.572  -0.117  0.00  0.00     0.048 A 
ATOM      4  C3  UNL d   1       1.830   0.525  -0.995  0.00  0.00     0.023 A 
ATOM      5  C4  UNL d   1       1.575  -0.758  -0.507  0.00  0.00     0.048 A 
ATOM      6  C5  UNL d   1       1.600  -0.991   0.870  0.00  0.00     0.003 A 
ATOM      7  I   UNL d   1       1.795   0.876  -3.043  0.00  0.00    -0.146 I 
ENDROOT
TORSDOF 0
ENDMDL
