MODEL 1
REMARK minimizedAffinity 10.7304878
REMARK minimizedRMSD -1
REMARK  0 active torsions:
REMARK  status: ('A' for Active; 'I' for Inactive)
ROOT
ATOM      1  C   UNL d   1      -1.688   1.940   2.856  0.00  0.00     0.023 A 
ATOM      2  C1  UNL d   1      -0.462   2.555   2.603  0.00  0.00     0.003 A 
ATOM      3  C2  UNL d   1       0.593   1.815   2.066  0.00  0.00     0.048 A 
ATOM      4  C3  UNL d   1       0.415   0.462   1.782  0.00  0.00     0.023 A 
ATOM      5  C4  UNL d   1      -0.810  -0.158   2.033  0.00  0.00     0.048 A 
ATOM      6  C5  UNL d   1      -1.862   0.585   2.571  0.00  0.00     0.003 A 
ATOM      7  I   UNL d   1       1.985  -0.641   0.981  0.00  0.00    -0.146 I 
ENDROOT
TORSDOF 0
ENDMDL
