MODEL 1
REMARK minimizedAffinity 6.60094213
REMARK minimizedRMSD -1
REMARK  0 active torsions:
REMARK  status: ('A' for Active; 'I' for Inactive)
ROOT
ATOM      1  C   UNL d   1       2.255   1.080  -2.623  0.00  0.00     0.023 A 
ATOM      2  C1  UNL d   1       1.296   0.133  -2.262  0.00  0.00     0.003 A 
ATOM      3  C2  UNL d   1       0.443  -0.402  -3.229  0.00  0.00     0.048 A 
ATOM      4  C3  UNL d   1       0.554   0.013  -4.555  0.00  0.00     0.023 A 
ATOM      5  C4  UNL d   1       1.512   0.959  -4.922  0.00  0.00     0.048 A 
ATOM      6  C5  UNL d   1       2.363   1.493  -3.952  0.00  0.00     0.003 A 
ATOM      7  I   UNL d   1      -0.715  -0.783  -5.996  0.00  0.00    -0.146 I 
ENDROOT
TORSDOF 0
ENDMDL
