MODEL 1
REMARK minimizedAffinity 16.8531742
REMARK minimizedRMSD -1
REMARK  0 active torsions:
REMARK  status: ('A' for Active; 'I' for Inactive)
ROOT
ATOM      1  O1  BZF d   1      -3.945  -2.718  -4.977  0.00  0.00    -0.204 OA
ATOM      2  C2  BZF d   1      -5.157  -3.381  -4.978  0.00  0.00     0.174 A 
ATOM      3  C3  BZF d   1      -6.000  -2.838  -4.075  0.00  0.00    -0.012 A 
ATOM      4  C3A BZF d   1      -5.301  -1.711  -3.538  0.00  0.00    -0.107 A 
ATOM      5  C4  BZF d   1      -5.623  -0.762  -2.610  0.00  0.00     0.055 A 
ATOM      6  C5  BZF d   1      -4.689   0.159  -2.257  0.00  0.00    -0.016 A 
ATOM      7  C6  BZF d   1      -3.424   0.159  -2.807  0.00  0.00     0.022 A 
ATOM      8  C7  BZF d   1      -3.060  -0.759  -3.736  0.00  0.00     0.029 A 
ATOM      9  C7A BZF d   1      -4.012  -1.672  -4.119  0.00  0.00     0.058 A 
ENDROOT
TORSDOF 0
ENDMDL
