MODEL 1
REMARK minimizedAffinity 7.66834831
REMARK minimizedRMSD -1
REMARK  0 active torsions:
REMARK  status: ('A' for Active; 'I' for Inactive)
ROOT
ATOM      1  O1  BZF d   1       1.121  -1.037   5.040  0.00  0.00    -0.204 OA
ATOM      2  C2  BZF d   1       0.710  -2.294   5.439  0.00  0.00     0.174 A 
ATOM      3  C3  BZF d   1       0.666  -3.139   4.388  0.00  0.00    -0.012 A 
ATOM      4  C3A BZF d   1       1.164  -2.385   3.279  0.00  0.00    -0.107 A 
ATOM      5  C4  BZF d   1       1.378  -2.682   1.963  0.00  0.00     0.055 A 
ATOM      6  C5  BZF d   1       1.805  -1.700   1.125  0.00  0.00    -0.016 A 
ATOM      7  C6  BZF d   1       2.023  -0.412   1.569  0.00  0.00     0.022 A 
ATOM      8  C7  BZF d   1       1.831  -0.072   2.866  0.00  0.00     0.029 A 
ATOM      9  C7A BZF d   1       1.431  -1.069   3.721  0.00  0.00     0.058 A 
ENDROOT
TORSDOF 0
ENDMDL
