MODEL 1
REMARK minimizedAffinity 1.98477197
REMARK minimizedRMSD -1
REMARK  0 active torsions:
REMARK  status: ('A' for Active; 'I' for Inactive)
ROOT
ATOM      1  O1  BZF d   1      -5.536  -1.989  -4.513  0.00  0.00    -0.204 OA
ATOM      2  C2  BZF d   1      -5.113  -1.866  -3.204  0.00  0.00     0.174 A 
ATOM      3  C3  BZF d   1      -4.963  -3.078  -2.634  0.00  0.00    -0.012 A 
ATOM      4  C3A BZF d   1      -5.225  -4.021  -3.678  0.00  0.00    -0.107 A 
ATOM      5  C4  BZF d   1      -5.219  -5.385  -3.734  0.00  0.00     0.055 A 
ATOM      6  C5  BZF d   1      -5.592  -6.000  -4.887  0.00  0.00    -0.016 A 
ATOM      7  C6  BZF d   1      -5.982  -5.283  -5.999  0.00  0.00     0.022 A 
ATOM      8  C7  BZF d   1      -6.000  -3.927  -5.993  0.00  0.00     0.029 A 
ATOM      9  C7A BZF d   1      -5.591  -3.303  -4.840  0.00  0.00     0.058 A 
ENDROOT
TORSDOF 0
ENDMDL
