MODEL 1
REMARK minimizedAffinity 14.2482471
REMARK minimizedRMSD -1
REMARK  0 active torsions:
REMARK  status: ('A' for Active; 'I' for Inactive)
ROOT
ATOM      1  O1  BZF d   1       1.224  -0.417   3.503  0.00  0.00    -0.204 OA
ATOM      2  C2  BZF d   1       0.973  -1.688   3.021  0.00  0.00     0.174 A 
ATOM      3  C3  BZF d   1       1.297  -1.777   1.715  0.00  0.00    -0.012 A 
ATOM      4  C3A BZF d   1       1.866  -0.507   1.381  0.00  0.00    -0.107 A 
ATOM      5  C4  BZF d   1       2.392   0.013   0.233  0.00  0.00     0.055 A 
ATOM      6  C5  BZF d   1       2.796   1.311   0.221  0.00  0.00    -0.016 A 
ATOM      7  C6  BZF d   1       2.684   2.117   1.335  0.00  0.00     0.022 A 
ATOM      8  C7  BZF d   1       2.174   1.644   2.498  0.00  0.00     0.029 A 
ATOM      9  C7A BZF d   1       1.795   0.324   2.523  0.00  0.00     0.058 A 
ENDROOT
TORSDOF 0
ENDMDL
