MODEL 1
REMARK minimizedAffinity 6.62049055
REMARK minimizedRMSD -1
REMARK  0 active torsions:
REMARK  status: ('A' for Active; 'I' for Inactive)
ROOT
ATOM      1  O1  BZF d   1      -2.660   2.294   1.799  0.00  0.00    -0.204 OA
ATOM      2  C2  BZF d   1      -2.045   2.142   0.571  0.00  0.00     0.174 A 
ATOM      3  C3  BZF d   1      -2.768   2.733  -0.403  0.00  0.00    -0.012 A 
ATOM      4  C3A BZF d   1      -3.858   3.369   0.272  0.00  0.00    -0.107 A 
ATOM      5  C4  BZF d   1      -4.911   4.128  -0.154  0.00  0.00     0.055 A 
ATOM      6  C5  BZF d   1      -5.840   4.535   0.751  0.00  0.00    -0.016 A 
ATOM      7  C6  BZF d   1      -5.751   4.196   2.085  0.00  0.00     0.022 A 
ATOM      8  C7  BZF d   1      -4.722   3.449   2.555  0.00  0.00     0.029 A 
ATOM      9  C7A BZF d   1      -3.764   3.064   1.649  0.00  0.00     0.058 A 
ENDROOT
TORSDOF 0
ENDMDL
