MODEL 1
REMARK minimizedAffinity 11.2594967
REMARK minimizedRMSD -1
REMARK  0 active torsions:
REMARK  status: ('A' for Active; 'I' for Inactive)
ROOT
ATOM      1  O1  BZF d   1       4.966  -2.353   1.977  0.00  0.00    -0.204 OA
ATOM      2  C2  BZF d   1       6.000  -3.266   1.884  0.00  0.00     0.174 A 
ATOM      3  C3  BZF d   1       5.585  -4.497   2.245  0.00  0.00    -0.012 A 
ATOM      4  C3A BZF d   1       4.183  -4.363   2.496  0.00  0.00    -0.107 A 
ATOM      5  C4  BZF d   1       3.208  -5.242   2.874  0.00  0.00     0.055 A 
ATOM      6  C5  BZF d   1       1.953  -4.777   3.105  0.00  0.00    -0.016 A 
ATOM      7  C6  BZF d   1       1.637  -3.440   2.972  0.00  0.00     0.022 A 
ATOM      8  C7  BZF d   1       2.569  -2.531   2.594  0.00  0.00     0.029 A 
ATOM      9  C7A BZF d   1       3.831  -3.004   2.328  0.00  0.00     0.058 A 
ENDROOT
TORSDOF 0
ENDMDL
