MODEL 1
REMARK minimizedAffinity 7.42286301
REMARK minimizedRMSD -1
REMARK  0 active torsions:
REMARK  status: ('A' for Active; 'I' for Inactive)
ROOT
ATOM      1  O1  BZF d   1       5.994   5.975  -3.168  0.00  0.00    -0.204 OA
ATOM      2  C2  BZF d   1       5.985   6.000  -4.549  0.00  0.00     0.174 A 
ATOM      3  C3  BZF d   1       4.725   5.912  -5.021  0.00  0.00    -0.012 A 
ATOM      4  C3A BZF d   1       3.887   5.920  -3.861  0.00  0.00    -0.107 A 
ATOM      5  C4  BZF d   1       2.534   5.872  -3.680  0.00  0.00     0.055 A 
ATOM      6  C5  BZF d   1       2.039   5.824  -2.415  0.00  0.00    -0.016 A 
ATOM      7  C6  BZF d   1       2.866   5.816  -1.311  0.00  0.00     0.022 A 
ATOM      8  C7  BZF d   1       4.214   5.868  -1.441  0.00  0.00     0.029 A 
ATOM      9  C7A BZF d   1       4.717   5.950  -2.716  0.00  0.00     0.058 A 
ENDROOT
TORSDOF 0
ENDMDL
