MODEL 1
REMARK minimizedAffinity 13.7181482
REMARK minimizedRMSD -1
REMARK  0 active torsions:
REMARK  status: ('A' for Active; 'I' for Inactive)
ROOT
ATOM      1  O1  BZF d   1       2.904  -0.795   1.199  0.00  0.00    -0.204 OA
ATOM      2  C2  BZF d   1       2.378   0.480   1.285  0.00  0.00     0.174 A 
ATOM      3  C3  BZF d   1       1.429   0.542   2.241  0.00  0.00    -0.012 A 
ATOM      4  C3A BZF d   1       1.423  -0.753   2.850  0.00  0.00    -0.107 A 
ATOM      5  C4  BZF d   1       0.708  -1.306   3.873  0.00  0.00     0.055 A 
ATOM      6  C5  BZF d   1       0.891  -2.618   4.174  0.00  0.00    -0.016 A 
ATOM      7  C6  BZF d   1       1.776  -3.408   3.469  0.00  0.00     0.022 A 
ATOM      8  C7  BZF d   1       2.512  -2.903   2.449  0.00  0.00     0.029 A 
ATOM      9  C7A BZF d   1       2.353  -1.568   2.165  0.00  0.00     0.058 A 
ENDROOT
TORSDOF 0
ENDMDL
