MODEL 1
REMARK minimizedAffinity 6.53737164
REMARK minimizedRMSD -1
REMARK  0 active torsions:
REMARK  status: ('A' for Active; 'I' for Inactive)
ROOT
ATOM      1  O1  BZF d   1       4.009   4.268  -4.983  0.00  0.00    -0.204 OA
ATOM      2  C2  BZF d   1       5.036   4.909  -5.649  0.00  0.00     0.174 A 
ATOM      3  C3  BZF d   1       6.000   4.033  -6.000  0.00  0.00    -0.012 A 
ATOM      4  C3A BZF d   1       5.504   2.750  -5.604  0.00  0.00    -0.107 A 
ATOM      5  C4  BZF d   1       6.000   1.482  -5.699  0.00  0.00     0.055 A 
ATOM      6  C5  BZF d   1       5.299   0.455  -5.149  0.00  0.00    -0.016 A 
ATOM      7  C6  BZF d   1       4.104   0.662  -4.493  0.00  0.00     0.022 A 
ATOM      8  C7  BZF d   1       3.569   1.902  -4.377  0.00  0.00     0.029 A 
ATOM      9  C7A BZF d   1       4.258   2.937  -4.961  0.00  0.00     0.058 A 
ENDROOT
TORSDOF 0
ENDMDL
