MODEL 1
REMARK minimizedAffinity -3.74802971
REMARK minimizedRMSD -1
REMARK  0 active torsions:
REMARK  status: ('A' for Active; 'I' for Inactive)
ROOT
ATOM      1  C4' PXY d   1       1.877  -2.151   2.296  0.00  0.00     0.077 C 
ATOM      2  C1' PXY d   1      -0.990   0.636  -1.878  0.00  0.00     0.077 C 
ATOM      3  C1  PXY d   1      -0.246  -0.089  -0.775  0.00  0.00    -0.082 A 
ATOM      4  C2  PXY d   1       0.972  -0.554  -1.003  0.00  0.00     0.003 A 
ATOM      5  C3  PXY d   1       1.647  -1.240  -0.026  0.00  0.00     0.003 A 
ATOM      6  C4  PXY d   1       1.091  -1.405   1.214  0.00  0.00    -0.082 A 
ATOM      7  C5  PXY d   1      -0.146  -0.924   1.458  0.00  0.00     0.003 A 
ATOM      8  C6  PXY d   1      -0.831  -0.267   0.441  0.00  0.00     0.003 A 
ENDROOT
TORSDOF 0
ENDMDL
