MODEL 1
REMARK minimizedAffinity -3.35630798
REMARK minimizedRMSD -1
REMARK  0 active torsions:
REMARK  status: ('A' for Active; 'I' for Inactive)
ROOT
ATOM      1  C4' PXY d   1      -0.516   2.273  -2.300  0.00  0.00     0.077 C 
ATOM      2  C1' PXY d   1      -0.128  -0.980   2.463  0.00  0.00     0.077 C 
ATOM      3  C1  PXY d   1      -0.229  -0.137   1.207  0.00  0.00    -0.082 A 
ATOM      4  C2  PXY d   1       0.101   1.143   1.250  0.00  0.00     0.003 A 
ATOM      5  C3  PXY d   1      -0.014   1.927   0.131  0.00  0.00     0.003 A 
ATOM      6  C4  PXY d   1      -0.421   1.383  -1.058  0.00  0.00    -0.082 A 
ATOM      7  C5  PXY d   1      -0.749   0.074  -1.113  0.00  0.00     0.003 A 
ATOM      8  C6  PXY d   1      -0.664  -0.695   0.044  0.00  0.00     0.003 A 
ENDROOT
TORSDOF 0
ENDMDL
