MODEL 1
REMARK minimizedAffinity -4.7642293
REMARK minimizedRMSD -1
REMARK  0 active torsions:
REMARK  status: ('A' for Active; 'I' for Inactive)
ROOT
ATOM      1  C4' PXY d   1      -2.494   0.318   1.699  0.00  0.00     0.077 C 
ATOM      2  C1' PXY d   1       2.607  -1.348  -0.450  0.00  0.00     0.077 C 
ATOM      3  C1  PXY d   1       1.266  -0.905   0.102  0.00  0.00    -0.082 A 
ATOM      4  C2  PXY d   1       1.081  -0.862   1.412  0.00  0.00     0.003 A 
ATOM      5  C3  PXY d   1      -0.135  -0.494   1.928  0.00  0.00     0.003 A 
ATOM      6  C4  PXY d   1      -1.155  -0.115   1.097  0.00  0.00    -0.082 A 
ATOM      7  C5  PXY d   1      -0.970  -0.146  -0.240  0.00  0.00     0.003 A 
ATOM      8  C6  PXY d   1       0.259  -0.562  -0.745  0.00  0.00     0.003 A 
ENDROOT
TORSDOF 0
ENDMDL
