MODEL 1
REMARK minimizedAffinity -2.84532166
REMARK minimizedRMSD -1
REMARK  0 active torsions:
REMARK  status: ('A' for Active; 'I' for Inactive)
ROOT
ATOM      1  C4' PXY d   1       3.060  -2.050   0.400  0.00  0.00     0.077 C 
ATOM      2  C1' PXY d   1      -1.463   0.869   2.506  0.00  0.00     0.077 C 
ATOM      3  C1  PXY d   1      -0.270   0.107   1.964  0.00  0.00    -0.082 A 
ATOM      4  C2  PXY d   1      -0.164  -0.102   0.662  0.00  0.00     0.003 A 
ATOM      5  C3  PXY d   1       0.892  -0.817   0.158  0.00  0.00     0.003 A 
ATOM      6  C4  PXY d   1       1.877  -1.277   0.990  0.00  0.00    -0.082 A 
ATOM      7  C5  PXY d   1       1.781  -1.059   2.319  0.00  0.00     0.003 A 
ATOM      8  C6  PXY d   1       0.681  -0.366   2.815  0.00  0.00     0.003 A 
ENDROOT
TORSDOF 0
ENDMDL
