MODEL 1
REMARK minimizedAffinity -4.05367708
REMARK minimizedRMSD -1
REMARK  0 active torsions:
REMARK  status: ('A' for Active; 'I' for Inactive)
ROOT
ATOM      1  C4' PXY d   1      -1.397   0.370  -1.459  0.00  0.00     0.077 C 
ATOM      2  C1' PXY d   1       1.751  -2.085   2.722  0.00  0.00     0.077 C 
ATOM      3  C1  PXY d   1       0.936  -1.438   1.619  0.00  0.00    -0.082 A 
ATOM      4  C2  PXY d   1      -0.300  -1.038   1.868  0.00  0.00     0.003 A 
ATOM      5  C3  PXY d   1      -1.062  -0.480   0.874  0.00  0.00     0.003 A 
ATOM      6  C4  PXY d   1      -0.535  -0.280  -0.374  0.00  0.00    -0.082 A 
ATOM      7  C5  PXY d   1       0.730  -0.675  -0.632  0.00  0.00     0.003 A 
ATOM      8  C6  PXY d   1       1.473  -1.277   0.379  0.00  0.00     0.003 A 
ENDROOT
TORSDOF 0
ENDMDL
