MODEL 1
REMARK minimizedAffinity -6.15809679
REMARK minimizedRMSD -1
REMARK  0 active torsions:
REMARK  status: ('A' for Active; 'I' for Inactive)
ROOT
ATOM      1  C4' PXY d   1      -0.666   0.289  -1.655  0.00  0.00     0.077 C 
ATOM      2  C1' PXY d   1       2.449  -1.536   2.859  0.00  0.00     0.077 C 
ATOM      3  C1  PXY d   1       1.621  -1.057   1.683  0.00  0.00    -0.082 A 
ATOM      4  C2  PXY d   1       2.038  -1.296   0.450  0.00  0.00     0.003 A 
ATOM      5  C3  PXY d   1       1.318  -0.842  -0.626  0.00  0.00     0.003 A 
ATOM      6  C4  PXY d   1       0.132  -0.184  -0.438  0.00  0.00    -0.082 A 
ATOM      7  C5  PXY d   1      -0.305   0.054   0.817  0.00  0.00     0.003 A 
ATOM      8  C6  PXY d   1       0.462  -0.378   1.896  0.00  0.00     0.003 A 
ENDROOT
TORSDOF 0
ENDMDL
