MODEL 1
REMARK minimizedAffinity -4.0190506
REMARK minimizedRMSD -1
REMARK  0 active torsions:
REMARK  status: ('A' for Active; 'I' for Inactive)
ROOT
ATOM      1  C4' PXY d   1      -0.384   2.445  -1.892  0.00  0.00     0.077 C 
ATOM      2  C1' PXY d   1       0.434  -1.587   2.168  0.00  0.00     0.077 C 
ATOM      3  C1  PXY d   1       0.219  -0.539   1.094  0.00  0.00    -0.082 A 
ATOM      4  C2  PXY d   1       0.670   0.691   1.280  0.00  0.00     0.003 A 
ATOM      5  C3  PXY d   1       0.455   1.659   0.334  0.00  0.00     0.003 A 
ATOM      6  C4  PXY d   1      -0.181   1.353  -0.839  0.00  0.00    -0.082 A 
ATOM      7  C5  PXY d   1      -0.635   0.097  -1.041  0.00  0.00     0.003 A 
ATOM      8  C6  PXY d   1      -0.443  -0.861  -0.050  0.00  0.00     0.003 A 
ENDROOT
TORSDOF 0
ENDMDL
