MODEL 1
REMARK minimizedAffinity -2.85211968
REMARK minimizedRMSD -1
REMARK  0 active torsions:
REMARK  status: ('A' for Active; 'I' for Inactive)
ROOT
ATOM      1  C4' PXY d   1       2.063  -2.940   1.466  0.00  0.00     0.077 C 
ATOM      2  C1' PXY d   1      -0.990   0.978  -1.490  0.00  0.00     0.077 C 
ATOM      3  C1  PXY d   1      -0.192  -0.043  -0.704  0.00  0.00    -0.082 A 
ATOM      4  C2  PXY d   1       0.702  -0.794  -1.326  0.00  0.00     0.003 A 
ATOM      5  C3  PXY d   1       1.411  -1.744  -0.636  0.00  0.00     0.003 A 
ATOM      6  C4  PXY d   1       1.240  -1.890   0.714  0.00  0.00    -0.082 A 
ATOM      7  C5  PXY d   1       0.338  -1.120   1.358  0.00  0.00     0.003 A 
ATOM      8  C6  PXY d   1      -0.400  -0.190   0.632  0.00  0.00     0.003 A 
ENDROOT
TORSDOF 0
ENDMDL
