MODEL 1
REMARK minimizedAffinity -6.38988113
REMARK minimizedRMSD -1
REMARK  0 active torsions:
REMARK  status: ('A' for Active; 'I' for Inactive)
ROOT
ATOM      1  C4' PXY d   1       0.174   0.216  -1.069  0.00  0.00     0.077 C 
ATOM      2  C1' PXY d   1       2.807  -1.972   3.589  0.00  0.00     0.077 C 
ATOM      3  C1  PXY d   1       2.128  -1.399   2.361  0.00  0.00    -0.082 A 
ATOM      4  C2  PXY d   1       1.021  -0.686   2.498  0.00  0.00     0.003 A 
ATOM      5  C3  PXY d   1       0.376  -0.187   1.396  0.00  0.00     0.003 A 
ATOM      6  C4  PXY d   1       0.899  -0.375   0.144  0.00  0.00    -0.082 A 
ATOM      7  C5  PXY d   1       2.033  -1.091  -0.003  0.00  0.00     0.003 A 
ATOM      8  C6  PXY d   1       2.650  -1.624   1.125  0.00  0.00     0.003 A 
ENDROOT
TORSDOF 0
ENDMDL
