MODEL 1
REMARK minimizedAffinity -1.05657196
REMARK minimizedRMSD -1
REMARK  0 active torsions:
REMARK  status: ('A' for Active; 'I' for Inactive)
ROOT
ATOM      1  C4' PXY d   1      -1.511   1.158  -2.635  0.00  0.00     0.077 C 
ATOM      2  C1' PXY d   1       0.527  -1.372   2.146  0.00  0.00     0.077 C 
ATOM      3  C1  PXY d   1       0.002  -0.714   0.885  0.00  0.00    -0.082 A 
ATOM      4  C2  PXY d   1      -0.735   0.381   0.977  0.00  0.00     0.003 A 
ATOM      5  C3  PXY d   1      -1.244   0.971  -0.151  0.00  0.00     0.003 A 
ATOM      6  C4  PXY d   1      -0.952   0.465  -1.389  0.00  0.00    -0.082 A 
ATOM      7  C5  PXY d   1      -0.192  -0.646  -1.492  0.00  0.00     0.003 A 
ATOM      8  C6  PXY d   1       0.281  -1.253  -0.333  0.00  0.00     0.003 A 
ENDROOT
TORSDOF 0
ENDMDL
