MODEL 1
REMARK minimizedAffinity 0.0385914631
REMARK minimizedRMSD -1
REMARK  1 active torsions:
REMARK  status: ('A' for Active; 'I' for Inactive)
REMARK    1  A    between atoms: N_2  and  C1_3 
ROOT
ATOM      1  C1  UNL d   1       3.555   0.744   1.294  0.00  0.00     0.143 A 
ATOM      2  C2  UNL d   1       3.579   2.125   1.072  0.00  0.00    -0.057 A 
ATOM      3  C3  UNL d   1       4.788   2.824   0.973  0.00  0.00     0.033 A 
ATOM      4  C4  UNL d   1       5.999   2.156   1.123  0.00  0.00    -0.042 A 
ATOM      5  C5  UNL d   1       5.999   0.788   1.369  0.00  0.00     0.033 A 
ATOM      6  C6  UNL d   1       4.788   0.094   1.460  0.00  0.00    -0.057 A 
ENDROOT
BRANCH   1   7
ATOM      7  N   UNL d   1       2.385   0.010   1.500  0.00  0.00    -0.732 N 
ATOM      8  C   UNL d   1       1.735   0.007   2.793  0.00  0.00     0.284 C 
ATOM      9  H3  UNL d   1       1.744   0.071   0.713  0.00  0.00     0.395 HD
ENDBRANCH   1   7
TORSDOF 1
ENDMDL
