MODEL 1
REMARK minimizedAffinity 0.291192502
REMARK minimizedRMSD -1
REMARK  1 active torsions:
REMARK  status: ('A' for Active; 'I' for Inactive)
REMARK    1  A    between atoms: N_2  and  C1_3 
ROOT
ATOM      1  C1  UNL d   1      -0.890  -3.198  -0.599  0.00  0.00     0.143 A 
ATOM      2  C2  UNL d   1       0.185  -3.776  -1.282  0.00  0.00    -0.057 A 
ATOM      3  C3  UNL d   1       0.201  -3.850  -2.680  0.00  0.00     0.033 A 
ATOM      4  C4  UNL d   1      -0.875  -3.370  -3.421  0.00  0.00    -0.042 A 
ATOM      5  C5  UNL d   1      -1.965  -2.814  -2.761  0.00  0.00     0.033 A 
ATOM      6  C6  UNL d   1      -1.972  -2.737  -1.365  0.00  0.00    -0.057 A 
ENDROOT
BRANCH   1   7
ATOM      7  N   UNL d   1      -1.010  -3.184   0.793  0.00  0.00    -0.732 N 
ATOM      8  C   UNL d   1      -1.324  -4.396   1.518  0.00  0.00     0.284 C 
ATOM      9  H3  UNL d   1      -0.301  -2.605   1.238  0.00  0.00     0.395 HD
ENDBRANCH   1   7
TORSDOF 1
ENDMDL
