MODEL 1
REMARK minimizedAffinity 1.16838336
REMARK minimizedRMSD -1
REMARK  1 active torsions:
REMARK  status: ('A' for Active; 'I' for Inactive)
REMARK    1  A    between atoms: N_2  and  C1_3 
ROOT
ATOM      1  C1  UNL d   1       2.701   1.394  -0.816  0.00  0.00     0.143 A 
ATOM      2  C2  UNL d   1       2.127   1.447   0.458  0.00  0.00    -0.057 A 
ATOM      3  C3  UNL d   1       2.563   0.603   1.487  0.00  0.00     0.033 A 
ATOM      4  C4  UNL d   1       3.564  -0.333   1.249  0.00  0.00    -0.042 A 
ATOM      5  C5  UNL d   1       4.132  -0.420  -0.017  0.00  0.00     0.033 A 
ATOM      6  C6  UNL d   1       3.697   0.430  -1.038  0.00  0.00    -0.057 A 
ENDROOT
BRANCH   1   7
ATOM      7  N   UNL d   1       2.244   2.138  -1.907  0.00  0.00    -0.732 N 
ATOM      8  C   UNL d   1       0.828   2.237  -2.191  0.00  0.00     0.284 C 
ATOM      9  H3  UNL d   1       2.753   3.012  -2.021  0.00  0.00     0.395 HD
ENDBRANCH   1   7
TORSDOF 1
ENDMDL
