MODEL 1
REMARK minimizedAffinity 3.75618601
REMARK minimizedRMSD -1
REMARK  1 active torsions:
REMARK  status: ('A' for Active; 'I' for Inactive)
REMARK    1  A    between atoms: N_2  and  C1_3 
ROOT
ATOM      1  C1  UNL d   1      -2.021  -3.338  -0.017  0.00  0.00     0.143 A 
ATOM      2  C2  UNL d   1      -1.663  -2.411  -1.002  0.00  0.00    -0.057 A 
ATOM      3  C3  UNL d   1      -2.431  -2.249  -2.161  0.00  0.00     0.033 A 
ATOM      4  C4  UNL d   1      -3.559  -3.035  -2.370  0.00  0.00    -0.042 A 
ATOM      5  C5  UNL d   1      -3.921  -3.980  -1.417  0.00  0.00     0.033 A 
ATOM      6  C6  UNL d   1      -3.153  -4.132  -0.258  0.00  0.00    -0.057 A 
ENDROOT
BRANCH   1   7
ATOM      7  N   UNL d   1      -1.245  -3.615   1.110  0.00  0.00    -0.732 N 
ATOM      8  C   UNL d   1      -1.299  -4.915   1.742  0.00  0.00     0.284 C 
ATOM      9  H3  UNL d   1      -0.307  -3.225   1.041  0.00  0.00     0.395 HD
ENDBRANCH   1   7
TORSDOF 1
ENDMDL
