MODEL 1
REMARK minimizedAffinity 9.62940407
REMARK minimizedRMSD -1
REMARK  1 active torsions:
REMARK  status: ('A' for Active; 'I' for Inactive)
REMARK    1  A    between atoms: N_2  and  C1_3 
ROOT
ATOM      1  C1  UNL d   1       1.853  -0.968  -0.024  0.00  0.00     0.143 A 
ATOM      2  C2  UNL d   1       1.190   0.123   0.548  0.00  0.00    -0.057 A 
ATOM      3  C3  UNL d   1       1.894   1.248   0.995  0.00  0.00     0.033 A 
ATOM      4  C4  UNL d   1       3.282   1.288   0.904  0.00  0.00    -0.042 A 
ATOM      5  C5  UNL d   1       3.963   0.205   0.361  0.00  0.00     0.033 A 
ATOM      6  C6  UNL d   1       3.254  -0.912  -0.090  0.00  0.00    -0.057 A 
ENDROOT
BRANCH   1   7
ATOM      7  N   UNL d   1       1.218  -2.155  -0.397  0.00  0.00    -0.732 N 
ATOM      8  C   UNL d   1      -0.169  -2.388  -0.056  0.00  0.00     0.284 C 
ATOM      9  H3  UNL d   1       1.470  -2.451  -1.337  0.00  0.00     0.395 HD
ENDBRANCH   1   7
TORSDOF 1
ENDMDL
