MODEL 1
REMARK minimizedAffinity -0.104364969
REMARK minimizedRMSD -1
REMARK  1 active torsions:
REMARK  status: ('A' for Active; 'I' for Inactive)
REMARK    1  A    between atoms: N_2  and  C1_3 
ROOT
ATOM      1  C1  UNL d   1      -1.211  -3.099  -2.014  0.00  0.00     0.143 A 
ATOM      2  C2  UNL d   1      -2.604  -3.230  -2.015  0.00  0.00    -0.057 A 
ATOM      3  C3  UNL d   1      -3.359  -2.966  -0.866  0.00  0.00     0.033 A 
ATOM      4  C4  UNL d   1      -2.729  -2.593   0.317  0.00  0.00    -0.042 A 
ATOM      5  C5  UNL d   1      -1.344  -2.481   0.348  0.00  0.00     0.033 A 
ATOM      6  C6  UNL d   1      -0.596  -2.740  -0.804  0.00  0.00    -0.057 A 
ENDROOT
BRANCH   1   7
ATOM      7  N   UNL d   1      -0.396  -3.443  -3.095  0.00  0.00    -0.732 N 
ATOM      8  C   UNL d   1       0.868  -4.115  -2.882  0.00  0.00     0.284 C 
ATOM      9  H3  UNL d   1      -0.929  -3.801  -3.885  0.00  0.00     0.395 HD
ENDBRANCH   1   7
TORSDOF 1
ENDMDL
