MODEL 1
REMARK minimizedAffinity 5.15337181
REMARK minimizedRMSD -1
REMARK  1 active torsions:
REMARK  status: ('A' for Active; 'I' for Inactive)
REMARK    1  A    between atoms: N_2  and  C1_3 
ROOT
ATOM      1  C1  UNL d   1       2.805   0.831   1.783  0.00  0.00     0.143 A 
ATOM      2  C2  UNL d   1       3.800   0.326   2.628  0.00  0.00    -0.057 A 
ATOM      3  C3  UNL d   1       4.872  -0.419   2.123  0.00  0.00     0.033 A 
ATOM      4  C4  UNL d   1       4.954  -0.698   0.763  0.00  0.00    -0.042 A 
ATOM      5  C5  UNL d   1       3.963  -0.227  -0.092  0.00  0.00     0.033 A 
ATOM      6  C6  UNL d   1       2.898   0.522   0.417  0.00  0.00    -0.057 A 
ENDROOT
BRANCH   1   7
ATOM      7  N   UNL d   1       1.662   1.494   2.237  0.00  0.00    -0.732 N 
ATOM      8  C   UNL d   1       1.074   1.159   3.516  0.00  0.00     0.284 C 
ATOM      9  H3  UNL d   1       1.689   2.492   2.040  0.00  0.00     0.395 HD
ENDBRANCH   1   7
TORSDOF 1
ENDMDL
