MODEL 1
REMARK minimizedAffinity 9.29330921
REMARK minimizedRMSD -1
REMARK  1 active torsions:
REMARK  status: ('A' for Active; 'I' for Inactive)
REMARK    1  A    between atoms: N_2  and  C1_3 
ROOT
ATOM      1  C1  UNL d   1       3.762   1.201  -1.900  0.00  0.00     0.143 A 
ATOM      2  C2  UNL d   1       4.649   0.249  -1.386  0.00  0.00    -0.057 A 
ATOM      3  C3  UNL d   1       4.575  -0.166  -0.051  0.00  0.00     0.033 A 
ATOM      4  C4  UNL d   1       3.628   0.387   0.805  0.00  0.00    -0.042 A 
ATOM      5  C5  UNL d   1       2.752   1.353   0.322  0.00  0.00     0.033 A 
ATOM      6  C6  UNL d   1       2.827   1.759  -1.014  0.00  0.00    -0.057 A 
ENDROOT
BRANCH   1   7
ATOM      7  N   UNL d   1       3.848   1.727  -3.191  0.00  0.00    -0.732 N 
ATOM      8  C   UNL d   1       5.005   1.462  -4.019  0.00  0.00     0.284 C 
ATOM      9  H3  UNL d   1       2.962   1.682  -3.688  0.00  0.00     0.395 HD
ENDBRANCH   1   7
TORSDOF 1
ENDMDL
