MODEL 1
REMARK minimizedAffinity -2.18144584
REMARK minimizedRMSD -1
REMARK  1 active torsions:
REMARK  status: ('A' for Active; 'I' for Inactive)
REMARK    1  A    between atoms: N_2  and  C1_3 
ROOT
ATOM      1  C1  UNL d   1       5.213   3.635   2.170  0.00  0.00     0.143 A 
ATOM      2  C2  UNL d   1       4.493   4.773   1.791  0.00  0.00    -0.057 A 
ATOM      3  C3  UNL d   1       4.544   5.950   2.548  0.00  0.00     0.033 A 
ATOM      4  C4  UNL d   1       5.296   6.000   3.717  0.00  0.00    -0.042 A 
ATOM      5  C5  UNL d   1       6.000   4.872   4.127  0.00  0.00     0.033 A 
ATOM      6  C6  UNL d   1       5.950   3.702   3.363  0.00  0.00    -0.057 A 
ENDROOT
BRANCH   1   7
ATOM      7  N   UNL d   1       5.125   2.404   1.514  0.00  0.00    -0.732 N 
ATOM      8  C   UNL d   1       3.836   1.838   1.179  0.00  0.00     0.284 C 
ATOM      9  H3  UNL d   1       5.826   2.303   0.784  0.00  0.00     0.395 HD
ENDBRANCH   1   7
TORSDOF 1
ENDMDL
