MODEL 1
REMARK minimizedAffinity -0.784872472
REMARK minimizedRMSD -1
REMARK  1 active torsions:
REMARK  status: ('A' for Active; 'I' for Inactive)
REMARK    1  A    between atoms: N_2  and  C1_3 
ROOT
ATOM      1  C1  UNL d   1      -1.806  -2.571  -3.630  0.00  0.00     0.143 A 
ATOM      2  C2  UNL d   1      -0.562  -3.014  -3.170  0.00  0.00    -0.057 A 
ATOM      3  C3  UNL d   1      -0.388  -3.444  -1.849  0.00  0.00     0.033 A 
ATOM      4  C4  UNL d   1      -1.453  -3.412  -0.954  0.00  0.00    -0.042 A 
ATOM      5  C5  UNL d   1      -2.693  -2.952  -1.383  0.00  0.00     0.033 A 
ATOM      6  C6  UNL d   1      -2.862  -2.530  -2.706  0.00  0.00    -0.057 A 
ENDROOT
BRANCH   1   7
ATOM      7  N   UNL d   1      -2.019  -2.038  -4.904  0.00  0.00    -0.732 N 
ATOM      8  C   UNL d   1      -1.119  -2.349  -5.993  0.00  0.00     0.284 C 
ATOM      9  H3  UNL d   1      -3.003  -2.036  -5.165  0.00  0.00     0.395 HD
ENDBRANCH   1   7
TORSDOF 1
ENDMDL
