MODEL 1
REMARK minimizedAffinity 6.2769537
REMARK minimizedRMSD -1
REMARK  1 active torsions:
REMARK  status: ('A' for Active; 'I' for Inactive)
REMARK    1  A    between atoms: N_2  and  C1_3 
ROOT
ATOM      1  C1  UNL d   1       2.387   1.066   1.153  0.00  0.00     0.143 A 
ATOM      2  C2  UNL d   1       3.616   0.452   1.416  0.00  0.00    -0.057 A 
ATOM      3  C3  UNL d   1       4.370  -0.133   0.391  0.00  0.00     0.033 A 
ATOM      4  C4  UNL d   1       3.893  -0.139  -0.915  0.00  0.00    -0.042 A 
ATOM      5  C5  UNL d   1       2.662   0.443  -1.196  0.00  0.00     0.033 A 
ATOM      6  C6  UNL d   1       1.917   1.031  -0.169  0.00  0.00    -0.057 A 
ENDROOT
BRANCH   1   7
ATOM      7  N   UNL d   1       1.545   1.577   2.143  0.00  0.00    -0.732 N 
ATOM      8  C   UNL d   1       1.212   0.786   3.308  0.00  0.00     0.284 C 
ATOM      9  H3  UNL d   1       1.733   2.557   2.346  0.00  0.00     0.395 HD
ENDBRANCH   1   7
TORSDOF 1
ENDMDL
