MODEL 1
REMARK minimizedAffinity 10.9805918
REMARK minimizedRMSD -1
REMARK  1 active torsions:
REMARK  status: ('A' for Active; 'I' for Inactive)
REMARK    1  A    between atoms: N_2  and  C1_3 
ROOT
ATOM      1  C1  UNL d   1       2.766   2.372   0.846  0.00  0.00     0.143 A 
ATOM      2  C2  UNL d   1       4.117   2.179   1.155  0.00  0.00    -0.057 A 
ATOM      3  C3  UNL d   1       4.685   0.900   1.161  0.00  0.00     0.033 A 
ATOM      4  C4  UNL d   1       3.903  -0.217   0.884  0.00  0.00    -0.042 A 
ATOM      5  C5  UNL d   1       2.552  -0.051   0.598  0.00  0.00     0.033 A 
ATOM      6  C6  UNL d   1       1.992   1.230   0.588  0.00  0.00    -0.057 A 
ENDROOT
BRANCH   1   7
ATOM      7  N   UNL d   1       2.120   3.608   0.920  0.00  0.00    -0.732 N 
ATOM      8  C   UNL d   1       0.676   3.689   0.871  0.00  0.00     0.284 C 
ATOM      9  H3  UNL d   1       2.549   4.230   1.601  0.00  0.00     0.395 HD
ENDBRANCH   1   7
TORSDOF 1
ENDMDL
