MODEL 1
REMARK minimizedAffinity 4.64688206
REMARK minimizedRMSD -1
REMARK  1 active torsions:
REMARK  status: ('A' for Active; 'I' for Inactive)
REMARK    1  A    between atoms: N_2  and  C1_3 
ROOT
ATOM      1  C1  UNL d   1      -3.967  -3.763  -2.492  0.00  0.00     0.143 A 
ATOM      2  C2  UNL d   1      -5.103  -3.886  -3.299  0.00  0.00    -0.057 A 
ATOM      3  C3  UNL d   1      -5.999  -4.950  -3.135  0.00  0.00     0.033 A 
ATOM      4  C4  UNL d   1      -5.757  -5.928  -2.176  0.00  0.00    -0.042 A 
ATOM      5  C5  UNL d   1      -4.621  -5.840  -1.380  0.00  0.00     0.033 A 
ATOM      6  C6  UNL d   1      -3.734  -4.772  -1.544  0.00  0.00    -0.057 A 
ENDROOT
BRANCH   1   7
ATOM      7  N   UNL d   1      -2.987  -2.783  -2.672  0.00  0.00    -0.732 N 
ATOM      8  C   UNL d   1      -2.215  -2.298  -1.549  0.00  0.00     0.284 C 
ATOM      9  H3  UNL d   1      -2.443  -2.930  -3.519  0.00  0.00     0.395 HD
ENDBRANCH   1   7
TORSDOF 1
ENDMDL
