MODEL 1
REMARK minimizedAffinity 6.41121626
REMARK minimizedRMSD -1
REMARK  1 active torsions:
REMARK  status: ('A' for Active; 'I' for Inactive)
REMARK    1  A    between atoms: N_2  and  C1_3 
ROOT
ATOM      1  C1  UNL d   1      -1.551  -2.982  -0.774  0.00  0.00     0.143 A 
ATOM      2  C2  UNL d   1      -2.594  -2.513  -1.579  0.00  0.00    -0.057 A 
ATOM      3  C3  UNL d   1      -2.706  -2.899  -2.921  0.00  0.00     0.033 A 
ATOM      4  C4  UNL d   1      -1.756  -3.739  -3.490  0.00  0.00    -0.042 A 
ATOM      5  C5  UNL d   1      -0.696  -4.197  -2.716  0.00  0.00     0.033 A 
ATOM      6  C6  UNL d   1      -0.594  -3.814  -1.375  0.00  0.00    -0.057 A 
ENDROOT
BRANCH   1   7
ATOM      7  N   UNL d   1      -1.330  -2.557   0.538  0.00  0.00    -0.732 N 
ATOM      8  C   UNL d   1      -1.448  -3.484   1.643  0.00  0.00     0.284 C 
ATOM      9  H3  UNL d   1      -0.539  -1.920   0.613  0.00  0.00     0.395 HD
ENDBRANCH   1   7
TORSDOF 1
ENDMDL
