MODEL 1
REMARK minimizedAffinity 15.0880365
REMARK minimizedRMSD -1
REMARK  0 active torsions:
REMARK  status: ('A' for Active; 'I' for Inactive)
ROOT
ATOM      1  C1  DEN d   1      -4.491   1.676   1.883  0.00  0.00     0.130 A 
ATOM      2  C2  DEN d   1      -4.091   3.063   2.099  0.00  0.00    -0.031 A 
ATOM      3  C3  DEN d   1      -2.615   3.115   2.123  0.00  0.00     0.027 A 
ATOM      4  C4  DEN d   1      -0.920   1.191   1.844  0.00  0.00     0.027 A 
ATOM      5  C5  DEN d   1      -0.784  -0.166   1.650  0.00  0.00    -0.003 A 
ATOM      6  C6  DEN d   1      -1.865  -1.002   1.554  0.00  0.00     0.001 A 
ATOM      7  C7  DEN d   1      -3.131  -0.483   1.607  0.00  0.00     0.017 A 
ATOM      8  C8  DEN d   1      -3.276   0.883   1.811  0.00  0.00    -0.094 A 
ATOM      9  C9  DEN d   1      -2.171   1.713   1.893  0.00  0.00    -0.072 A 
ENDROOT
TORSDOF 0
ENDMDL
