MODEL 1
REMARK minimizedAffinity 5.75724363
REMARK minimizedRMSD -1
REMARK  0 active torsions:
REMARK  status: ('A' for Active; 'I' for Inactive)
ROOT
ATOM      1  C1  DEN d   1      -3.724   1.322   1.406  0.00  0.00     0.130 A 
ATOM      2  C2  DEN d   1      -2.521   2.145   1.491  0.00  0.00    -0.031 A 
ATOM      3  C3  DEN d   1      -1.350   1.245   1.461  0.00  0.00     0.027 A 
ATOM      4  C4  DEN d   1      -1.285  -1.328   1.289  0.00  0.00     0.027 A 
ATOM      5  C5  DEN d   1      -2.055  -2.467   1.205  0.00  0.00    -0.003 A 
ATOM      6  C6  DEN d   1      -3.424  -2.426   1.217  0.00  0.00     0.001 A 
ATOM      7  C7  DEN d   1      -4.066  -1.217   1.269  0.00  0.00     0.017 A 
ATOM      8  C8  DEN d   1      -3.297  -0.064   1.361  0.00  0.00    -0.094 A 
ATOM      9  C9  DEN d   1      -1.914  -0.126   1.335  0.00  0.00    -0.072 A 
ENDROOT
TORSDOF 0
ENDMDL
