MODEL 1
REMARK minimizedAffinity 20.3129482
REMARK minimizedRMSD -1
REMARK  0 active torsions:
REMARK  status: ('A' for Active; 'I' for Inactive)
ROOT
ATOM      1  C1  DEN d   1       5.646  -2.882   2.528  0.00  0.00     0.130 A 
ATOM      2  C2  DEN d   1       5.505  -1.552   3.114  0.00  0.00    -0.031 A 
ATOM      3  C3  DEN d   1       5.557  -1.692   4.583  0.00  0.00     0.027 A 
ATOM      4  C4  DEN d   1       5.845  -3.828   6.000  0.00  0.00     0.027 A 
ATOM      5  C5  DEN d   1       5.992  -5.197   5.950  0.00  0.00    -0.003 A 
ATOM      6  C6  DEN d   1       6.000  -5.888   4.768  0.00  0.00     0.001 A 
ATOM      7  C7  DEN d   1       5.903  -5.207   3.583  0.00  0.00     0.017 A 
ATOM      8  C8  DEN d   1       5.747  -3.828   3.625  0.00  0.00    -0.094 A 
ATOM      9  C9  DEN d   1       5.754  -3.146   4.830  0.00  0.00    -0.072 A 
ENDROOT
TORSDOF 0
ENDMDL
