MODEL 1
REMARK minimizedAffinity 20.3108482
REMARK minimizedRMSD -1
REMARK  0 active torsions:
REMARK  status: ('A' for Active; 'I' for Inactive)
ROOT
ATOM      1  C1  DEN d   1      -6.000  -4.665   2.253  0.00  0.00     0.130 A 
ATOM      2  C2  DEN d   1      -5.425  -6.000   2.117  0.00  0.00    -0.031 A 
ATOM      3  C3  DEN d   1      -4.163  -5.879   1.359  0.00  0.00     0.027 A 
ATOM      4  C4  DEN d   1      -3.048  -3.763   0.393  0.00  0.00     0.027 A 
ATOM      5  C5  DEN d   1      -3.168  -2.399   0.245  0.00  0.00    -0.003 A 
ATOM      6  C6  DEN d   1      -4.248  -1.705   0.722  0.00  0.00     0.001 A 
ATOM      7  C7  DEN d   1      -5.230  -2.367   1.411  0.00  0.00     0.017 A 
ATOM      8  C8  DEN d   1      -5.120  -3.743   1.558  0.00  0.00    -0.094 A 
ATOM      9  C9  DEN d   1      -4.014  -4.425   1.078  0.00  0.00    -0.072 A 
ENDROOT
TORSDOF 0
ENDMDL
