MODEL 1
REMARK minimizedAffinity 9.0749321
REMARK minimizedRMSD -1
REMARK  0 active torsions:
REMARK  status: ('A' for Active; 'I' for Inactive)
ROOT
ATOM      1  C1  DEN d   1      -4.492  -2.427   0.067  0.00  0.00     0.130 A 
ATOM      2  C2  DEN d   1      -5.454  -1.619   0.812  0.00  0.00    -0.031 A 
ATOM      3  C3  DEN d   1      -6.000  -2.451   1.903  0.00  0.00     0.027 A 
ATOM      4  C4  DEN d   1      -5.450  -4.897   2.510  0.00  0.00     0.027 A 
ATOM      5  C5  DEN d   1      -4.703  -6.000   2.159  0.00  0.00    -0.003 A 
ATOM      6  C6  DEN d   1      -3.866  -6.000   1.075  0.00  0.00     0.001 A 
ATOM      7  C7  DEN d   1      -3.721  -4.860   0.329  0.00  0.00     0.017 A 
ATOM      8  C8  DEN d   1      -4.476  -3.746   0.672  0.00  0.00    -0.094 A 
ATOM      9  C9  DEN d   1      -5.308  -3.762   1.779  0.00  0.00    -0.072 A 
ENDROOT
TORSDOF 0
ENDMDL
