MODEL 1
REMARK minimizedAffinity 9.80604553
REMARK minimizedRMSD -1
REMARK  0 active torsions:
REMARK  status: ('A' for Active; 'I' for Inactive)
ROOT
ATOM      1  C1  DEN d   1      -3.040   3.435   1.730  0.00  0.00     0.130 A 
ATOM      2  C2  DEN d   1      -4.467   3.150   1.847  0.00  0.00    -0.031 A 
ATOM      3  C3  DEN d   1      -4.621   1.717   2.170  0.00  0.00     0.027 A 
ATOM      4  C4  DEN d   1      -2.798  -0.077   2.503  0.00  0.00     0.027 A 
ATOM      5  C5  DEN d   1      -1.441  -0.314   2.492  0.00  0.00    -0.003 A 
ATOM      6  C6  DEN d   1      -0.531   0.666   2.196  0.00  0.00     0.001 A 
ATOM      7  C7  DEN d   1      -0.965   1.941   1.942  0.00  0.00     0.017 A 
ATOM      8  C8  DEN d   1      -2.332   2.186   1.944  0.00  0.00    -0.094 A 
ATOM      9  C9  DEN d   1      -3.235   1.184   2.257  0.00  0.00    -0.072 A 
ENDROOT
TORSDOF 0
ENDMDL
