MODEL 1
REMARK minimizedAffinity 11.1545153
REMARK minimizedRMSD -1
REMARK  0 active torsions:
REMARK  status: ('A' for Active; 'I' for Inactive)
ROOT
ATOM      1  C1  DEN d   1       1.876  -1.481  -4.152  0.00  0.00     0.130 A 
ATOM      2  C2  DEN d   1       1.850  -0.110  -3.651  0.00  0.00    -0.031 A 
ATOM      3  C3  DEN d   1       0.538   0.476  -3.993  0.00  0.00     0.027 A 
ATOM      4  C4  DEN d   1      -1.445  -0.602  -5.241  0.00  0.00     0.027 A 
ATOM      5  C5  DEN d   1      -1.887  -1.745  -5.870  0.00  0.00    -0.003 A 
ATOM      6  C6  DEN d   1      -1.101  -2.859  -6.000  0.00  0.00     0.001 A 
ATOM      7  C7  DEN d   1       0.155  -2.870  -5.453  0.00  0.00     0.017 A 
ATOM      8  C8  DEN d   1       0.611  -1.719  -4.823  0.00  0.00    -0.094 A 
ATOM      9  C9  DEN d   1      -0.204  -0.608  -4.692  0.00  0.00    -0.072 A 
ENDROOT
TORSDOF 0
ENDMDL
