MODEL 1
REMARK minimizedAffinity 18.381506
REMARK minimizedRMSD -1
REMARK  0 active torsions:
REMARK  status: ('A' for Active; 'I' for Inactive)
ROOT
ATOM      1  C1  DEN d   1       3.909   3.008  -5.101  0.00  0.00     0.130 A 
ATOM      2  C2  DEN d   1       4.057   4.346  -4.534  0.00  0.00    -0.031 A 
ATOM      3  C3  DEN d   1       3.301   4.390  -3.266  0.00  0.00     0.027 A 
ATOM      4  C4  DEN d   1       1.928   2.525  -2.130  0.00  0.00     0.027 A 
ATOM      5  C5  DEN d   1       1.501   1.221  -2.239  0.00  0.00    -0.003 A 
ATOM      6  C6  DEN d   1       1.815   0.437  -3.318  0.00  0.00     0.001 A 
ATOM      7  C7  DEN d   1       2.617   0.938  -4.309  0.00  0.00     0.017 A 
ATOM      8  C8  DEN d   1       3.046   2.255  -4.210  0.00  0.00    -0.094 A 
ATOM      9  C9  DEN d   1       2.727   3.027  -3.105  0.00  0.00    -0.072 A 
ENDROOT
TORSDOF 0
ENDMDL
