MODEL 1
REMARK minimizedAffinity 8.89856434
REMARK minimizedRMSD -1
REMARK  0 active torsions:
REMARK  status: ('A' for Active; 'I' for Inactive)
ROOT
ATOM      1  C1  DEN d   1      -1.902  -3.999  -5.999  0.00  0.00     0.130 A 
ATOM      2  C2  DEN d   1      -1.420  -2.621  -5.941  0.00  0.00    -0.031 A 
ATOM      3  C3  DEN d   1      -2.594  -1.731  -5.845  0.00  0.00     0.027 A 
ATOM      4  C4  DEN d   1      -5.098  -2.347  -5.775  0.00  0.00     0.027 A 
ATOM      5  C5  DEN d   1      -5.998  -3.389  -5.809  0.00  0.00    -0.003 A 
ATOM      6  C6  DEN d   1      -5.602  -4.693  -5.941  0.00  0.00     0.001 A 
ATOM      7  C7  DEN d   1      -4.267  -4.994  -6.000  0.00  0.00     0.017 A 
ATOM      8  C8  DEN d   1      -3.353  -3.949  -5.974  0.00  0.00    -0.094 A 
ATOM      9  C9  DEN d   1      -3.773  -2.638  -5.827  0.00  0.00    -0.072 A 
ENDROOT
TORSDOF 0
ENDMDL
