MODEL 1
REMARK minimizedAffinity 17.9347019
REMARK minimizedRMSD -1
REMARK  0 active torsions:
REMARK  status: ('A' for Active; 'I' for Inactive)
ROOT
ATOM      1  C1  DEN d   1       4.907   2.996  -5.482  0.00  0.00     0.130 A 
ATOM      2  C2  DEN d   1       5.966   3.369  -4.548  0.00  0.00    -0.031 A 
ATOM      3  C3  DEN d   1       5.519   4.564  -3.804  0.00  0.00     0.027 A 
ATOM      4  C4  DEN d   1       3.299   5.862  -4.003  0.00  0.00     0.027 A 
ATOM      5  C5  DEN d   1       2.094   5.930  -4.666  0.00  0.00    -0.003 A 
ATOM      6  C6  DEN d   1       1.759   5.053  -5.663  0.00  0.00     0.001 A 
ATOM      7  C7  DEN d   1       2.621   4.041  -5.995  0.00  0.00     0.017 A 
ATOM      8  C8  DEN d   1       3.841   3.970  -5.336  0.00  0.00    -0.094 A 
ATOM      9  C9  DEN d   1       4.156   4.859  -4.322  0.00  0.00    -0.072 A 
ENDROOT
TORSDOF 0
ENDMDL
