MODEL 1
REMARK minimizedAffinity 14.9894018
REMARK minimizedRMSD -1
REMARK  0 active torsions:
REMARK  status: ('A' for Active; 'I' for Inactive)
ROOT
ATOM      1  C1  DEN d   1      -2.154  -0.857   1.926  0.00  0.00     0.130 A 
ATOM      2  C2  DEN d   1      -0.924  -0.071   1.904  0.00  0.00    -0.031 A 
ATOM      3  C3  DEN d   1      -1.295   1.357   1.859  0.00  0.00     0.027 A 
ATOM      4  C4  DEN d   1      -3.643   2.423   1.826  0.00  0.00     0.027 A 
ATOM      5  C5  DEN d   1      -4.995   2.161   1.821  0.00  0.00    -0.003 A 
ATOM      6  C6  DEN d   1      -5.491   0.884   1.816  0.00  0.00     0.001 A 
ATOM      7  C7  DEN d   1      -4.628  -0.179   1.862  0.00  0.00     0.017 A 
ATOM      8  C8  DEN d   1      -3.264   0.077   1.860  0.00  0.00    -0.094 A 
ATOM      9  C9  DEN d   1      -2.782   1.375   1.877  0.00  0.00    -0.072 A 
ENDROOT
TORSDOF 0
ENDMDL
