MODEL 1
REMARK minimizedAffinity 11.2578573
REMARK minimizedRMSD -1
REMARK  0 active torsions:
REMARK  status: ('A' for Active; 'I' for Inactive)
ROOT
ATOM      1  C1  DEN d   1      -0.931  -0.039   1.765  0.00  0.00     0.130 A 
ATOM      2  C2  DEN d   1      -1.847   1.097   1.824  0.00  0.00    -0.031 A 
ATOM      3  C3  DEN d   1      -3.114   0.697   1.181  0.00  0.00     0.027 A 
ATOM      4  C4  DEN d   1      -3.746  -1.562   0.108  0.00  0.00     0.027 A 
ATOM      5  C5  DEN d   1      -3.293  -2.828  -0.192  0.00  0.00    -0.003 A 
ATOM      6  C6  DEN d   1      -2.021  -3.238   0.106  0.00  0.00     0.001 A 
ATOM      7  C7  DEN d   1      -1.170  -2.389   0.764  0.00  0.00     0.017 A 
ATOM      8  C8  DEN d   1      -1.617  -1.109   1.064  0.00  0.00    -0.094 A 
ATOM      9  C9  DEN d   1      -2.911  -0.717   0.765  0.00  0.00    -0.072 A 
ENDROOT
TORSDOF 0
ENDMDL
