MODEL 1
REMARK minimizedAffinity 13.0507078
REMARK minimizedRMSD -1
REMARK  0 active torsions:
REMARK  status: ('A' for Active; 'I' for Inactive)
ROOT
ATOM      1  C1  DEN d   1      -4.651   1.680   1.956  0.00  0.00     0.130 A 
ATOM      2  C2  DEN d   1      -4.360   3.111   1.972  0.00  0.00    -0.031 A 
ATOM      3  C3  DEN d   1      -2.905   3.283   1.792  0.00  0.00     0.027 A 
ATOM      4  C4  DEN d   1      -1.084   1.482   1.485  0.00  0.00     0.027 A 
ATOM      5  C5  DEN d   1      -0.845   0.127   1.415  0.00  0.00    -0.003 A 
ATOM      6  C6  DEN d   1      -1.845  -0.798   1.553  0.00  0.00     0.001 A 
ATOM      7  C7  DEN d   1      -3.139  -0.379   1.724  0.00  0.00     0.017 A 
ATOM      8  C8  DEN d   1      -3.386   0.985   1.803  0.00  0.00    -0.094 A 
ATOM      9  C9  DEN d   1      -2.363   1.905   1.649  0.00  0.00    -0.072 A 
ENDROOT
TORSDOF 0
ENDMDL
