MODEL 1
REMARK minimizedAffinity 16.8000374
REMARK minimizedRMSD -1
REMARK  0 active torsions:
REMARK  status: ('A' for Active; 'I' for Inactive)
ROOT
ATOM      1  C1  DEN d   1      -2.385   2.329   1.645  0.00  0.00     0.130 A 
ATOM      2  C2  DEN d   1      -3.297   1.228   1.343  0.00  0.00    -0.031 A 
ATOM      3  C3  DEN d   1      -2.550  -0.037   1.494  0.00  0.00     0.027 A 
ATOM      4  C4  DEN d   1      -0.086  -0.397   2.167  0.00  0.00     0.027 A 
ATOM      5  C5  DEN d   1       1.088   0.237   2.510  0.00  0.00    -0.003 A 
ATOM      6  C6  DEN d   1       1.195   1.601   2.555  0.00  0.00     0.001 A 
ATOM      7  C7  DEN d   1       0.096   2.377   2.296  0.00  0.00     0.017 A 
ATOM      8  C8  DEN d   1      -1.089   1.746   1.942  0.00  0.00    -0.094 A 
ATOM      9  C9  DEN d   1      -1.181   0.365   1.915  0.00  0.00    -0.072 A 
ENDROOT
TORSDOF 0
ENDMDL
