MODEL 1
REMARK minimizedAffinity 8.26909924
REMARK minimizedRMSD -1
REMARK  0 active torsions:
REMARK  status: ('A' for Active; 'I' for Inactive)
ROOT
ATOM      1  C1  DEN d   1       3.814   3.711  -4.744  0.00  0.00     0.130 A 
ATOM      2  C2  DEN d   1       3.635   5.151  -4.586  0.00  0.00    -0.031 A 
ATOM      3  C3  DEN d   1       2.650   5.374  -3.509  0.00  0.00     0.027 A 
ATOM      4  C4  DEN d   1       1.395   3.638  -2.073  0.00  0.00     0.027 A 
ATOM      5  C5  DEN d   1       1.209   2.292  -1.848  0.00  0.00    -0.003 A 
ATOM      6  C6  DEN d   1       1.846   1.332  -2.588  0.00  0.00     0.001 A 
ATOM      7  C7  DEN d   1       2.736   1.705  -3.561  0.00  0.00     0.017 A 
ATOM      8  C8  DEN d   1       2.924   3.060  -3.799  0.00  0.00    -0.094 A 
ATOM      9  C9  DEN d   1       2.279   4.015  -3.031  0.00  0.00    -0.072 A 
ENDROOT
TORSDOF 0
ENDMDL
