MODEL 1
REMARK minimizedAffinity 1.9046917
REMARK minimizedRMSD -1
REMARK  0 active torsions:
REMARK  status: ('A' for Active; 'I' for Inactive)
ROOT
ATOM      1  C1  DEN d   1      -1.013   3.537   2.955  0.00  0.00     0.130 A 
ATOM      2  C2  DEN d   1       0.322   3.039   3.274  0.00  0.00    -0.031 A 
ATOM      3  C3  DEN d   1       0.337   1.583   3.031  0.00  0.00     0.027 A 
ATOM      4  C4  DEN d   1      -1.568   0.059   2.192  0.00  0.00     0.027 A 
ATOM      5  C5  DEN d   1      -2.887   0.025   1.799  0.00  0.00    -0.003 A 
ATOM      6  C6  DEN d   1      -3.678   1.143   1.796  0.00  0.00     0.001 A 
ATOM      7  C7  DEN d   1      -3.143   2.353   2.151  0.00  0.00     0.017 A 
ATOM      8  C8  DEN d   1      -1.815   2.395   2.556  0.00  0.00    -0.094 A 
ATOM      9  C9  DEN d   1      -1.029   1.255   2.540  0.00  0.00    -0.072 A 
ENDROOT
TORSDOF 0
ENDMDL
