MODEL 1
REMARK minimizedAffinity -0.620526254
REMARK minimizedRMSD -1
REMARK  0 active torsions:
REMARK  status: ('A' for Active; 'I' for Inactive)
ROOT
ATOM      1  C   UNL d   1      -0.144  -1.107   3.922  0.00  0.00     0.172 C 
ATOM      2  N   UNL d   1      -1.460  -1.002   3.337  0.00  0.00    -0.070 N 
ATOM      3  C1  UNL d   1      -1.875  -0.022   2.476  0.00  0.00    -0.004 A 
ATOM      4  C2  UNL d   1      -3.189  -0.277   2.149  0.00  0.00    -0.047 A 
ATOM      5  C3  UNL d   1      -3.578  -1.450   2.838  0.00  0.00    -0.047 A 
ATOM      6  C4  UNL d   1      -2.488  -1.878   3.567  0.00  0.00    -0.004 A 
ENDROOT
TORSDOF 0
ENDMDL
