MODEL 1
REMARK minimizedAffinity 0.411559701
REMARK minimizedRMSD -1
REMARK  0 active torsions:
REMARK  status: ('A' for Active; 'I' for Inactive)
ROOT
ATOM      1  C   UNL d   1       1.293  -0.778   1.525  0.00  0.00     0.172 C 
ATOM      2  N   UNL d   1      -0.110  -0.457   1.407  0.00  0.00    -0.070 N 
ATOM      3  C1  UNL d   1      -0.860  -0.570   0.267  0.00  0.00    -0.004 A 
ATOM      4  C2  UNL d   1      -2.145  -0.169   0.566  0.00  0.00    -0.047 A 
ATOM      5  C3  UNL d   1      -2.166   0.198   1.933  0.00  0.00    -0.047 A 
ATOM      6  C4  UNL d   1      -0.893   0.010   2.429  0.00  0.00    -0.004 A 
ENDROOT
TORSDOF 0
ENDMDL
