MODEL 1
REMARK minimizedAffinity -0.0771595612
REMARK minimizedRMSD -1
REMARK  0 active torsions:
REMARK  status: ('A' for Active; 'I' for Inactive)
ROOT
ATOM      1  C   UNL d   1       0.692  -1.411   3.772  0.00  0.00     0.172 C 
ATOM      2  N   UNL d   1      -0.220  -0.914   2.768  0.00  0.00    -0.070 N 
ATOM      3  C1  UNL d   1       0.092  -0.672   1.457  0.00  0.00    -0.004 A 
ATOM      4  C2  UNL d   1      -1.046  -0.208   0.832  0.00  0.00    -0.047 A 
ATOM      5  C3  UNL d   1      -2.076  -0.169   1.801  0.00  0.00    -0.047 A 
ATOM      6  C4  UNL d   1      -1.537  -0.611   2.991  0.00  0.00    -0.004 A 
ENDROOT
TORSDOF 0
ENDMDL
