MODEL 1
REMARK minimizedAffinity -1.70285976
REMARK minimizedRMSD -1
REMARK  0 active torsions:
REMARK  status: ('A' for Active; 'I' for Inactive)
ROOT
ATOM      1  C   UNL d   1      -1.904   0.400   2.554  0.00  0.00     0.172 C 
ATOM      2  N   UNL d   1      -1.722   0.080   1.158  0.00  0.00    -0.070 N 
ATOM      3  C1  UNL d   1      -0.571  -0.398   0.592  0.00  0.00    -0.004 A 
ATOM      4  C2  UNL d   1      -0.804  -0.575  -0.754  0.00  0.00    -0.047 A 
ATOM      5  C3  UNL d   1      -2.142  -0.189  -1.007  0.00  0.00    -0.047 A 
ATOM      6  C4  UNL d   1      -2.687   0.212   0.195  0.00  0.00    -0.004 A 
ENDROOT
TORSDOF 0
ENDMDL
