MODEL 1
REMARK minimizedAffinity 0.682615638
REMARK minimizedRMSD -1
REMARK  0 active torsions:
REMARK  status: ('A' for Active; 'I' for Inactive)
ROOT
ATOM      1  C   UNL d   1       1.135  -0.548   0.380  0.00  0.00     0.172 C 
ATOM      2  N   UNL d   1      -0.303  -0.647   0.289  0.00  0.00    -0.070 N 
ATOM      3  C1  UNL d   1      -0.995  -1.417  -0.607  0.00  0.00    -0.004 A 
ATOM      4  C2  UNL d   1      -2.340  -1.235  -0.369  0.00  0.00    -0.047 A 
ATOM      5  C3  UNL d   1      -2.461  -0.323   0.706  0.00  0.00    -0.047 A 
ATOM      6  C4  UNL d   1      -1.184   0.025   1.094  0.00  0.00    -0.004 A 
ENDROOT
TORSDOF 0
ENDMDL
