MODEL 1
REMARK minimizedAffinity -1.75435305
REMARK minimizedRMSD -1
REMARK  0 active torsions:
REMARK  status: ('A' for Active; 'I' for Inactive)
ROOT
ATOM      1  C   UNL d   1       0.864  -0.611   0.520  0.00  0.00     0.172 C 
ATOM      2  N   UNL d   1      -0.547  -0.492   0.236  0.00  0.00    -0.070 N 
ATOM      3  C1  UNL d   1      -1.481   0.079   1.059  0.00  0.00    -0.004 A 
ATOM      4  C2  UNL d   1      -2.704  -0.003   0.429  0.00  0.00    -0.047 A 
ATOM      5  C3  UNL d   1      -2.498  -0.647  -0.814  0.00  0.00    -0.047 A 
ATOM      6  C4  UNL d   1      -1.154  -0.938  -0.908  0.00  0.00    -0.004 A 
ENDROOT
TORSDOF 0
ENDMDL
