MODEL 1
REMARK minimizedAffinity -0.950154245
REMARK minimizedRMSD -1
REMARK  0 active torsions:
REMARK  status: ('A' for Active; 'I' for Inactive)
ROOT
ATOM      1  C   UNL d   1       0.910  -0.693   0.682  0.00  0.00     0.172 C 
ATOM      2  N   UNL d   1       0.422  -0.944   2.018  0.00  0.00    -0.070 N 
ATOM      3  C1  UNL d   1       1.191  -1.297   3.095  0.00  0.00    -0.004 A 
ATOM      4  C2  UNL d   1       0.355  -1.443   4.181  0.00  0.00    -0.047 A 
ATOM      5  C3  UNL d   1      -0.962  -1.169   3.741  0.00  0.00    -0.047 A 
ATOM      6  C4  UNL d   1      -0.891  -0.864   2.398  0.00  0.00    -0.004 A 
ENDROOT
TORSDOF 0
ENDMDL
