MODEL 1
REMARK minimizedAffinity 0.869244158
REMARK minimizedRMSD -1
REMARK  0 active torsions:
REMARK  status: ('A' for Active; 'I' for Inactive)
ROOT
ATOM      1  C   UNL d   1      -2.230   0.038   1.987  0.00  0.00     0.172 C 
ATOM      2  N   UNL d   1      -1.301  -0.405   0.974  0.00  0.00    -0.070 N 
ATOM      3  C1  UNL d   1       0.047  -0.568   1.145  0.00  0.00    -0.004 A 
ATOM      4  C2  UNL d   1       0.575  -1.002  -0.053  0.00  0.00    -0.047 A 
ATOM      5  C3  UNL d   1      -0.494  -1.102  -0.974  0.00  0.00    -0.047 A 
ATOM      6  C4  UNL d   1      -1.644  -0.727  -0.312  0.00  0.00    -0.004 A 
ENDROOT
TORSDOF 0
ENDMDL
