MODEL 1
REMARK minimizedAffinity -2.1214323
REMARK minimizedRMSD -1
REMARK  0 active torsions:
REMARK  status: ('A' for Active; 'I' for Inactive)
ROOT
ATOM      1  C   UNL d   1      -2.937  -1.542   4.029  0.00  0.00     0.172 C 
ATOM      2  N   UNL d   1      -1.493  -1.529   4.025  0.00  0.00    -0.070 N 
ATOM      3  C1  UNL d   1      -0.705  -0.605   3.392  0.00  0.00    -0.004 A 
ATOM      4  C2  UNL d   1       0.611  -0.940   3.629  0.00  0.00    -0.047 A 
ATOM      5  C3  UNL d   1       0.613  -2.106   4.431  0.00  0.00    -0.047 A 
ATOM      6  C4  UNL d   1      -0.702  -2.449   4.661  0.00  0.00    -0.004 A 
ENDROOT
TORSDOF 0
ENDMDL
