MODEL 1
REMARK minimizedAffinity 0.615831673
REMARK minimizedRMSD -1
REMARK  0 active torsions:
REMARK  status: ('A' for Active; 'I' for Inactive)
ROOT
ATOM      1  C   UNL d   1      -1.914   0.278   2.781  0.00  0.00     0.172 C 
ATOM      2  N   UNL d   1      -1.945   0.141   1.344  0.00  0.00    -0.070 N 
ATOM      3  C1  UNL d   1      -0.923  -0.334   0.565  0.00  0.00    -0.004 A 
ATOM      4  C2  UNL d   1      -1.345  -0.308  -0.746  0.00  0.00    -0.047 A 
ATOM      5  C3  UNL d   1      -2.665   0.201  -0.757  0.00  0.00    -0.047 A 
ATOM      6  C4  UNL d   1      -3.012   0.471   0.551  0.00  0.00    -0.004 A 
ENDROOT
TORSDOF 0
ENDMDL
