MODEL 1
REMARK minimizedAffinity -1.71650434
REMARK minimizedRMSD -1
REMARK  0 active torsions:
REMARK  status: ('A' for Active; 'I' for Inactive)
ROOT
ATOM      1  C   UNL d   1       1.308  -0.547   0.422  0.00  0.00     0.172 C 
ATOM      2  N   UNL d   1      -0.092  -0.279   0.654  0.00  0.00    -0.070 N 
ATOM      3  C1  UNL d   1      -1.126  -0.680  -0.148  0.00  0.00    -0.004 A 
ATOM      4  C2  UNL d   1      -2.299  -0.228   0.417  0.00  0.00    -0.047 A 
ATOM      5  C3  UNL d   1      -1.958   0.470   1.599  0.00  0.00    -0.047 A 
ATOM      6  C4  UNL d   1      -0.585   0.423   1.722  0.00  0.00    -0.004 A 
ENDROOT
TORSDOF 0
ENDMDL
