MODEL 1
REMARK minimizedAffinity -2.69052076
REMARK minimizedRMSD -1
REMARK  0 active torsions:
REMARK  status: ('A' for Active; 'I' for Inactive)
ROOT
ATOM      1  C   UNL d   1       0.844  -0.719  -1.160  0.00  0.00     0.172 C 
ATOM      2  N   UNL d   1       0.030   0.203  -0.404  0.00  0.00    -0.070 N 
ATOM      3  C1  UNL d   1       0.001   0.309   0.961  0.00  0.00    -0.004 A 
ATOM      4  C2  UNL d   1      -0.897   1.301   1.289  0.00  0.00    -0.047 A 
ATOM      5  C3  UNL d   1      -1.428   1.808   0.079  0.00  0.00    -0.047 A 
ATOM      6  C4  UNL d   1      -0.837   1.111  -0.953  0.00  0.00    -0.004 A 
ENDROOT
TORSDOF 0
ENDMDL
