MODEL 1
REMARK minimizedAffinity -3.66488528
REMARK minimizedRMSD -1
REMARK  0 active torsions:
REMARK  status: ('A' for Active; 'I' for Inactive)
ROOT
ATOM      1  C   UNL d   1       0.187  -0.874  -0.821  0.00  0.00     0.172 C 
ATOM      2  N   UNL d   1      -0.218   0.108   0.158  0.00  0.00    -0.070 N 
ATOM      3  C1  UNL d   1       0.380   0.319   1.372  0.00  0.00    -0.004 A 
ATOM      4  C2  UNL d   1      -0.299   1.336   2.006  0.00  0.00    -0.047 A 
ATOM      5  C3  UNL d   1      -1.342   1.751   1.144  0.00  0.00    -0.047 A 
ATOM      6  C4  UNL d   1      -1.269   0.973   0.008  0.00  0.00    -0.004 A 
ENDROOT
TORSDOF 0
ENDMDL
