MODEL 1
REMARK minimizedAffinity -3.47018099
REMARK minimizedRMSD -1
REMARK  0 active torsions:
REMARK  status: ('A' for Active; 'I' for Inactive)
ROOT
ATOM      1  C   UNL d   1       0.188  -0.974  -0.425  0.00  0.00     0.172 C 
ATOM      2  N   UNL d   1      -0.156  -0.048   0.629  0.00  0.00    -0.070 N 
ATOM      3  C1  UNL d   1      -0.431   1.283   0.464  0.00  0.00    -0.004 A 
ATOM      4  C2  UNL d   1      -0.711   1.813   1.705  0.00  0.00    -0.047 A 
ATOM      5  C3  UNL d   1      -0.600   0.764   2.649  0.00  0.00    -0.047 A 
ATOM      6  C4  UNL d   1      -0.255  -0.377   1.955  0.00  0.00    -0.004 A 
ENDROOT
TORSDOF 0
ENDMDL
