MODEL 1
REMARK minimizedAffinity -3.74803972
REMARK minimizedRMSD -1
REMARK  0 active torsions:
REMARK  status: ('A' for Active; 'I' for Inactive)
ROOT
ATOM      1  C   UNL d   1       1.061   0.069   0.460  0.00  0.00     0.172 C 
ATOM      2  N   UNL d   1      -0.188   0.795   0.470  0.00  0.00    -0.070 N 
ATOM      3  C1  UNL d   1      -0.952   1.085  -0.629  0.00  0.00    -0.004 A 
ATOM      4  C2  UNL d   1      -2.059   1.785  -0.200  0.00  0.00    -0.047 A 
ATOM      5  C3  UNL d   1      -1.956   1.922   1.205  0.00  0.00    -0.047 A 
ATOM      6  C4  UNL d   1      -0.788   1.299   1.593  0.00  0.00    -0.004 A 
ENDROOT
TORSDOF 0
ENDMDL
