MODEL 1
REMARK minimizedAffinity -1.9893328
REMARK minimizedRMSD -1
REMARK  0 active torsions:
REMARK  status: ('A' for Active; 'I' for Inactive)
ROOT
ATOM      1  C   UNL d   1      -0.937   2.183   1.142  0.00  0.00     0.172 C 
ATOM      2  N   UNL d   1      -0.370   1.152   0.306  0.00  0.00    -0.070 N 
ATOM      3  C1  UNL d   1       0.215  -0.004   0.750  0.00  0.00    -0.004 A 
ATOM      4  C2  UNL d   1       0.626  -0.720  -0.354  0.00  0.00    -0.047 A 
ATOM      5  C3  UNL d   1       0.277   0.033  -1.501  0.00  0.00    -0.047 A 
ATOM      6  C4  UNL d   1      -0.338   1.187  -1.063  0.00  0.00    -0.004 A 
ENDROOT
TORSDOF 0
ENDMDL
