MODEL 1
REMARK minimizedAffinity -2.80941176
REMARK minimizedRMSD -1
REMARK  0 active torsions:
REMARK  status: ('A' for Active; 'I' for Inactive)
ROOT
ATOM      1  C   UNL d   1      -1.322   2.347  -0.721  0.00  0.00     0.172 C 
ATOM      2  N   UNL d   1      -0.414   1.375  -0.157  0.00  0.00    -0.070 N 
ATOM      3  C1  UNL d   1      -0.069   1.277   1.164  0.00  0.00    -0.004 A 
ATOM      4  C2  UNL d   1       0.815   0.228   1.293  0.00  0.00    -0.047 A 
ATOM      5  C3  UNL d   1       1.009  -0.323   0.004  0.00  0.00    -0.047 A 
ATOM      6  C4  UNL d   1       0.236   0.406  -0.875  0.00  0.00    -0.004 A 
ENDROOT
TORSDOF 0
ENDMDL
