MODEL 1
REMARK minimizedAffinity -2.04796147
REMARK minimizedRMSD -1
REMARK  0 active torsions:
REMARK  status: ('A' for Active; 'I' for Inactive)
ROOT
ATOM      1  C   UNL d   1      -0.478   2.510   1.874  0.00  0.00     0.172 C 
ATOM      2  N   UNL d   1      -0.341   1.306   1.089  0.00  0.00    -0.070 N 
ATOM      3  C1  UNL d   1       0.042   0.081   1.566  0.00  0.00    -0.004 A 
ATOM      4  C2  UNL d   1       0.049  -0.801   0.507  0.00  0.00    -0.047 A 
ATOM      5  C3  UNL d   1      -0.341  -0.081  -0.647  0.00  0.00    -0.047 A 
ATOM      6  C4  UNL d   1      -0.577   1.221  -0.258  0.00  0.00    -0.004 A 
ENDROOT
TORSDOF 0
ENDMDL
