MODEL 1
REMARK minimizedAffinity -1.39798665
REMARK minimizedRMSD -1
REMARK  0 active torsions:
REMARK  status: ('A' for Active; 'I' for Inactive)
ROOT
ATOM      1  C   UNL d   1       0.119   0.399   1.766  0.00  0.00     0.172 C 
ATOM      2  N   UNL d   1       0.359  -0.090   0.429  0.00  0.00    -0.070 N 
ATOM      3  C1  UNL d   1       0.853  -1.326   0.107  0.00  0.00    -0.004 A 
ATOM      4  C2  UNL d   1       0.933  -1.404  -1.267  0.00  0.00    -0.047 A 
ATOM      5  C3  UNL d   1       0.472  -0.172  -1.788  0.00  0.00    -0.047 A 
ATOM      6  C4  UNL d   1       0.123   0.623  -0.717  0.00  0.00    -0.004 A 
ENDROOT
TORSDOF 0
ENDMDL
