MODEL 1
REMARK minimizedAffinity -3.22683477
REMARK minimizedRMSD -1
REMARK  0 active torsions:
REMARK  status: ('A' for Active; 'I' for Inactive)
ROOT
ATOM      1  C   UNL d   1       0.621  -0.323   1.047  0.00  0.00     0.172 C 
ATOM      2  N   UNL d   1      -0.186   0.870   0.934  0.00  0.00    -0.070 N 
ATOM      3  C1  UNL d   1      -1.074   1.141  -0.072  0.00  0.00    -0.004 A 
ATOM      4  C2  UNL d   1      -1.639   2.371   0.183  0.00  0.00    -0.047 A 
ATOM      5  C3  UNL d   1      -1.070   2.858   1.384  0.00  0.00    -0.047 A 
ATOM      6  C4  UNL d   1      -0.173   1.908   1.828  0.00  0.00    -0.004 A 
ENDROOT
TORSDOF 0
ENDMDL
