MODEL 1
REMARK minimizedAffinity 11.4103699
REMARK minimizedRMSD -1
REMARK  0 active torsions:
REMARK  status: ('A' for Active; 'I' for Inactive)
ROOT
ATOM      1  C4' PXY d   1      -0.045   2.533   5.997  0.00  0.00     0.077 C 
ATOM      2  C1' PXY d   1       1.625  -1.207   1.919  0.00  0.00     0.077 C 
ATOM      3  C1  PXY d   1       1.195  -0.232   2.997  0.00  0.00    -0.082 A 
ATOM      4  C2  PXY d   1       0.013   0.356   2.913  0.00  0.00     0.003 A 
ATOM      5  C3  PXY d   1      -0.379   1.264   3.863  0.00  0.00     0.003 A 
ATOM      6  C4  PXY d   1       0.426   1.534   4.937  0.00  0.00    -0.082 A 
ATOM      7  C5  PXY d   1       1.630   0.931   5.034  0.00  0.00     0.003 A 
ATOM      8  C6  PXY d   1       2.026   0.043   4.039  0.00  0.00     0.003 A 
ENDROOT
TORSDOF 0
ENDMDL
