MODEL 1
REMARK minimizedAffinity 7.14056921
REMARK minimizedRMSD -1
REMARK  0 active torsions:
REMARK  status: ('A' for Active; 'I' for Inactive)
ROOT
ATOM      1  C4' PXY d   1       6.000   5.999   5.293  0.00  0.00     0.077 C 
ATOM      2  C1' PXY d   1       3.187   4.088   0.619  0.00  0.00     0.077 C 
ATOM      3  C1  PXY d   1       3.931   4.578   1.845  0.00  0.00    -0.082 A 
ATOM      4  C2  PXY d   1       3.395   5.523   2.602  0.00  0.00     0.003 A 
ATOM      5  C3  PXY d   1       4.069   6.000   3.696  0.00  0.00     0.003 A 
ATOM      6  C4  PXY d   1       5.280   5.468   4.051  0.00  0.00    -0.082 A 
ATOM      7  C5  PXY d   1       5.828   4.496   3.290  0.00  0.00     0.003 A 
ATOM      8  C6  PXY d   1       5.147   4.055   2.160  0.00  0.00     0.003 A 
ENDROOT
TORSDOF 0
ENDMDL
