MODEL 1
REMARK minimizedAffinity 17.4421597
REMARK minimizedRMSD -1
REMARK  0 active torsions:
REMARK  status: ('A' for Active; 'I' for Inactive)
ROOT
ATOM      1  C4' PXY d   1      -1.933   0.086   1.868  0.00  0.00     0.077 C 
ATOM      2  C1' PXY d   1       2.651  -1.778   4.856  0.00  0.00     0.077 C 
ATOM      3  C1  PXY d   1       1.456  -1.279   4.068  0.00  0.00    -0.082 A 
ATOM      4  C2  PXY d   1       0.238  -1.666   4.412  0.00  0.00     0.003 A 
ATOM      5  C3  PXY d   1      -0.851  -1.250   3.691  0.00  0.00     0.003 A 
ATOM      6  C4  PXY d   1      -0.698  -0.385   2.640  0.00  0.00    -0.082 A 
ATOM      7  C5  PXY d   1       0.541   0.023   2.290  0.00  0.00     0.003 A 
ATOM      8  C6  PXY d   1       1.637  -0.444   3.009  0.00  0.00     0.003 A 
ENDROOT
TORSDOF 0
ENDMDL
