MODEL 1
REMARK minimizedAffinity 11.4679136
REMARK minimizedRMSD -1
REMARK  0 active torsions:
REMARK  status: ('A' for Active; 'I' for Inactive)
ROOT
ATOM      1  C4' PXY d   1       4.156   5.997   0.729  0.00  0.00     0.077 C 
ATOM      2  C1' PXY d   1       5.724   1.426   3.901  0.00  0.00     0.077 C 
ATOM      3  C1  PXY d   1       5.316   2.633   3.079  0.00  0.00    -0.082 A 
ATOM      4  C2  PXY d   1       4.404   2.500   2.130  0.00  0.00     0.003 A 
ATOM      5  C3  PXY d   1       4.047   3.574   1.356  0.00  0.00     0.003 A 
ATOM      6  C4  PXY d   1       4.591   4.808   1.590  0.00  0.00    -0.082 A 
ATOM      7  C5  PXY d   1       5.515   4.954   2.563  0.00  0.00     0.003 A 
ATOM      8  C6  PXY d   1       5.894   3.843   3.311  0.00  0.00     0.003 A 
ENDROOT
TORSDOF 0
ENDMDL
