MODEL 1
REMARK minimizedAffinity 9.01232243
REMARK minimizedRMSD -1
REMARK  0 active torsions:
REMARK  status: ('A' for Active; 'I' for Inactive)
ROOT
ATOM      1  C4' PXY d   1       1.835  -2.370   3.721  0.00  0.00     0.077 C 
ATOM      2  C1' PXY d   1      -0.977   2.538   2.529  0.00  0.00     0.077 C 
ATOM      3  C1  PXY d   1      -0.250   1.244   2.839  0.00  0.00    -0.082 A 
ATOM      4  C2  PXY d   1       0.781   1.255   3.668  0.00  0.00     0.003 A 
ATOM      5  C3  PXY d   1       1.469   0.099   3.934  0.00  0.00     0.003 A 
ATOM      6  C4  PXY d   1       1.065  -1.089   3.387  0.00  0.00    -0.082 A 
ATOM      7  C5  PXY d   1       0.008  -1.110   2.548  0.00  0.00     0.003 A 
ATOM      8  C6  PXY d   1      -0.652   0.081   2.259  0.00  0.00     0.003 A 
ENDROOT
TORSDOF 0
ENDMDL
