MODEL 1
REMARK minimizedAffinity 16.107214
REMARK minimizedRMSD -1
REMARK  0 active torsions:
REMARK  status: ('A' for Active; 'I' for Inactive)
ROOT
ATOM      1  C4' PXY d   1       1.146  -5.044  -6.000  0.00  0.00     0.077 C 
ATOM      2  C1' PXY d   1       1.065   0.363  -3.957  0.00  0.00     0.077 C 
ATOM      3  C1  PXY d   1       1.073  -1.056  -4.493  0.00  0.00    -0.082 A 
ATOM      4  C2  PXY d   1       2.148  -1.811  -4.329  0.00  0.00     0.003 A 
ATOM      5  C3  PXY d   1       2.184  -3.085  -4.835  0.00  0.00     0.003 A 
ATOM      6  C4  PXY d   1       1.089  -3.610  -5.468  0.00  0.00    -0.082 A 
ATOM      7  C5  PXY d   1      -0.014  -2.850  -5.630  0.00  0.00     0.003 A 
ATOM      8  C6  PXY d   1      -0.016  -1.545  -5.145  0.00  0.00     0.003 A 
ENDROOT
TORSDOF 0
ENDMDL
