MODEL 1
REMARK minimizedAffinity 5.54910946
REMARK minimizedRMSD -1
REMARK  1 active torsions:
REMARK  status: ('A' for Active; 'I' for Inactive)
REMARK    1  A    between atoms: C1_2  and  C2_3 
ROOT
ATOM      1  C2  UNL d   1      -1.433  -2.443   2.840  0.00  0.00    -0.073 A 
ATOM      2  C3  UNL d   1      -1.030  -1.426   3.712  0.00  0.00    -0.002 A 
ATOM      3  C4  UNL d   1       0.257  -0.893   3.627  0.00  0.00     0.004 A 
ATOM      4  C5  UNL d   1       1.150  -1.366   2.665  0.00  0.00    -0.004 A 
ATOM      5  C6  UNL d   1       0.762  -2.374   1.777  0.00  0.00    -0.075 A 
ATOM      6  C7  UNL d   1       1.711  -2.896   0.739  0.00  0.00     0.076 C 
ATOM      7  C8  UNL d   1      -0.532  -2.906   1.871  0.00  0.00     0.001 A 
ENDROOT
BRANCH   1   8
ATOM      8  C1  UNL d   1      -2.824  -3.017   2.924  0.00  0.00     0.053 C 
ATOM      9  C   UNL d   1      -3.404  -3.311   1.550  0.00  0.00     0.018 C 
ENDBRANCH   1   8
TORSDOF 1
ENDMDL
