MODEL 1
REMARK minimizedAffinity 11.9051085
REMARK minimizedRMSD -1
REMARK  1 active torsions:
REMARK  status: ('A' for Active; 'I' for Inactive)
REMARK    1  A    between atoms: C1_2  and  C2_3 
ROOT
ATOM      1  C2  UNL d   1      -2.021  -1.792   3.409  0.00  0.00    -0.073 A 
ATOM      2  C3  UNL d   1      -1.519  -1.526   4.688  0.00  0.00    -0.002 A 
ATOM      3  C4  UNL d   1      -0.227  -1.022   4.848  0.00  0.00     0.004 A 
ATOM      4  C5  UNL d   1       0.572  -0.773   3.732  0.00  0.00    -0.004 A 
ATOM      5  C6  UNL d   1       0.084  -1.021   2.445  0.00  0.00    -0.075 A 
ATOM      6  C7  UNL d   1       0.932  -0.761   1.235  0.00  0.00     0.076 C 
ATOM      7  C8  UNL d   1      -1.213  -1.530   2.293  0.00  0.00     0.001 A 
ENDROOT
BRANCH   1   8
ATOM      8  C1  UNL d   1      -3.417  -2.331   3.231  0.00  0.00     0.053 C 
ATOM      9  C   UNL d   1      -3.674  -2.788   1.804  0.00  0.00     0.018 C 
ENDBRANCH   1   8
TORSDOF 1
ENDMDL
