MODEL 1
REMARK minimizedAffinity 18.0686131
REMARK minimizedRMSD -1
REMARK  1 active torsions:
REMARK  status: ('A' for Active; 'I' for Inactive)
REMARK    1  A    between atoms: C1_2  and  C2_3 
ROOT
ATOM      1  C2  UNL d   1       0.585  -4.732   2.317  0.00  0.00    -0.073 A 
ATOM      2  C3  UNL d   1       1.221  -4.802   1.072  0.00  0.00    -0.002 A 
ATOM      3  C4  UNL d   1       1.265  -3.683   0.240  0.00  0.00     0.004 A 
ATOM      4  C5  UNL d   1       0.682  -2.482   0.646  0.00  0.00    -0.004 A 
ATOM      5  C6  UNL d   1       0.053  -2.390   1.892  0.00  0.00    -0.075 A 
ATOM      6  C7  UNL d   1      -0.581  -1.107   2.343  0.00  0.00     0.076 C 
ATOM      7  C8  UNL d   1       0.010  -3.519   2.721  0.00  0.00     0.001 A 
ENDROOT
BRANCH   1   8
ATOM      8  C1  UNL d   1       0.540  -5.937   3.222  0.00  0.00     0.053 C 
ATOM      9  C   UNL d   1       1.745  -6.000   4.148  0.00  0.00     0.018 C 
ENDBRANCH   1   8
TORSDOF 1
ENDMDL
