MODEL 1
REMARK minimizedAffinity 15.2402105
REMARK minimizedRMSD -1
REMARK  1 active torsions:
REMARK  status: ('A' for Active; 'I' for Inactive)
REMARK    1  A    between atoms: C1_2  and  C2_3 
ROOT
ATOM      1  C2  UNL d   1       1.656   1.840   0.216  0.00  0.00    -0.073 A 
ATOM      2  C3  UNL d   1       2.992   1.865   0.634  0.00  0.00    -0.002 A 
ATOM      3  C4  UNL d   1       3.545   0.767   1.292  0.00  0.00     0.004 A 
ATOM      4  C5  UNL d   1       2.772  -0.369   1.534  0.00  0.00    -0.004 A 
ATOM      5  C6  UNL d   1       1.439  -0.418   1.113  0.00  0.00    -0.075 A 
ATOM      6  C7  UNL d   1       0.594  -1.632   1.367  0.00  0.00     0.076 C 
ATOM      7  C8  UNL d   1       0.890   0.690   0.455  0.00  0.00     0.001 A 
ENDROOT
BRANCH   1   8
ATOM      8  C1  UNL d   1       1.056   3.022  -0.502  0.00  0.00     0.053 C 
ATOM      9  C   UNL d   1       0.384   2.617  -1.804  0.00  0.00     0.018 C 
ENDBRANCH   1   8
TORSDOF 1
ENDMDL
