MODEL 1
REMARK minimizedAffinity 12.950285
REMARK minimizedRMSD -1
REMARK  1 active torsions:
REMARK  status: ('A' for Active; 'I' for Inactive)
REMARK    1  A    between atoms: C1_2  and  C2_3 
ROOT
ATOM      1  C2  UNL d   1      -4.167  -5.060   3.926  0.00  0.00    -0.073 A 
ATOM      2  C3  UNL d   1      -5.124  -5.933   4.455  0.00  0.00    -0.002 A 
ATOM      3  C4  UNL d   1      -5.989  -5.505   5.463  0.00  0.00     0.004 A 
ATOM      4  C5  UNL d   1      -5.911  -4.199   5.947  0.00  0.00    -0.004 A 
ATOM      5  C6  UNL d   1      -4.969  -3.308   5.423  0.00  0.00    -0.075 A 
ATOM      6  C7  UNL d   1      -4.871  -1.901   5.935  0.00  0.00     0.076 C 
ATOM      7  C8  UNL d   1      -4.102  -3.746   4.413  0.00  0.00     0.001 A 
ENDROOT
BRANCH   1   8
ATOM      8  C1  UNL d   1      -3.235  -5.516   2.834  0.00  0.00     0.053 C 
ATOM      9  C   UNL d   1      -3.982  -5.858   1.554  0.00  0.00     0.018 C 
ENDBRANCH   1   8
TORSDOF 1
ENDMDL
