MODEL 1
REMARK minimizedAffinity 12.4794292
REMARK minimizedRMSD -1
REMARK  1 active torsions:
REMARK  status: ('A' for Active; 'I' for Inactive)
REMARK    1  A    between atoms: C1_2  and  C2_3 
ROOT
ATOM      1  C2  UNL d   1      -1.530  -2.043   1.998  0.00  0.00    -0.073 A 
ATOM      2  C3  UNL d   1      -0.685  -1.808   0.907  0.00  0.00    -0.002 A 
ATOM      3  C4  UNL d   1       0.498  -1.086   1.074  0.00  0.00     0.004 A 
ATOM      4  C5  UNL d   1       0.851  -0.598   2.332  0.00  0.00    -0.004 A 
ATOM      5  C6  UNL d   1       0.026  -0.832   3.436  0.00  0.00    -0.075 A 
ATOM      6  C7  UNL d   1       0.390  -0.312   4.796  0.00  0.00     0.076 C 
ATOM      7  C8  UNL d   1      -1.162  -1.556   3.260  0.00  0.00     0.001 A 
ENDROOT
BRANCH   1   8
ATOM      8  C1  UNL d   1      -2.805  -2.827   1.824  0.00  0.00     0.053 C 
ATOM      9  C   UNL d   1      -3.798  -2.555   2.943  0.00  0.00     0.018 C 
ENDBRANCH   1   8
TORSDOF 1
ENDMDL
