MODEL 1
REMARK minimizedAffinity 18.7167091
REMARK minimizedRMSD -1
REMARK  1 active torsions:
REMARK  status: ('A' for Active; 'I' for Inactive)
REMARK    1  A    between atoms: C1_2  and  C2_3 
ROOT
ATOM      1  C2  UNL d   1       1.769  -0.496   1.900  0.00  0.00    -0.073 A 
ATOM      2  C3  UNL d   1       1.983  -1.739   1.294  0.00  0.00    -0.002 A 
ATOM      3  C4  UNL d   1       0.964  -2.691   1.260  0.00  0.00     0.004 A 
ATOM      4  C5  UNL d   1      -0.280  -2.409   1.825  0.00  0.00    -0.004 A 
ATOM      5  C6  UNL d   1      -0.517  -1.168   2.425  0.00  0.00    -0.075 A 
ATOM      6  C7  UNL d   1      -1.849  -0.849   3.038  0.00  0.00     0.076 C 
ATOM      7  C8  UNL d   1       0.512  -0.218   2.457  0.00  0.00     0.001 A 
ENDROOT
BRANCH   1   8
ATOM      8  C1  UNL d   1       2.865   0.538   1.934  0.00  0.00     0.053 C 
ATOM      9  C   UNL d   1       2.808   1.468   0.732  0.00  0.00     0.018 C 
ENDBRANCH   1   8
TORSDOF 1
ENDMDL
