MODEL 1
REMARK minimizedAffinity 13.4574566
REMARK minimizedRMSD -1
REMARK  1 active torsions:
REMARK  status: ('A' for Active; 'I' for Inactive)
REMARK    1  A    between atoms: C1_2  and  C2_3 
ROOT
ATOM      1  C2  UNL d   1       0.759  -4.534   2.285  0.00  0.00    -0.073 A 
ATOM      2  C3  UNL d   1       1.494  -4.272   1.124  0.00  0.00    -0.002 A 
ATOM      3  C4  UNL d   1       1.475  -3.001   0.549  0.00  0.00     0.004 A 
ATOM      4  C5  UNL d   1       0.727  -1.978   1.132  0.00  0.00    -0.004 A 
ATOM      5  C6  UNL d   1      -0.005  -2.217   2.300  0.00  0.00    -0.075 A 
ATOM      6  C7  UNL d   1      -0.817  -1.128   2.938  0.00  0.00     0.076 C 
ATOM      7  C8  UNL d   1       0.017  -3.497   2.869  0.00  0.00     0.001 A 
ENDROOT
BRANCH   1   8
ATOM      8  C1  UNL d   1       0.781  -5.904   2.913  0.00  0.00     0.053 C 
ATOM      9  C   UNL d   1       1.803  -6.000   4.035  0.00  0.00     0.018 C 
ENDBRANCH   1   8
TORSDOF 1
ENDMDL
