MODEL 1
REMARK minimizedAffinity 13.2055655
REMARK minimizedRMSD -1
REMARK  1 active torsions:
REMARK  status: ('A' for Active; 'I' for Inactive)
REMARK    1  A    between atoms: C1_2  and  C2_3 
ROOT
ATOM      1  C2  UNL d   1       0.719  -1.552   1.605  0.00  0.00    -0.073 A 
ATOM      2  C3  UNL d   1       1.734  -0.594   1.718  0.00  0.00    -0.002 A 
ATOM      3  C4  UNL d   1       2.906  -0.717   0.971  0.00  0.00     0.004 A 
ATOM      4  C5  UNL d   1       3.073  -1.794   0.100  0.00  0.00    -0.004 A 
ATOM      5  C6  UNL d   1       2.067  -2.755  -0.035  0.00  0.00    -0.075 A 
ATOM      6  C7  UNL d   1       2.232  -3.921  -0.966  0.00  0.00     0.076 C 
ATOM      7  C8  UNL d   1       0.893  -2.626   0.720  0.00  0.00     0.001 A 
ENDROOT
BRANCH   1   8
ATOM      8  C1  UNL d   1      -0.551  -1.419   2.405  0.00  0.00     0.053 C 
ATOM      9  C   UNL d   1      -0.436  -0.356   3.485  0.00  0.00     0.018 C 
ENDBRANCH   1   8
TORSDOF 1
ENDMDL
