MODEL 1
REMARK minimizedAffinity 12.1787834
REMARK minimizedRMSD -1
REMARK  1 active torsions:
REMARK  status: ('A' for Active; 'I' for Inactive)
REMARK    1  A    between atoms: C1_2  and  C2_3 
ROOT
ATOM      1  C2  UNL d   1      -2.077  -2.485   2.561  0.00  0.00    -0.073 A 
ATOM      2  C3  UNL d   1      -2.053  -1.348   3.378  0.00  0.00    -0.002 A 
ATOM      3  C4  UNL d   1      -0.887  -0.590   3.496  0.00  0.00     0.004 A 
ATOM      4  C5  UNL d   1       0.262  -0.956   2.796  0.00  0.00    -0.004 A 
ATOM      5  C6  UNL d   1       0.255  -2.081   1.965  0.00  0.00    -0.075 A 
ATOM      6  C7  UNL d   1       1.483  -2.488   1.207  0.00  0.00     0.076 C 
ATOM      7  C8  UNL d   1      -0.919  -2.839   1.853  0.00  0.00     0.001 A 
ENDROOT
BRANCH   1   8
ATOM      8  C1  UNL d   1      -3.335  -3.303   2.425  0.00  0.00     0.053 C 
ATOM      9  C   UNL d   1      -4.112  -3.375   3.729  0.00  0.00     0.018 C 
ENDBRANCH   1   8
TORSDOF 1
ENDMDL
