MODEL 1
REMARK minimizedAffinity 13.1399765
REMARK minimizedRMSD -1
REMARK  1 active torsions:
REMARK  status: ('A' for Active; 'I' for Inactive)
REMARK    1  A    between atoms: C1_2  and  C2_3 
ROOT
ATOM      1  C2  UNL d   1      -3.593   3.962  -2.551  0.00  0.00    -0.073 A 
ATOM      2  C3  UNL d   1      -3.125   5.060  -1.820  0.00  0.00    -0.002 A 
ATOM      3  C4  UNL d   1      -2.270   5.989  -2.414  0.00  0.00     0.004 A 
ATOM      4  C5  UNL d   1      -1.880   5.835  -3.745  0.00  0.00    -0.004 A 
ATOM      5  C6  UNL d   1      -2.347   4.751  -4.495  0.00  0.00    -0.075 A 
ATOM      6  C7  UNL d   1      -1.936   4.569  -5.927  0.00  0.00     0.076 C 
ATOM      7  C8  UNL d   1      -3.203   3.820  -3.891  0.00  0.00     0.001 A 
ENDROOT
BRANCH   1   8
ATOM      8  C1  UNL d   1      -4.521   2.959  -1.916  0.00  0.00     0.053 C 
ATOM      9  C   UNL d   1      -5.635   2.536  -2.860  0.00  0.00     0.018 C 
ENDBRANCH   1   8
TORSDOF 1
ENDMDL
