MODEL 1
REMARK minimizedAffinity 8.66034603
REMARK minimizedRMSD -1
REMARK  1 active torsions:
REMARK  status: ('A' for Active; 'I' for Inactive)
REMARK    1  A    between atoms: C1_2  and  C2_3 
ROOT
ATOM      1  C2  UNL d   1       1.929  -4.900  -5.693  0.00  0.00    -0.073 A 
ATOM      2  C3  UNL d   1       2.826  -5.964  -5.843  0.00  0.00    -0.002 A 
ATOM      3  C4  UNL d   1       4.191  -5.719  -5.994  0.00  0.00     0.004 A 
ATOM      4  C5  UNL d   1       4.674  -4.410  -5.990  0.00  0.00    -0.004 A 
ATOM      5  C6  UNL d   1       3.795  -3.334  -5.829  0.00  0.00    -0.075 A 
ATOM      6  C7  UNL d   1       4.299  -1.921  -5.825  0.00  0.00     0.076 C 
ATOM      7  C8  UNL d   1       2.425  -3.588  -5.681  0.00  0.00     0.001 A 
ENDROOT
BRANCH   1   8
ATOM      8  C1  UNL d   1       0.454  -5.160  -5.524  0.00  0.00     0.053 C 
ATOM      9  C   UNL d   1       0.083  -5.406  -4.070  0.00  0.00     0.018 C 
ENDBRANCH   1   8
TORSDOF 1
ENDMDL
