MODEL 1
REMARK minimizedAffinity 17.3786201
REMARK minimizedRMSD -1
REMARK  1 active torsions:
REMARK  status: ('A' for Active; 'I' for Inactive)
REMARK    1  A    between atoms: C1_2  and  C2_3 
ROOT
ATOM      1  C2  UNL d   1      -1.487   3.748  -3.017  0.00  0.00    -0.073 A 
ATOM      2  C3  UNL d   1      -1.171   4.893  -3.757  0.00  0.00    -0.002 A 
ATOM      3  C4  UNL d   1      -2.021   5.999  -3.743  0.00  0.00     0.004 A 
ATOM      4  C5  UNL d   1      -3.191   5.976  -2.984  0.00  0.00    -0.004 A 
ATOM      5  C6  UNL d   1      -3.519   4.845  -2.228  0.00  0.00    -0.075 A 
ATOM      6  C7  UNL d   1      -4.775   4.803  -1.408  0.00  0.00     0.076 C 
ATOM      7  C8  UNL d   1      -2.661   3.737  -2.250  0.00  0.00     0.001 A 
ENDROOT
BRANCH   1   8
ATOM      8  C1  UNL d   1      -0.569   2.554  -3.024  0.00  0.00     0.053 C 
ATOM      9  C   UNL d   1       0.523   2.668  -1.973  0.00  0.00     0.018 C 
ENDBRANCH   1   8
TORSDOF 1
ENDMDL
