MODEL 1
REMARK minimizedAffinity 4.19685221
REMARK minimizedRMSD -1
REMARK  1 active torsions:
REMARK  status: ('A' for Active; 'I' for Inactive)
REMARK    1  A    between atoms: C1_2  and  C2_3 
ROOT
ATOM      1  C2  UNL d   1      -3.226  -3.397   2.779  0.00  0.00    -0.073 A 
ATOM      2  C3  UNL d   1      -3.893  -4.271   3.645  0.00  0.00    -0.002 A 
ATOM      3  C4  UNL d   1      -4.619  -5.349   3.137  0.00  0.00     0.004 A 
ATOM      4  C5  UNL d   1      -4.679  -5.568   1.761  0.00  0.00    -0.004 A 
ATOM      5  C6  UNL d   1      -4.010  -4.713   0.880  0.00  0.00    -0.075 A 
ATOM      6  C7  UNL d   1      -4.067  -4.934  -0.603  0.00  0.00     0.076 C 
ATOM      7  C8  UNL d   1      -3.285  -3.631   1.398  0.00  0.00     0.001 A 
ENDROOT
BRANCH   1   8
ATOM      8  C1  UNL d   1      -2.436  -2.235   3.323  0.00  0.00     0.053 C 
ATOM      9  C   UNL d   1      -0.992  -2.254   2.847  0.00  0.00     0.018 C 
ENDBRANCH   1   8
TORSDOF 1
ENDMDL
