MODEL 1
REMARK minimizedAffinity 1.93727541
REMARK minimizedRMSD -1
REMARK  1 active torsions:
REMARK  status: ('A' for Active; 'I' for Inactive)
REMARK    1  A    between atoms: C1_2  and  C2_3 
ROOT
ATOM      1  C2  UNL d   1      -5.266  -5.478   0.071  0.00  0.00    -0.073 A 
ATOM      2  C3  UNL d   1      -3.986  -6.000   0.290  0.00  0.00    -0.002 A 
ATOM      3  C4  UNL d   1      -3.327  -5.767   1.498  0.00  0.00     0.004 A 
ATOM      4  C5  UNL d   1      -3.943  -5.018   2.501  0.00  0.00    -0.004 A 
ATOM      5  C6  UNL d   1      -5.227  -4.498   2.305  0.00  0.00    -0.075 A 
ATOM      6  C7  UNL d   1      -5.902  -3.688   3.373  0.00  0.00     0.076 C 
ATOM      7  C8  UNL d   1      -5.880  -4.733   1.088  0.00  0.00     0.001 A 
ENDROOT
BRANCH   1   8
ATOM      8  C1  UNL d   1      -5.984  -5.731  -1.229  0.00  0.00     0.053 C 
ATOM      9  C   UNL d   1      -5.017  -5.998  -2.372  0.00  0.00     0.018 C 
ENDBRANCH   1   8
TORSDOF 1
ENDMDL
