MODEL 1
REMARK minimizedAffinity -3.53562307
REMARK minimizedRMSD -1
REMARK  0 active torsions:
REMARK  status: ('A' for Active; 'I' for Inactive)
ROOT
ATOM      1  C   UNL d   1       0.037   3.438  -5.065  0.00  0.00     0.172 C 
ATOM      2  N   UNL d   1      -0.900   3.042  -4.040  0.00  0.00    -0.070 N 
ATOM      3  C1  UNL d   1      -0.611   2.892  -2.710  0.00  0.00    -0.004 A 
ATOM      4  C2  UNL d   1      -1.768   2.506  -2.067  0.00  0.00    -0.047 A 
ATOM      5  C3  UNL d   1      -2.787   2.421  -3.045  0.00  0.00    -0.047 A 
ATOM      6  C4  UNL d   1      -2.222   2.758  -4.257  0.00  0.00    -0.004 A 
ENDROOT
TORSDOF 0
ENDMDL
