MODEL 1
REMARK minimizedAffinity -2.72004867
REMARK minimizedRMSD -1
REMARK  0 active torsions:
REMARK  status: ('A' for Active; 'I' for Inactive)
ROOT
ATOM      1  C   UNL d   1      -0.236   0.770  -0.134  0.00  0.00     0.172 C 
ATOM      2  N   UNL d   1       0.574  -0.302   0.394  0.00  0.00    -0.070 N 
ATOM      3  C1  UNL d   1       1.662  -0.859  -0.224  0.00  0.00    -0.004 A 
ATOM      4  C2  UNL d   1       2.156  -1.847   0.601  0.00  0.00    -0.047 A 
ATOM      5  C3  UNL d   1       1.335  -1.886   1.753  0.00  0.00    -0.047 A 
ATOM      6  C4  UNL d   1       0.364  -0.919   1.599  0.00  0.00    -0.004 A 
ENDROOT
TORSDOF 0
ENDMDL
