MODEL 1
REMARK minimizedAffinity -3.79832602
REMARK minimizedRMSD -1
REMARK  0 active torsions:
REMARK  status: ('A' for Active; 'I' for Inactive)
ROOT
ATOM      1  C   UNL d   1      -1.056  -1.095   2.978  0.00  0.00     0.172 C 
ATOM      2  N   UNL d   1       0.018  -1.026   2.015  0.00  0.00    -0.070 N 
ATOM      3  C1  UNL d   1       0.093  -0.149   0.965  0.00  0.00    -0.004 A 
ATOM      4  C2  UNL d   1       1.265  -0.403   0.286  0.00  0.00    -0.047 A 
ATOM      5  C3  UNL d   1       1.916  -1.470   0.950  0.00  0.00    -0.047 A 
ATOM      6  C4  UNL d   1       1.122  -1.836   2.016  0.00  0.00    -0.004 A 
ENDROOT
TORSDOF 0
ENDMDL
