MODEL 1
REMARK minimizedAffinity -0.690597475
REMARK minimizedRMSD -1
REMARK  0 active torsions:
REMARK  status: ('A' for Active; 'I' for Inactive)
ROOT
ATOM      1  C   UNL d   1      -0.760   1.135  -0.062  0.00  0.00     0.172 C 
ATOM      2  N   UNL d   1      -1.492   1.574  -1.226  0.00  0.00    -0.070 N 
ATOM      3  C1  UNL d   1      -1.171   2.647  -2.014  0.00  0.00    -0.004 A 
ATOM      4  C2  UNL d   1      -2.112   2.731  -3.017  0.00  0.00    -0.047 A 
ATOM      5  C3  UNL d   1      -3.031   1.672  -2.826  0.00  0.00    -0.047 A 
ATOM      6  C4  UNL d   1      -2.624   0.972  -1.710  0.00  0.00    -0.004 A 
ENDROOT
TORSDOF 0
ENDMDL
