MODEL 1
REMARK minimizedAffinity -3.93934679
REMARK minimizedRMSD -1
REMARK  0 active torsions:
REMARK  status: ('A' for Active; 'I' for Inactive)
ROOT
ATOM      1  C   UNL d   1      -0.932  -1.814   2.935  0.00  0.00     0.172 C 
ATOM      2  N   UNL d   1       0.024  -1.751   1.855  0.00  0.00    -0.070 N 
ATOM      3  C1  UNL d   1      -0.049  -0.917   0.771  0.00  0.00    -0.004 A 
ATOM      4  C2  UNL d   1       1.048  -1.162  -0.025  0.00  0.00    -0.047 A 
ATOM      5  C3  UNL d   1       1.807  -2.180   0.600  0.00  0.00    -0.047 A 
ATOM      6  C4  UNL d   1       1.150  -2.526   1.762  0.00  0.00    -0.004 A 
ENDROOT
TORSDOF 0
ENDMDL
