MODEL 1
REMARK minimizedAffinity -4.21831036
REMARK minimizedRMSD -1
REMARK  0 active torsions:
REMARK  status: ('A' for Active; 'I' for Inactive)
ROOT
ATOM      1  C   UNL d   1       1.351   0.341  -0.638  0.00  0.00     0.172 C 
ATOM      2  N   UNL d   1       0.982  -0.649   0.345  0.00  0.00    -0.070 N 
ATOM      3  C1  UNL d   1       1.701  -1.772   0.657  0.00  0.00    -0.004 A 
ATOM      4  C2  UNL d   1       1.015  -2.454   1.639  0.00  0.00    -0.047 A 
ATOM      5  C3  UNL d   1      -0.157  -1.715   1.927  0.00  0.00    -0.047 A 
ATOM      6  C4  UNL d   1      -0.153  -0.603   1.112  0.00  0.00    -0.004 A 
ENDROOT
TORSDOF 0
ENDMDL
