MODEL 1
REMARK minimizedAffinity -3.33500433
REMARK minimizedRMSD -1
REMARK  0 active torsions:
REMARK  status: ('A' for Active; 'I' for Inactive)
ROOT
ATOM      1  C   UNL d   1      -0.605   0.946  -0.490  0.00  0.00     0.172 C 
ATOM      2  N   UNL d   1       0.241  -0.174  -0.150  0.00  0.00    -0.070 N 
ATOM      3  C1  UNL d   1      -0.142  -1.274   0.571  0.00  0.00    -0.004 A 
ATOM      4  C2  UNL d   1       0.949  -2.109   0.677  0.00  0.00    -0.047 A 
ATOM      5  C3  UNL d   1       2.025  -1.489  -0.002  0.00  0.00    -0.047 A 
ATOM      6  C4  UNL d   1       1.559  -0.293  -0.504  0.00  0.00    -0.004 A 
ENDROOT
TORSDOF 0
ENDMDL
