MODEL 1
REMARK minimizedAffinity -2.9977932
REMARK minimizedRMSD -1
REMARK  0 active torsions:
REMARK  status: ('A' for Active; 'I' for Inactive)
ROOT
ATOM      1  C   UNL d   1      -0.477   0.719  -0.487  0.00  0.00     0.172 C 
ATOM      2  N   UNL d   1       0.251  -0.372   0.115  0.00  0.00    -0.070 N 
ATOM      3  C1  UNL d   1       1.570  -0.670  -0.106  0.00  0.00    -0.004 A 
ATOM      4  C2  UNL d   1       1.885  -1.777   0.652  0.00  0.00    -0.047 A 
ATOM      5  C3  UNL d   1       0.716  -2.158   1.353  0.00  0.00    -0.047 A 
ATOM      6  C4  UNL d   1      -0.280  -1.271   1.002  0.00  0.00    -0.004 A 
ENDROOT
TORSDOF 0
ENDMDL
