MODEL 1
REMARK minimizedAffinity -3.83996177
REMARK minimizedRMSD -1
REMARK  0 active torsions:
REMARK  status: ('A' for Active; 'I' for Inactive)
ROOT
ATOM      1  C   UNL d   1      -0.686   0.896   0.140  0.00  0.00     0.172 C 
ATOM      2  N   UNL d   1       0.084  -0.284   0.455  0.00  0.00    -0.070 N 
ATOM      3  C1  UNL d   1       1.256  -0.657  -0.148  0.00  0.00    -0.004 A 
ATOM      4  C2  UNL d   1       1.674  -1.835   0.433  0.00  0.00    -0.047 A 
ATOM      5  C3  UNL d   1       0.720  -2.182   1.419  0.00  0.00    -0.047 A 
ATOM      6  C4  UNL d   1      -0.253  -1.205   1.412  0.00  0.00    -0.004 A 
ENDROOT
TORSDOF 0
ENDMDL
