MODEL 1
REMARK minimizedAffinity -2.77616477
REMARK minimizedRMSD -1
REMARK  0 active torsions:
REMARK  status: ('A' for Active; 'I' for Inactive)
ROOT
ATOM      1  C   UNL d   1      -0.320  -0.394   0.339  0.00  0.00     0.172 C 
ATOM      2  N   UNL d   1      -0.387  -1.272   1.484  0.00  0.00    -0.070 N 
ATOM      3  C1  UNL d   1       0.547  -2.214   1.823  0.00  0.00    -0.004 A 
ATOM      4  C2  UNL d   1       0.118  -2.838   2.975  0.00  0.00    -0.047 A 
ATOM      5  C3  UNL d   1      -1.117  -2.251   3.340  0.00  0.00    -0.047 A 
ATOM      6  C4  UNL d   1      -1.406  -1.285   2.400  0.00  0.00    -0.004 A 
ENDROOT
TORSDOF 0
ENDMDL
