MODEL 1
REMARK minimizedAffinity -3.53655696
REMARK minimizedRMSD -1
REMARK  0 active torsions:
REMARK  status: ('A' for Active; 'I' for Inactive)
ROOT
ATOM      1  C   UNL d   1       0.129   0.616  -0.082  0.00  0.00     0.172 C 
ATOM      2  N   UNL d   1       0.357  -0.495   0.812  0.00  0.00    -0.070 N 
ATOM      3  C1  UNL d   1       1.509  -1.230   0.893  0.00  0.00    -0.004 A 
ATOM      4  C2  UNL d   1       1.327  -2.193   1.862  0.00  0.00    -0.047 A 
ATOM      5  C3  UNL d   1       0.020  -2.031   2.380  0.00  0.00    -0.047 A 
ATOM      6  C4  UNL d   1      -0.558  -0.973   1.712  0.00  0.00    -0.004 A 
ENDROOT
TORSDOF 0
ENDMDL
