MODEL 1
REMARK minimizedAffinity -3.02520227
REMARK minimizedRMSD -1
REMARK  0 active torsions:
REMARK  status: ('A' for Active; 'I' for Inactive)
ROOT
ATOM      1  C   UNL d   1       1.591  -2.519   0.540  0.00  0.00     0.172 C 
ATOM      2  N   UNL d   1       1.037  -1.229   0.198  0.00  0.00    -0.070 N 
ATOM      3  C1  UNL d   1      -0.237  -0.810   0.471  0.00  0.00    -0.004 A 
ATOM      4  C2  UNL d   1      -0.372   0.473  -0.015  0.00  0.00    -0.047 A 
ATOM      5  C3  UNL d   1       0.864   0.836  -0.600  0.00  0.00    -0.047 A 
ATOM      6  C4  UNL d   1       1.718  -0.236  -0.455  0.00  0.00    -0.004 A 
ENDROOT
TORSDOF 0
ENDMDL
