MODEL 1
REMARK minimizedAffinity -2.88837504
REMARK minimizedRMSD -1
REMARK  0 active torsions:
REMARK  status: ('A' for Active; 'I' for Inactive)
ROOT
ATOM      1  C   UNL d   1      -1.662  -1.061   2.590  0.00  0.00     0.172 C 
ATOM      2  N   UNL d   1      -0.502  -1.457   1.826  0.00  0.00    -0.070 N 
ATOM      3  C1  UNL d   1       0.481  -2.311   2.252  0.00  0.00    -0.004 A 
ATOM      4  C2  UNL d   1       1.405  -2.431   1.236  0.00  0.00    -0.047 A 
ATOM      5  C3  UNL d   1       0.963  -1.619   0.164  0.00  0.00    -0.047 A 
ATOM      6  C4  UNL d   1      -0.219  -1.028   0.556  0.00  0.00    -0.004 A 
ENDROOT
TORSDOF 0
ENDMDL
