MODEL 1
REMARK minimizedAffinity -3.83678937
REMARK minimizedRMSD -1
REMARK  0 active torsions:
REMARK  status: ('A' for Active; 'I' for Inactive)
ROOT
ATOM      1  C   UNL d   1      -0.168   1.054  -0.239  0.00  0.00     0.172 C 
ATOM      2  N   UNL d   1       0.423  -0.211   0.129  0.00  0.00    -0.070 N 
ATOM      3  C1  UNL d   1      -0.262  -1.317   0.557  0.00  0.00    -0.004 A 
ATOM      4  C2  UNL d   1       0.658  -2.313   0.806  0.00  0.00    -0.047 A 
ATOM      5  C3  UNL d   1       1.940  -1.787   0.518  0.00  0.00    -0.047 A 
ATOM      6  C4  UNL d   1       1.765  -0.484   0.101  0.00  0.00    -0.004 A 
ENDROOT
TORSDOF 0
ENDMDL
