MODEL 1
REMARK minimizedAffinity -4.03182936
REMARK minimizedRMSD -1
REMARK  0 active torsions:
REMARK  status: ('A' for Active; 'I' for Inactive)
ROOT
ATOM      1  C   UNL d   1      -1.581  -1.624   2.923  0.00  0.00     0.172 C 
ATOM      2  N   UNL d   1      -0.445  -1.853   2.061  0.00  0.00    -0.070 N 
ATOM      3  C1  UNL d   1      -0.220  -1.241   0.857  0.00  0.00    -0.004 A 
ATOM      4  C2  UNL d   1       0.965  -1.730   0.351  0.00  0.00    -0.047 A 
ATOM      5  C3  UNL d   1       1.469  -2.668   1.282  0.00  0.00    -0.047 A 
ATOM      6  C4  UNL d   1       0.576  -2.725   2.331  0.00  0.00    -0.004 A 
ENDROOT
TORSDOF 0
ENDMDL
