MODEL 1
REMARK minimizedAffinity -4.01858473
REMARK minimizedRMSD -1
REMARK  0 active torsions:
REMARK  status: ('A' for Active; 'I' for Inactive)
ROOT
ATOM      1  C   UNL d   1      -0.462   0.698  -0.516  0.00  0.00     0.172 C 
ATOM      2  N   UNL d   1       0.277  -0.443  -0.030  0.00  0.00    -0.070 N 
ATOM      3  C1  UNL d   1      -0.211  -1.413   0.805  0.00  0.00    -0.004 A 
ATOM      4  C2  UNL d   1       0.799  -2.322   1.032  0.00  0.00    -0.047 A 
ATOM      5  C3  UNL d   1       1.934  -1.882   0.310  0.00  0.00    -0.047 A 
ATOM      6  C4  UNL d   1       1.583  -0.717  -0.338  0.00  0.00    -0.004 A 
ENDROOT
TORSDOF 0
ENDMDL
