MODEL 1
REMARK minimizedAffinity -4.23528576
REMARK minimizedRMSD -1
REMARK  0 active torsions:
REMARK  status: ('A' for Active; 'I' for Inactive)
ROOT
ATOM      1  C   UNL d   1      -0.667   0.079   0.364  0.00  0.00     0.172 C 
ATOM      2  N   UNL d   1      -0.045  -1.062   0.992  0.00  0.00    -0.070 N 
ATOM      3  C1  UNL d   1      -0.390  -1.591   2.207  0.00  0.00    -0.004 A 
ATOM      4  C2  UNL d   1       0.437  -2.668   2.449  0.00  0.00    -0.047 A 
ATOM      5  C3  UNL d   1       1.308  -2.789   1.341  0.00  0.00    -0.047 A 
ATOM      6  C4  UNL d   1       0.988  -1.783   0.454  0.00  0.00    -0.004 A 
ENDROOT
TORSDOF 0
ENDMDL
