MODEL 1
REMARK minimizedAffinity 18.2427311
REMARK minimizedRMSD -1
REMARK  0 active torsions:
REMARK  status: ('A' for Active; 'I' for Inactive)
ROOT
ATOM      1  C1  DEN d   1       1.135  -0.775   2.490  0.00  0.00     0.130 A 
ATOM      2  C2  DEN d   1       1.867  -2.029   2.330  0.00  0.00    -0.031 A 
ATOM      3  C3  DEN d   1       0.994  -2.979   1.612  0.00  0.00     0.027 A 
ATOM      4  C4  DEN d   1      -1.406  -2.631   0.734  0.00  0.00     0.027 A 
ATOM      5  C5  DEN d   1      -2.450  -1.737   0.643  0.00  0.00    -0.003 A 
ATOM      6  C6  DEN d   1      -2.385  -0.481   1.187  0.00  0.00     0.001 A 
ATOM      7  C7  DEN d   1      -1.235  -0.069   1.807  0.00  0.00     0.017 A 
ATOM      8  C8  DEN d   1      -0.181  -0.967   1.909  0.00  0.00    -0.094 A 
ATOM      9  C9  DEN d   1      -0.262  -2.228   1.342  0.00  0.00    -0.072 A 
ENDROOT
TORSDOF 0
ENDMDL
