MODEL 1
REMARK minimizedAffinity 26.5025711
REMARK minimizedRMSD -1
REMARK  0 active torsions:
REMARK  status: ('A' for Active; 'I' for Inactive)
ROOT
ATOM      1  C1  DEN d   1       0.420  -2.903   1.995  0.00  0.00     0.130 A 
ATOM      2  C2  DEN d   1       1.514  -1.962   2.216  0.00  0.00    -0.031 A 
ATOM      3  C3  DEN d   1       1.071  -0.631   1.756  0.00  0.00     0.027 A 
ATOM      4  C4  DEN d   1      -1.193   0.061   0.731  0.00  0.00     0.027 A 
ATOM      5  C5  DEN d   1      -2.432  -0.393   0.336  0.00  0.00    -0.003 A 
ATOM      6  C6  DEN d   1      -2.792  -1.711   0.434  0.00  0.00     0.001 A 
ATOM      7  C7  DEN d   1      -1.919  -2.614   0.981  0.00  0.00     0.017 A 
ATOM      8  C8  DEN d   1      -0.666  -2.165   1.375  0.00  0.00    -0.094 A 
ATOM      9  C9  DEN d   1      -0.325  -0.826   1.279  0.00  0.00    -0.072 A 
ENDROOT
TORSDOF 0
ENDMDL
