MODEL 1
REMARK minimizedAffinity 17.2828712
REMARK minimizedRMSD -1
REMARK  0 active torsions:
REMARK  status: ('A' for Active; 'I' for Inactive)
ROOT
ATOM      1  C1  DEN d   1      -0.385   4.428  -3.601  0.00  0.00     0.130 A 
ATOM      2  C2  DEN d   1       0.087   5.653  -4.240  0.00  0.00    -0.031 A 
ATOM      3  C3  DEN d   1       1.562   5.666  -4.167  0.00  0.00     0.027 A 
ATOM      4  C4  DEN d   1       3.152   3.915  -3.138  0.00  0.00     0.027 A 
ATOM      5  C5  DEN d   1       3.215   2.712  -2.470  0.00  0.00    -0.003 A 
ATOM      6  C6  DEN d   1       2.091   2.019  -2.105  0.00  0.00     0.001 A 
ATOM      7  C7  DEN d   1       0.856   2.502  -2.446  0.00  0.00     0.017 A 
ATOM      8  C8  DEN d   1       0.783   3.718  -3.113  0.00  0.00    -0.094 A 
ATOM      9  C9  DEN d   1       1.931   4.397  -3.484  0.00  0.00    -0.072 A 
ENDROOT
TORSDOF 0
ENDMDL
