MODEL 1
REMARK minimizedAffinity 17.1126442
REMARK minimizedRMSD -1
REMARK  0 active torsions:
REMARK  status: ('A' for Active; 'I' for Inactive)
ROOT
ATOM      1  C1  DEN d   1       5.222   5.259  -2.739  0.00  0.00     0.130 A 
ATOM      2  C2  DEN d   1       5.999   5.285  -1.503  0.00  0.00    -0.031 A 
ATOM      3  C3  DEN d   1       5.562   4.150  -0.665  0.00  0.00     0.027 A 
ATOM      4  C4  DEN d   1       3.772   2.361  -1.163  0.00  0.00     0.027 A 
ATOM      5  C5  DEN d   1       2.838   1.932  -2.080  0.00  0.00    -0.003 A 
ATOM      6  C6  DEN d   1       2.612   2.595  -3.257  0.00  0.00     0.001 A 
ATOM      7  C7  DEN d   1       3.360   3.700  -3.568  0.00  0.00     0.017 A 
ATOM      8  C8  DEN d   1       4.298   4.143  -2.645  0.00  0.00    -0.094 A 
ATOM      9  C9  DEN d   1       4.521   3.451  -1.466  0.00  0.00    -0.072 A 
ENDROOT
TORSDOF 0
ENDMDL
