MODEL 1
REMARK minimizedAffinity 19.5284958
REMARK minimizedRMSD -1
REMARK  0 active torsions:
REMARK  status: ('A' for Active; 'I' for Inactive)
ROOT
ATOM      1  C1  DEN d   1      -5.997   2.240  -2.978  0.00  0.00     0.130 A 
ATOM      2  C2  DEN d   1      -5.953   1.116  -2.046  0.00  0.00    -0.031 A 
ATOM      3  C3  DEN d   1      -5.827   1.661  -0.679  0.00  0.00     0.027 A 
ATOM      4  C4  DEN d   1      -5.702   4.123   0.081  0.00  0.00     0.027 A 
ATOM      5  C5  DEN d   1      -5.689   5.431  -0.350  0.00  0.00    -0.003 A 
ATOM      6  C6  DEN d   1      -5.743   5.764  -1.677  0.00  0.00     0.001 A 
ATOM      7  C7  DEN d   1      -5.858   4.777  -2.620  0.00  0.00     0.017 A 
ATOM      8  C8  DEN d   1      -5.864   3.455  -2.195  0.00  0.00    -0.094 A 
ATOM      9  C9  DEN d   1      -5.821   3.139  -0.847  0.00  0.00    -0.072 A 
ENDROOT
TORSDOF 0
ENDMDL
