MODEL 1
REMARK minimizedAffinity 3.26725698
REMARK minimizedRMSD -1
REMARK  0 active torsions:
REMARK  status: ('A' for Active; 'I' for Inactive)
ROOT
ATOM      1  C1  DEN d   1      -1.896  -0.148   3.532  0.00  0.00     0.130 A 
ATOM      2  C2  DEN d   1      -1.443  -0.778   2.294  0.00  0.00    -0.031 A 
ATOM      3  C3  DEN d   1      -2.462  -0.529   1.256  0.00  0.00     0.027 A 
ATOM      4  C4  DEN d   1      -4.684   0.768   1.440  0.00  0.00     0.027 A 
ATOM      5  C5  DEN d   1      -5.505   1.472   2.293  0.00  0.00    -0.003 A 
ATOM      6  C6  DEN d   1      -5.200   1.655   3.616  0.00  0.00     0.001 A 
ATOM      7  C7  DEN d   1      -4.021   1.166   4.114  0.00  0.00     0.017 A 
ATOM      8  C8  DEN d   1      -3.192   0.448   3.262  0.00  0.00    -0.094 A 
ATOM      9  C9  DEN d   1      -3.512   0.285   1.925  0.00  0.00    -0.072 A 
ENDROOT
TORSDOF 0
ENDMDL
