MODEL 1
REMARK minimizedAffinity 17.1314373
REMARK minimizedRMSD -1
REMARK  0 active torsions:
REMARK  status: ('A' for Active; 'I' for Inactive)
ROOT
ATOM      1  C1  DEN d   1      -0.842  -0.241   2.860  0.00  0.00     0.130 A 
ATOM      2  C2  DEN d   1      -2.198   0.298   2.805  0.00  0.00    -0.031 A 
ATOM      3  C3  DEN d   1      -3.020  -0.615   1.986  0.00  0.00     0.027 A 
ATOM      4  C4  DEN d   1      -2.329  -2.802   0.807  0.00  0.00     0.027 A 
ATOM      5  C5  DEN d   1      -1.281  -3.660   0.556  0.00  0.00    -0.003 A 
ATOM      6  C6  DEN d   1      -0.015  -3.422   1.023  0.00  0.00     0.001 A 
ATOM      7  C7  DEN d   1       0.224  -2.323   1.805  0.00  0.00     0.017 A 
ATOM      8  C8  DEN d   1      -0.826  -1.450   2.055  0.00  0.00    -0.094 A 
ATOM      9  C9  DEN d   1      -2.101  -1.714   1.584  0.00  0.00    -0.072 A 
ENDROOT
TORSDOF 0
ENDMDL
