MODEL 1
REMARK minimizedAffinity 11.094883
REMARK minimizedRMSD -1
REMARK  0 active torsions:
REMARK  status: ('A' for Active; 'I' for Inactive)
ROOT
ATOM      1  C1  DEN d   1      -5.016  -4.567   1.927  0.00  0.00     0.130 A 
ATOM      2  C2  DEN d   1      -4.617  -3.167   1.822  0.00  0.00    -0.031 A 
ATOM      3  C3  DEN d   1      -4.666  -2.575   3.174  0.00  0.00     0.027 A 
ATOM      4  C4  DEN d   1      -5.314  -3.688   5.409  0.00  0.00     0.027 A 
ATOM      5  C5  DEN d   1      -5.738  -4.858   5.999  0.00  0.00    -0.003 A 
ATOM      6  C6  DEN d   1      -5.981  -5.995   5.275  0.00  0.00     0.001 A 
ATOM      7  C7  DEN d   1      -5.760  -5.998   3.923  0.00  0.00     0.017 A 
ATOM      8  C8  DEN d   1      -5.339  -4.820   3.320  0.00  0.00    -0.094 A 
ATOM      9  C9  DEN d   1      -5.087  -3.685   4.071  0.00  0.00    -0.072 A 
ENDROOT
TORSDOF 0
ENDMDL
