MODEL 1
REMARK minimizedAffinity 14.3158474
REMARK minimizedRMSD -1
REMARK  0 active torsions:
REMARK  status: ('A' for Active; 'I' for Inactive)
ROOT
ATOM      1  C1  DEN d   1      -3.845  -5.870  -5.999  0.00  0.00     0.130 A 
ATOM      2  C2  DEN d   1      -4.871  -4.831  -5.997  0.00  0.00    -0.031 A 
ATOM      3  C3  DEN d   1      -4.313  -3.640  -5.326  0.00  0.00     0.027 A 
ATOM      4  C4  DEN d   1      -1.971  -3.303  -4.300  0.00  0.00     0.027 A 
ATOM      5  C5  DEN d   1      -0.758  -3.905  -4.051  0.00  0.00    -0.003 A 
ATOM      6  C6  DEN d   1      -0.502  -5.205  -4.400  0.00  0.00     0.001 A 
ATOM      7  C7  DEN d   1      -1.458  -5.931  -5.059  0.00  0.00     0.017 A 
ATOM      8  C8  DEN d   1      -2.687  -5.333  -5.308  0.00  0.00    -0.094 A 
ATOM      9  C9  DEN d   1      -2.921  -4.014  -4.958  0.00  0.00    -0.072 A 
ENDROOT
TORSDOF 0
ENDMDL
