MODEL 1
REMARK minimizedAffinity 3.24554372
REMARK minimizedRMSD -1
REMARK  0 active torsions:
REMARK  status: ('A' for Active; 'I' for Inactive)
ROOT
ATOM      1  C1  DEN d   1      -0.282  -3.235  -0.425  0.00  0.00     0.130 A 
ATOM      2  C2  DEN d   1       1.137  -3.581  -0.423  0.00  0.00    -0.031 A 
ATOM      3  C3  DEN d   1       1.781  -2.863   0.695  0.00  0.00     0.027 A 
ATOM      4  C4  DEN d   1       0.724  -1.262   2.418  0.00  0.00     0.027 A 
ATOM      5  C5  DEN d   1      -0.446  -0.651   2.814  0.00  0.00    -0.003 A 
ATOM      6  C6  DEN d   1      -1.626  -0.831   2.143  0.00  0.00     0.001 A 
ATOM      7  C7  DEN d   1      -1.673  -1.677   1.066  0.00  0.00     0.017 A 
ATOM      8  C8  DEN d   1      -0.496  -2.290   0.657  0.00  0.00    -0.094 A 
ATOM      9  C9  DEN d   1       0.685  -2.105   1.356  0.00  0.00    -0.072 A 
ENDROOT
TORSDOF 0
ENDMDL
