MODEL 1
REMARK minimizedAffinity -2.07204103
REMARK minimizedRMSD -1
REMARK  0 active torsions:
REMARK  status: ('A' for Active; 'I' for Inactive)
ROOT
ATOM      1  C2' OXE d   1      -1.782   1.963   1.130  0.00  0.00     0.078 C 
ATOM      2  C1' OXE d   1      -0.620   2.375  -1.392  0.00  0.00     0.078 C 
ATOM      3  C1  OXE d   1      -0.167   1.176  -0.596  0.00  0.00    -0.078 A 
ATOM      4  C2  OXE d   1      -0.707   1.009   0.657  0.00  0.00    -0.078 A 
ATOM      5  C3  OXE d   1      -0.364  -0.110   1.411  0.00  0.00     0.003 A 
ATOM      6  C4  OXE d   1       0.638  -0.982   0.971  0.00  0.00    -0.002 A 
ATOM      7  C5  OXE d   1       1.230  -0.807  -0.285  0.00  0.00    -0.002 A 
ATOM      8  C6  OXE d   1       0.809   0.240  -1.097  0.00  0.00     0.003 A 
ENDROOT
TORSDOF 0
ENDMDL
