MODEL 1
REMARK minimizedAffinity -1.6367861
REMARK minimizedRMSD -1
REMARK  0 active torsions:
REMARK  status: ('A' for Active; 'I' for Inactive)
ROOT
ATOM      1  C2' OXE d   1      -2.285   1.968   1.301  0.00  0.00     0.078 C 
ATOM      2  C1' OXE d   1      -0.582   2.382  -0.891  0.00  0.00     0.078 C 
ATOM      3  C1  OXE d   1      -0.416   1.107  -0.102  0.00  0.00    -0.078 A 
ATOM      4  C2  OXE d   1      -1.222   0.934   0.997  0.00  0.00    -0.078 A 
ATOM      5  C3  OXE d   1      -1.148  -0.248   1.727  0.00  0.00     0.003 A 
ATOM      6  C4  OXE d   1      -0.155  -1.194   1.445  0.00  0.00    -0.002 A 
ATOM      7  C5  OXE d   1       0.703  -1.020   0.354  0.00  0.00    -0.002 A 
ATOM      8  C6  OXE d   1       0.558   0.103  -0.454  0.00  0.00     0.003 A 
ENDROOT
TORSDOF 0
ENDMDL
