MODEL 1
REMARK minimizedAffinity -4.94606018
REMARK minimizedRMSD -1
REMARK  0 active torsions:
REMARK  status: ('A' for Active; 'I' for Inactive)
ROOT
ATOM      1  C2' OXE d   1       1.164  -1.192  -0.241  0.00  0.00     0.078 C 
ATOM      2  C1' OXE d   1      -0.123  -1.561   2.227  0.00  0.00     0.078 C 
ATOM      3  C1  OXE d   1      -0.414  -0.293   1.464  0.00  0.00    -0.078 A 
ATOM      4  C2  OXE d   1       0.256  -0.099   0.280  0.00  0.00    -0.078 A 
ATOM      5  C3  OXE d   1      -0.016   1.028  -0.490  0.00  0.00     0.003 A 
ATOM      6  C4  OXE d   1      -0.850   2.039   0.003  0.00  0.00    -0.002 A 
ATOM      7  C5  OXE d   1      -1.512   1.880   1.226  0.00  0.00    -0.002 A 
ATOM      8  C6  OXE d   1      -1.338   0.704   1.947  0.00  0.00     0.003 A 
ENDROOT
TORSDOF 0
ENDMDL
