MODEL 1
REMARK minimizedAffinity -6.01806259
REMARK minimizedRMSD -1
REMARK  0 active torsions:
REMARK  status: ('A' for Active; 'I' for Inactive)
ROOT
ATOM      1  C2' OXE d   1      -0.705  -1.403   2.214  0.00  0.00     0.078 C 
ATOM      2  C1' OXE d   1       0.641  -1.248  -0.245  0.00  0.00     0.078 C 
ATOM      3  C1  OXE d   1      -0.034  -0.001   0.267  0.00  0.00    -0.078 A 
ATOM      4  C2  OXE d   1      -0.730  -0.097   1.448  0.00  0.00    -0.078 A 
ATOM      5  C3  OXE d   1      -1.326   1.037   1.992  0.00  0.00     0.003 A 
ATOM      6  C4  OXE d   1      -1.353   2.238   1.272  0.00  0.00    -0.002 A 
ATOM      7  C5  OXE d   1      -0.684   2.347   0.049  0.00  0.00    -0.002 A 
ATOM      8  C6  OXE d   1       0.015   1.252  -0.446  0.00  0.00     0.003 A 
ENDROOT
TORSDOF 0
ENDMDL
