MODEL 1
REMARK minimizedAffinity -3.19287944
REMARK minimizedRMSD -1
REMARK  0 active torsions:
REMARK  status: ('A' for Active; 'I' for Inactive)
ROOT
ATOM      1  C2' OXE d   1      -2.042   2.048   1.154  0.00  0.00     0.078 C 
ATOM      2  C1' OXE d   1      -0.508   2.521  -1.149  0.00  0.00     0.078 C 
ATOM      3  C1  OXE d   1      -0.211   1.276  -0.349  0.00  0.00    -0.078 A 
ATOM      4  C2  OXE d   1      -0.935   1.077   0.802  0.00  0.00    -0.078 A 
ATOM      5  C3  OXE d   1      -0.740  -0.082   1.547  0.00  0.00     0.003 A 
ATOM      6  C4  OXE d   1       0.292  -0.970   1.219  0.00  0.00    -0.002 A 
ATOM      7  C5  OXE d   1       1.068  -0.765   0.073  0.00  0.00    -0.002 A 
ATOM      8  C6  OXE d   1       0.801   0.329  -0.743  0.00  0.00     0.003 A 
ENDROOT
TORSDOF 0
ENDMDL
