MODEL 1
REMARK minimizedAffinity -3.57515979
REMARK minimizedRMSD -1
REMARK  0 active torsions:
REMARK  status: ('A' for Active; 'I' for Inactive)
ROOT
ATOM      1  C2' OXE d   1      -1.100   2.409  -1.153  0.00  0.00     0.078 C 
ATOM      2  C1' OXE d   1      -2.067   2.377   1.482  0.00  0.00     0.078 C 
ATOM      3  C1  OXE d   1      -1.063   1.323   1.088  0.00  0.00    -0.078 A 
ATOM      4  C2  OXE d   1      -0.631   1.317  -0.216  0.00  0.00    -0.078 A 
ATOM      5  C3  OXE d   1       0.336   0.400  -0.618  0.00  0.00     0.003 A 
ATOM      6  C4  OXE d   1       0.757  -0.613   0.252  0.00  0.00    -0.002 A 
ATOM      7  C5  OXE d   1       0.299  -0.650   1.573  0.00  0.00    -0.002 A 
ATOM      8  C6  OXE d   1      -0.577   0.334   2.019  0.00  0.00     0.003 A 
ENDROOT
TORSDOF 0
ENDMDL
