MODEL 1
REMARK minimizedAffinity -4.99954271
REMARK minimizedRMSD -1
REMARK  0 active torsions:
REMARK  status: ('A' for Active; 'I' for Inactive)
ROOT
ATOM      1  C2' OXE d   1       1.055  -0.799  -0.602  0.00  0.00     0.078 C 
ATOM      2  C1' OXE d   1       0.941  -0.917   2.200  0.00  0.00     0.078 C 
ATOM      3  C1  OXE d   1      -0.005   0.024   1.496  0.00  0.00    -0.078 A 
ATOM      4  C2  OXE d   1       0.090   0.110   0.128  0.00  0.00    -0.078 A 
ATOM      5  C3  OXE d   1      -0.795   0.922  -0.575  0.00  0.00     0.003 A 
ATOM      6  C4  OXE d   1      -1.678   1.767   0.109  0.00  0.00    -0.002 A 
ATOM      7  C5  OXE d   1      -1.763   1.724   1.505  0.00  0.00    -0.002 A 
ATOM      8  C6  OXE d   1      -0.965   0.829   2.210  0.00  0.00     0.003 A 
ENDROOT
TORSDOF 0
ENDMDL
