MODEL 1
REMARK minimizedAffinity -3.40825438
REMARK minimizedRMSD -1
REMARK  0 active torsions:
REMARK  status: ('A' for Active; 'I' for Inactive)
ROOT
ATOM      1  C2' OXE d   1       0.214  -0.486  -0.089  0.00  0.00     0.078 C 
ATOM      2  C1' OXE d   1       2.316   0.001  -1.884  0.00  0.00     0.078 C 
ATOM      3  C1  OXE d   1       1.673  -1.363  -1.908  0.00  0.00    -0.078 A 
ATOM      4  C2  OXE d   1       0.676  -1.608  -0.994  0.00  0.00    -0.078 A 
ATOM      5  C3  OXE d   1       0.011  -2.831  -1.011  0.00  0.00     0.003 A 
ATOM      6  C4  OXE d   1       0.451  -3.866  -1.844  0.00  0.00    -0.002 A 
ATOM      7  C5  OXE d   1       1.491  -3.650  -2.755  0.00  0.00    -0.002 A 
ATOM      8  C6  OXE d   1       2.083  -2.394  -2.829  0.00  0.00     0.003 A 
ENDROOT
TORSDOF 0
ENDMDL
