MODEL 1
REMARK minimizedAffinity -4.34619617
REMARK minimizedRMSD -1
REMARK  0 active torsions:
REMARK  status: ('A' for Active; 'I' for Inactive)
ROOT
ATOM      1  C2' OXE d   1       1.157  -0.346  -0.707  0.00  0.00     0.078 C 
ATOM      2  C1' OXE d   1       0.197   2.180  -1.467  0.00  0.00     0.078 C 
ATOM      3  C1  OXE d   1      -0.328   1.585  -0.184  0.00  0.00    -0.078 A 
ATOM      4  C2  OXE d   1       0.112   0.329   0.156  0.00  0.00    -0.078 A 
ATOM      5  C3  OXE d   1      -0.299  -0.244   1.356  0.00  0.00     0.003 A 
ATOM      6  C4  OXE d   1      -1.274   0.382   2.143  0.00  0.00    -0.002 A 
ATOM      7  C5  OXE d   1      -1.764   1.645   1.794  0.00  0.00    -0.002 A 
ATOM      8  C6  OXE d   1      -1.271   2.277   0.659  0.00  0.00     0.003 A 
ENDROOT
TORSDOF 0
ENDMDL
