MODEL 1
REMARK minimizedAffinity -2.86468744
REMARK minimizedRMSD -1
REMARK  0 active torsions:
REMARK  status: ('A' for Active; 'I' for Inactive)
ROOT
ATOM      1  C2' OXE d   1       0.161  -1.862  -3.017  0.00  0.00     0.078 C 
ATOM      2  C1' OXE d   1       1.767  -1.318  -0.780  0.00  0.00     0.078 C 
ATOM      3  C1  OXE d   1       1.514  -2.763  -1.130  0.00  0.00    -0.078 A 
ATOM      4  C2  OXE d   1       0.689  -3.020  -2.198  0.00  0.00    -0.078 A 
ATOM      5  C3  OXE d   1       0.467  -4.335  -2.597  0.00  0.00     0.003 A 
ATOM      6  C4  OXE d   1       0.951  -5.400  -1.828  0.00  0.00    -0.002 A 
ATOM      7  C5  OXE d   1       1.761  -5.160  -0.713  0.00  0.00    -0.002 A 
ATOM      8  C6  OXE d   1       2.086  -3.851  -0.376  0.00  0.00     0.003 A 
ENDROOT
TORSDOF 0
ENDMDL
