MODEL 1
REMARK minimizedAffinity -5.47392893
REMARK minimizedRMSD -1
REMARK  0 active torsions:
REMARK  status: ('A' for Active; 'I' for Inactive)
ROOT
ATOM      1  C2' OXE d   1       0.178  -1.213   2.109  0.00  0.00     0.078 C 
ATOM      2  C1' OXE d   1       0.827  -0.587  -0.549  0.00  0.00     0.078 C 
ATOM      3  C1  OXE d   1      -0.056   0.376   0.205  0.00  0.00    -0.078 A 
ATOM      4  C2  OXE d   1      -0.407   0.038   1.490  0.00  0.00    -0.078 A 
ATOM      5  C3  OXE d   1      -1.175   0.917   2.248  0.00  0.00     0.003 A 
ATOM      6  C4  OXE d   1      -1.720   2.067   1.664  0.00  0.00    -0.002 A 
ATOM      7  C5  OXE d   1      -1.408   2.409   0.344  0.00  0.00    -0.002 A 
ATOM      8  C6  OXE d   1      -0.545   1.598  -0.384  0.00  0.00     0.003 A 
ENDROOT
TORSDOF 0
ENDMDL
