MODEL 1
REMARK minimizedAffinity -5.46751738
REMARK minimizedRMSD -1
REMARK  0 active torsions:
REMARK  status: ('A' for Active; 'I' for Inactive)
ROOT
ATOM      1  C2' OXE d   1       0.666  -0.491  -0.402  0.00  0.00     0.078 C 
ATOM      2  C1' OXE d   1      -0.470  -0.803   2.146  0.00  0.00     0.078 C 
ATOM      3  C1  OXE d   1      -0.793   0.456   1.380  0.00  0.00    -0.078 A 
ATOM      4  C2  OXE d   1      -0.196   0.622   0.154  0.00  0.00    -0.078 A 
ATOM      5  C3  OXE d   1      -0.503   1.739  -0.617  0.00  0.00     0.003 A 
ATOM      6  C4  OXE d   1      -1.293   2.768  -0.091  0.00  0.00    -0.002 A 
ATOM      7  C5  OXE d   1      -1.880   2.637   1.173  0.00  0.00    -0.002 A 
ATOM      8  C6  OXE d   1      -1.675   1.471   1.902  0.00  0.00     0.003 A 
ENDROOT
TORSDOF 0
ENDMDL
