MODEL 1
REMARK minimizedAffinity -3.33566332
REMARK minimizedRMSD -1
REMARK  0 active torsions:
REMARK  status: ('A' for Active; 'I' for Inactive)
ROOT
ATOM      1  C2' OXE d   1      -1.359   0.275   2.250  0.00  0.00     0.078 C 
ATOM      2  C1' OXE d   1       0.127  -0.384  -0.038  0.00  0.00     0.078 C 
ATOM      3  C1  OXE d   1      -0.222   1.067   0.180  0.00  0.00    -0.078 A 
ATOM      4  C2  OXE d   1      -0.989   1.374   1.278  0.00  0.00    -0.078 A 
ATOM      5  C3  OXE d   1      -1.293   2.704   1.556  0.00  0.00     0.003 A 
ATOM      6  C4  OXE d   1      -0.955   3.713   0.646  0.00  0.00    -0.002 A 
ATOM      7  C5  OXE d   1      -0.208   3.416  -0.499  0.00  0.00    -0.002 A 
ATOM      8  C6  OXE d   1       0.203   2.107  -0.724  0.00  0.00     0.003 A 
ENDROOT
TORSDOF 0
ENDMDL
