MODEL 1
REMARK minimizedAffinity -4.6954875
REMARK minimizedRMSD -1
REMARK  0 active torsions:
REMARK  status: ('A' for Active; 'I' for Inactive)
ROOT
ATOM      1  C2' OXE d   1      -0.099   0.034  -0.006  0.00  0.00     0.078 C 
ATOM      2  C1' OXE d   1      -1.911   0.660   2.044  0.00  0.00     0.078 C 
ATOM      3  C1  OXE d   1      -1.363   1.797   1.218  0.00  0.00    -0.078 A 
ATOM      4  C2  OXE d   1      -0.441   1.487   0.248  0.00  0.00    -0.078 A 
ATOM      5  C3  OXE d   1       0.054   2.491  -0.579  0.00  0.00     0.003 A 
ATOM      6  C4  OXE d   1      -0.260   3.833  -0.331  0.00  0.00    -0.002 A 
ATOM      7  C5  OXE d   1      -1.166   4.175   0.678  0.00  0.00    -0.002 A 
ATOM      8  C6  OXE d   1      -1.758   3.168   1.433  0.00  0.00     0.003 A 
ENDROOT
TORSDOF 0
ENDMDL
