MODEL 1
REMARK minimizedAffinity -1.2570498
REMARK minimizedRMSD -1
REMARK  0 active torsions:
REMARK  status: ('A' for Active; 'I' for Inactive)
ROOT
ATOM      1  C2' OXE d   1       0.612   1.455  -1.133  0.00  0.00     0.078 C 
ATOM      2  C1' OXE d   1      -0.793   3.541   0.114  0.00  0.00     0.078 C 
ATOM      3  C1  OXE d   1      -0.790   2.193   0.790  0.00  0.00    -0.078 A 
ATOM      4  C2  OXE d   1      -0.139   1.166   0.149  0.00  0.00    -0.078 A 
ATOM      5  C3  OXE d   1      -0.060  -0.084   0.756  0.00  0.00     0.003 A 
ATOM      6  C4  OXE d   1      -0.765  -0.346   1.936  0.00  0.00    -0.002 A 
ATOM      7  C5  OXE d   1      -1.467   0.676   2.585  0.00  0.00    -0.002 A 
ATOM      8  C6  OXE d   1      -1.454   1.959   2.048  0.00  0.00     0.003 A 
ENDROOT
TORSDOF 0
ENDMDL
