MODEL 1
REMARK minimizedAffinity -2.81706905
REMARK minimizedRMSD -1
REMARK  0 active torsions:
REMARK  status: ('A' for Active; 'I' for Inactive)
ROOT
ATOM      1  C2' OXE d   1       1.364  -2.938  -1.221  0.00  0.00     0.078 C 
ATOM      2  C1' OXE d   1       1.184  -1.730   1.307  0.00  0.00     0.078 C 
ATOM      3  C1  OXE d   1       0.751  -0.922   0.109  0.00  0.00    -0.078 A 
ATOM      4  C2  OXE d   1       0.887  -1.504  -1.128  0.00  0.00    -0.078 A 
ATOM      5  C3  OXE d   1       0.451  -0.824  -2.262  0.00  0.00     0.003 A 
ATOM      6  C4  OXE d   1       0.021   0.505  -2.169  0.00  0.00    -0.002 A 
ATOM      7  C5  OXE d   1      -0.087   1.131  -0.922  0.00  0.00    -0.002 A 
ATOM      8  C6  OXE d   1       0.233   0.418   0.228  0.00  0.00     0.003 A 
ENDROOT
TORSDOF 0
ENDMDL
