MODEL 1
REMARK minimizedAffinity -2.70504737
REMARK minimizedRMSD -1
REMARK  0 active torsions:
REMARK  status: ('A' for Active; 'I' for Inactive)
ROOT
ATOM      1  C2' OXE d   1       1.545  -5.564  -0.705  0.00  0.00     0.078 C 
ATOM      2  C1' OXE d   1       0.635  -5.574  -3.360  0.00  0.00     0.078 C 
ATOM      3  C1  OXE d   1       0.774  -4.241  -2.669  0.00  0.00    -0.078 A 
ATOM      4  C2  OXE d   1       1.175  -4.248  -1.355  0.00  0.00    -0.078 A 
ATOM      5  C3  OXE d   1       1.372  -3.043  -0.687  0.00  0.00     0.003 A 
ATOM      6  C4  OXE d   1       1.017  -1.831  -1.293  0.00  0.00    -0.002 A 
ATOM      7  C5  OXE d   1       0.569  -1.804  -2.617  0.00  0.00    -0.002 A 
ATOM      8  C6  OXE d   1       0.482  -2.994  -3.332  0.00  0.00     0.003 A 
ENDROOT
TORSDOF 0
ENDMDL
