MODEL 1
REMARK minimizedAffinity -2.41514611
REMARK minimizedRMSD -1
REMARK  0 active torsions:
REMARK  status: ('A' for Active; 'I' for Inactive)
ROOT
ATOM      1  C2' OXE d   1      -0.192   2.690  -1.246  0.00  0.00     0.078 C 
ATOM      2  C1' OXE d   1      -1.742   1.858   0.942  0.00  0.00     0.078 C 
ATOM      3  C1  OXE d   1      -0.681   0.915   0.432  0.00  0.00    -0.078 A 
ATOM      4  C2  OXE d   1       0.041   1.310  -0.668  0.00  0.00    -0.078 A 
ATOM      5  C3  OXE d   1       1.068   0.502  -1.145  0.00  0.00     0.003 A 
ATOM      6  C4  OXE d   1       1.271  -0.777  -0.611  0.00  0.00    -0.002 A 
ATOM      7  C5  OXE d   1       0.520  -1.215   0.484  0.00  0.00    -0.002 A 
ATOM      8  C6  OXE d   1      -0.429  -0.367   1.044  0.00  0.00     0.003 A 
ENDROOT
TORSDOF 0
ENDMDL
