MODEL 1
REMARK minimizedAffinity -2.64961648
REMARK minimizedRMSD -1
REMARK  0 active torsions:
REMARK  status: ('A' for Active; 'I' for Inactive)
ROOT
ATOM      1  C   UNL d   1       0.878  -3.254   0.097  0.00  0.00    -0.002 A 
ATOM      2  C1  UNL d   1      -0.417  -3.618   0.435  0.00  0.00     0.010 A 
ATOM      3  C2  UNL d   1      -1.381  -2.645   0.705  0.00  0.00     0.041 A 
ATOM      4  C3  UNL d   1      -1.019  -1.286   0.626  0.00  0.00    -0.075 A 
ATOM      5  S   UNL d   1      -2.032   0.079   0.913  0.00  0.00     0.015 SA
ATOM      6  C4  UNL d   1      -0.770   1.178   0.593  0.00  0.00     0.022 A 
ATOM      7  C5  UNL d   1       0.404   0.537   0.274  0.00  0.00     0.026 A 
ATOM      8  C6  UNL d   1       0.279  -0.894   0.287  0.00  0.00    -0.082 A 
ATOM      9  C7  UNL d   1       1.235  -1.904   0.020  0.00  0.00     0.045 A 
ENDROOT
TORSDOF 0
ENDMDL
