MODEL 1
REMARK minimizedAffinity -4.13066483
REMARK minimizedRMSD -1
REMARK  0 active torsions:
REMARK  status: ('A' for Active; 'I' for Inactive)
ROOT
ATOM      1  C   UNL d   1      -0.801  -3.153   0.715  0.00  0.00    -0.002 A 
ATOM      2  C1  UNL d   1       0.468  -2.906   0.211  0.00  0.00     0.010 A 
ATOM      3  C2  UNL d   1       0.919  -1.597   0.033  0.00  0.00     0.041 A 
ATOM      4  C3  UNL d   1       0.066  -0.529   0.376  0.00  0.00    -0.075 A 
ATOM      5  S   UNL d   1       0.406   1.156   0.246  0.00  0.00     0.015 SA
ATOM      6  C4  UNL d   1      -1.125   1.588   0.857  0.00  0.00     0.022 A 
ATOM      7  C5  UNL d   1      -1.890   0.486   1.158  0.00  0.00     0.026 A 
ATOM      8  C6  UNL d   1      -1.215  -0.753   0.887  0.00  0.00    -0.082 A 
ATOM      9  C7  UNL d   1      -1.644  -2.092   1.054  0.00  0.00     0.045 A 
ENDROOT
TORSDOF 0
ENDMDL
