MODEL 1
REMARK minimizedAffinity -0.185153171
REMARK minimizedRMSD -1
REMARK  0 active torsions:
REMARK  status: ('A' for Active; 'I' for Inactive)
ROOT
ATOM      1  C   UNL d   1       0.252  -0.901  -3.206  0.00  0.00    -0.002 A 
ATOM      2  C1  UNL d   1       0.021  -2.260  -3.044  0.00  0.00     0.010 A 
ATOM      3  C2  UNL d   1      -0.336  -2.777  -1.797  0.00  0.00     0.041 A 
ATOM      4  C3  UNL d   1      -0.461  -1.896  -0.705  0.00  0.00    -0.075 A 
ATOM      5  S   UNL d   1      -0.889  -2.302   0.915  0.00  0.00     0.015 SA
ATOM      6  C4  UNL d   1      -0.776  -0.682   1.431  0.00  0.00     0.022 A 
ATOM      7  C5  UNL d   1      -0.422   0.162   0.405  0.00  0.00     0.026 A 
ATOM      8  C6  UNL d   1      -0.235  -0.523  -0.843  0.00  0.00    -0.082 A 
ATOM      9  C7  UNL d   1       0.127  -0.031  -2.120  0.00  0.00     0.045 A 
ENDROOT
TORSDOF 0
ENDMDL
