MODEL 1
REMARK minimizedAffinity -3.95216441
REMARK minimizedRMSD -1
REMARK  0 active torsions:
REMARK  status: ('A' for Active; 'I' for Inactive)
ROOT
ATOM      1  C   UNL d   1      -1.647   0.284   0.526  0.00  0.00    -0.002 A 
ATOM      2  C1  UNL d   1      -0.586  -0.595   0.365  0.00  0.00     0.010 A 
ATOM      3  C2  UNL d   1       0.724  -0.120   0.282  0.00  0.00     0.041 A 
ATOM      4  C3  UNL d   1       0.952   1.268   0.367  0.00  0.00    -0.075 A 
ATOM      5  S   UNL d   1       2.472   2.078   0.291  0.00  0.00     0.015 SA
ATOM      6  C4  UNL d   1       1.748   3.610   0.472  0.00  0.00     0.022 A 
ATOM      7  C5  UNL d   1       0.381   3.525   0.589  0.00  0.00     0.026 A 
ATOM      8  C6  UNL d   1      -0.100   2.173   0.530  0.00  0.00    -0.082 A 
ATOM      9  C7  UNL d   1      -1.417   1.660   0.610  0.00  0.00     0.045 A 
ENDROOT
TORSDOF 0
ENDMDL
