MODEL 1
REMARK minimizedAffinity -4.71212721
REMARK minimizedRMSD -1
REMARK  0 active torsions:
REMARK  status: ('A' for Active; 'I' for Inactive)
ROOT
ATOM      1  C   UNL d   1       0.693  -3.251  -0.914  0.00  0.00    -0.002 A 
ATOM      2  C1  UNL d   1       0.020  -3.557   0.261  0.00  0.00     0.010 A 
ATOM      3  C2  UNL d   1      -0.459  -2.541   1.090  0.00  0.00     0.041 A 
ATOM      4  C3  UNL d   1      -0.251  -1.199   0.714  0.00  0.00    -0.075 A 
ATOM      5  S   UNL d   1      -0.750   0.210   1.573  0.00  0.00     0.015 SA
ATOM      6  C4  UNL d   1      -0.083   1.252   0.400  0.00  0.00     0.022 A 
ATOM      7  C5  UNL d   1       0.510   0.558  -0.628  0.00  0.00     0.026 A 
ATOM      8  C6  UNL d   1       0.423  -0.866  -0.464  0.00  0.00    -0.082 A 
ATOM      9  C7  UNL d   1       0.898  -1.919  -1.283  0.00  0.00     0.045 A 
ENDROOT
TORSDOF 0
ENDMDL
