MODEL 1
REMARK minimizedAffinity -3.17520738
REMARK minimizedRMSD -1
REMARK  0 active torsions:
REMARK  status: ('A' for Active; 'I' for Inactive)
ROOT
ATOM      1  C   UNL d   1       0.787   0.352  -2.139  0.00  0.00    -0.002 A 
ATOM      2  C1  UNL d   1      -0.099   1.079  -1.356  0.00  0.00     0.010 A 
ATOM      3  C2  UNL d   1      -0.657   0.517  -0.206  0.00  0.00     0.041 A 
ATOM      4  C3  UNL d   1      -0.304  -0.801   0.149  0.00  0.00    -0.075 A 
ATOM      5  S   UNL d   1      -0.861  -1.694   1.514  0.00  0.00     0.015 SA
ATOM      6  C4  UNL d   1       0.064  -3.061   1.091  0.00  0.00     0.022 A 
ATOM      7  C5  UNL d   1       0.786  -2.859  -0.061  0.00  0.00     0.026 A 
ATOM      8  C6  UNL d   1       0.586  -1.552  -0.623  0.00  0.00    -0.082 A 
ATOM      9  C7  UNL d   1       1.134  -0.955  -1.784  0.00  0.00     0.045 A 
ENDROOT
TORSDOF 0
ENDMDL
