MODEL 1
REMARK minimizedAffinity -3.50029516
REMARK minimizedRMSD -1
REMARK  0 active torsions:
REMARK  status: ('A' for Active; 'I' for Inactive)
ROOT
ATOM      1  C   UNL d   1      -1.542   0.969   1.131  0.00  0.00    -0.002 A 
ATOM      2  C1  UNL d   1      -1.010   1.444  -0.059  0.00  0.00     0.010 A 
ATOM      3  C2  UNL d   1      -0.224   0.619  -0.865  0.00  0.00     0.041 A 
ATOM      4  C3  UNL d   1       0.021  -0.705  -0.452  0.00  0.00    -0.075 A 
ATOM      5  S   UNL d   1       0.954  -1.897  -1.278  0.00  0.00     0.015 SA
ATOM      6  C4  UNL d   1       0.668  -3.065  -0.071  0.00  0.00     0.022 A 
ATOM      7  C5  UNL d   1      -0.118  -2.575   0.945  0.00  0.00     0.026 A 
ATOM      8  C6  UNL d   1      -0.505  -1.207   0.742  0.00  0.00    -0.082 A 
ATOM      9  C7  UNL d   1      -1.298  -0.346   1.538  0.00  0.00     0.045 A 
ENDROOT
TORSDOF 0
ENDMDL
