MODEL 1
REMARK minimizedAffinity -2.52590537
REMARK minimizedRMSD -1
REMARK  0 active torsions:
REMARK  status: ('A' for Active; 'I' for Inactive)
ROOT
ATOM      1  C   UNL d   1       0.898   3.551  -0.648  0.00  0.00    -0.002 A 
ATOM      2  C1  UNL d   1       1.554   3.497   0.573  0.00  0.00     0.010 A 
ATOM      3  C2  UNL d   1       1.531   2.331   1.341  0.00  0.00     0.041 A 
ATOM      4  C3  UNL d   1       0.833   1.208   0.854  0.00  0.00    -0.075 A 
ATOM      5  S   UNL d   1       0.670  -0.327   1.622  0.00  0.00     0.015 SA
ATOM      6  C4  UNL d   1      -0.274  -0.948   0.346  0.00  0.00     0.022 A 
ATOM      7  C5  UNL d   1      -0.470  -0.020  -0.650  0.00  0.00     0.026 A 
ATOM      8  C6  UNL d   1       0.165   1.238  -0.373  0.00  0.00    -0.082 A 
ATOM      9  C7  UNL d   1       0.206   2.435  -1.127  0.00  0.00     0.045 A 
ENDROOT
TORSDOF 0
ENDMDL
