MODEL 1
REMARK minimizedAffinity 2.47258139
REMARK minimizedRMSD -1
REMARK  0 active torsions:
REMARK  status: ('A' for Active; 'I' for Inactive)
ROOT
ATOM      1  C   UNL d   1      -0.350   1.087  -0.011  0.00  0.00    -0.002 A 
ATOM      2  C1  UNL d   1      -1.662   1.107   0.441  0.00  0.00     0.010 A 
ATOM      3  C2  UNL d   1      -2.265  -0.057   0.922  0.00  0.00     0.041 A 
ATOM      4  C3  UNL d   1      -1.520  -1.252   0.942  0.00  0.00    -0.075 A 
ATOM      5  S   UNL d   1      -2.052  -2.799   1.488  0.00  0.00     0.015 SA
ATOM      6  C4  UNL d   1      -0.550  -3.523   1.134  0.00  0.00     0.022 A 
ATOM      7  C5  UNL d   1       0.347  -2.621   0.611  0.00  0.00     0.026 A 
ATOM      8  C6  UNL d   1      -0.198  -1.297   0.492  0.00  0.00    -0.082 A 
ATOM      9  C7  UNL d   1       0.385  -0.101   0.010  0.00  0.00     0.045 A 
ENDROOT
TORSDOF 0
ENDMDL
