MODEL 1
REMARK minimizedAffinity -2.95318317
REMARK minimizedRMSD -1
REMARK  0 active torsions:
REMARK  status: ('A' for Active; 'I' for Inactive)
ROOT
ATOM      1  C   UNL d   1      -0.250  -3.685   0.649  0.00  0.00    -0.002 A 
ATOM      2  C1  UNL d   1       1.009  -3.408   0.135  0.00  0.00     0.010 A 
ATOM      3  C2  UNL d   1       1.371  -2.099  -0.188  0.00  0.00     0.041 A 
ATOM      4  C3  UNL d   1       0.438  -1.063   0.017  0.00  0.00    -0.075 A 
ATOM      5  S   UNL d   1       0.661   0.616  -0.305  0.00  0.00     0.015 SA
ATOM      6  C4  UNL d   1      -0.909   1.004   0.232  0.00  0.00     0.022 A 
ATOM      7  C5  UNL d   1      -1.600  -0.108   0.650  0.00  0.00     0.026 A 
ATOM      8  C6  UNL d   1      -0.835  -1.318   0.534  0.00  0.00    -0.082 A 
ATOM      9  C7  UNL d   1      -1.172  -2.656   0.851  0.00  0.00     0.045 A 
ENDROOT
TORSDOF 0
ENDMDL
