MODEL 1
REMARK minimizedAffinity -3.88507915
REMARK minimizedRMSD -1
REMARK  0 active torsions:
REMARK  status: ('A' for Active; 'I' for Inactive)
ROOT
ATOM      1  C   UNL d   1       0.690   4.192   1.189  0.00  0.00    -0.002 A 
ATOM      2  C1  UNL d   1       1.741   3.880   0.338  0.00  0.00     0.010 A 
ATOM      3  C2  UNL d   1       1.860   2.597  -0.201  0.00  0.00     0.041 A 
ATOM      4  C3  UNL d   1       0.895   1.626   0.130  0.00  0.00    -0.075 A 
ATOM      5  S   UNL d   1       0.838  -0.010  -0.412  0.00  0.00     0.015 SA
ATOM      6  C4  UNL d   1      -0.583  -0.331   0.472  0.00  0.00     0.022 A 
ATOM      7  C5  UNL d   1      -1.017   0.771   1.170  0.00  0.00     0.026 A 
ATOM      8  C6  UNL d   1      -0.172   1.917   0.984  0.00  0.00    -0.082 A 
ATOM      9  C7  UNL d   1      -0.265   3.226   1.515  0.00  0.00     0.045 A 
ENDROOT
TORSDOF 0
ENDMDL
