MODEL 1
REMARK minimizedAffinity -1.18542588
REMARK minimizedRMSD -1
REMARK  0 active torsions:
REMARK  status: ('A' for Active; 'I' for Inactive)
ROOT
ATOM      1  C   UNL d   1      -0.809   1.859  -0.407  0.00  0.00    -0.002 A 
ATOM      2  C1  UNL d   1      -1.155   1.267   0.799  0.00  0.00     0.010 A 
ATOM      3  C2  UNL d   1      -0.909  -0.089   1.022  0.00  0.00     0.041 A 
ATOM      4  C3  UNL d   1      -0.301  -0.848   0.003  0.00  0.00    -0.075 A 
ATOM      5  S   UNL d   1       0.097  -2.525   0.051  0.00  0.00     0.015 SA
ATOM      6  C4  UNL d   1       0.737  -2.495  -1.528  0.00  0.00     0.022 A 
ATOM      7  C5  UNL d   1       0.656  -1.245  -2.094  0.00  0.00     0.026 A 
ATOM      8  C6  UNL d   1       0.057  -0.275  -1.221  0.00  0.00    -0.082 A 
ATOM      9  C7  UNL d   1      -0.206   1.102  -1.416  0.00  0.00     0.045 A 
ENDROOT
TORSDOF 0
ENDMDL
