MODEL 1
REMARK minimizedAffinity -5.26261854
REMARK minimizedRMSD -1
REMARK  0 active torsions:
REMARK  status: ('A' for Active; 'I' for Inactive)
ROOT
ATOM      1  C   UNL d   1       0.057  -3.691  -0.567  0.00  0.00    -0.002 A 
ATOM      2  C1  UNL d   1       0.388  -3.313  -1.861  0.00  0.00     0.010 A 
ATOM      3  C2  UNL d   1       0.429  -1.964  -2.219  0.00  0.00     0.041 A 
ATOM      4  C3  UNL d   1       0.131  -0.991  -1.244  0.00  0.00    -0.075 A 
ATOM      5  S   UNL d   1       0.119   0.720  -1.454  0.00  0.00     0.015 SA
ATOM      6  C4  UNL d   1      -0.324   0.991   0.169  0.00  0.00     0.022 A 
ATOM      7  C5  UNL d   1      -0.465  -0.185   0.868  0.00  0.00     0.026 A 
ATOM      8  C6  UNL d   1      -0.204  -1.347   0.065  0.00  0.00    -0.082 A 
ATOM      9  C7  UNL d   1      -0.238  -2.723   0.396  0.00  0.00     0.045 A 
ENDROOT
TORSDOF 0
ENDMDL
