MODEL 1
REMARK minimizedAffinity -1.15716863
REMARK minimizedRMSD -1
REMARK  0 active torsions:
REMARK  status: ('A' for Active; 'I' for Inactive)
ROOT
ATOM      1  N1  IND d   1       2.339  -0.907  -0.285  0.00  0.00    -0.196 N 
ATOM      2  C2  IND d   1       2.942  -1.632   0.705  0.00  0.00     0.054 A 
ATOM      3  C3  IND d   1       2.051  -1.932   1.677  0.00  0.00    -0.031 A 
ATOM      4  C4  IND d   1      -0.469  -1.421   1.801  0.00  0.00     0.051 A 
ATOM      5  C5  IND d   1      -1.465  -0.750   1.149  0.00  0.00    -0.031 A 
ATOM      6  C6  IND d   1      -1.240  -0.086  -0.040  0.00  0.00     0.015 A 
ATOM      7  C7  IND d   1      -0.008  -0.078  -0.629  0.00  0.00    -0.016 A 
ATOM      8  C8  IND d   1       1.008  -0.752   0.034  0.00  0.00    -0.047 A 
ATOM      9  C9  IND d   1       0.796  -1.391   1.262  0.00  0.00    -0.096 A 
ATOM     10  HN1 IND d   1       2.727  -0.599  -0.988  0.00  0.00     0.298 HD
ENDROOT
TORSDOF 0
ENDMDL
