MODEL 1
REMARK minimizedAffinity -1.37521732
REMARK minimizedRMSD -1
REMARK  0 active torsions:
REMARK  status: ('A' for Active; 'I' for Inactive)
ROOT
ATOM      1  N1  IND d   1       1.143   0.825  -0.298  0.00  0.00    -0.196 N 
ATOM      2  C2  IND d   1      -0.124   1.211  -0.634  0.00  0.00     0.054 A 
ATOM      3  C3  IND d   1      -1.034   0.427  -0.013  0.00  0.00    -0.031 A 
ATOM      4  C4  IND d   1      -0.668  -1.481   1.676  0.00  0.00     0.051 A 
ATOM      5  C5  IND d   1       0.316  -2.223   2.266  0.00  0.00    -0.031 A 
ATOM      6  C6  IND d   1       1.654  -1.980   2.030  0.00  0.00     0.015 A 
ATOM      7  C7  IND d   1       2.059  -0.974   1.198  0.00  0.00    -0.016 A 
ATOM      8  C8  IND d   1       1.062  -0.223   0.591  0.00  0.00    -0.047 A 
ATOM      9  C9  IND d   1      -0.298  -0.493   0.795  0.00  0.00    -0.096 A 
ATOM     10  HN1 IND d   1       1.870   1.178  -0.594  0.00  0.00     0.298 HD
ENDROOT
TORSDOF 0
ENDMDL
