MODEL 1
REMARK minimizedAffinity -2.64959955
REMARK minimizedRMSD -1
REMARK  0 active torsions:
REMARK  status: ('A' for Active; 'I' for Inactive)
ROOT
ATOM      1  N1  IND d   1       2.697  -0.588  -0.004  0.00  0.00    -0.196 N 
ATOM      2  C2  IND d   1       2.269   0.471  -0.755  0.00  0.00     0.054 A 
ATOM      3  C3  IND d   1       0.923   0.576  -0.697  0.00  0.00    -0.031 A 
ATOM      4  C4  IND d   1      -0.770  -0.820   0.650  0.00  0.00     0.051 A 
ATOM      5  C5  IND d   1      -0.859  -1.920   1.456  0.00  0.00    -0.031 A 
ATOM      6  C6  IND d   1       0.255  -2.645   1.826  0.00  0.00     0.015 A 
ATOM      7  C7  IND d   1       1.507  -2.289   1.411  0.00  0.00    -0.016 A 
ATOM      8  C8  IND d   1       1.601  -1.177   0.587  0.00  0.00    -0.047 A 
ATOM      9  C9  IND d   1       0.469  -0.462   0.174  0.00  0.00    -0.096 A 
ATOM     10  HN1 IND d   1       3.513  -0.844   0.084  0.00  0.00     0.298 HD
ENDROOT
TORSDOF 0
ENDMDL
