MODEL 1
REMARK minimizedAffinity -5.01238775
REMARK minimizedRMSD -1
REMARK  0 active torsions:
REMARK  status: ('A' for Active; 'I' for Inactive)
ROOT
ATOM      1  N1  IND d   1       2.169  -1.964   0.693  0.00  0.00    -0.196 N 
ATOM      2  C2  IND d   1       1.310  -2.942   1.111  0.00  0.00     0.054 A 
ATOM      3  C3  IND d   1       0.029  -2.536   0.968  0.00  0.00    -0.031 A 
ATOM      4  C4  IND d   1      -0.892  -0.347  -0.027  0.00  0.00     0.051 A 
ATOM      5  C5  IND d   1      -0.493   0.868  -0.510  0.00  0.00    -0.031 A 
ATOM      6  C6  IND d   1       0.840   1.206  -0.622  0.00  0.00     0.015 A 
ATOM      7  C7  IND d   1       1.829   0.335  -0.264  0.00  0.00    -0.016 A 
ATOM      8  C8  IND d   1       1.428  -0.897   0.234  0.00  0.00    -0.047 A 
ATOM      9  C9  IND d   1       0.076  -1.230   0.390  0.00  0.00    -0.096 A 
ATOM     10  HN1 IND d   1       3.027  -2.008   0.713  0.00  0.00     0.298 HD
ENDROOT
TORSDOF 0
ENDMDL
