MODEL 1
REMARK minimizedAffinity -3.86351204
REMARK minimizedRMSD -1
REMARK  0 active torsions:
REMARK  status: ('A' for Active; 'I' for Inactive)
ROOT
ATOM      1  N1  IND d   1      -0.978  -0.259  -1.257  0.00  0.00    -0.196 N 
ATOM      2  C2  IND d   1      -1.007   1.069  -0.937  0.00  0.00     0.054 A 
ATOM      3  C3  IND d   1       0.014   1.375  -0.105  0.00  0.00    -0.031 A 
ATOM      4  C4  IND d   1       1.910  -0.125   0.778  0.00  0.00     0.051 A 
ATOM      5  C5  IND d   1       2.340  -1.422   0.790  0.00  0.00    -0.031 A 
ATOM      6  C6  IND d   1       1.675  -2.418   0.104  0.00  0.00     0.015 A 
ATOM      7  C7  IND d   1       0.555  -2.150  -0.632  0.00  0.00    -0.016 A 
ATOM      8  C8  IND d   1       0.111  -0.835  -0.640  0.00  0.00    -0.047 A 
ATOM      9  C9  IND d   1       0.758   0.172   0.088  0.00  0.00    -0.096 A 
ATOM     10  HN1 IND d   1      -1.545  -0.667  -1.759  0.00  0.00     0.298 HD
ENDROOT
TORSDOF 0
ENDMDL
