MODEL 1
REMARK minimizedAffinity -3.18248916
REMARK minimizedRMSD -1
REMARK  0 active torsions:
REMARK  status: ('A' for Active; 'I' for Inactive)
ROOT
ATOM      1  N1  IND d   1      -0.512  -0.832   2.255  0.00  0.00    -0.196 N 
ATOM      2  C2  IND d   1      -1.543  -0.048   1.818  0.00  0.00     0.054 A 
ATOM      3  C3  IND d   1      -1.212   0.561   0.657  0.00  0.00    -0.031 A 
ATOM      4  C4  IND d   1       0.929   0.334  -0.756  0.00  0.00     0.051 A 
ATOM      5  C5  IND d   1       2.169  -0.239  -0.747  0.00  0.00    -0.031 A 
ATOM      6  C6  IND d   1       2.587  -1.058   0.282  0.00  0.00     0.015 A 
ATOM      7  C7  IND d   1       1.772  -1.345   1.340  0.00  0.00    -0.016 A 
ATOM      8  C8  IND d   1       0.514  -0.759   1.338  0.00  0.00    -0.047 A 
ATOM      9  C9  IND d   1       0.100   0.107   0.318  0.00  0.00    -0.096 A 
ATOM     10  HN1 IND d   1      -0.505  -1.293   2.980  0.00  0.00     0.298 HD
ENDROOT
TORSDOF 0
ENDMDL
