MODEL 1
REMARK minimizedAffinity -1.77491128
REMARK minimizedRMSD -1
REMARK  0 active torsions:
REMARK  status: ('A' for Active; 'I' for Inactive)
ROOT
ATOM      1  N1  IND d   1      -0.382   0.961   0.395  0.00  0.00    -0.196 N 
ATOM      2  C2  IND d   1      -0.746   1.257  -0.889  0.00  0.00     0.054 A 
ATOM      3  C3  IND d   1      -0.029   0.517  -1.764  0.00  0.00    -0.031 A 
ATOM      4  C4  IND d   1       1.723  -1.313  -1.307  0.00  0.00     0.051 A 
ATOM      5  C5  IND d   1       2.417  -1.911  -0.293  0.00  0.00    -0.031 A 
ATOM      6  C6  IND d   1       2.207  -1.578   1.030  0.00  0.00     0.015 A 
ATOM      7  C7  IND d   1       1.283  -0.638   1.389  0.00  0.00    -0.016 A 
ATOM      8  C8  IND d   1       0.582  -0.023   0.361  0.00  0.00    -0.047 A 
ATOM      9  C9  IND d   1       0.821  -0.327  -0.985  0.00  0.00    -0.096 A 
ATOM     10  HN1 IND d   1      -0.701   1.327   1.105  0.00  0.00     0.298 HD
ENDROOT
TORSDOF 0
ENDMDL
