MODEL 1
REMARK minimizedAffinity -3.57876182
REMARK minimizedRMSD -1
REMARK  0 active torsions:
REMARK  status: ('A' for Active; 'I' for Inactive)
ROOT
ATOM      1  N1  IND d   1      -0.784  -0.772  -0.112  0.00  0.00    -0.196 N 
ATOM      2  C2  IND d   1      -0.756   0.378  -0.852  0.00  0.00     0.054 A 
ATOM      3  C3  IND d   1       0.499   0.878  -0.894  0.00  0.00    -0.031 A 
ATOM      4  C4  IND d   1       2.676  -0.079   0.092  0.00  0.00     0.051 A 
ATOM      5  C5  IND d   1       3.148  -1.090   0.881  0.00  0.00    -0.031 A 
ATOM      6  C6  IND d   1       2.317  -2.068   1.387  0.00  0.00     0.015 A 
ATOM      7  C7  IND d   1       0.979  -2.078   1.112  0.00  0.00    -0.016 A 
ATOM      8  C8  IND d   1       0.495  -1.049   0.318  0.00  0.00    -0.047 A 
ATOM      9  C9  IND d   1       1.326  -0.029  -0.164  0.00  0.00    -0.096 A 
ATOM     10  HN1 IND d   1      -1.484  -1.243   0.056  0.00  0.00     0.298 HD
ENDROOT
TORSDOF 0
ENDMDL
