MODEL 1
REMARK minimizedAffinity -1.55380344
REMARK minimizedRMSD -1
REMARK  0 active torsions:
REMARK  status: ('A' for Active; 'I' for Inactive)
ROOT
ATOM      1  N1  IND d   1      -1.767   1.609   0.193  0.00  0.00    -0.196 N 
ATOM      2  C2  IND d   1      -1.456   2.166  -1.016  0.00  0.00     0.054 A 
ATOM      3  C3  IND d   1      -0.349   1.585  -1.531  0.00  0.00    -0.031 A 
ATOM      4  C4  IND d   1       1.052  -0.368  -0.608  0.00  0.00     0.051 A 
ATOM      5  C5  IND d   1       1.180  -1.181   0.483  0.00  0.00    -0.031 A 
ATOM      6  C6  IND d   1       0.313  -1.106   1.553  0.00  0.00     0.015 A 
ATOM      7  C7  IND d   1      -0.726  -0.218   1.568  0.00  0.00    -0.016 A 
ATOM      8  C8  IND d   1      -0.855   0.614   0.465  0.00  0.00    -0.047 A 
ATOM      9  C9  IND d   1       0.048   0.571  -0.606  0.00  0.00    -0.096 A 
ATOM     10  HN1 IND d   1      -2.422   1.842   0.699  0.00  0.00     0.298 HD
ENDROOT
TORSDOF 0
ENDMDL
