MODEL 1
REMARK minimizedAffinity -4.93126249
REMARK minimizedRMSD -1
REMARK  0 active torsions:
REMARK  status: ('A' for Active; 'I' for Inactive)
ROOT
ATOM      1  N1  IND d   1       3.492  -0.574  -0.438  0.00  0.00    -0.196 N 
ATOM      2  C2  IND d   1       3.189   0.610  -1.052  0.00  0.00     0.054 A 
ATOM      3  C3  IND d   1       1.891   0.928  -0.844  0.00  0.00    -0.031 A 
ATOM      4  C4  IND d   1       0.110  -0.296   0.554  0.00  0.00     0.051 A 
ATOM      5  C5  IND d   1      -0.096  -1.440   1.273  0.00  0.00    -0.031 A 
ATOM      6  C6  IND d   1       0.904  -2.371   1.465  0.00  0.00     0.015 A 
ATOM      7  C7  IND d   1       2.157  -2.187   0.951  0.00  0.00    -0.016 A 
ATOM      8  C8  IND d   1       2.368  -1.030   0.215  0.00  0.00    -0.047 A 
ATOM      9  C9  IND d   1       1.345  -0.102  -0.019  0.00  0.00    -0.096 A 
ATOM     10  HN1 IND d   1       4.256  -0.967  -0.457  0.00  0.00     0.298 HD
ENDROOT
TORSDOF 0
ENDMDL
