MODEL 1
REMARK minimizedAffinity 2.99627185
REMARK minimizedRMSD -1
REMARK  0 active torsions:
REMARK  status: ('A' for Active; 'I' for Inactive)
ROOT
ATOM      1  N1  IND d   1       1.701  -2.322   0.798  0.00  0.00    -0.196 N 
ATOM      2  C2  IND d   1       2.067  -2.129   2.101  0.00  0.00     0.054 A 
ATOM      3  C3  IND d   1       1.371  -1.103   2.639  0.00  0.00    -0.031 A 
ATOM      4  C4  IND d   1      -0.493   0.334   1.595  0.00  0.00     0.051 A 
ATOM      5  C5  IND d   1      -1.149   0.557   0.418  0.00  0.00    -0.031 A 
ATOM      6  C6  IND d   1      -0.886  -0.185  -0.716  0.00  0.00     0.015 A 
ATOM      7  C7  IND d   1       0.040  -1.190  -0.710  0.00  0.00    -0.016 A 
ATOM      8  C8  IND d   1       0.714  -1.414   0.482  0.00  0.00    -0.047 A 
ATOM      9  C9  IND d   1       0.481  -0.637   1.624  0.00  0.00    -0.096 A 
ATOM     10  HN1 IND d   1       2.031  -2.910   0.266  0.00  0.00     0.298 HD
ENDROOT
TORSDOF 0
ENDMDL
