MODEL 1
REMARK minimizedAffinity -1.12062073
REMARK minimizedRMSD -1
REMARK  0 active torsions:
REMARK  status: ('A' for Active; 'I' for Inactive)
ROOT
ATOM      1  N1  IND d   1       2.458   0.368   0.137  0.00  0.00    -0.196 N 
ATOM      2  C2  IND d   1       2.959  -0.865   0.448  0.00  0.00     0.054 A 
ATOM      3  C3  IND d   1       1.980  -1.797   0.401  0.00  0.00    -0.031 A 
ATOM      4  C4  IND d   1      -0.493  -1.537  -0.265  0.00  0.00     0.051 A 
ATOM      5  C5  IND d   1      -1.427  -0.596  -0.595  0.00  0.00    -0.031 A 
ATOM      6  C6  IND d   1      -1.106   0.742  -0.703  0.00  0.00     0.015 A 
ATOM      7  C7  IND d   1       0.168   1.189  -0.495  0.00  0.00    -0.016 A 
ATOM      8  C8  IND d   1       1.117   0.236  -0.153  0.00  0.00    -0.047 A 
ATOM      9  C9  IND d   1       0.789  -1.117  -0.000  0.00  0.00    -0.096 A 
ATOM     10  HN1 IND d   1       2.904   1.102   0.124  0.00  0.00     0.298 HD
ENDROOT
TORSDOF 0
ENDMDL
