MODEL 1
REMARK minimizedAffinity -3.01651621
REMARK minimizedRMSD -1
REMARK  0 active torsions:
REMARK  status: ('A' for Active; 'I' for Inactive)
ROOT
ATOM      1  N1  IND d   1      -1.125   0.960  -3.442  0.00  0.00    -0.196 N 
ATOM      2  C2  IND d   1      -1.990   1.974  -3.142  0.00  0.00     0.054 A 
ATOM      3  C3  IND d   1      -2.067   2.146  -1.803  0.00  0.00    -0.031 A 
ATOM      4  C4  IND d   1      -0.781   0.944   0.076  0.00  0.00     0.051 A 
ATOM      5  C5  IND d   1       0.094  -0.082   0.297  0.00  0.00    -0.031 A 
ATOM      6  C6  IND d   1       0.621  -0.826  -0.739  0.00  0.00     0.015 A 
ATOM      7  C7  IND d   1       0.299  -0.563  -2.040  0.00  0.00    -0.016 A 
ATOM      8  C8  IND d   1      -0.595   0.473  -2.268  0.00  0.00    -0.047 A 
ATOM      9  C9  IND d   1      -1.166   1.204  -1.218  0.00  0.00    -0.096 A 
ATOM     10  HN1 IND d   1      -0.941   0.675  -4.232  0.00  0.00     0.298 HD
ENDROOT
TORSDOF 0
ENDMDL
