MODEL 1
REMARK minimizedAffinity -0.427162826
REMARK minimizedRMSD -1
REMARK  0 active torsions:
REMARK  status: ('A' for Active; 'I' for Inactive)
ROOT
ATOM      1  N1  IND d   1      -0.747  -0.498  -0.069  0.00  0.00    -0.196 N 
ATOM      2  C2  IND d   1      -0.866   0.700  -0.716  0.00  0.00     0.054 A 
ATOM      3  C3  IND d   1       0.343   1.293  -0.836  0.00  0.00    -0.031 A 
ATOM      4  C4  IND d   1       2.664   0.430  -0.133  0.00  0.00     0.051 A 
ATOM      5  C5  IND d   1       3.277  -0.598   0.528  0.00  0.00    -0.031 A 
ATOM      6  C6  IND d   1       2.565  -1.667   1.031  0.00  0.00     0.015 A 
ATOM      7  C7  IND d   1       1.210  -1.755   0.882  0.00  0.00    -0.016 A 
ATOM      8  C8  IND d   1       0.584  -0.710   0.218  0.00  0.00    -0.047 A 
ATOM      9  C9  IND d   1       1.295   0.399  -0.258  0.00  0.00    -0.096 A 
ATOM     10  HN1 IND d   1      -1.394  -1.029   0.127  0.00  0.00     0.298 HD
ENDROOT
TORSDOF 0
ENDMDL
