MODEL 1
REMARK minimizedAffinity -2.21630907
REMARK minimizedRMSD -1
REMARK  0 active torsions:
REMARK  status: ('A' for Active; 'I' for Inactive)
ROOT
ATOM      1  N1  IND d   1      -1.197  -0.039   0.061  0.00  0.00    -0.196 N 
ATOM      2  C2  IND d   1      -1.091   1.150  -0.604  0.00  0.00     0.054 A 
ATOM      3  C3  IND d   1       0.194   1.380  -0.955  0.00  0.00    -0.031 A 
ATOM      4  C4  IND d   1       2.270  -0.107  -0.629  0.00  0.00     0.051 A 
ATOM      5  C5  IND d   1       2.679  -1.271  -0.042  0.00  0.00    -0.031 A 
ATOM      6  C6  IND d   1       1.799  -2.102   0.621  0.00  0.00     0.015 A 
ATOM      7  C7  IND d   1       0.469  -1.804   0.711  0.00  0.00    -0.016 A 
ATOM      8  C8  IND d   1       0.051  -0.619   0.122  0.00  0.00    -0.047 A 
ATOM      9  C9  IND d   1       0.947   0.249  -0.514  0.00  0.00    -0.096 A 
ATOM     10  HN1 IND d   1      -1.921  -0.369   0.387  0.00  0.00     0.298 HD
ENDROOT
TORSDOF 0
ENDMDL
