MODEL 1
REMARK minimizedAffinity -2.01754355
REMARK minimizedRMSD -1
REMARK  1 active torsions:
REMARK  status: ('A' for Active; 'I' for Inactive)
REMARK    1  A    between atoms: C1_2  and  C2_3 
ROOT
ATOM      1  C2  UNL d   1      -3.701   2.707  -2.647  0.00  0.00    -0.081 A 
ATOM      2  C3  UNL d   1      -3.569   2.023  -3.862  0.00  0.00     0.006 A 
ATOM      3  C4  UNL d   1      -3.197   0.676  -3.879  0.00  0.00     0.002 A 
ATOM      4  C5  UNL d   1      -2.958  -0.009  -2.683  0.00  0.00    -0.080 A 
ATOM      5  C6  UNL d   1      -2.588  -1.463  -2.686  0.00  0.00     0.076 C 
ATOM      6  C7  UNL d   1      -3.072   0.679  -1.471  0.00  0.00     0.002 A 
ATOM      7  C8  UNL d   1      -3.444   2.026  -1.453  0.00  0.00     0.006 A 
ENDROOT
BRANCH   1   8
ATOM      8  C1  UNL d   1      -4.164   4.141  -2.623  0.00  0.00     0.054 C 
ATOM      9  C   UNL d   1      -5.651   4.237  -2.312  0.00  0.00     0.018 C 
ENDBRANCH   1   8
TORSDOF 1
ENDMDL
