MODEL 1
REMARK minimizedAffinity -4.98176765
REMARK minimizedRMSD -1
REMARK  1 active torsions:
REMARK  status: ('A' for Active; 'I' for Inactive)
REMARK    1  A    between atoms: C1_2  and  C2_3 
ROOT
ATOM      1  C2  UNL d   1      -1.154  -0.297  -0.869  0.00  0.00    -0.081 A 
ATOM      2  C3  UNL d   1      -0.900   1.078  -0.792  0.00  0.00     0.006 A 
ATOM      3  C4  UNL d   1       0.192   1.556  -0.063  0.00  0.00     0.002 A 
ATOM      4  C5  UNL d   1       1.051   0.668   0.593  0.00  0.00    -0.080 A 
ATOM      5  C6  UNL d   1       2.244   1.167   1.353  0.00  0.00     0.076 C 
ATOM      6  C7  UNL d   1       0.787  -0.704   0.530  0.00  0.00     0.002 A 
ATOM      7  C8  UNL d   1      -0.304  -1.183  -0.198  0.00  0.00     0.006 A 
ENDROOT
BRANCH   1   8
ATOM      8  C1  UNL d   1      -2.293  -0.820  -1.707  0.00  0.00     0.054 C 
ATOM      9  C   UNL d   1      -2.681   0.172  -2.794  0.00  0.00     0.018 C 
ENDBRANCH   1   8
TORSDOF 1
ENDMDL
