MODEL 1
REMARK minimizedAffinity -3.68820643
REMARK minimizedRMSD -1
REMARK  1 active torsions:
REMARK  status: ('A' for Active; 'I' for Inactive)
REMARK    1  A    between atoms: C1_2  and  C2_3 
ROOT
ATOM      1  C2  UNL d   1      -1.114   0.462  -0.658  0.00  0.00    -0.081 A 
ATOM      2  C3  UNL d   1      -0.325   1.612  -0.530  0.00  0.00     0.006 A 
ATOM      3  C4  UNL d   1       0.939   1.542   0.060  0.00  0.00     0.002 A 
ATOM      4  C5  UNL d   1       1.439   0.320   0.523  0.00  0.00    -0.080 A 
ATOM      5  C6  UNL d   1       2.808   0.225   1.130  0.00  0.00     0.076 C 
ATOM      6  C7  UNL d   1       0.645  -0.826   0.410  0.00  0.00     0.002 A 
ATOM      7  C8  UNL d   1      -0.620  -0.756  -0.178  0.00  0.00     0.006 A 
ENDROOT
BRANCH   1   8
ATOM      8  C1  UNL d   1      -2.451   0.523  -1.352  0.00  0.00     0.054 C 
ATOM      9  C   UNL d   1      -2.402  -0.164  -2.709  0.00  0.00     0.018 C 
ENDBRANCH   1   8
TORSDOF 1
ENDMDL
