MODEL 1
REMARK minimizedAffinity -2.89413905
REMARK minimizedRMSD -1
REMARK  1 active torsions:
REMARK  status: ('A' for Active; 'I' for Inactive)
REMARK    1  A    between atoms: C1_2  and  C2_3 
ROOT
ATOM      1  C2  UNL d   1      -0.815   0.002  -0.622  0.00  0.00    -0.081 A 
ATOM      2  C3  UNL d   1      -0.053   1.177  -0.618  0.00  0.00     0.006 A 
ATOM      3  C4  UNL d   1       1.194   1.211   0.010  0.00  0.00     0.002 A 
ATOM      4  C5  UNL d   1       1.704   0.069   0.637  0.00  0.00    -0.080 A 
ATOM      5  C6  UNL d   1       3.055   0.083   1.289  0.00  0.00     0.076 C 
ATOM      6  C7  UNL d   1       0.935  -1.100   0.649  0.00  0.00     0.002 A 
ATOM      7  C8  UNL d   1      -0.312  -1.134   0.022  0.00  0.00     0.006 A 
ENDROOT
BRANCH   1   8
ATOM      8  C1  UNL d   1      -2.131  -0.056  -1.354  0.00  0.00     0.054 C 
ATOM      9  C   UNL d   1      -1.966  -0.656  -2.743  0.00  0.00     0.018 C 
ENDBRANCH   1   8
TORSDOF 1
ENDMDL
