MODEL 1
REMARK minimizedAffinity -3.55076337
REMARK minimizedRMSD -1
REMARK  1 active torsions:
REMARK  status: ('A' for Active; 'I' for Inactive)
REMARK    1  A    between atoms: C1_2  and  C2_3 
ROOT
ATOM      1  C2  UNL d   1      -0.795  -0.090  -0.105  0.00  0.00    -0.081 A 
ATOM      2  C3  UNL d   1      -0.664  -1.251   0.667  0.00  0.00     0.006 A 
ATOM      3  C4  UNL d   1       0.494  -1.477   1.415  0.00  0.00     0.002 A 
ATOM      4  C5  UNL d   1       1.536  -0.544   1.409  0.00  0.00    -0.080 A 
ATOM      5  C6  UNL d   1       2.772  -0.760   2.232  0.00  0.00     0.076 C 
ATOM      6  C7  UNL d   1       1.413   0.608   0.624  0.00  0.00     0.002 A 
ATOM      7  C8  UNL d   1       0.255   0.834  -0.124  0.00  0.00     0.006 A 
ENDROOT
BRANCH   1   8
ATOM      8  C1  UNL d   1      -2.069   0.187  -0.862  0.00  0.00     0.054 C 
ATOM      9  C   UNL d   1      -2.013  -0.389  -2.269  0.00  0.00     0.018 C 
ENDBRANCH   1   8
TORSDOF 1
ENDMDL
