MODEL 1
REMARK minimizedAffinity 9.58259583
REMARK minimizedRMSD -1
REMARK  2 active torsions:
REMARK  status: ('A' for Active; 'I' for Inactive)
REMARK    1  A    between atoms: C2'_3  and  C1'_4 
REMARK    2  A    between atoms: C1'_4  and  C1_5 
ROOT
ATOM      1  C1  I4B d   1      -2.983   0.022   1.243  0.00  0.00    -0.075 A 
ATOM      2  C2  I4B d   1      -3.654  -0.604   2.264  0.00  0.00     0.003 A 
ATOM      3  C3  I4B d   1      -3.363  -0.280   3.612  0.00  0.00     0.002 A 
ATOM      4  C4  I4B d   1      -2.366   0.632   3.892  0.00  0.00    -0.004 A 
ATOM      5  C5  I4B d   1      -1.703   1.281   2.855  0.00  0.00     0.002 A 
ATOM      6  C6  I4B d   1      -2.021   0.984   1.522  0.00  0.00     0.003 A 
ENDROOT
BRANCH   1   7
ATOM      7  C1' I4B d   1      -3.292  -0.368  -0.168  0.00  0.00     0.060 C 
BRANCH   7   8
ATOM      8  C2' I4B d   1      -3.452  -1.874  -0.211  0.00  0.00    -0.013 C 
ATOM      9  C4' I4B d   1      -4.806  -2.264  -0.743  0.00  0.00     0.013 C 
ATOM     10  C3' I4B d   1      -2.353  -2.432  -1.067  0.00  0.00     0.013 C 
ENDBRANCH   7   8
ENDBRANCH   1   7
TORSDOF 2
ENDMDL
