MODEL 1
REMARK minimizedAffinity 7.56126547
REMARK minimizedRMSD -1
REMARK  2 active torsions:
REMARK  status: ('A' for Active; 'I' for Inactive)
REMARK    1  A    between atoms: C2'_3  and  C1'_4 
REMARK    2  A    between atoms: C1'_4  and  C1_5 
ROOT
ATOM      1  C1  I4B d   1      -2.632  -0.599   2.115  0.00  0.00    -0.075 A 
ATOM      2  C2  I4B d   1      -1.409   0.011   2.245  0.00  0.00     0.003 A 
ATOM      3  C3  I4B d   1      -1.293   1.232   2.952  0.00  0.00     0.002 A 
ATOM      4  C4  I4B d   1      -2.426   1.830   3.466  0.00  0.00    -0.004 A 
ATOM      5  C5  I4B d   1      -3.661   1.199   3.353  0.00  0.00     0.002 A 
ATOM      6  C6  I4B d   1      -3.764  -0.030   2.684  0.00  0.00     0.003 A 
ENDROOT
BRANCH   1   7
ATOM      7  C1' I4B d   1      -2.723  -1.871   1.334  0.00  0.00     0.060 C 
BRANCH   7   8
ATOM      8  C2' I4B d   1      -2.733  -1.515  -0.139  0.00  0.00    -0.013 C 
ATOM      9  C4' I4B d   1      -1.490  -2.012  -0.829  0.00  0.00     0.013 C 
ATOM     10  C3' I4B d   1      -3.966  -2.110  -0.751  0.00  0.00     0.013 C 
ENDBRANCH   7   8
ENDBRANCH   1   7
TORSDOF 2
ENDMDL
