MODEL 1
REMARK minimizedAffinity 8.5729208
REMARK minimizedRMSD -1
REMARK  2 active torsions:
REMARK  status: ('A' for Active; 'I' for Inactive)
REMARK    1  A    between atoms: C2'_3  and  C1'_4 
REMARK    2  A    between atoms: C1'_4  and  C1_5 
ROOT
ATOM      1  C1  I4B d   1       5.494   4.961   2.680  0.00  0.00    -0.075 A 
ATOM      2  C2  I4B d   1       5.286   6.000   3.553  0.00  0.00     0.003 A 
ATOM      3  C3  I4B d   1       5.441   5.802   4.946  0.00  0.00     0.002 A 
ATOM      4  C4  I4B d   1       5.754   4.546   5.424  0.00  0.00    -0.004 A 
ATOM      5  C5  I4B d   1       5.987   3.499   4.536  0.00  0.00     0.002 A 
ATOM      6  C6  I4B d   1       5.868   3.711   3.155  0.00  0.00     0.003 A 
ENDROOT
BRANCH   1   7
ATOM      7  C1' I4B d   1       5.289   5.197   1.217  0.00  0.00     0.060 C 
BRANCH   7   8
ATOM      8  C2' I4B d   1       4.000   5.975   1.046  0.00  0.00    -0.013 C 
ATOM      9  C4' I4B d   1       3.163   5.404  -0.068  0.00  0.00     0.013 C 
ATOM     10  C3' I4B d   1       3.261   5.940   2.350  0.00  0.00     0.013 C 
ENDBRANCH   7   8
ENDBRANCH   1   7
TORSDOF 2
ENDMDL
