MODEL 1
REMARK minimizedAffinity 6.59880686
REMARK minimizedRMSD -1
REMARK  2 active torsions:
REMARK  status: ('A' for Active; 'I' for Inactive)
REMARK    1  A    between atoms: C2'_3  and  C1'_4 
REMARK    2  A    between atoms: C1'_4  and  C1_5 
ROOT
ATOM      1  C1  I4B d   1       5.702   4.542   3.103  0.00  0.00    -0.075 A 
ATOM      2  C2  I4B d   1       5.658   5.773   3.709  0.00  0.00     0.003 A 
ATOM      3  C3  I4B d   1       5.785   5.880   5.115  0.00  0.00     0.002 A 
ATOM      4  C4  I4B d   1       5.903   4.735   5.876  0.00  0.00    -0.004 A 
ATOM      5  C5  I4B d   1       5.971   3.490   5.258  0.00  0.00     0.002 A 
ATOM      6  C6  I4B d   1       5.882   3.393   3.862  0.00  0.00     0.003 A 
ENDROOT
BRANCH   1   7
ATOM      7  C1' I4B d   1       5.531   4.463   1.619  0.00  0.00     0.060 C 
BRANCH   7   8
ATOM      8  C2' I4B d   1       5.065   5.819   1.130  0.00  0.00    -0.013 C 
ATOM      9  C4' I4B d   1       5.208   5.939  -0.365  0.00  0.00     0.013 C 
ATOM     10  C3' I4B d   1       3.638   5.999   1.553  0.00  0.00     0.013 C 
ENDBRANCH   7   8
ENDBRANCH   1   7
TORSDOF 2
ENDMDL
