MODEL 1
REMARK minimizedAffinity 7.36783743
REMARK minimizedRMSD -1
REMARK  2 active torsions:
REMARK  status: ('A' for Active; 'I' for Inactive)
REMARK    1  A    between atoms: C2'_3  and  C1'_4 
REMARK    2  A    between atoms: C1'_4  and  C1_5 
ROOT
ATOM      1  C1  I4B d   1      -1.514   0.641  -0.752  0.00  0.00    -0.075 A 
ATOM      2  C2  I4B d   1      -0.447  -0.177  -1.029  0.00  0.00     0.003 A 
ATOM      3  C3  I4B d   1       0.430   0.133  -2.097  0.00  0.00     0.002 A 
ATOM      4  C4  I4B d   1       0.174   1.233  -2.889  0.00  0.00    -0.004 A 
ATOM      5  C5  I4B d   1      -0.896   2.073  -2.593  0.00  0.00     0.002 A 
ATOM      6  C6  I4B d   1      -1.738   1.783  -1.511  0.00  0.00     0.003 A 
ENDROOT
BRANCH   1   7
ATOM      7  C1' I4B d   1      -2.439   0.266   0.362  0.00  0.00     0.060 C 
BRANCH   7   8
ATOM      8  C2' I4B d   1      -2.283   1.295   1.464  0.00  0.00    -0.013 C 
ATOM      9  C4' I4B d   1      -3.501   2.175   1.564  0.00  0.00     0.013 C 
ATOM     10  C3' I4B d   1      -2.035   0.564   2.749  0.00  0.00     0.013 C 
ENDBRANCH   7   8
ENDBRANCH   1   7
TORSDOF 2
ENDMDL
