MODEL 1
REMARK minimizedAffinity 7.45130444
REMARK minimizedRMSD -1
REMARK  2 active torsions:
REMARK  status: ('A' for Active; 'I' for Inactive)
REMARK    1  A    between atoms: C2'_3  and  C1'_4 
REMARK    2  A    between atoms: C1'_4  and  C1_5 
ROOT
ATOM      1  C1  I4B d   1      -2.228   0.048   1.429  0.00  0.00    -0.075 A 
ATOM      2  C2  I4B d   1      -2.595  -1.270   1.537  0.00  0.00     0.003 A 
ATOM      3  C3  I4B d   1      -3.207  -1.931   0.444  0.00  0.00     0.002 A 
ATOM      4  C4  I4B d   1      -3.476  -1.227  -0.711  0.00  0.00    -0.004 A 
ATOM      5  C5  I4B d   1      -3.083   0.103  -0.827  0.00  0.00     0.002 A 
ATOM      6  C6  I4B d   1      -2.443   0.741   0.245  0.00  0.00     0.003 A 
ENDROOT
BRANCH   1   7
ATOM      7  C1' I4B d   1      -1.614   0.724   2.614  0.00  0.00     0.060 C 
BRANCH   7   8
ATOM      8  C2' I4B d   1      -2.730   1.361   3.417  0.00  0.00    -0.013 C 
ATOM      9  C4' I4B d   1      -3.365   2.499   2.662  0.00  0.00     0.013 C 
ATOM     10  C3' I4B d   1      -3.735   0.296   3.738  0.00  0.00     0.013 C 
ENDBRANCH   7   8
ENDBRANCH   1   7
TORSDOF 2
ENDMDL
