MODEL 1
REMARK minimizedAffinity 18.0886154
REMARK minimizedRMSD -1
REMARK  2 active torsions:
REMARK  status: ('A' for Active; 'I' for Inactive)
REMARK    1  A    between atoms: C2'_3  and  C1'_4 
REMARK    2  A    between atoms: C1'_4  and  C1_5 
ROOT
ATOM      1  C1  I4B d   1       3.391  -0.334  -1.938  0.00  0.00    -0.075 A 
ATOM      2  C2  I4B d   1       2.455  -1.084  -2.606  0.00  0.00     0.003 A 
ATOM      3  C3  I4B d   1       1.221  -0.507  -2.990  0.00  0.00     0.002 A 
ATOM      4  C4  I4B d   1       0.945   0.800  -2.644  0.00  0.00    -0.004 A 
ATOM      5  C5  I4B d   1       1.904   1.566  -1.988  0.00  0.00     0.002 A 
ATOM      6  C6  I4B d   1       3.140   1.000  -1.643  0.00  0.00     0.003 A 
ENDROOT
BRANCH   1   7
ATOM      7  C1' I4B d   1       4.671  -0.985  -1.519  0.00  0.00     0.060 C 
BRANCH   7   8
ATOM      8  C2' I4B d   1       5.787  -0.409  -2.366  0.00  0.00    -0.013 C 
ATOM      9  C4' I4B d   1       5.700  -0.898  -3.788  0.00  0.00     0.013 C 
ATOM     10  C3' I4B d   1       5.694   1.086  -2.301  0.00  0.00     0.013 C 
ENDBRANCH   7   8
ENDBRANCH   1   7
TORSDOF 2
ENDMDL
