MODEL 1
REMARK minimizedAffinity 8.10117531
REMARK minimizedRMSD -1
REMARK  2 active torsions:
REMARK  status: ('A' for Active; 'I' for Inactive)
REMARK    1  A    between atoms: C2'_3  and  C1'_4 
REMARK    2  A    between atoms: C1'_4  and  C1_5 
ROOT
ATOM      1  C1  I4B d   1      -1.854  -0.225   0.147  0.00  0.00    -0.075 A 
ATOM      2  C2  I4B d   1      -2.529  -1.296  -0.383  0.00  0.00     0.003 A 
ATOM      3  C3  I4B d   1      -1.920  -2.103  -1.374  0.00  0.00     0.002 A 
ATOM      4  C4  I4B d   1      -0.664  -1.775  -1.840  0.00  0.00    -0.004 A 
ATOM      5  C5  I4B d   1       0.029  -0.702  -1.285  0.00  0.00     0.002 A 
ATOM      6  C6  I4B d   1      -0.565   0.071  -0.277  0.00  0.00     0.003 A 
ENDROOT
BRANCH   1   7
ATOM      7  C1' I4B d   1      -2.540   0.626   1.169  0.00  0.00     0.060 C 
BRANCH   7   8
ATOM      8  C2' I4B d   1      -1.958   0.285   2.526  0.00  0.00    -0.013 C 
ATOM      9  C4' I4B d   1      -1.074   1.393   3.034  0.00  0.00     0.013 C 
ATOM     10  C3' I4B d   1      -3.098   0.028   3.466  0.00  0.00     0.013 C 
ENDBRANCH   7   8
ENDBRANCH   1   7
TORSDOF 2
ENDMDL
