MODEL 1
REMARK minimizedAffinity -2.18595982
REMARK minimizedRMSD -1
REMARK  1 active torsions:
REMARK  status: ('A' for Active; 'I' for Inactive)
REMARK    1  A    between atoms: N_2  and  C1_3 
ROOT
ATOM      1  C1  UNL d   1       0.449  -0.569   0.416  0.00  0.00     0.143 A 
ATOM      2  C2  UNL d   1       0.248  -1.174   1.662  0.00  0.00    -0.057 A 
ATOM      3  C3  UNL d   1      -0.621  -0.618   2.608  0.00  0.00     0.033 A 
ATOM      4  C4  UNL d   1      -1.285   0.574   2.335  0.00  0.00    -0.042 A 
ATOM      5  C5  UNL d   1      -1.082   1.206   1.113  0.00  0.00     0.033 A 
ATOM      6  C6  UNL d   1      -0.218   0.641   0.170  0.00  0.00    -0.057 A 
ENDROOT
BRANCH   1   7
ATOM      7  N   UNL d   1       1.375  -1.021  -0.527  0.00  0.00    -0.732 N 
ATOM      8  C   UNL d   1       1.038  -2.098  -1.433  0.00  0.00     0.284 C 
ATOM      9  H3  UNL d   1       1.890  -0.258  -0.961  0.00  0.00     0.395 HD
ENDBRANCH   1   7
TORSDOF 1
ENDMDL
