MODEL 1
REMARK minimizedAffinity -1.08091474
REMARK minimizedRMSD -1
REMARK  1 active torsions:
REMARK  status: ('A' for Active; 'I' for Inactive)
REMARK    1  A    between atoms: N_2  and  C1_3 
ROOT
ATOM      1  C1  UNL d   1       0.164  -1.598  -1.235  0.00  0.00     0.143 A 
ATOM      2  C2  UNL d   1       0.882  -0.429  -0.960  0.00  0.00    -0.057 A 
ATOM      3  C3  UNL d   1       0.572   0.370   0.147  0.00  0.00     0.033 A 
ATOM      4  C4  UNL d   1      -0.485   0.028   0.985  0.00  0.00    -0.042 A 
ATOM      5  C5  UNL d   1      -1.228  -1.116   0.716  0.00  0.00     0.033 A 
ATOM      6  C6  UNL d   1      -0.909  -1.913  -0.387  0.00  0.00    -0.057 A 
ENDROOT
BRANCH   1   7
ATOM      7  N   UNL d   1       0.361  -2.381  -2.375  0.00  0.00    -0.732 N 
ATOM      8  C   UNL d   1       0.205  -3.819  -2.318  0.00  0.00     0.284 C 
ATOM      9  H3  UNL d   1      -0.030  -1.954  -3.212  0.00  0.00     0.395 HD
ENDBRANCH   1   7
TORSDOF 1
ENDMDL
