MODEL 1
REMARK minimizedAffinity -3.47981501
REMARK minimizedRMSD -1
REMARK  1 active torsions:
REMARK  status: ('A' for Active; 'I' for Inactive)
REMARK    1  A    between atoms: N_2  and  C1_3 
ROOT
ATOM      1  C1  UNL d   1       0.105  -0.130  -0.080  0.00  0.00     0.143 A 
ATOM      2  C2  UNL d   1      -0.487  -0.528   1.123  0.00  0.00    -0.057 A 
ATOM      3  C3  UNL d   1      -1.120   0.398   1.962  0.00  0.00     0.033 A 
ATOM      4  C4  UNL d   1      -1.146   1.747   1.624  0.00  0.00    -0.042 A 
ATOM      5  C5  UNL d   1      -0.542   2.169   0.445  0.00  0.00     0.033 A 
ATOM      6  C6  UNL d   1       0.083   1.238  -0.392  0.00  0.00    -0.057 A 
ENDROOT
BRANCH   1   7
ATOM      7  N   UNL d   1       0.834  -0.987  -0.909  0.00  0.00    -0.732 N 
ATOM      8  C   UNL d   1       0.213  -2.159  -1.486  0.00  0.00     0.284 C 
ATOM      9  H3  UNL d   1       1.445  -0.483  -1.547  0.00  0.00     0.395 HD
ENDBRANCH   1   7
TORSDOF 1
ENDMDL
