MODEL 1
REMARK minimizedAffinity -3.54801822
REMARK minimizedRMSD -1
REMARK  1 active torsions:
REMARK  status: ('A' for Active; 'I' for Inactive)
REMARK    1  A    between atoms: N_2  and  C1_3 
ROOT
ATOM      1  C1  UNL d   1       0.438   0.070   0.397  0.00  0.00     0.143 A 
ATOM      2  C2  UNL d   1       0.006  -0.738   1.454  0.00  0.00    -0.057 A 
ATOM      3  C3  UNL d   1      -0.921  -0.271   2.394  0.00  0.00     0.033 A 
ATOM      4  C4  UNL d   1      -1.411   1.028   2.309  0.00  0.00    -0.042 A 
ATOM      5  C5  UNL d   1      -0.977   1.857   1.281  0.00  0.00     0.033 A 
ATOM      6  C6  UNL d   1      -0.057   1.382   0.342  0.00  0.00    -0.057 A 
ENDROOT
BRANCH   1   7
ATOM      7  N   UNL d   1       1.431  -0.303  -0.512  0.00  0.00    -0.732 N 
ATOM      8  C   UNL d   1       1.429  -1.624  -1.105  0.00  0.00     0.284 C 
ATOM      9  H3  UNL d   1       1.663   0.444  -1.162  0.00  0.00     0.395 HD
ENDBRANCH   1   7
TORSDOF 1
ENDMDL
