MODEL 1
REMARK minimizedAffinity -4.03709412
REMARK minimizedRMSD -1
REMARK  1 active torsions:
REMARK  status: ('A' for Active; 'I' for Inactive)
REMARK    1  A    between atoms: N_2  and  C1_3 
ROOT
ATOM      1  C1  UNL d   1       0.224  -1.820  -0.828  0.00  0.00     0.143 A 
ATOM      2  C2  UNL d   1      -1.074  -2.006  -0.339  0.00  0.00    -0.057 A 
ATOM      3  C3  UNL d   1      -1.608  -1.163   0.643  0.00  0.00     0.033 A 
ATOM      4  C4  UNL d   1      -0.841  -0.133   1.176  0.00  0.00    -0.042 A 
ATOM      5  C5  UNL d   1       0.461   0.055   0.724  0.00  0.00     0.033 A 
ATOM      6  C6  UNL d   1       0.986  -0.786  -0.262  0.00  0.00    -0.057 A 
ENDROOT
BRANCH   1   7
ATOM      7  N   UNL d   1       0.846  -2.685  -1.731  0.00  0.00    -0.732 N 
ATOM      8  C   UNL d   1       0.442  -2.714  -3.121  0.00  0.00     0.284 C 
ATOM      9  H3  UNL d   1       1.852  -2.736  -1.590  0.00  0.00     0.395 HD
ENDBRANCH   1   7
TORSDOF 1
ENDMDL
