MODEL 1
REMARK minimizedAffinity -0.261635333
REMARK minimizedRMSD -1
REMARK  1 active torsions:
REMARK  status: ('A' for Active; 'I' for Inactive)
REMARK    1  A    between atoms: N_2  and  C1_3 
ROOT
ATOM      1  C1  UNL d   1       0.753  -1.503  -1.396  0.00  0.00     0.143 A 
ATOM      2  C2  UNL d   1       1.471  -2.466  -0.678  0.00  0.00    -0.057 A 
ATOM      3  C3  UNL d   1       1.670  -3.754  -1.190  0.00  0.00     0.033 A 
ATOM      4  C4  UNL d   1       1.127  -4.112  -2.419  0.00  0.00    -0.042 A 
ATOM      5  C5  UNL d   1       0.389  -3.179  -3.139  0.00  0.00     0.033 A 
ATOM      6  C6  UNL d   1       0.199  -1.893  -2.626  0.00  0.00    -0.057 A 
ENDROOT
BRANCH   1   7
ATOM      7  N   UNL d   1       0.437  -0.237  -0.898  0.00  0.00    -0.732 N 
ATOM      8  C   UNL d   1      -0.525  -0.084   0.172  0.00  0.00     0.284 C 
ATOM      9  H3  UNL d   1       1.256   0.361  -0.809  0.00  0.00     0.395 HD
ENDBRANCH   1   7
TORSDOF 1
ENDMDL
