MODEL 1
REMARK minimizedAffinity -3.17845035
REMARK minimizedRMSD -1
REMARK  1 active torsions:
REMARK  status: ('A' for Active; 'I' for Inactive)
REMARK    1  A    between atoms: N_2  and  C1_3 
ROOT
ATOM      1  C1  UNL d   1       0.220  -0.800  -0.848  0.00  0.00     0.143 A 
ATOM      2  C2  UNL d   1       0.464   0.556  -1.092  0.00  0.00    -0.057 A 
ATOM      3  C3  UNL d   1       0.084   1.539  -0.170  0.00  0.00     0.033 A 
ATOM      4  C4  UNL d   1      -0.575   1.184   1.002  0.00  0.00    -0.042 A 
ATOM      5  C5  UNL d   1      -0.851  -0.155   1.253  0.00  0.00     0.033 A 
ATOM      6  C6  UNL d   1      -0.463  -1.133   0.332  0.00  0.00    -0.057 A 
ENDROOT
BRANCH   1   7
ATOM      7  N   UNL d   1       0.485  -1.816  -1.770  0.00  0.00    -0.732 N 
ATOM      8  C   UNL d   1       1.144  -3.035  -1.354  0.00  0.00     0.284 C 
ATOM      9  H3  UNL d   1      -0.284  -1.960  -2.421  0.00  0.00     0.395 HD
ENDBRANCH   1   7
TORSDOF 1
ENDMDL
