MODEL 1
REMARK minimizedAffinity -3.7466805
REMARK minimizedRMSD -1
REMARK  1 active torsions:
REMARK  status: ('A' for Active; 'I' for Inactive)
REMARK    1  A    between atoms: N_2  and  C1_3 
ROOT
ATOM      1  C1  UNL d   1       0.112  -0.993  -0.957  0.00  0.00     0.143 A 
ATOM      2  C2  UNL d   1       1.293  -1.742  -0.983  0.00  0.00    -0.057 A 
ATOM      3  C3  UNL d   1       1.368  -2.958  -1.673  0.00  0.00     0.033 A 
ATOM      4  C4  UNL d   1       0.249  -3.462  -2.328  0.00  0.00    -0.042 A 
ATOM      5  C5  UNL d   1      -0.943  -2.747  -2.296  0.00  0.00     0.033 A 
ATOM      6  C6  UNL d   1      -1.009  -1.530  -1.610  0.00  0.00    -0.057 A 
ENDROOT
BRANCH   1   7
ATOM      7  N   UNL d   1      -0.054   0.174  -0.207  0.00  0.00    -0.732 N 
ATOM      8  C   UNL d   1      -0.366   0.105   1.204  0.00  0.00     0.284 C 
ATOM      9  H3  UNL d   1       0.628   0.890  -0.447  0.00  0.00     0.395 HD
ENDBRANCH   1   7
TORSDOF 1
ENDMDL
