MODEL 1
REMARK minimizedAffinity -2.58610034
REMARK minimizedRMSD -1
REMARK  1 active torsions:
REMARK  status: ('A' for Active; 'I' for Inactive)
REMARK    1  A    between atoms: N_2  and  C1_3 
ROOT
ATOM      1  C1  UNL d   1       0.123  -1.684  -1.111  0.00  0.00     0.143 A 
ATOM      2  C2  UNL d   1       0.689  -0.405  -1.062  0.00  0.00    -0.057 A 
ATOM      3  C3  UNL d   1       0.248   0.549  -0.137  0.00  0.00     0.033 A 
ATOM      4  C4  UNL d   1      -0.790   0.249   0.739  0.00  0.00    -0.042 A 
ATOM      5  C5  UNL d   1      -1.383  -1.007   0.692  0.00  0.00     0.033 A 
ATOM      6  C6  UNL d   1      -0.935  -1.958  -0.230  0.00  0.00    -0.057 A 
ENDROOT
BRANCH   1   7
ATOM      7  N   UNL d   1       0.450  -2.643  -2.073  0.00  0.00    -0.732 N 
ATOM      8  C   UNL d   1       0.006  -4.013  -1.929  0.00  0.00     0.284 C 
ATOM      9  H3  UNL d   1       0.380  -2.281  -3.022  0.00  0.00     0.395 HD
ENDBRANCH   1   7
TORSDOF 1
ENDMDL
