MODEL 1
REMARK minimizedAffinity -3.35257077
REMARK minimizedRMSD -1
REMARK  1 active torsions:
REMARK  status: ('A' for Active; 'I' for Inactive)
REMARK    1  A    between atoms: N_2  and  C1_3 
ROOT
ATOM      1  C1  UNL d   1       0.539   0.261  -0.053  0.00  0.00     0.143 A 
ATOM      2  C2  UNL d   1      -0.233   0.051   1.094  0.00  0.00    -0.057 A 
ATOM      3  C3  UNL d   1      -1.046   1.063   1.618  0.00  0.00     0.033 A 
ATOM      4  C4  UNL d   1      -1.079   2.318   1.018  0.00  0.00    -0.042 A 
ATOM      5  C5  UNL d   1      -0.300   2.557  -0.109  0.00  0.00     0.033 A 
ATOM      6  C6  UNL d   1       0.504   1.540  -0.631  0.00  0.00    -0.057 A 
ENDROOT
BRANCH   1   7
ATOM      7  N   UNL d   1       1.442  -0.674  -0.565  0.00  0.00    -0.732 N 
ATOM      8  C   UNL d   1       0.973  -1.930  -1.109  0.00  0.00     0.284 C 
ATOM      9  H3  UNL d   1       2.187  -0.239  -1.105  0.00  0.00     0.395 HD
ENDBRANCH   1   7
TORSDOF 1
ENDMDL
