MODEL 1
REMARK minimizedAffinity -3.58886695
REMARK minimizedRMSD -1
REMARK  1 active torsions:
REMARK  status: ('A' for Active; 'I' for Inactive)
REMARK    1  A    between atoms: N_2  and  C1_3 
ROOT
ATOM      1  C1  UNL d   1       0.695  -1.338  -0.487  0.00  0.00     0.143 A 
ATOM      2  C2  UNL d   1      -0.691  -1.352  -0.293  0.00  0.00    -0.057 A 
ATOM      3  C3  UNL d   1      -1.275  -0.724   0.815  0.00  0.00     0.033 A 
ATOM      4  C4  UNL d   1      -0.478  -0.096   1.766  0.00  0.00    -0.042 A 
ATOM      5  C5  UNL d   1       0.903  -0.092   1.607  0.00  0.00     0.033 A 
ATOM      6  C6  UNL d   1       1.480  -0.714   0.495  0.00  0.00    -0.057 A 
ENDROOT
BRANCH   1   7
ATOM      7  N   UNL d   1       1.343  -2.028  -1.514  0.00  0.00    -0.732 N 
ATOM      8  C   UNL d   1       0.582  -2.747  -2.513  0.00  0.00     0.284 C 
ATOM      9  H3  UNL d   1       2.136  -1.512  -1.888  0.00  0.00     0.395 HD
ENDBRANCH   1   7
TORSDOF 1
ENDMDL
