MODEL 1
REMARK minimizedAffinity -2.68939996
REMARK minimizedRMSD -1
REMARK  1 active torsions:
REMARK  status: ('A' for Active; 'I' for Inactive)
REMARK    1  A    between atoms: N_2  and  C1_3 
ROOT
ATOM      1  C1  UNL d   1      -0.207   0.008   0.846  0.00  0.00     0.143 A 
ATOM      2  C2  UNL d   1       1.147  -0.134   0.524  0.00  0.00    -0.057 A 
ATOM      3  C3  UNL d   1       1.550  -0.769  -0.657  0.00  0.00     0.033 A 
ATOM      4  C4  UNL d   1       0.603  -1.301  -1.526  0.00  0.00    -0.042 A 
ATOM      5  C5  UNL d   1      -0.748  -1.194  -1.214  0.00  0.00     0.033 A 
ATOM      6  C6  UNL d   1      -1.144  -0.552  -0.036  0.00  0.00    -0.057 A 
ENDROOT
BRANCH   1   7
ATOM      7  N   UNL d   1      -0.668   0.541   2.052  0.00  0.00    -0.732 N 
ATOM      8  C   UNL d   1      -0.723   1.974   2.251  0.00  0.00     0.284 C 
ATOM      9  H3  UNL d   1      -1.475   0.040   2.416  0.00  0.00     0.395 HD
ENDBRANCH   1   7
TORSDOF 1
ENDMDL
