MODEL 1
REMARK minimizedAffinity 0.383892745
REMARK minimizedRMSD -1
REMARK  1 active torsions:
REMARK  status: ('A' for Active; 'I' for Inactive)
REMARK    1  A    between atoms: N_2  and  C1_3 
ROOT
ATOM      1  C1  UNL d   1       5.339   4.881  -3.385  0.00  0.00     0.143 A 
ATOM      2  C2  UNL d   1       4.234   5.693  -3.663  0.00  0.00    -0.057 A 
ATOM      3  C3  UNL d   1       3.697   5.772  -4.954  0.00  0.00     0.033 A 
ATOM      4  C4  UNL d   1       4.276   5.060  -5.999  0.00  0.00    -0.042 A 
ATOM      5  C5  UNL d   1       5.390   4.266  -5.751  0.00  0.00     0.033 A 
ATOM      6  C6  UNL d   1       5.917   4.186  -4.459  0.00  0.00    -0.057 A 
ENDROOT
BRANCH   1   7
ATOM      7  N   UNL d   1       5.979   4.836  -2.144  0.00  0.00    -0.732 N 
ATOM      8  C   UNL d   1       6.000   5.999  -1.283  0.00  0.00     0.284 C 
ATOM      9  H3  UNL d   1       5.815   3.959  -1.655  0.00  0.00     0.395 HD
ENDBRANCH   1   7
TORSDOF 1
ENDMDL
