MODEL 1
REMARK minimizedAffinity -0.935375869
REMARK minimizedRMSD -1
REMARK  1 active torsions:
REMARK  status: ('A' for Active; 'I' for Inactive)
REMARK    1  A    between atoms: N_2  and  C1_3 
ROOT
ATOM      1  C1  UNL d   1      -2.540  -3.050  -2.450  0.00  0.00     0.143 A 
ATOM      2  C2  UNL d   1      -1.245  -2.630  -2.774  0.00  0.00    -0.057 A 
ATOM      3  C3  UNL d   1      -0.363  -2.171  -1.789  0.00  0.00     0.033 A 
ATOM      4  C4  UNL d   1      -0.771  -2.097  -0.461  0.00  0.00    -0.042 A 
ATOM      5  C5  UNL d   1      -2.062  -2.486  -0.120  0.00  0.00     0.033 A 
ATOM      6  C6  UNL d   1      -2.936  -2.950  -1.108  0.00  0.00    -0.057 A 
ENDROOT
BRANCH   1   7
ATOM      7  N   UNL d   1      -3.496  -3.424  -3.398  0.00  0.00    -0.732 N 
ATOM      8  C   UNL d   1      -4.142  -4.716  -3.323  0.00  0.00     0.284 C 
ATOM      9  H3  UNL d   1      -4.123  -2.659  -3.639  0.00  0.00     0.395 HD
ENDBRANCH   1   7
TORSDOF 1
ENDMDL
