MODEL 1
REMARK minimizedAffinity -1.48764932
REMARK minimizedRMSD -1
REMARK  1 active torsions:
REMARK  status: ('A' for Active; 'I' for Inactive)
REMARK    1  A    between atoms: N_2  and  C1_3 
ROOT
ATOM      1  C1  UNL d   1       5.317   4.644  -2.781  0.00  0.00     0.143 A 
ATOM      2  C2  UNL d   1       4.569   5.650  -3.401  0.00  0.00    -0.057 A 
ATOM      3  C3  UNL d   1       4.222   5.567  -4.755  0.00  0.00     0.033 A 
ATOM      4  C4  UNL d   1       4.644   4.486  -5.522  0.00  0.00    -0.042 A 
ATOM      5  C5  UNL d   1       5.410   3.487  -4.933  0.00  0.00     0.033 A 
ATOM      6  C6  UNL d   1       5.747   3.572  -3.579  0.00  0.00    -0.057 A 
ENDROOT
BRANCH   1   7
ATOM      7  N   UNL d   1       5.777   4.716  -1.464  0.00  0.00    -0.732 N 
ATOM      8  C   UNL d   1       5.999   5.998  -0.830  0.00  0.00     0.284 C 
ATOM      9  H3  UNL d   1       5.337   4.025  -0.860  0.00  0.00     0.395 HD
ENDBRANCH   1   7
TORSDOF 1
ENDMDL
