MODEL 1
REMARK minimizedAffinity -1.03950429
REMARK minimizedRMSD -1
REMARK  1 active torsions:
REMARK  status: ('A' for Active; 'I' for Inactive)
REMARK    1  A    between atoms: N_2  and  C1_3 
ROOT
ATOM      1  C1  UNL d   1       5.395   4.884  -2.703  0.00  0.00     0.143 A 
ATOM      2  C2  UNL d   1       5.587   3.918  -3.696  0.00  0.00    -0.057 A 
ATOM      3  C3  UNL d   1       4.875   3.963  -4.901  0.00  0.00     0.033 A 
ATOM      4  C4  UNL d   1       3.934   4.963  -5.122  0.00  0.00    -0.042 A 
ATOM      5  C5  UNL d   1       3.709   5.920  -4.139  0.00  0.00     0.033 A 
ATOM      6  C6  UNL d   1       4.427   5.873  -2.941  0.00  0.00    -0.057 A 
ENDROOT
BRANCH   1   7
ATOM      7  N   UNL d   1       6.000   4.838  -1.444  0.00  0.00    -0.732 N 
ATOM      8  C   UNL d   1       5.998   6.000  -0.582  0.00  0.00     0.284 C 
ATOM      9  H3  UNL d   1       5.822   3.961  -0.960  0.00  0.00     0.395 HD
ENDBRANCH   1   7
TORSDOF 1
ENDMDL
