MODEL 1
REMARK minimizedAffinity -2.88680243
REMARK minimizedRMSD -1
REMARK  1 active torsions:
REMARK  status: ('A' for Active; 'I' for Inactive)
REMARK    1  A    between atoms: N_2  and  C1_3 
ROOT
ATOM      1  C1  UNL d   1       5.829   4.743  -3.791  0.00  0.00     0.143 A 
ATOM      2  C2  UNL d   1       5.864   3.561  -3.043  0.00  0.00    -0.057 A 
ATOM      3  C3  UNL d   1       5.922   3.588  -1.644  0.00  0.00     0.033 A 
ATOM      4  C4  UNL d   1       5.976   4.802  -0.968  0.00  0.00    -0.042 A 
ATOM      5  C5  UNL d   1       5.968   5.989  -1.692  0.00  0.00     0.033 A 
ATOM      6  C6  UNL d   1       5.903   5.956  -3.088  0.00  0.00    -0.057 A 
ENDROOT
BRANCH   1   7
ATOM      7  N   UNL d   1       5.871   4.782  -5.187  0.00  0.00    -0.732 N 
ATOM      8  C   UNL d   1       5.023   3.913  -5.974  0.00  0.00     0.284 C 
ATOM      9  H3  UNL d   1       5.943   5.731  -5.547  0.00  0.00     0.395 HD
ENDBRANCH   1   7
TORSDOF 1
ENDMDL
