MODEL 1
REMARK minimizedAffinity -0.742391348
REMARK minimizedRMSD -1
REMARK  1 active torsions:
REMARK  status: ('A' for Active; 'I' for Inactive)
REMARK    1  A    between atoms: N_2  and  C1_3 
ROOT
ATOM      1  C1  UNL d   1       5.446   4.530  -2.561  0.00  0.00     0.143 A 
ATOM      2  C2  UNL d   1       5.484   5.510  -3.559  0.00  0.00    -0.057 A 
ATOM      3  C3  UNL d   1       5.010   5.250  -4.850  0.00  0.00     0.033 A 
ATOM      4  C4  UNL d   1       4.515   3.991  -5.176  0.00  0.00    -0.042 A 
ATOM      5  C5  UNL d   1       4.491   2.994  -4.206  0.00  0.00     0.033 A 
ATOM      6  C6  UNL d   1       4.959   3.263  -2.917  0.00  0.00    -0.057 A 
ENDROOT
BRANCH   1   7
ATOM      7  N   UNL d   1       5.992   4.697  -1.286  0.00  0.00    -0.732 N 
ATOM      8  C   UNL d   1       6.000   5.998  -0.652  0.00  0.00     0.284 C 
ATOM      9  H3  UNL d   1       5.757   3.931  -0.659  0.00  0.00     0.395 HD
ENDBRANCH   1   7
TORSDOF 1
ENDMDL
