MODEL 1
REMARK minimizedAffinity -1.87308943
REMARK minimizedRMSD -1
REMARK  1 active torsions:
REMARK  status: ('A' for Active; 'I' for Inactive)
REMARK    1  A    between atoms: N_2  and  C1_3 
ROOT
ATOM      1  C1  UNL d   1      -2.180  -1.382   3.639  0.00  0.00     0.143 A 
ATOM      2  C2  UNL d   1      -1.770  -0.050   3.520  0.00  0.00    -0.057 A 
ATOM      3  C3  UNL d   1      -1.772   0.811   4.624  0.00  0.00     0.033 A 
ATOM      4  C4  UNL d   1      -2.214   0.361   5.864  0.00  0.00    -0.042 A 
ATOM      5  C5  UNL d   1      -2.650  -0.952   6.000  0.00  0.00     0.033 A 
ATOM      6  C6  UNL d   1      -2.639  -1.809   4.895  0.00  0.00    -0.057 A 
ENDROOT
BRANCH   1   7
ATOM      7  N   UNL d   1      -2.294  -2.260   2.558  0.00  0.00    -0.732 N 
ATOM      8  C   UNL d   1      -1.261  -2.323   1.547  0.00  0.00     0.284 C 
ATOM      9  H3  UNL d   1      -2.663  -3.168   2.832  0.00  0.00     0.395 HD
ENDBRANCH   1   7
TORSDOF 1
ENDMDL
