MODEL 1
REMARK minimizedAffinity 1.27413082
REMARK minimizedRMSD -1
REMARK  1 active torsions:
REMARK  status: ('A' for Active; 'I' for Inactive)
REMARK    1  A    between atoms: N_2  and  C1_3 
ROOT
ATOM      1  C1  UNL d   1       5.805   4.792  -3.617  0.00  0.00     0.143 A 
ATOM      2  C2  UNL d   1       5.847   3.595  -2.893  0.00  0.00    -0.057 A 
ATOM      3  C3  UNL d   1       5.928   3.595  -1.495  0.00  0.00     0.033 A 
ATOM      4  C4  UNL d   1       6.000   4.796  -0.796  0.00  0.00    -0.042 A 
ATOM      5  C5  UNL d   1       5.985   5.997  -1.497  0.00  0.00     0.033 A 
ATOM      6  C6  UNL d   1       5.897   5.990  -2.892  0.00  0.00    -0.057 A 
ENDROOT
BRANCH   1   7
ATOM      7  N   UNL d   1       5.824   4.857  -5.012  0.00  0.00    -0.732 N 
ATOM      8  C   UNL d   1       4.655   4.491  -5.783  0.00  0.00     0.284 C 
ATOM      9  H3  UNL d   1       6.306   5.685  -5.356  0.00  0.00     0.395 HD
ENDBRANCH   1   7
TORSDOF 1
ENDMDL
