MODEL 1
REMARK minimizedAffinity 2.26498437
REMARK minimizedRMSD -1
REMARK  1 active torsions:
REMARK  status: ('A' for Active; 'I' for Inactive)
REMARK    1  A    between atoms: N_2  and  C1_3 
ROOT
ATOM      1  C1  UNL d   1      -1.541  -3.030  -1.327  0.00  0.00     0.143 A 
ATOM      2  C2  UNL d   1      -2.860  -2.860  -0.892  0.00  0.00    -0.057 A 
ATOM      3  C3  UNL d   1      -3.167  -2.756   0.470  0.00  0.00     0.033 A 
ATOM      4  C4  UNL d   1      -2.161  -2.849   1.425  0.00  0.00    -0.042 A 
ATOM      5  C5  UNL d   1      -0.846  -3.043   1.017  0.00  0.00     0.033 A 
ATOM      6  C6  UNL d   1      -0.545  -3.140  -0.345  0.00  0.00    -0.057 A 
ENDROOT
BRANCH   1   7
ATOM      7  N   UNL d   1      -1.183  -3.240  -2.661  0.00  0.00    -0.732 N 
ATOM      8  C   UNL d   1      -1.241  -4.564  -3.241  0.00  0.00     0.284 C 
ATOM      9  H3  UNL d   1      -1.523  -2.502  -3.275  0.00  0.00     0.395 HD
ENDBRANCH   1   7
TORSDOF 1
ENDMDL
