MODEL 1
REMARK minimizedAffinity -0.690943658
REMARK minimizedRMSD -1
REMARK  1 active torsions:
REMARK  status: ('A' for Active; 'I' for Inactive)
REMARK    1  A    between atoms: N_2  and  C1_3 
ROOT
ATOM      1  C1  UNL d   1      -0.924  -2.575  -1.492  0.00  0.00     0.143 A 
ATOM      2  C2  UNL d   1      -0.058  -2.290  -0.430  0.00  0.00    -0.057 A 
ATOM      3  C3  UNL d   1      -0.494  -2.353   0.899  0.00  0.00     0.033 A 
ATOM      4  C4  UNL d   1      -1.815  -2.674   1.190  0.00  0.00    -0.042 A 
ATOM      5  C5  UNL d   1      -2.700  -2.937   0.150  0.00  0.00     0.033 A 
ATOM      6  C6  UNL d   1      -2.257  -2.879  -1.175  0.00  0.00    -0.057 A 
ENDROOT
BRANCH   1   7
ATOM      7  N   UNL d   1      -0.577  -2.434  -2.837  0.00  0.00    -0.732 N 
ATOM      8  C   UNL d   1      -0.264  -3.595  -3.643  0.00  0.00     0.284 C 
ATOM      9  H3  UNL d   1      -1.145  -1.738  -3.314  0.00  0.00     0.395 HD
ENDBRANCH   1   7
TORSDOF 1
ENDMDL
