MODEL 1
REMARK minimizedAffinity 0.577566087
REMARK minimizedRMSD -1
REMARK  1 active torsions:
REMARK  status: ('A' for Active; 'I' for Inactive)
REMARK    1  A    between atoms: N_2  and  C1_3 
ROOT
ATOM      1  C1  UNL d   1      -1.888  -0.586   2.981  0.00  0.00     0.143 A 
ATOM      2  C2  UNL d   1      -1.540   0.279   1.938  0.00  0.00    -0.057 A 
ATOM      3  C3  UNL d   1      -1.210  -0.211   0.668  0.00  0.00     0.033 A 
ATOM      4  C4  UNL d   1      -1.194  -1.580   0.427  0.00  0.00    -0.042 A 
ATOM      5  C5  UNL d   1      -1.513  -2.460   1.455  0.00  0.00     0.033 A 
ATOM      6  C6  UNL d   1      -1.848  -1.965   2.719  0.00  0.00    -0.057 A 
ENDROOT
BRANCH   1   7
ATOM      7  N   UNL d   1      -2.130  -0.167   4.291  0.00  0.00    -0.732 N 
ATOM      8  C   UNL d   1      -1.351   0.902   4.879  0.00  0.00     0.284 C 
ATOM      9  H3  UNL d   1      -3.123  -0.125   4.509  0.00  0.00     0.395 HD
ENDBRANCH   1   7
TORSDOF 1
ENDMDL
