MODEL 1
REMARK minimizedAffinity -2.47230053
REMARK minimizedRMSD -1
REMARK  1 active torsions:
REMARK  status: ('A' for Active; 'I' for Inactive)
REMARK    1  A    between atoms: N_2  and  C1_3 
ROOT
ATOM      1  C1  UNL d   1       5.466   4.921  -3.410  0.00  0.00     0.143 A 
ATOM      2  C2  UNL d   1       5.808   4.106  -4.494  0.00  0.00    -0.057 A 
ATOM      3  C3  UNL d   1       5.178   4.248  -5.737  0.00  0.00     0.033 A 
ATOM      4  C4  UNL d   1       4.171   5.192  -5.909  0.00  0.00    -0.042 A 
ATOM      5  C5  UNL d   1       3.797   5.996  -4.838  0.00  0.00     0.033 A 
ATOM      6  C6  UNL d   1       4.434   5.854  -3.602  0.00  0.00    -0.057 A 
ENDROOT
BRANCH   1   7
ATOM      7  N   UNL d   1       5.985   4.763  -2.123  0.00  0.00    -0.732 N 
ATOM      8  C   UNL d   1       6.000   5.871  -1.192  0.00  0.00     0.284 C 
ATOM      9  H3  UNL d   1       5.724   3.872  -1.705  0.00  0.00     0.395 HD
ENDBRANCH   1   7
TORSDOF 1
ENDMDL
