MODEL 1
REMARK minimizedAffinity 1.44647741
REMARK minimizedRMSD -1
REMARK  1 active torsions:
REMARK  status: ('A' for Active; 'I' for Inactive)
REMARK    1  A    between atoms: N_2  and  C1_3 
ROOT
ATOM      1  C1  UNL d   1      -1.793  -3.073  -1.515  0.00  0.00     0.143 A 
ATOM      2  C2  UNL d   1      -0.960  -2.099  -2.075  0.00  0.00    -0.057 A 
ATOM      3  C3  UNL d   1      -0.554  -2.173  -3.413  0.00  0.00     0.033 A 
ATOM      4  C4  UNL d   1      -0.951  -3.243  -4.208  0.00  0.00    -0.042 A 
ATOM      5  C5  UNL d   1      -1.758  -4.236  -3.666  0.00  0.00     0.033 A 
ATOM      6  C6  UNL d   1      -2.167  -4.152  -2.331  0.00  0.00    -0.057 A 
ENDROOT
BRANCH   1   7
ATOM      7  N   UNL d   1      -2.152  -3.107  -0.165  0.00  0.00    -0.732 N 
ATOM      8  C   UNL d   1      -1.210  -3.559   0.836  0.00  0.00     0.284 C 
ATOM      9  H3  UNL d   1      -2.695  -2.293   0.113  0.00  0.00     0.395 HD
ENDBRANCH   1   7
TORSDOF 1
ENDMDL
