MODEL 1
REMARK minimizedAffinity 3.73907089
REMARK minimizedRMSD -1
REMARK  0 active torsions:
REMARK  status: ('A' for Active; 'I' for Inactive)
ROOT
ATOM      1  C   UNL d   1       1.108  -2.598   4.537  0.00  0.00     0.172 C 
ATOM      2  N   UNL d   1       0.831  -1.436   3.725  0.00  0.00    -0.070 N 
ATOM      3  C1  UNL d   1       0.712  -1.426   2.361  0.00  0.00    -0.004 A 
ATOM      4  C2  UNL d   1       0.447  -0.131   1.971  0.00  0.00    -0.047 A 
ATOM      5  C3  UNL d   1       0.406   0.664   3.140  0.00  0.00    -0.047 A 
ATOM      6  C4  UNL d   1       0.647  -0.169   4.212  0.00  0.00    -0.004 A 
ENDROOT
TORSDOF 0
ENDMDL
