MODEL 1
REMARK minimizedAffinity 5.76847267
REMARK minimizedRMSD -1
REMARK  0 active torsions:
REMARK  status: ('A' for Active; 'I' for Inactive)
ROOT
ATOM      1  C   UNL d   1      -1.487  -1.908  -3.089  0.00  0.00     0.172 C 
ATOM      2  N   UNL d   1      -1.093  -2.635  -4.273  0.00  0.00    -0.070 N 
ATOM      3  C1  UNL d   1       0.106  -2.511  -4.923  0.00  0.00    -0.004 A 
ATOM      4  C2  UNL d   1       0.093  -3.371  -6.000  0.00  0.00    -0.047 A 
ATOM      5  C3  UNL d   1      -1.157  -4.034  -5.997  0.00  0.00    -0.047 A 
ATOM      6  C4  UNL d   1      -1.871  -3.560  -4.917  0.00  0.00    -0.004 A 
ENDROOT
TORSDOF 0
ENDMDL
