MODEL 1
REMARK minimizedAffinity 6.65302801
REMARK minimizedRMSD -1
REMARK  0 active torsions:
REMARK  status: ('A' for Active; 'I' for Inactive)
ROOT
ATOM      1  C   UNL d   1       3.836   0.446   3.646  0.00  0.00     0.172 C 
ATOM      2  N   UNL d   1       2.513   0.116   3.170  0.00  0.00    -0.070 N 
ATOM      3  C1  UNL d   1       2.178  -1.004   2.457  0.00  0.00    -0.004 A 
ATOM      4  C2  UNL d   1       0.826  -0.948   2.195  0.00  0.00    -0.047 A 
ATOM      5  C3  UNL d   1       0.332   0.247   2.770  0.00  0.00    -0.047 A 
ATOM      6  C4  UNL d   1       1.398   0.887   3.367  0.00  0.00    -0.004 A 
ENDROOT
TORSDOF 0
ENDMDL
