MODEL 1
REMARK minimizedAffinity 7.52334118
REMARK minimizedRMSD -1
REMARK  0 active torsions:
REMARK  status: ('A' for Active; 'I' for Inactive)
ROOT
ATOM      1  C   UNL d   1      -2.366  -0.014   2.816  0.00  0.00     0.172 C 
ATOM      2  N   UNL d   1      -0.952  -0.307   2.829  0.00  0.00    -0.070 N 
ATOM      3  C1  UNL d   1       0.035   0.499   2.326  0.00  0.00    -0.004 A 
ATOM      4  C2  UNL d   1       1.242  -0.133   2.533  0.00  0.00    -0.047 A 
ATOM      5  C3  UNL d   1       0.971  -1.362   3.181  0.00  0.00    -0.047 A 
ATOM      6  C4  UNL d   1      -0.395  -1.444   3.352  0.00  0.00    -0.004 A 
ENDROOT
TORSDOF 0
ENDMDL
