MODEL 1
REMARK minimizedAffinity 4.84672976
REMARK minimizedRMSD -1
REMARK  0 active torsions:
REMARK  status: ('A' for Active; 'I' for Inactive)
ROOT
ATOM      1  C   UNL d   1       1.413  -2.768   5.127  0.00  0.00     0.172 C 
ATOM      2  N   UNL d   1       1.176  -1.708   4.175  0.00  0.00    -0.070 N 
ATOM      3  C1  UNL d   1       0.348  -1.781   3.087  0.00  0.00    -0.004 A 
ATOM      4  C2  UNL d   1       0.398  -0.567   2.436  0.00  0.00    -0.047 A 
ATOM      5  C3  UNL d   1       1.286   0.264   3.158  0.00  0.00    -0.047 A 
ATOM      6  C4  UNL d   1       1.754  -0.467   4.230  0.00  0.00    -0.004 A 
ENDROOT
TORSDOF 0
ENDMDL
