MODEL 1
REMARK minimizedAffinity 4.79656172
REMARK minimizedRMSD -1
REMARK  0 active torsions:
REMARK  status: ('A' for Active; 'I' for Inactive)
ROOT
ATOM      1  C   UNL d   1      -2.130  -0.375   1.774  0.00  0.00     0.172 C 
ATOM      2  N   UNL d   1      -0.762  -0.463   2.228  0.00  0.00    -0.070 N 
ATOM      3  C1  UNL d   1      -0.024  -1.613   2.323  0.00  0.00    -0.004 A 
ATOM      4  C2  UNL d   1       1.226  -1.274   2.795  0.00  0.00    -0.047 A 
ATOM      5  C3  UNL d   1       1.239   0.127   2.991  0.00  0.00    -0.047 A 
ATOM      6  C4  UNL d   1      -0.004   0.604   2.633  0.00  0.00    -0.004 A 
ENDROOT
TORSDOF 0
ENDMDL
