MODEL 1
REMARK minimizedAffinity 10.2218189
REMARK minimizedRMSD -1
REMARK  0 active torsions:
REMARK  status: ('A' for Active; 'I' for Inactive)
ROOT
ATOM      1  C   UNL d   1      -2.487  -1.407   2.361  0.00  0.00     0.172 C 
ATOM      2  N   UNL d   1      -1.122  -1.009   2.612  0.00  0.00    -0.070 N 
ATOM      3  C1  UNL d   1      -0.647   0.275   2.581  0.00  0.00    -0.004 A 
ATOM      4  C2  UNL d   1       0.699   0.234   2.874  0.00  0.00    -0.047 A 
ATOM      5  C3  UNL d   1       1.045  -1.122   3.086  0.00  0.00    -0.047 A 
ATOM      6  C4  UNL d   1      -0.101  -1.869   2.918  0.00  0.00    -0.004 A 
ENDROOT
TORSDOF 0
ENDMDL
