MODEL 1
REMARK minimizedAffinity -4.30102491
REMARK minimizedRMSD -1
REMARK  1 active torsions:
REMARK  status: ('A' for Active; 'I' for Inactive)
REMARK    1  A    between atoms: C1_2  and  C2_3 
ROOT
ATOM      1  C2  UNL d   1       0.828  -0.982   2.587  0.00  0.00    -0.081 A 
ATOM      2  C3  UNL d   1       1.082   0.004   1.625  0.00  0.00     0.006 A 
ATOM      3  C4  UNL d   1       0.044   0.509   0.838  0.00  0.00     0.002 A 
ATOM      4  C5  UNL d   1      -1.264   0.044   1.004  0.00  0.00    -0.080 A 
ATOM      5  C6  UNL d   1      -2.392   0.600   0.187  0.00  0.00     0.076 C 
ATOM      6  C7  UNL d   1      -1.515  -0.954   1.953  0.00  0.00     0.002 A 
ATOM      7  C8  UNL d   1      -0.478  -1.460   2.740  0.00  0.00     0.006 A 
ENDROOT
BRANCH   1   8
ATOM      8  C1  UNL d   1       1.933  -1.482   3.482  0.00  0.00     0.054 C 
ATOM      9  C   UNL d   1       1.688  -1.093   4.933  0.00  0.00     0.018 C 
ENDBRANCH   1   8
TORSDOF 1
ENDMDL
