MODEL 1
REMARK minimizedAffinity 3.71709061
REMARK minimizedRMSD -1
REMARK  1 active torsions:
REMARK  status: ('A' for Active; 'I' for Inactive)
REMARK    1  A    between atoms: C1_2  and  C2_3 
ROOT
ATOM      1  C2  UNL d   1       0.812  -1.070  -4.480  0.00  0.00    -0.081 A 
ATOM      2  C3  UNL d   1       1.193  -0.388  -5.642  0.00  0.00     0.006 A 
ATOM      3  C4  UNL d   1       2.540  -0.295  -5.999  0.00  0.00     0.002 A 
ATOM      4  C5  UNL d   1       3.527  -0.890  -5.206  0.00  0.00    -0.080 A 
ATOM      5  C6  UNL d   1       4.974  -0.824  -5.594  0.00  0.00     0.076 C 
ATOM      6  C7  UNL d   1       3.148  -1.557  -4.036  0.00  0.00     0.002 A 
ATOM      7  C8  UNL d   1       1.801  -1.649  -3.678  0.00  0.00     0.006 A 
ENDROOT
BRANCH   1   8
ATOM      8  C1  UNL d   1      -0.645  -1.227  -4.127  0.00  0.00     0.054 C 
ATOM      9  C   UNL d   1      -1.544  -0.670  -5.222  0.00  0.00     0.018 C 
ENDBRANCH   1   8
TORSDOF 1
ENDMDL
