MODEL 1
REMARK minimizedAffinity 6.11197996
REMARK minimizedRMSD -1
REMARK  1 active torsions:
REMARK  status: ('A' for Active; 'I' for Inactive)
REMARK    1  A    between atoms: C1_2  and  C2_3 
ROOT
ATOM      1  C2  UNL d   1      -0.124  -1.808   3.231  0.00  0.00    -0.081 A 
ATOM      2  C3  UNL d   1       0.779  -1.784   2.161  0.00  0.00     0.006 A 
ATOM      3  C4  UNL d   1       2.143  -1.583   2.390  0.00  0.00     0.002 A 
ATOM      4  C5  UNL d   1       2.627  -1.411   3.691  0.00  0.00    -0.080 A 
ATOM      5  C6  UNL d   1       4.092  -1.225   3.953  0.00  0.00     0.076 C 
ATOM      6  C7  UNL d   1       1.722  -1.417   4.758  0.00  0.00     0.002 A 
ATOM      7  C8  UNL d   1       0.359  -1.617   4.530  0.00  0.00     0.006 A 
ENDROOT
BRANCH   1   8
ATOM      8  C1  UNL d   1      -1.586  -2.088   2.994  0.00  0.00     0.054 C 
ATOM      9  C   UNL d   1      -2.335  -0.824   2.599  0.00  0.00     0.018 C 
ENDBRANCH   1   8
TORSDOF 1
ENDMDL
