MODEL 1
REMARK minimizedAffinity 9.62806511
REMARK minimizedRMSD -1
REMARK  1 active torsions:
REMARK  status: ('A' for Active; 'I' for Inactive)
REMARK    1  A    between atoms: C1_2  and  C2_3 
ROOT
ATOM      1  C2  UNL d   1      -0.279  -2.133   2.924  0.00  0.00    -0.081 A 
ATOM      2  C3  UNL d   1       0.704  -1.392   2.256  0.00  0.00     0.006 A 
ATOM      3  C4  UNL d   1       1.866  -0.995   2.922  0.00  0.00     0.002 A 
ATOM      4  C5  UNL d   1       2.069  -1.339   4.263  0.00  0.00    -0.080 A 
ATOM      5  C6  UNL d   1       3.326  -0.945   4.980  0.00  0.00     0.076 C 
ATOM      6  C7  UNL d   1       1.079  -2.064   4.935  0.00  0.00     0.002 A 
ATOM      7  C8  UNL d   1      -0.084  -2.460   4.271  0.00  0.00     0.006 A 
ENDROOT
BRANCH   1   8
ATOM      8  C1  UNL d   1      -1.504  -2.618   2.192  0.00  0.00     0.054 C 
ATOM      9  C   UNL d   1      -2.608  -1.571   2.207  0.00  0.00     0.018 C 
ENDBRANCH   1   8
TORSDOF 1
ENDMDL
