MODEL 1
REMARK minimizedAffinity 5.942873
REMARK minimizedRMSD -1
REMARK  1 active torsions:
REMARK  status: ('A' for Active; 'I' for Inactive)
REMARK    1  A    between atoms: C1_2  and  C2_3 
ROOT
ATOM      1  C2  UNL d   1       2.054  -1.135  -4.859  0.00  0.00    -0.081 A 
ATOM      2  C3  UNL d   1       1.381  -0.384  -5.831  0.00  0.00     0.006 A 
ATOM      3  C4  UNL d   1      -0.009  -0.463  -5.949  0.00  0.00     0.002 A 
ATOM      4  C5  UNL d   1      -0.749  -1.286  -5.093  0.00  0.00    -0.080 A 
ATOM      5  C6  UNL d   1      -2.244  -1.356  -5.190  0.00  0.00     0.076 C 
ATOM      6  C7  UNL d   1      -0.074  -2.049  -4.134  0.00  0.00     0.002 A 
ATOM      7  C8  UNL d   1       1.315  -1.971  -4.016  0.00  0.00     0.006 A 
ENDROOT
BRANCH   1   8
ATOM      8  C1  UNL d   1       3.546  -1.003  -4.687  0.00  0.00     0.054 C 
ATOM      9  C   UNL d   1       4.225  -0.640  -6.000  0.00  0.00     0.018 C 
ENDBRANCH   1   8
TORSDOF 1
ENDMDL
