MODEL 1
REMARK minimizedAffinity 3.18502402
REMARK minimizedRMSD -1
REMARK  1 active torsions:
REMARK  status: ('A' for Active; 'I' for Inactive)
REMARK    1  A    between atoms: C1_2  and  C2_3 
ROOT
ATOM      1  C2  UNL d   1       1.313   0.207   2.494  0.00  0.00    -0.081 A 
ATOM      2  C3  UNL d   1       1.470  -1.162   2.743  0.00  0.00     0.006 A 
ATOM      3  C4  UNL d   1       0.357  -2.003   2.807  0.00  0.00     0.002 A 
ATOM      4  C5  UNL d   1      -0.931  -1.491   2.617  0.00  0.00    -0.080 A 
ATOM      5  C6  UNL d   1      -2.133  -2.388   2.653  0.00  0.00     0.076 C 
ATOM      6  C7  UNL d   1      -1.090  -0.120   2.386  0.00  0.00     0.002 A 
ATOM      7  C8  UNL d   1       0.023   0.721   2.322  0.00  0.00     0.006 A 
ENDROOT
BRANCH   1   8
ATOM      8  C1  UNL d   1       2.516   1.105   2.360  0.00  0.00     0.054 C 
ATOM      9  C   UNL d   1       2.414   1.985   1.122  0.00  0.00     0.018 C 
ENDBRANCH   1   8
TORSDOF 1
ENDMDL
