MODEL 1
REMARK minimizedAffinity 3.24929714
REMARK minimizedRMSD -1
REMARK  1 active torsions:
REMARK  status: ('A' for Active; 'I' for Inactive)
REMARK    1  A    between atoms: C1_2  and  C2_3 
ROOT
ATOM      1  C2  UNL d   1       0.195  -0.943  -4.884  0.00  0.00    -0.081 A 
ATOM      2  C3  UNL d   1       0.851  -0.389  -5.991  0.00  0.00     0.006 A 
ATOM      3  C4  UNL d   1       2.242  -0.262  -6.000  0.00  0.00     0.002 A 
ATOM      4  C5  UNL d   1       3.001  -0.694  -4.907  0.00  0.00    -0.080 A 
ATOM      5  C6  UNL d   1       4.497  -0.591  -4.917  0.00  0.00     0.076 C 
ATOM      6  C7  UNL d   1       2.345  -1.231  -3.794  0.00  0.00     0.002 A 
ATOM      7  C8  UNL d   1       0.954  -1.357  -3.784  0.00  0.00     0.006 A 
ENDROOT
BRANCH   1   8
ATOM      8  C1  UNL d   1      -1.299  -1.140  -4.898  0.00  0.00     0.054 C 
ATOM      9  C   UNL d   1      -2.011  -0.025  -4.147  0.00  0.00     0.018 C 
ENDBRANCH   1   8
TORSDOF 1
ENDMDL
