MODEL 1
REMARK minimizedAffinity 3.07128143
REMARK minimizedRMSD -1
REMARK  1 active torsions:
REMARK  status: ('A' for Active; 'I' for Inactive)
REMARK    1  A    between atoms: C1_2  and  C2_3 
ROOT
ATOM      1  C2  UNL d   1       3.851  -0.372  -4.756  0.00  0.00    -0.081 A 
ATOM      2  C3  UNL d   1       3.098  -1.013  -3.765  0.00  0.00     0.006 A 
ATOM      3  C4  UNL d   1       1.711  -1.130  -3.893  0.00  0.00     0.002 A 
ATOM      4  C5  UNL d   1       1.056  -0.614  -5.016  0.00  0.00    -0.080 A 
ATOM      5  C6  UNL d   1      -0.427  -0.758  -5.180  0.00  0.00     0.076 C 
ATOM      6  C7  UNL d   1       1.806   0.043  -5.998  0.00  0.00     0.002 A 
ATOM      7  C8  UNL d   1       3.192   0.160  -5.870  0.00  0.00     0.006 A 
ENDROOT
BRANCH   1   8
ATOM      8  C1  UNL d   1       5.353  -0.302  -4.653  0.00  0.00     0.054 C 
ATOM      9  C   UNL d   1       5.985   0.026  -5.997  0.00  0.00     0.018 C 
ENDBRANCH   1   8
TORSDOF 1
ENDMDL
