MODEL 1
REMARK minimizedAffinity 4.69630671
REMARK minimizedRMSD -1
REMARK  1 active torsions:
REMARK  status: ('A' for Active; 'I' for Inactive)
REMARK    1  A    between atoms: C1_2  and  C2_3 
ROOT
ATOM      1  C2  UNL d   1       1.262  -1.367   3.743  0.00  0.00    -0.081 A 
ATOM      2  C3  UNL d   1       0.789  -0.182   3.166  0.00  0.00     0.006 A 
ATOM      3  C4  UNL d   1      -0.476  -0.136   2.576  0.00  0.00     0.002 A 
ATOM      4  C5  UNL d   1      -1.293  -1.272   2.560  0.00  0.00    -0.080 A 
ATOM      5  C6  UNL d   1      -2.666  -1.229   1.957  0.00  0.00     0.076 C 
ATOM      6  C7  UNL d   1      -0.814  -2.461   3.121  0.00  0.00     0.002 A 
ATOM      7  C8  UNL d   1       0.451  -2.507   3.710  0.00  0.00     0.006 A 
ENDROOT
BRANCH   1   8
ATOM      8  C1  UNL d   1       2.599  -1.401   4.436  0.00  0.00     0.054 C 
ATOM      9  C   UNL d   1       2.478  -0.980   5.894  0.00  0.00     0.018 C 
ENDBRANCH   1   8
TORSDOF 1
ENDMDL
