MODEL 1
REMARK minimizedAffinity 8.97305584
REMARK minimizedRMSD -1
REMARK  0 active torsions:
REMARK  status: ('A' for Active; 'I' for Inactive)
ROOT
ATOM      1  C1  DEN d   1      -0.206   1.131  -0.827  0.00  0.00     0.130 A 
ATOM      2  C2  DEN d   1       0.082   0.364  -2.036  0.00  0.00    -0.031 A 
ATOM      3  C3  DEN d   1       1.445  -0.191  -1.910  0.00  0.00     0.027 A 
ATOM      4  C4  DEN d   1       3.124   0.056   0.032  0.00  0.00     0.027 A 
ATOM      5  C5  DEN d   1       3.334   0.624   1.269  0.00  0.00    -0.003 A 
ATOM      6  C6  DEN d   1       2.400   1.421   1.875  0.00  0.00     0.001 A 
ATOM      7  C7  DEN d   1       1.193   1.637   1.263  0.00  0.00     0.017 A 
ATOM      8  C8  DEN d   1       0.977   1.074   0.012  0.00  0.00    -0.094 A 
ATOM      9  C9  DEN d   1       1.929   0.261  -0.578  0.00  0.00    -0.072 A 
ENDROOT
TORSDOF 0
ENDMDL
