MODEL 1
REMARK minimizedAffinity 2.69171858
REMARK minimizedRMSD -1
REMARK  0 active torsions:
REMARK  status: ('A' for Active; 'I' for Inactive)
ROOT
ATOM      1  C1  DEN d   1       0.532  -1.909   0.237  0.00  0.00     0.130 A 
ATOM      2  C2  DEN d   1       0.022  -2.518  -0.988  0.00  0.00    -0.031 A 
ATOM      3  C3  DEN d   1       0.084  -1.505  -2.061  0.00  0.00     0.027 A 
ATOM      4  C4  DEN d   1       0.920   0.932  -1.945  0.00  0.00     0.027 A 
ATOM      5  C5  DEN d   1       1.436   1.904  -1.116  0.00  0.00    -0.003 A 
ATOM      6  C6  DEN d   1       1.654   1.685   0.218  0.00  0.00     0.001 A 
ATOM      7  C7  DEN d   1       1.396   0.451   0.755  0.00  0.00     0.017 A 
ATOM      8  C8  DEN d   1       0.868  -0.531  -0.073  0.00  0.00    -0.094 A 
ATOM      9  C9  DEN d   1       0.667  -0.294  -1.422  0.00  0.00    -0.072 A 
ENDROOT
TORSDOF 0
ENDMDL
