MODEL 1
REMARK minimizedAffinity 11.1052275
REMARK minimizedRMSD -1
REMARK  0 active torsions:
REMARK  status: ('A' for Active; 'I' for Inactive)
ROOT
ATOM      1  C1  DEN d   1       1.394   3.176  -2.108  0.00  0.00     0.130 A 
ATOM      2  C2  DEN d   1       1.723   4.184  -1.103  0.00  0.00    -0.031 A 
ATOM      3  C3  DEN d   1       1.798   3.513   0.210  0.00  0.00     0.027 A 
ATOM      4  C4  DEN d   1       1.444   1.023   0.782  0.00  0.00     0.027 A 
ATOM      5  C5  DEN d   1       1.135  -0.215   0.263  0.00  0.00    -0.003 A 
ATOM      6  C6  DEN d   1       0.859  -0.402  -1.066  0.00  0.00     0.001 A 
ATOM      7  C7  DEN d   1       0.932   0.659  -1.930  0.00  0.00     0.017 A 
ATOM      8  C8  DEN d   1       1.236   1.911  -1.413  0.00  0.00    -0.094 A 
ATOM      9  C9  DEN d   1       1.523   2.077  -0.069  0.00  0.00    -0.072 A 
ENDROOT
TORSDOF 0
ENDMDL
