MODEL 1
REMARK minimizedAffinity 4.95215654
REMARK minimizedRMSD -1
REMARK  0 active torsions:
REMARK  status: ('A' for Active; 'I' for Inactive)
ROOT
ATOM      1  C1  DEN d   1       0.371  -0.698  -0.697  0.00  0.00     0.130 A 
ATOM      2  C2  DEN d   1       0.671  -0.981  -2.098  0.00  0.00    -0.031 A 
ATOM      3  C3  DEN d   1       1.394   0.180  -2.654  0.00  0.00     0.027 A 
ATOM      4  C4  DEN d   1       2.080   2.375  -1.486  0.00  0.00     0.027 A 
ATOM      5  C5  DEN d   1       2.035   3.078  -0.302  0.00  0.00    -0.003 A 
ATOM      6  C6  DEN d   1       1.407   2.591   0.813  0.00  0.00     0.001 A 
ATOM      7  C7  DEN d   1       0.838   1.345   0.783  0.00  0.00     0.017 A 
ATOM      8  C8  DEN d   1       0.874   0.633  -0.409  0.00  0.00    -0.094 A 
ATOM      9  C9  DEN d   1       1.523   1.138  -1.523  0.00  0.00    -0.072 A 
ENDROOT
TORSDOF 0
ENDMDL
