MODEL 1
REMARK minimizedAffinity -0.371251822
REMARK minimizedRMSD -1
REMARK  0 active torsions:
REMARK  status: ('A' for Active; 'I' for Inactive)
ROOT
ATOM      1  C1  DEN d   1       0.336   0.416  -1.337  0.00  0.00     0.130 A 
ATOM      2  C2  DEN d   1       1.499   1.263  -1.588  0.00  0.00    -0.031 A 
ATOM      3  C3  DEN d   1       2.712   0.472  -1.296  0.00  0.00     0.027 A 
ATOM      4  C4  DEN d   1       2.901  -1.970  -0.489  0.00  0.00     0.027 A 
ATOM      5  C5  DEN d   1       2.188  -3.090  -0.124  0.00  0.00    -0.003 A 
ATOM      6  C6  DEN d   1       0.818  -3.110  -0.106  0.00  0.00     0.001 A 
ATOM      7  C7  DEN d   1       0.118  -2.001  -0.502  0.00  0.00     0.017 A 
ATOM      8  C8  DEN d   1       0.831  -0.865  -0.864  0.00  0.00    -0.094 A 
ATOM      9  C9  DEN d   1       2.215  -0.869  -0.888  0.00  0.00    -0.072 A 
ENDROOT
TORSDOF 0
ENDMDL
