MODEL 1
REMARK minimizedAffinity 9.163908
REMARK minimizedRMSD -1
REMARK  0 active torsions:
REMARK  status: ('A' for Active; 'I' for Inactive)
ROOT
ATOM      1  C1  DEN d   1      -3.795   0.616   2.761  0.00  0.00     0.130 A 
ATOM      2  C2  DEN d   1      -3.223   0.867   4.081  0.00  0.00    -0.031 A 
ATOM      3  C3  DEN d   1      -2.568   2.190   4.051  0.00  0.00     0.027 A 
ATOM      4  C4  DEN d   1      -2.390   3.868   2.100  0.00  0.00     0.027 A 
ATOM      5  C5  DEN d   1      -2.710   4.092   0.780  0.00  0.00    -0.003 A 
ATOM      6  C6  DEN d   1      -3.380   3.167   0.023  0.00  0.00     0.001 A 
ATOM      7  C7  DEN d   1      -3.791   1.992   0.595  0.00  0.00     0.017 A 
ATOM      8  C8  DEN d   1      -3.465   1.756   1.924  0.00  0.00    -0.094 A 
ATOM      9  C9  DEN d   1      -2.798   2.708   2.675  0.00  0.00    -0.072 A 
ENDROOT
TORSDOF 0
ENDMDL
