MODEL 1
REMARK minimizedAffinity 6.53627157
REMARK minimizedRMSD -1
REMARK  0 active torsions:
REMARK  status: ('A' for Active; 'I' for Inactive)
ROOT
ATOM      1  C1  DEN d   1       1.274   2.480   0.919  0.00  0.00     0.130 A 
ATOM      2  C2  DEN d   1       1.767   1.843   2.137  0.00  0.00    -0.031 A 
ATOM      3  C3  DEN d   1       1.870   0.392   1.884  0.00  0.00     0.027 A 
ATOM      4  C4  DEN d   1       1.321  -0.923  -0.266  0.00  0.00     0.027 A 
ATOM      5  C5  DEN d   1       0.860  -0.817  -1.560  0.00  0.00    -0.003 A 
ATOM      6  C6  DEN d   1       0.475   0.380  -2.102  0.00  0.00     0.001 A 
ATOM      7  C7  DEN d   1       0.588   1.528  -1.363  0.00  0.00     0.017 A 
ATOM      8  C8  DEN d   1       1.045   1.428  -0.055  0.00  0.00    -0.094 A 
ATOM      9  C9  DEN d   1       1.441   0.210   0.471  0.00  0.00    -0.072 A 
ENDROOT
TORSDOF 0
ENDMDL
