MODEL 1
REMARK minimizedAffinity 7.08525705
REMARK minimizedRMSD -1
REMARK  0 active torsions:
REMARK  status: ('A' for Active; 'I' for Inactive)
ROOT
ATOM      1  C1  DEN d   1       1.031  -0.006   1.578  0.00  0.00     0.130 A 
ATOM      2  C2  DEN d   1       1.369   1.257   2.230  0.00  0.00    -0.031 A 
ATOM      3  C3  DEN d   1       1.567   2.275   1.179  0.00  0.00     0.027 A 
ATOM      4  C4  DEN d   1       1.379   2.022  -1.381  0.00  0.00     0.027 A 
ATOM      5  C5  DEN d   1       1.126   1.137  -2.406  0.00  0.00    -0.003 A 
ATOM      6  C6  DEN d   1       0.860  -0.187  -2.178  0.00  0.00     0.001 A 
ATOM      7  C7  DEN d   1       0.795  -0.656  -0.893  0.00  0.00     0.017 A 
ATOM      8  C8  DEN d   1       1.056   0.229   0.146  0.00  0.00    -0.094 A 
ATOM      9  C9  DEN d   1       1.311   1.566  -0.104  0.00  0.00    -0.072 A 
ENDROOT
TORSDOF 0
ENDMDL
