MODEL 1
REMARK minimizedAffinity 5.69794846
REMARK minimizedRMSD -1
REMARK  0 active torsions:
REMARK  status: ('A' for Active; 'I' for Inactive)
ROOT
ATOM      1  C1  DEN d   1       1.889   0.248   1.596  0.00  0.00     0.130 A 
ATOM      2  C2  DEN d   1       1.784   1.613   2.104  0.00  0.00    -0.031 A 
ATOM      3  C3  DEN d   1       1.311   2.475   1.002  0.00  0.00     0.027 A 
ATOM      4  C4  DEN d   1       0.728   1.830  -1.427  0.00  0.00     0.027 A 
ATOM      5  C5  DEN d   1       0.671   0.792  -2.330  0.00  0.00    -0.003 A 
ATOM      6  C6  DEN d   1       1.046  -0.484  -2.000  0.00  0.00     0.001 A 
ATOM      7  C7  DEN d   1       1.451  -0.763  -0.721  0.00  0.00     0.017 A 
ATOM      8  C8  DEN d   1       1.518   0.280   0.193  0.00  0.00    -0.094 A 
ATOM      9  C9  DEN d   1       1.124   1.561  -0.157  0.00  0.00    -0.072 A 
ENDROOT
TORSDOF 0
ENDMDL
