MODEL 1
REMARK minimizedAffinity 1.71465778
REMARK minimizedRMSD -1
REMARK  0 active torsions:
REMARK  status: ('A' for Active; 'I' for Inactive)
ROOT
ATOM      1  C1  DEN d   1       0.087  -0.447  -0.536  0.00  0.00     0.130 A 
ATOM      2  C2  DEN d   1       0.906  -1.418  -1.255  0.00  0.00    -0.031 A 
ATOM      3  C3  DEN d   1       2.323  -1.143  -0.943  0.00  0.00     0.027 A 
ATOM      4  C4  DEN d   1       3.322   0.682   0.582  0.00  0.00     0.027 A 
ATOM      5  C5  DEN d   1       3.024   1.750   1.399  0.00  0.00    -0.003 A 
ATOM      6  C6  DEN d   1       1.738   2.178   1.600  0.00  0.00     0.001 A 
ATOM      7  C7  DEN d   1       0.699   1.507   1.011  0.00  0.00     0.017 A 
ATOM      8  C8  DEN d   1       0.993   0.434   0.180  0.00  0.00    -0.094 A 
ATOM      9  C9  DEN d   1       2.298   0.008  -0.000  0.00  0.00    -0.072 A 
ENDROOT
TORSDOF 0
ENDMDL
