MODEL 1
REMARK minimizedAffinity -1.91537893
REMARK minimizedRMSD -1
REMARK  0 active torsions:
REMARK  status: ('A' for Active; 'I' for Inactive)
ROOT
ATOM      1  C1  DEN d   1       0.304   1.349  -0.216  0.00  0.00     0.130 A 
ATOM      2  C2  DEN d   1       0.354   0.517  -1.416  0.00  0.00    -0.031 A 
ATOM      3  C3  DEN d   1       1.721  -0.030  -1.534  0.00  0.00     0.027 A 
ATOM      4  C4  DEN d   1       3.751   0.325   0.016  0.00  0.00     0.027 A 
ATOM      5  C5  DEN d   1       4.197   0.960   1.155  0.00  0.00    -0.003 A 
ATOM      6  C6  DEN d   1       3.393   1.789   1.891  0.00  0.00     0.001 A 
ATOM      7  C7  DEN d   1       2.086   1.970   1.522  0.00  0.00     0.017 A 
ATOM      8  C8  DEN d   1       1.631   1.339   0.371  0.00  0.00    -0.094 A 
ATOM      9  C9  DEN d   1       2.456   0.495  -0.352  0.00  0.00    -0.072 A 
ENDROOT
TORSDOF 0
ENDMDL
