MODEL 1
REMARK minimizedAffinity 4.35369349
REMARK minimizedRMSD -1
REMARK  0 active torsions:
REMARK  status: ('A' for Active; 'I' for Inactive)
ROOT
ATOM      1  C1  DEN d   1       2.332   1.001   1.841  0.00  0.00     0.130 A 
ATOM      2  C2  DEN d   1       1.803   2.345   2.056  0.00  0.00    -0.031 A 
ATOM      3  C3  DEN d   1       0.806   2.617   1.002  0.00  0.00     0.027 A 
ATOM      4  C4  DEN d   1       0.030   1.094  -0.930  0.00  0.00     0.027 A 
ATOM      5  C5  DEN d   1       0.202  -0.134  -1.530  0.00  0.00    -0.003 A 
ATOM      6  C6  DEN d   1       1.113  -1.049  -1.073  0.00  0.00     0.001 A 
ATOM      7  C7  DEN d   1       1.855  -0.768   0.044  0.00  0.00     0.017 A 
ATOM      8  C8  DEN d   1       1.693   0.471   0.650  0.00  0.00    -0.094 A 
ATOM      9  C9  DEN d   1       0.758   1.378   0.179  0.00  0.00    -0.072 A 
ENDROOT
TORSDOF 0
ENDMDL
