MODEL 1
REMARK minimizedAffinity 6.92270136
REMARK minimizedRMSD -1
REMARK  0 active torsions:
REMARK  status: ('A' for Active; 'I' for Inactive)
ROOT
ATOM      1  C1  DEN d   1       0.871   2.315  -2.064  0.00  0.00     0.130 A 
ATOM      2  C2  DEN d   1       0.947   1.332  -3.141  0.00  0.00    -0.031 A 
ATOM      3  C3  DEN d   1       1.109  -0.002  -2.530  0.00  0.00     0.027 A 
ATOM      4  C4  DEN d   1       1.243  -0.639  -0.035  0.00  0.00     0.027 A 
ATOM      5  C5  DEN d   1       1.237  -0.146   1.251  0.00  0.00    -0.003 A 
ATOM      6  C6  DEN d   1       1.143   1.194   1.519  0.00  0.00     0.001 A 
ATOM      7  C7  DEN d   1       1.006   2.084   0.488  0.00  0.00     0.017 A 
ATOM      8  C8  DEN d   1       1.019   1.596  -0.812  0.00  0.00    -0.094 A 
ATOM      9  C9  DEN d   1       1.102   0.236  -1.062  0.00  0.00    -0.072 A 
ENDROOT
TORSDOF 0
ENDMDL
