MODEL 1
REMARK minimizedAffinity 3.25866532
REMARK minimizedRMSD -1
REMARK  0 active torsions:
REMARK  status: ('A' for Active; 'I' for Inactive)
ROOT
ATOM      1  C1  DEN d   1       1.263  -2.329   0.333  0.00  0.00     0.130 A 
ATOM      2  C2  DEN d   1       0.502  -2.771  -0.832  0.00  0.00    -0.031 A 
ATOM      3  C3  DEN d   1      -0.074  -1.577  -1.482  0.00  0.00     0.027 A 
ATOM      4  C4  DEN d   1       0.143   0.902  -0.804  0.00  0.00     0.027 A 
ATOM      5  C5  DEN d   1       0.679   1.770   0.121  0.00  0.00    -0.003 A 
ATOM      6  C6  DEN d   1       1.414   1.334   1.191  0.00  0.00     0.001 A 
ATOM      7  C7  DEN d   1       1.670  -0.004   1.339  0.00  0.00     0.017 A 
ATOM      8  C8  DEN d   1       1.126  -0.886   0.414  0.00  0.00    -0.094 A 
ATOM      9  C9  DEN d   1       0.396  -0.424  -0.668  0.00  0.00    -0.072 A 
ENDROOT
TORSDOF 0
ENDMDL
