MODEL 1
REMARK minimizedAffinity -1.60616231
REMARK minimizedRMSD -1
REMARK  0 active torsions:
REMARK  status: ('A' for Active; 'I' for Inactive)
ROOT
ATOM      1  C1  BNZ d   1       2.951   5.984   5.997  0.00  0.00     0.000 A 
ATOM      2  C2  BNZ d   1       2.270   5.407   4.959  0.00  0.00     0.000 A 
ATOM      3  C3  BNZ d   1       2.940   4.824   3.920  0.00  0.00     0.000 A 
ATOM      4  C4  BNZ d   1       4.289   4.854   3.901  0.00  0.00     0.000 A 
ATOM      5  C5  BNZ d   1       4.989   5.441   4.936  0.00  0.00     0.000 A 
ATOM      6  C6  BNZ d   1       4.311   5.992   5.999  0.00  0.00     0.000 A 
ENDROOT
TORSDOF 0
ENDMDL
