MODEL 1
REMARK minimizedAffinity 6.80705357
REMARK minimizedRMSD -1
REMARK  0 active torsions:
REMARK  status: ('A' for Active; 'I' for Inactive)
ROOT
ATOM      1  C1  BNZ d   1      -2.028   3.516  -4.424  0.00  0.00     0.000 A 
ATOM      2  C2  BNZ d   1      -2.690   3.179  -3.273  0.00  0.00     0.000 A 
ATOM      3  C3  BNZ d   1      -2.254   2.146  -2.492  0.00  0.00     0.000 A 
ATOM      4  C4  BNZ d   1      -1.183   1.426  -2.882  0.00  0.00     0.000 A 
ATOM      5  C5  BNZ d   1      -0.510   1.747  -4.045  0.00  0.00     0.000 A 
ATOM      6  C6  BNZ d   1      -0.929   2.812  -4.808  0.00  0.00     0.000 A 
ENDROOT
TORSDOF 0
ENDMDL
