MODEL 1
REMARK minimizedAffinity 1.48753583
REMARK minimizedRMSD -1
REMARK  0 active torsions:
REMARK  status: ('A' for Active; 'I' for Inactive)
ROOT
ATOM      1  C1  BNZ d   1       2.982   5.981   4.476  0.00  0.00     0.000 A 
ATOM      2  C2  BNZ d   1       3.873   5.999   3.436  0.00  0.00     0.000 A 
ATOM      3  C3  BNZ d   1       5.220   5.988   3.668  0.00  0.00     0.000 A 
ATOM      4  C4  BNZ d   1       5.674   5.999   4.937  0.00  0.00     0.000 A 
ATOM      5  C5  BNZ d   1       4.789   5.990   5.997  0.00  0.00     0.000 A 
ATOM      6  C6  BNZ d   1       3.434   5.962   5.760  0.00  0.00     0.000 A 
ENDROOT
TORSDOF 0
ENDMDL
