MODEL 1
REMARK minimizedAffinity -1.21824944
REMARK minimizedRMSD -1
REMARK  0 active torsions:
REMARK  status: ('A' for Active; 'I' for Inactive)
ROOT
ATOM      1  C1  BNZ d   1       3.768   5.755   5.993  0.00  0.00     0.000 A 
ATOM      2  C2  BNZ d   1       5.116   6.000   5.999  0.00  0.00     0.000 A 
ATOM      3  C3  BNZ d   1       5.872   5.781   4.882  0.00  0.00     0.000 A 
ATOM      4  C4  BNZ d   1       5.288   5.282   3.774  0.00  0.00     0.000 A 
ATOM      5  C5  BNZ d   1       3.932   5.021   3.754  0.00  0.00     0.000 A 
ATOM      6  C6  BNZ d   1       3.167   5.279   4.869  0.00  0.00     0.000 A 
ENDROOT
TORSDOF 0
ENDMDL
