MODEL 1
REMARK minimizedAffinity 6.7969799
REMARK minimizedRMSD -1
REMARK  0 active torsions:
REMARK  status: ('A' for Active; 'I' for Inactive)
ROOT
ATOM      1  C1  BNZ d   1      -5.220   2.546  -5.272  0.00  0.00     0.000 A 
ATOM      2  C2  BNZ d   1      -5.788   3.730  -5.659  0.00  0.00     0.000 A 
ATOM      3  C3  BNZ d   1      -5.157   4.919  -5.424  0.00  0.00     0.000 A 
ATOM      4  C4  BNZ d   1      -3.979   4.926  -4.768  0.00  0.00     0.000 A 
ATOM      5  C5  BNZ d   1      -3.397   3.741  -4.364  0.00  0.00     0.000 A 
ATOM      6  C6  BNZ d   1      -4.016   2.543  -4.636  0.00  0.00     0.000 A 
ENDROOT
TORSDOF 0
ENDMDL
