MODEL 1
REMARK minimizedAffinity 7.30983639
REMARK minimizedRMSD -1
REMARK  1 active torsions:
REMARK  status: ('A' for Active; 'I' for Inactive)
REMARK    1  A    between atoms: N_2  and  C1_3 
ROOT
ATOM      1  C1  UNL d   1       3.888  -4.612  -0.754  0.00  0.00     0.143 A 
ATOM      2  C2  UNL d   1       3.567  -3.251  -0.793  0.00  0.00    -0.057 A 
ATOM      3  C3  UNL d   1       2.235  -2.819  -0.798  0.00  0.00     0.033 A 
ATOM      4  C4  UNL d   1       1.197  -3.745  -0.793  0.00  0.00    -0.042 A 
ATOM      5  C5  UNL d   1       1.493  -5.104  -0.779  0.00  0.00     0.033 A 
ATOM      6  C6  UNL d   1       2.825  -5.529  -0.767  0.00  0.00    -0.057 A 
ENDROOT
BRANCH   1   7
ATOM      7  N   UNL d   1       5.191  -5.107  -0.846  0.00  0.00    -0.732 N 
ATOM      8  C   UNL d   1       5.715  -5.999   0.166  0.00  0.00     0.284 C 
ATOM      9  H3  UNL d   1       5.442  -5.366  -1.798  0.00  0.00     0.395 HD
ENDBRANCH   1   7
TORSDOF 1
ENDMDL
