MODEL 1
REMARK minimizedAffinity 9.62757206
REMARK minimizedRMSD -1
REMARK  1 active torsions:
REMARK  status: ('A' for Active; 'I' for Inactive)
REMARK    1  A    between atoms: N_2  and  C1_3 
ROOT
ATOM      1  C1  UNL d   1       1.754   2.387   0.891  0.00  0.00     0.143 A 
ATOM      2  C2  UNL d   1       0.691   2.065   0.040  0.00  0.00    -0.057 A 
ATOM      3  C3  UNL d   1       0.574   2.646  -1.228  0.00  0.00     0.033 A 
ATOM      4  C4  UNL d   1       1.507   3.584  -1.658  0.00  0.00    -0.042 A 
ATOM      5  C5  UNL d   1       2.558   3.938  -0.820  0.00  0.00     0.033 A 
ATOM      6  C6  UNL d   1       2.673   3.349   0.443  0.00  0.00    -0.057 A 
ENDROOT
BRANCH   1   7
ATOM      7  N   UNL d   1       1.871   1.918   2.202  0.00  0.00    -0.732 N 
ATOM      8  C   UNL d   1       3.022   2.262   3.008  0.00  0.00     0.284 C 
ATOM      9  H3  UNL d   1       0.987   1.947   2.705  0.00  0.00     0.395 HD
ENDBRANCH   1   7
TORSDOF 1
ENDMDL
