MODEL 1
REMARK minimizedAffinity 6.21348524
REMARK minimizedRMSD -1
REMARK  1 active torsions:
REMARK  status: ('A' for Active; 'I' for Inactive)
REMARK    1  A    between atoms: N_2  and  C1_3 
ROOT
ATOM      1  C1  UNL d   1      -5.423  -0.386   2.197  0.00  0.00     0.143 A 
ATOM      2  C2  UNL d   1      -4.512  -0.699   1.182  0.00  0.00    -0.057 A 
ATOM      3  C3  UNL d   1      -4.045   0.281   0.298  0.00  0.00     0.033 A 
ATOM      4  C4  UNL d   1      -4.504   1.591   0.396  0.00  0.00    -0.042 A 
ATOM      5  C5  UNL d   1      -5.428   1.919   1.382  0.00  0.00     0.033 A 
ATOM      6  C6  UNL d   1      -5.886   0.937   2.266  0.00  0.00    -0.057 A 
ENDROOT
BRANCH   1   7
ATOM      7  N   UNL d   1      -5.999  -1.336   3.045  0.00  0.00    -0.732 N 
ATOM      8  C   UNL d   1      -6.000  -1.140   4.478  0.00  0.00     0.284 C 
ATOM      9  H3  UNL d   1      -6.871  -1.707   2.675  0.00  0.00     0.395 HD
ENDBRANCH   1   7
TORSDOF 1
ENDMDL
