MODEL 1
REMARK minimizedAffinity -3.98586392
REMARK minimizedRMSD -1
REMARK  1 active torsions:
REMARK  status: ('A' for Active; 'I' for Inactive)
REMARK    1  A    between atoms: C1_2  and  C2_3 
ROOT
ATOM      1  C2  UNL d   1       1.010   0.217   0.005  0.00  0.00    -0.081 A 
ATOM      2  C3  UNL d   1       0.386   0.424  -1.231  0.00  0.00     0.006 A 
ATOM      3  C4  UNL d   1      -0.967   0.120  -1.401  0.00  0.00     0.002 A 
ATOM      4  C5  UNL d   1      -1.720  -0.387  -0.336  0.00  0.00    -0.080 A 
ATOM      5  C6  UNL d   1      -3.180  -0.688  -0.497  0.00  0.00     0.076 C 
ATOM      6  C7  UNL d   1      -1.092  -0.610   0.894  0.00  0.00     0.002 A 
ATOM      7  C8  UNL d   1       0.261  -0.307   1.064  0.00  0.00     0.006 A 
ENDROOT
BRANCH   1   8
ATOM      8  C1  UNL d   1       2.453   0.604   0.210  0.00  0.00     0.054 C 
ATOM      9  C   UNL d   1       2.573   2.018   0.760  0.00  0.00     0.018 C 
ENDBRANCH   1   8
TORSDOF 1
ENDMDL
