MODEL 1
REMARK minimizedAffinity -5.16646242
REMARK minimizedRMSD -1
REMARK  1 active torsions:
REMARK  status: ('A' for Active; 'I' for Inactive)
REMARK    1  A    between atoms: C1_2  and  C2_3 
ROOT
ATOM      1  C2  UNL d   1       0.389   0.103  -0.173  0.00  0.00    -0.081 A 
ATOM      2  C3  UNL d   1      -0.474   0.442  -1.222  0.00  0.00     0.006 A 
ATOM      3  C4  UNL d   1      -1.796  -0.009  -1.226  0.00  0.00     0.002 A 
ATOM      4  C5  UNL d   1      -2.279  -0.800  -0.178  0.00  0.00    -0.080 A 
ATOM      5  C6  UNL d   1      -3.705  -1.266  -0.155  0.00  0.00     0.076 C 
ATOM      6  C7  UNL d   1      -1.412  -1.154   0.861  0.00  0.00     0.002 A 
ATOM      7  C8  UNL d   1      -0.090  -0.703   0.865  0.00  0.00     0.006 A 
ENDROOT
BRANCH   1   8
ATOM      8  C1  UNL d   1       1.796   0.641  -0.133  0.00  0.00     0.054 C 
ATOM      9  C   UNL d   1       1.899   1.852   0.783  0.00  0.00     0.018 C 
ENDBRANCH   1   8
TORSDOF 1
ENDMDL
