MODEL 1
REMARK minimizedAffinity -5.65027666
REMARK minimizedRMSD -1
REMARK  1 active torsions:
REMARK  status: ('A' for Active; 'I' for Inactive)
REMARK    1  A    between atoms: C1_2  and  C2_3 
ROOT
ATOM      1  C2  UNL d   1       0.678  -0.614   0.258  0.00  0.00    -0.081 A 
ATOM      2  C3  UNL d   1      -0.113   0.149  -0.609  0.00  0.00     0.006 A 
ATOM      3  C4  UNL d   1      -1.487  -0.083  -0.704  0.00  0.00     0.002 A 
ATOM      4  C5  UNL d   1      -2.094  -1.076   0.073  0.00  0.00    -0.080 A 
ATOM      5  C6  UNL d   1      -3.573  -1.314   0.003  0.00  0.00     0.076 C 
ATOM      6  C7  UNL d   1      -1.302  -1.850   0.926  0.00  0.00     0.002 A 
ATOM      7  C8  UNL d   1       0.073  -1.619   1.021  0.00  0.00     0.006 A 
ENDROOT
BRANCH   1   8
ATOM      8  C1  UNL d   1       2.149  -0.324   0.410  0.00  0.00     0.054 C 
ATOM      9  C   UNL d   1       2.388   1.119   0.832  0.00  0.00     0.018 C 
ENDBRANCH   1   8
TORSDOF 1
ENDMDL
