MODEL 1
REMARK minimizedAffinity -4.03039837
REMARK minimizedRMSD -1
REMARK  1 active torsions:
REMARK  status: ('A' for Active; 'I' for Inactive)
REMARK    1  A    between atoms: C1_2  and  C2_3 
ROOT
ATOM      1  C2  UNL d   1       0.338  -0.147  -0.003  0.00  0.00    -0.081 A 
ATOM      2  C3  UNL d   1      -0.463   0.088  -1.128  0.00  0.00     0.006 A 
ATOM      3  C4  UNL d   1      -1.808  -0.289  -1.131  0.00  0.00     0.002 A 
ATOM      4  C5  UNL d   1      -2.377  -0.899  -0.007  0.00  0.00    -0.080 A 
ATOM      5  C6  UNL d   1      -3.827  -1.282   0.014  0.00  0.00     0.076 C 
ATOM      6  C7  UNL d   1      -1.572  -1.149   1.110  0.00  0.00     0.002 A 
ATOM      7  C8  UNL d   1      -0.227  -0.773   1.113  0.00  0.00     0.006 A 
ENDROOT
BRANCH   1   8
ATOM      8  C1  UNL d   1       1.772   0.317   0.027  0.00  0.00     0.054 C 
ATOM      9  C   UNL d   1       1.921   1.600   0.832  0.00  0.00     0.018 C 
ENDBRANCH   1   8
TORSDOF 1
ENDMDL
