MODEL 1
REMARK minimizedAffinity -3.8979919
REMARK minimizedRMSD -1
REMARK  1 active torsions:
REMARK  status: ('A' for Active; 'I' for Inactive)
REMARK    1  A    between atoms: C1_2  and  C2_3 
ROOT
ATOM      1  C2  UNL d   1       0.524   0.154   0.094  0.00  0.00    -0.081 A 
ATOM      2  C3  UNL d   1      -0.263   0.444  -1.027  0.00  0.00     0.006 A 
ATOM      3  C4  UNL d   1      -1.596   0.027  -1.084  0.00  0.00     0.002 A 
ATOM      4  C5  UNL d   1      -2.164  -0.678  -0.018  0.00  0.00    -0.080 A 
ATOM      5  C6  UNL d   1      -3.602  -1.105  -0.052  0.00  0.00     0.076 C 
ATOM      6  C7  UNL d   1      -1.373  -0.983   1.095  0.00  0.00     0.002 A 
ATOM      7  C8  UNL d   1      -0.040  -0.567   1.151  0.00  0.00     0.006 A 
ENDROOT
BRANCH   1   8
ATOM      8  C1  UNL d   1       1.942   0.658   0.185  0.00  0.00     0.054 C 
ATOM      9  C   UNL d   1       2.126   1.577   1.384  0.00  0.00     0.018 C 
ENDBRANCH   1   8
TORSDOF 1
ENDMDL
