MODEL 1
REMARK minimizedAffinity -4.61396313
REMARK minimizedRMSD -1
REMARK  1 active torsions:
REMARK  status: ('A' for Active; 'I' for Inactive)
REMARK    1  A    between atoms: C1_2  and  C2_3 
ROOT
ATOM      1  C2  UNL d   1       0.246  -0.375  -0.129  0.00  0.00    -0.081 A 
ATOM      2  C3  UNL d   1      -0.758   0.122  -0.967  0.00  0.00     0.006 A 
ATOM      3  C4  UNL d   1      -2.060  -0.379  -0.888  0.00  0.00     0.002 A 
ATOM      4  C5  UNL d   1      -2.380  -1.381   0.035  0.00  0.00    -0.080 A 
ATOM      5  C6  UNL d   1      -3.779  -1.906   0.152  0.00  0.00     0.076 C 
ATOM      6  C7  UNL d   1      -1.372  -1.890   0.861  0.00  0.00     0.002 A 
ATOM      7  C8  UNL d   1      -0.070  -1.389   0.782  0.00  0.00     0.006 A 
ENDROOT
BRANCH   1   8
ATOM      8  C1  UNL d   1       1.636   0.209  -0.167  0.00  0.00     0.054 C 
ATOM      9  C   UNL d   1       1.763   1.394   0.779  0.00  0.00     0.018 C 
ENDBRANCH   1   8
TORSDOF 1
ENDMDL
