MODEL 1
REMARK minimizedAffinity 5.88898802
REMARK minimizedRMSD -1
REMARK  0 active torsions:
REMARK  status: ('A' for Active; 'I' for Inactive)
ROOT
ATOM      1  C   UNL d   1      -1.545  -0.094   0.962  0.00  0.00     0.124 A 
ATOM      2  C1  UNL d   1      -2.301   0.179   2.093  0.00  0.00     0.062 A 
ATOM      3  C2  UNL d   1      -3.571  -0.371   2.236  0.00  0.00     0.162 A 
ATOM      4  C3  UNL d   1      -4.093  -1.203   1.245  0.00  0.00    -0.034 A 
ATOM      5  C4  UNL d   1      -3.327  -1.472   0.110  0.00  0.00     0.162 A 
ATOM      6  C5  UNL d   1      -2.058  -0.919  -0.028  0.00  0.00     0.062 A 
ATOM      7  F   UNL d   1      -1.328  -1.185  -1.122  0.00  0.00    -0.097 F 
ATOM      8  F1  UNL d   1      -3.798  -2.267  -0.862  0.00  0.00    -0.096 F 
ATOM      9  I   UNL d   1      -5.992  -2.028   1.454  0.00  0.00    -0.060 I 
ATOM     10  F2  UNL d   1      -4.280  -0.090   3.339  0.00  0.00    -0.096 F 
ATOM     11  F3  UNL d   1      -1.808   0.977   3.051  0.00  0.00    -0.097 F 
ATOM     12  F4  UNL d   1      -0.323   0.438   0.827  0.00  0.00    -0.092 F 
ENDROOT
TORSDOF 0
ENDMDL
