MODEL 1
REMARK minimizedAffinity 17.6980019
REMARK minimizedRMSD -1
REMARK  0 active torsions:
REMARK  status: ('A' for Active; 'I' for Inactive)
ROOT
ATOM      1  C   UNL d   1      -3.484  -1.802  -0.706  0.00  0.00     0.124 A 
ATOM      2  C1  UNL d   1      -2.332  -1.086  -0.414  0.00  0.00     0.062 A 
ATOM      3  C2  UNL d   1      -2.232  -0.376   0.779  0.00  0.00     0.162 A 
ATOM      4  C3  UNL d   1      -3.287  -0.380   1.691  0.00  0.00    -0.034 A 
ATOM      5  C4  UNL d   1      -4.444  -1.102   1.390  0.00  0.00     0.162 A 
ATOM      6  C5  UNL d   1      -4.539  -1.810   0.196  0.00  0.00     0.062 A 
ATOM      7  F   UNL d   1      -5.653  -2.501  -0.084  0.00  0.00    -0.097 F 
ATOM      8  F1  UNL d   1      -5.477  -1.128   2.245  0.00  0.00    -0.096 F 
ATOM      9  I   UNL d   1      -3.142   0.679   3.476  0.00  0.00    -0.060 I 
ATOM     10  F2  UNL d   1      -1.106   0.307   1.035  0.00  0.00    -0.096 F 
ATOM     11  F3  UNL d   1      -1.312  -1.076  -1.284  0.00  0.00    -0.097 F 
ATOM     12  F4  UNL d   1      -3.578  -2.483  -1.855  0.00  0.00    -0.092 F 
ENDROOT
TORSDOF 0
ENDMDL
