MODEL 1
REMARK minimizedAffinity 13.9301023
REMARK minimizedRMSD -1
REMARK  0 active torsions:
REMARK  status: ('A' for Active; 'I' for Inactive)
ROOT
ATOM      1  C   UNL d   1      -4.655  -2.068   0.304  0.00  0.00     0.124 A 
ATOM      2  C1  UNL d   1      -4.942  -1.658   1.599  0.00  0.00     0.062 A 
ATOM      3  C2  UNL d   1      -4.134  -0.717   2.231  0.00  0.00     0.162 A 
ATOM      4  C3  UNL d   1      -3.032  -0.178   1.568  0.00  0.00    -0.034 A 
ATOM      5  C4  UNL d   1      -2.749  -0.595   0.266  0.00  0.00     0.162 A 
ATOM      6  C5  UNL d   1      -3.560  -1.536  -0.361  0.00  0.00     0.062 A 
ATOM      7  F   UNL d   1      -3.281  -1.930  -1.612  0.00  0.00    -0.097 F 
ATOM      8  F1  UNL d   1      -1.697  -0.097  -0.400  0.00  0.00    -0.096 F 
ATOM      9  I   UNL d   1      -1.821   1.230   2.509  0.00  0.00    -0.060 I 
ATOM     10  F2  UNL d   1      -4.435  -0.340   3.482  0.00  0.00    -0.096 F 
ATOM     11  F3  UNL d   1      -6.000  -2.171   2.244  0.00  0.00    -0.097 F 
ATOM     12  F4  UNL d   1      -5.434  -2.974  -0.301  0.00  0.00    -0.092 F 
ENDROOT
TORSDOF 0
ENDMDL
