MODEL 1
REMARK minimizedAffinity 13.7179594
REMARK minimizedRMSD -1
REMARK  0 active torsions:
REMARK  status: ('A' for Active; 'I' for Inactive)
ROOT
ATOM      1  C   UNL d   1      -1.913   0.098   2.200  0.00  0.00     0.124 A 
ATOM      2  C1  UNL d   1      -1.926  -0.712   1.073  0.00  0.00     0.062 A 
ATOM      3  C2  UNL d   1      -3.091  -1.375   0.701  0.00  0.00     0.162 A 
ATOM      4  C3  UNL d   1      -4.255  -1.232   1.457  0.00  0.00    -0.034 A 
ATOM      5  C4  UNL d   1      -4.233  -0.417   2.591  0.00  0.00     0.162 A 
ATOM      6  C5  UNL d   1      -3.066   0.244   2.958  0.00  0.00     0.062 A 
ATOM      7  F   UNL d   1      -3.055   1.026   4.048  0.00  0.00    -0.097 F 
ATOM      8  F1  UNL d   1      -5.334  -0.257   3.341  0.00  0.00    -0.096 F 
ATOM      9  I   UNL d   1      -6.000  -2.222   0.905  0.00  0.00    -0.060 I 
ATOM     10  F2  UNL d   1      -3.075  -2.151  -0.393  0.00  0.00    -0.096 F 
ATOM     11  F3  UNL d   1      -0.813  -0.856   0.340  0.00  0.00    -0.097 F 
ATOM     12  F4  UNL d   1      -0.789   0.734   2.556  0.00  0.00    -0.092 F 
ENDROOT
TORSDOF 0
ENDMDL
