MODEL 1
REMARK minimizedAffinity 23.2256012
REMARK minimizedRMSD -1
REMARK  0 active torsions:
REMARK  status: ('A' for Active; 'I' for Inactive)
ROOT
ATOM      1  C   UNL d   1      -0.833  -2.954  -0.406  0.00  0.00     0.124 A 
ATOM      2  C1  UNL d   1      -1.358  -3.773   0.584  0.00  0.00     0.062 A 
ATOM      3  C2  UNL d   1      -0.522  -4.612   1.314  0.00  0.00     0.162 A 
ATOM      4  C3  UNL d   1       0.849  -4.637   1.058  0.00  0.00    -0.034 A 
ATOM      5  C4  UNL d   1       1.370  -3.812   0.060  0.00  0.00     0.162 A 
ATOM      6  C5  UNL d   1       0.530  -2.974  -0.667  0.00  0.00     0.062 A 
ATOM      7  F   UNL d   1       1.040  -2.184  -1.623  0.00  0.00    -0.097 F 
ATOM      8  F1  UNL d   1       2.683  -3.811  -0.212  0.00  0.00    -0.096 F 
ATOM      9  I   UNL d   1       2.102  -5.892   2.148  0.00  0.00    -0.060 I 
ATOM     10  F2  UNL d   1      -1.057  -5.393   2.265  0.00  0.00    -0.096 F 
ATOM     11  F3  UNL d   1      -2.674  -3.756   0.838  0.00  0.00    -0.097 F 
ATOM     12  F4  UNL d   1      -1.639  -2.148  -1.108  0.00  0.00    -0.092 F 
ENDROOT
TORSDOF 0
ENDMDL
