MODEL 1
REMARK minimizedAffinity 28.5262299
REMARK minimizedRMSD -1
REMARK  0 active torsions:
REMARK  status: ('A' for Active; 'I' for Inactive)
ROOT
ATOM      1  C   UNL d   1      -3.255  -0.313   3.327  0.00  0.00     0.124 A 
ATOM      2  C1  UNL d   1      -2.298   0.689   3.420  0.00  0.00     0.062 A 
ATOM      3  C2  UNL d   1      -2.583   1.973   2.967  0.00  0.00     0.162 A 
ATOM      4  C3  UNL d   1      -3.832   2.265   2.417  0.00  0.00    -0.034 A 
ATOM      5  C4  UNL d   1      -4.789   1.252   2.326  0.00  0.00     0.162 A 
ATOM      6  C5  UNL d   1      -4.499  -0.030   2.781  0.00  0.00     0.062 A 
ATOM      7  F   UNL d   1      -5.425  -0.996   2.691  0.00  0.00    -0.097 F 
ATOM      8  F1  UNL d   1      -5.999   1.498   1.804  0.00  0.00    -0.096 F 
ATOM      9  I   UNL d   1      -4.262   4.185   1.738  0.00  0.00    -0.060 I 
ATOM     10  F2  UNL d   1      -1.640   2.921   3.069  0.00  0.00    -0.096 F 
ATOM     11  F3  UNL d   1      -1.095   0.418   3.947  0.00  0.00    -0.097 F 
ATOM     12  F4  UNL d   1      -2.978  -1.548   3.764  0.00  0.00    -0.092 F 
ENDROOT
TORSDOF 0
ENDMDL
