MODEL 1
REMARK minimizedAffinity 24.4275303
REMARK minimizedRMSD -1
REMARK  0 active torsions:
REMARK  status: ('A' for Active; 'I' for Inactive)
ROOT
ATOM      1  C   UNL d   1      -1.948  -0.992  -0.656  0.00  0.00     0.124 A 
ATOM      2  C1  UNL d   1      -2.072   0.357  -0.962  0.00  0.00     0.062 A 
ATOM      3  C2  UNL d   1      -1.039   1.024  -1.614  0.00  0.00     0.162 A 
ATOM      4  C3  UNL d   1       0.127   0.343  -1.965  0.00  0.00    -0.034 A 
ATOM      5  C4  UNL d   1       0.244  -1.012  -1.653  0.00  0.00     0.162 A 
ATOM      6  C5  UNL d   1      -0.791  -1.675  -1.002  0.00  0.00     0.062 A 
ATOM      7  F   UNL d   1      -0.670  -2.977  -0.707  0.00  0.00    -0.097 F 
ATOM      8  F1  UNL d   1       1.351  -1.697  -1.977  0.00  0.00    -0.096 F 
ATOM      9  I   UNL d   1       1.674   1.338  -2.941  0.00  0.00    -0.060 I 
ATOM     10  F2  UNL d   1      -1.186   2.327  -1.897  0.00  0.00    -0.096 F 
ATOM     11  F3  UNL d   1      -3.189   1.019  -0.628  0.00  0.00    -0.097 F 
ATOM     12  F4  UNL d   1      -2.943  -1.631  -0.027  0.00  0.00    -0.092 F 
ENDROOT
TORSDOF 0
ENDMDL
