MODEL 1
REMARK minimizedAffinity 8.35316467
REMARK minimizedRMSD -1
REMARK  0 active torsions:
REMARK  status: ('A' for Active; 'I' for Inactive)
ROOT
ATOM      1  C   UNL d   1      -2.649   2.182   3.324  0.00  0.00     0.124 A 
ATOM      2  C1  UNL d   1      -2.300   0.856   3.111  0.00  0.00     0.062 A 
ATOM      3  C2  UNL d   1      -2.130   0.376   1.815  0.00  0.00     0.162 A 
ATOM      4  C3  UNL d   1      -2.309   1.224   0.722  0.00  0.00    -0.034 A 
ATOM      5  C4  UNL d   1      -2.661   2.556   0.944  0.00  0.00     0.162 A 
ATOM      6  C5  UNL d   1      -2.830   3.031   2.241  0.00  0.00     0.062 A 
ATOM      7  F   UNL d   1      -3.167   4.313   2.445  0.00  0.00    -0.097 F 
ATOM      8  F1  UNL d   1      -2.841   3.399  -0.084  0.00  0.00    -0.096 F 
ATOM      9  I   UNL d   1      -2.056   0.511  -1.217  0.00  0.00    -0.060 I 
ATOM     10  F2  UNL d   1      -1.792  -0.910   1.639  0.00  0.00    -0.096 F 
ATOM     11  F3  UNL d   1      -2.126   0.034   4.155  0.00  0.00    -0.097 F 
ATOM     12  F4  UNL d   1      -2.813   2.641   4.572  0.00  0.00    -0.092 F 
ENDROOT
TORSDOF 0
ENDMDL
