MODEL 1
REMARK minimizedAffinity 29.7383862
REMARK minimizedRMSD -1
REMARK  0 active torsions:
REMARK  status: ('A' for Active; 'I' for Inactive)
ROOT
ATOM      1  C   UNL d   1      -2.653  -0.368   0.251  0.00  0.00     0.124 A 
ATOM      2  C1  UNL d   1      -3.873  -0.974  -0.016  0.00  0.00     0.062 A 
ATOM      3  C2  UNL d   1      -4.829  -1.095   0.988  0.00  0.00     0.162 A 
ATOM      4  C3  UNL d   1      -4.570  -0.608   2.269  0.00  0.00    -0.034 A 
ATOM      5  C4  UNL d   1      -3.340  -0.001   2.531  0.00  0.00     0.162 A 
ATOM      6  C5  UNL d   1      -2.388   0.118   1.524  0.00  0.00     0.062 A 
ATOM      7  F   UNL d   1      -1.210   0.704   1.784  0.00  0.00    -0.097 F 
ATOM      8  F1  UNL d   1      -3.058   0.478   3.751  0.00  0.00    -0.096 F 
ATOM      9  I   UNL d   1      -5.997  -0.788   3.773  0.00  0.00    -0.060 I 
ATOM     10  F2  UNL d   1      -5.999  -1.685   0.701  0.00  0.00    -0.096 F 
ATOM     11  F3  UNL d   1      -4.131  -1.444  -1.245  0.00  0.00    -0.097 F 
ATOM     12  F4  UNL d   1      -1.734  -0.253  -0.717  0.00  0.00    -0.092 F 
ENDROOT
TORSDOF 0
ENDMDL
