MODEL 1
REMARK minimizedAffinity 17.8673935
REMARK minimizedRMSD -1
REMARK  0 active torsions:
REMARK  status: ('A' for Active; 'I' for Inactive)
ROOT
ATOM      1  C   UNL d   1      -2.399   0.024   2.362  0.00  0.00     0.124 A 
ATOM      2  C1  UNL d   1      -1.063   0.378   2.229  0.00  0.00     0.062 A 
ATOM      3  C2  UNL d   1      -0.384   0.118   1.042  0.00  0.00     0.162 A 
ATOM      4  C3  UNL d   1      -1.040  -0.500  -0.023  0.00  0.00    -0.034 A 
ATOM      5  C4  UNL d   1      -2.383  -0.854   0.118  0.00  0.00     0.162 A 
ATOM      6  C5  UNL d   1      -3.057  -0.591   1.306  0.00  0.00     0.062 A 
ATOM      7  F   UNL d   1      -4.348  -0.934   1.433  0.00  0.00    -0.097 F 
ATOM      8  F1  UNL d   1      -3.044  -1.448  -0.886  0.00  0.00    -0.096 F 
ATOM      9  I   UNL d   1      -0.029  -0.891  -1.799  0.00  0.00    -0.060 I 
ATOM     10  F2  UNL d   1       0.906   0.470   0.942  0.00  0.00    -0.096 F 
ATOM     11  F3  UNL d   1      -0.424   0.972   3.248  0.00  0.00    -0.097 F 
ATOM     12  F4  UNL d   1      -3.049   0.275   3.505  0.00  0.00    -0.092 F 
ENDROOT
TORSDOF 0
ENDMDL
