MODEL 1
REMARK minimizedAffinity 15.39746
REMARK minimizedRMSD -1
REMARK  0 active torsions:
REMARK  status: ('A' for Active; 'I' for Inactive)
ROOT
ATOM      1  C   UNL d   1      -2.492  -0.838   0.075  0.00  0.00     0.124 A 
ATOM      2  C1  UNL d   1      -2.691   0.494  -0.263  0.00  0.00     0.062 A 
ATOM      3  C2  UNL d   1      -2.791   1.462   0.732  0.00  0.00     0.162 A 
ATOM      4  C3  UNL d   1      -2.691   1.102   2.076  0.00  0.00    -0.034 A 
ATOM      5  C4  UNL d   1      -2.492  -0.239   2.409  0.00  0.00     0.162 A 
ATOM      6  C5  UNL d   1      -2.393  -1.203   1.410  0.00  0.00     0.062 A 
ATOM      7  F   UNL d   1      -2.201  -2.488   1.740  0.00  0.00    -0.097 F 
ATOM      8  F1  UNL d   1      -2.392  -0.619   3.691  0.00  0.00    -0.096 F 
ATOM      9  I   UNL d   1      -2.841   2.546   3.567  0.00  0.00    -0.060 I 
ATOM     10  F2  UNL d   1      -2.983   2.740   0.375  0.00  0.00    -0.096 F 
ATOM     11  F3  UNL d   1      -2.788   0.849  -1.553  0.00  0.00    -0.097 F 
ATOM     12  F4  UNL d   1      -2.397  -1.767  -0.884  0.00  0.00    -0.092 F 
ENDROOT
TORSDOF 0
ENDMDL
