MODEL 1
REMARK minimizedAffinity 15.6753893
REMARK minimizedRMSD -1
REMARK  0 active torsions:
REMARK  status: ('A' for Active; 'I' for Inactive)
ROOT
ATOM      1  C   UNL d   1      -3.149   2.035   1.071  0.00  0.00     0.124 A 
ATOM      2  C1  UNL d   1      -2.677   0.802   1.501  0.00  0.00     0.062 A 
ATOM      3  C2  UNL d   1      -1.836   0.051   0.684  0.00  0.00     0.162 A 
ATOM      4  C3  UNL d   1      -1.461   0.531  -0.571  0.00  0.00    -0.034 A 
ATOM      5  C4  UNL d   1      -1.941   1.771  -0.997  0.00  0.00     0.162 A 
ATOM      6  C5  UNL d   1      -2.781   2.518  -0.177  0.00  0.00     0.062 A 
ATOM      7  F   UNL d   1      -3.236   3.708  -0.594  0.00  0.00    -0.097 F 
ATOM      8  F1  UNL d   1      -1.600   2.262  -2.198  0.00  0.00    -0.096 F 
ATOM      9  I   UNL d   1      -0.204  -0.589  -1.795  0.00  0.00    -0.060 I 
ATOM     10  F2  UNL d   1      -1.395  -1.136   1.125  0.00  0.00    -0.096 F 
ATOM     11  F3  UNL d   1      -3.032   0.333   2.705  0.00  0.00    -0.097 F 
ATOM     12  F4  UNL d   1      -3.959   2.755   1.858  0.00  0.00    -0.092 F 
ENDROOT
TORSDOF 0
ENDMDL
