MODEL 1
REMARK minimizedAffinity 26.1767006
REMARK minimizedRMSD -1
REMARK  0 active torsions:
REMARK  status: ('A' for Active; 'I' for Inactive)
ROOT
ATOM      1  C   UNL d   1       2.411  -1.415  -2.062  0.00  0.00     0.124 A 
ATOM      2  C1  UNL d   1       3.538  -0.676  -1.732  0.00  0.00     0.062 A 
ATOM      3  C2  UNL d   1       3.504   0.715  -1.783  0.00  0.00     0.162 A 
ATOM      4  C3  UNL d   1       2.336   1.376  -2.164  0.00  0.00    -0.034 A 
ATOM      5  C4  UNL d   1       1.207   0.626  -2.496  0.00  0.00     0.162 A 
ATOM      6  C5  UNL d   1       1.246  -0.764  -2.444  0.00  0.00     0.062 A 
ATOM      7  F   UNL d   1       0.156  -1.476  -2.763  0.00  0.00    -0.097 F 
ATOM      8  F1  UNL d   1       0.068   1.230  -2.867  0.00  0.00    -0.096 F 
ATOM      9  I   UNL d   1       2.280   3.455  -2.242  0.00  0.00    -0.060 I 
ATOM     10  F2  UNL d   1       4.608   1.403  -1.458  0.00  0.00    -0.096 F 
ATOM     11  F3  UNL d   1       4.665  -1.303  -1.364  0.00  0.00    -0.097 F 
ATOM     12  F4  UNL d   1       2.447  -2.753  -2.013  0.00  0.00    -0.092 F 
ENDROOT
TORSDOF 0
ENDMDL
