MODEL 1
REMARK minimizedAffinity 13.644125
REMARK minimizedRMSD -1
REMARK  0 active torsions:
REMARK  status: ('A' for Active; 'I' for Inactive)
ROOT
ATOM      1  C   UNL d   1      -1.732   0.383   2.140  0.00  0.00     0.124 A 
ATOM      2  C1  UNL d   1      -1.887  -0.149   0.868  0.00  0.00     0.062 A 
ATOM      3  C2  UNL d   1      -3.074  -0.786   0.516  0.00  0.00     0.162 A 
ATOM      4  C3  UNL d   1      -4.115  -0.894   1.437  0.00  0.00    -0.034 A 
ATOM      5  C4  UNL d   1      -3.951  -0.357   2.715  0.00  0.00     0.162 A 
ATOM      6  C5  UNL d   1      -2.764   0.279   3.062  0.00  0.00     0.062 A 
ATOM      7  F   UNL d   1      -2.616   0.793   4.292  0.00  0.00    -0.097 F 
ATOM      8  F1  UNL d   1      -4.933  -0.442   3.626  0.00  0.00    -0.096 F 
ATOM      9  I   UNL d   1      -5.891  -1.846   0.914  0.00  0.00    -0.060 I 
ATOM     10  F2  UNL d   1      -3.196  -1.292  -0.721  0.00  0.00    -0.096 F 
ATOM     11  F3  UNL d   1      -0.892  -0.051  -0.025  0.00  0.00    -0.097 F 
ATOM     12  F4  UNL d   1      -0.589   0.995   2.477  0.00  0.00    -0.092 F 
ENDROOT
TORSDOF 0
ENDMDL
