MODEL 1
REMARK minimizedAffinity 24.8381023
REMARK minimizedRMSD -1
REMARK  0 active torsions:
REMARK  status: ('A' for Active; 'I' for Inactive)
ROOT
ATOM      1  C   UNL d   1      -3.318   1.664   2.031  0.00  0.00     0.124 A 
ATOM      2  C1  UNL d   1      -2.724   0.532   2.572  0.00  0.00     0.062 A 
ATOM      3  C2  UNL d   1      -2.172  -0.435   1.738  0.00  0.00     0.162 A 
ATOM      4  C3  UNL d   1      -2.209  -0.275   0.353  0.00  0.00    -0.034 A 
ATOM      5  C4  UNL d   1      -2.809   0.866  -0.185  0.00  0.00     0.162 A 
ATOM      6  C5  UNL d   1      -3.360   1.830   0.653  0.00  0.00     0.062 A 
ATOM      7  F   UNL d   1      -3.933   2.923   0.129  0.00  0.00    -0.097 F 
ATOM      8  F1  UNL d   1      -2.862   1.052  -1.512  0.00  0.00    -0.096 F 
ATOM      9  I   UNL d   1      -1.384  -1.719  -0.898  0.00  0.00    -0.060 I 
ATOM     10  F2  UNL d   1      -1.605  -1.519   2.288  0.00  0.00    -0.096 F 
ATOM     11  F3  UNL d   1      -2.684   0.369   3.902  0.00  0.00    -0.097 F 
ATOM     12  F4  UNL d   1      -3.850   2.593   2.835  0.00  0.00    -0.092 F 
ENDROOT
TORSDOF 0
ENDMDL
