MODEL 1
REMARK minimizedAffinity 19.7632122
REMARK minimizedRMSD -1
REMARK  0 active torsions:
REMARK  status: ('A' for Active; 'I' for Inactive)
ROOT
ATOM      1  C   UNL d   1       2.031   1.971  -2.684  0.00  0.00     0.124 A 
ATOM      2  C1  UNL d   1       0.783   1.539  -2.258  0.00  0.00     0.062 A 
ATOM      3  C2  UNL d   1       0.537   0.181  -2.074  0.00  0.00     0.162 A 
ATOM      4  C3  UNL d   1       1.543  -0.755  -2.315  0.00  0.00    -0.034 A 
ATOM      5  C4  UNL d   1       2.796  -0.312  -2.744  0.00  0.00     0.162 A 
ATOM      6  C5  UNL d   1       3.036   1.046  -2.926  0.00  0.00     0.062 A 
ATOM      7  F   UNL d   1       4.243   1.462  -3.337  0.00  0.00    -0.097 F 
ATOM      8  F1  UNL d   1       3.786  -1.185  -2.984  0.00  0.00    -0.096 F 
ATOM      9  I   UNL d   1       1.181  -2.786  -2.041  0.00  0.00    -0.060 I 
ATOM     10  F2  UNL d   1      -0.678  -0.208  -1.662  0.00  0.00    -0.096 F 
ATOM     11  F3  UNL d   1      -0.191   2.431  -2.024  0.00  0.00    -0.097 F 
ATOM     12  F4  UNL d   1       2.264   3.278  -2.861  0.00  0.00    -0.092 F 
ENDROOT
TORSDOF 0
ENDMDL
