MODEL 1
REMARK minimizedAffinity 18.643755
REMARK minimizedRMSD -1
REMARK  0 active torsions:
REMARK  status: ('A' for Active; 'I' for Inactive)
ROOT
ATOM      1  C   UNL d   1       0.935   0.474  -4.142  0.00  0.00     0.124 A 
ATOM      2  C1  UNL d   1       1.077   1.768  -4.622  0.00  0.00     0.062 A 
ATOM      3  C2  UNL d   1       1.812   2.705  -3.901  0.00  0.00     0.162 A 
ATOM      4  C3  UNL d   1       2.411   2.350  -2.692  0.00  0.00    -0.034 A 
ATOM      5  C4  UNL d   1       2.263   1.046  -2.216  0.00  0.00     0.162 A 
ATOM      6  C5  UNL d   1       1.528   0.114  -2.940  0.00  0.00     0.062 A 
ATOM      7  F   UNL d   1       1.391  -1.137  -2.475  0.00  0.00    -0.097 F 
ATOM      8  F1  UNL d   1       2.826   0.672  -1.058  0.00  0.00    -0.096 F 
ATOM      9  I   UNL d   1       3.511   3.748  -1.611  0.00  0.00    -0.060 I 
ATOM     10  F2  UNL d   1       1.933   3.949  -4.388  0.00  0.00    -0.096 F 
ATOM     11  F3  UNL d   1       0.505   2.119  -5.783  0.00  0.00    -0.097 F 
ATOM     12  F4  UNL d   1       0.227  -0.425  -4.838  0.00  0.00    -0.092 F 
ENDROOT
TORSDOF 0
ENDMDL
