MODEL 1
REMARK minimizedAffinity 31.6456566
REMARK minimizedRMSD -1
REMARK  0 active torsions:
REMARK  status: ('A' for Active; 'I' for Inactive)
ROOT
ATOM      1  C   UNL d   1       3.649   5.443   1.917  0.00  0.00     0.124 A 
ATOM      2  C1  UNL d   1       2.461   5.657   1.232  0.00  0.00     0.062 A 
ATOM      3  C2  UNL d   1       2.417   5.519  -0.153  0.00  0.00     0.162 A 
ATOM      4  C3  UNL d   1       3.564   5.163  -0.862  0.00  0.00    -0.034 A 
ATOM      5  C4  UNL d   1       4.756   4.950  -0.166  0.00  0.00     0.162 A 
ATOM      6  C5  UNL d   1       4.795   5.089   1.218  0.00  0.00     0.062 A 
ATOM      7  F   UNL d   1       5.944   4.882   1.878  0.00  0.00    -0.097 F 
ATOM      8  F1  UNL d   1       5.877   4.606  -0.816  0.00  0.00    -0.096 F 
ATOM      9  I   UNL d   1       3.502   4.955  -2.931  0.00  0.00    -0.060 I 
ATOM     10  F2  UNL d   1       1.255   5.732  -0.789  0.00  0.00    -0.096 F 
ATOM     11  F3  UNL d   1       1.353   6.000   1.905  0.00  0.00    -0.097 F 
ATOM     12  F4  UNL d   1       3.690   5.578   3.249  0.00  0.00    -0.092 F 
ENDROOT
TORSDOF 0
ENDMDL
