MODEL 1
REMARK minimizedAffinity -3.16147113
REMARK minimizedRMSD -1
REMARK  1 active torsions:
REMARK  status: ('A' for Active; 'I' for Inactive)
REMARK    1  A    between atoms: C1_2  and  C2_3 
ROOT
ATOM      1  C2  UNL d   1      -5.756   3.831   4.672  0.00  0.00    -0.076 A 
ATOM      2  C3  UNL d   1      -5.560   3.188   3.438  0.00  0.00     0.004 A 
ATOM      3  C4  UNL d   1      -5.440   3.920   2.258  0.00  0.00    -0.003 A 
ATOM      4  C5  UNL d   1      -5.514   5.308   2.294  0.00  0.00     0.000 A 
ATOM      5  C6  UNL d   1      -5.691   5.964   3.511  0.00  0.00     0.000 A 
ATOM      6  C7  UNL d   1      -5.797   5.241   4.712  0.00  0.00    -0.073 A 
ATOM      7  C8  UNL d   1      -5.993   6.000   5.996  0.00  0.00     0.078 C 
ENDROOT
BRANCH   1   8
ATOM      8  C1  UNL d   1      -5.907   2.983   5.915  0.00  0.00     0.053 C 
ATOM      9  C   UNL d   1      -5.956   1.496   5.603  0.00  0.00     0.018 C 
ENDBRANCH   1   8
TORSDOF 1
ENDMDL
