MODEL 1
REMARK minimizedAffinity 4.9260273
REMARK minimizedRMSD -1
REMARK  1 active torsions:
REMARK  status: ('A' for Active; 'I' for Inactive)
REMARK    1  A    between atoms: C1_2  and  C2_3 
ROOT
ATOM      1  C2  UNL d   1      -1.452  -1.029  -0.444  0.00  0.00    -0.076 A 
ATOM      2  C3  UNL d   1      -1.338  -2.075  -1.376  0.00  0.00     0.004 A 
ATOM      3  C4  UNL d   1      -2.325  -3.053  -1.482  0.00  0.00    -0.003 A 
ATOM      4  C5  UNL d   1      -3.443  -3.001  -0.656  0.00  0.00     0.000 A 
ATOM      5  C6  UNL d   1      -3.581  -1.961   0.263  0.00  0.00     0.000 A 
ATOM      6  C7  UNL d   1      -2.603  -0.958   0.370  0.00  0.00    -0.073 A 
ATOM      7  C8  UNL d   1      -2.800   0.137   1.382  0.00  0.00     0.078 C 
ENDROOT
BRANCH   1   8
ATOM      8  C1  UNL d   1      -0.337  -0.012  -0.356  0.00  0.00     0.053 C 
ATOM      9  C   UNL d   1       0.646  -0.124  -1.511  0.00  0.00     0.018 C 
ENDBRANCH   1   8
TORSDOF 1
ENDMDL
