MODEL 1
REMARK minimizedAffinity 1.63503444
REMARK minimizedRMSD -1
REMARK  1 active torsions:
REMARK  status: ('A' for Active; 'I' for Inactive)
REMARK    1  A    between atoms: C1_2  and  C2_3 
ROOT
ATOM      1  C2  UNL d   1      -1.592  -1.455  -1.267  0.00  0.00    -0.076 A 
ATOM      2  C3  UNL d   1      -1.358  -2.771  -1.703  0.00  0.00     0.004 A 
ATOM      3  C4  UNL d   1      -1.904  -3.859  -1.026  0.00  0.00    -0.003 A 
ATOM      4  C5  UNL d   1      -2.694  -3.650   0.099  0.00  0.00     0.000 A 
ATOM      5  C6  UNL d   1      -2.951  -2.351   0.536  0.00  0.00     0.000 A 
ATOM      6  C7  UNL d   1      -2.421  -1.242  -0.145  0.00  0.00    -0.073 A 
ATOM      7  C8  UNL d   1      -2.725   0.137   0.374  0.00  0.00     0.078 C 
ENDROOT
BRANCH   1   8
ATOM      8  C1  UNL d   1      -0.950  -0.315  -2.026  0.00  0.00     0.053 C 
ATOM      9  C   UNL d   1      -1.079  -0.474  -3.533  0.00  0.00     0.018 C 
ENDBRANCH   1   8
TORSDOF 1
ENDMDL
