MODEL 1
REMARK minimizedAffinity -1.8392719
REMARK minimizedRMSD -1
REMARK  1 active torsions:
REMARK  status: ('A' for Active; 'I' for Inactive)
REMARK    1  A    between atoms: C1_2  and  C2_3 
ROOT
ATOM      1  C2  UNL d   1      -1.406  -1.413  -0.782  0.00  0.00    -0.076 A 
ATOM      2  C3  UNL d   1      -1.822  -0.674   0.339  0.00  0.00     0.004 A 
ATOM      3  C4  UNL d   1      -2.995  -0.999   1.017  0.00  0.00    -0.003 A 
ATOM      4  C5  UNL d   1      -3.772  -2.068   0.585  0.00  0.00     0.000 A 
ATOM      5  C6  UNL d   1      -3.366  -2.822  -0.515  0.00  0.00     0.000 A 
ATOM      6  C7  UNL d   1      -2.177  -2.518  -1.200  0.00  0.00    -0.073 A 
ATOM      7  C8  UNL d   1      -1.790  -3.362  -2.384  0.00  0.00     0.078 C 
ENDROOT
BRANCH   1   8
ATOM      8  C1  UNL d   1      -0.138  -0.997  -1.494  0.00  0.00     0.053 C 
ATOM      9  C   UNL d   1       0.984  -0.648  -0.529  0.00  0.00     0.018 C 
ENDBRANCH   1   8
TORSDOF 1
ENDMDL
