MODEL 1
REMARK minimizedAffinity -1.57980931
REMARK minimizedRMSD -1
REMARK  1 active torsions:
REMARK  status: ('A' for Active; 'I' for Inactive)
REMARK    1  A    between atoms: C1_2  and  C2_3 
ROOT
ATOM      1  C2  UNL d   1      -1.345  -1.093  -0.322  0.00  0.00    -0.076 A 
ATOM      2  C3  UNL d   1      -1.872  -0.438   0.804  0.00  0.00     0.004 A 
ATOM      3  C4  UNL d   1      -3.166  -0.703   1.249  0.00  0.00    -0.003 A 
ATOM      4  C5  UNL d   1      -3.955  -1.629   0.574  0.00  0.00     0.000 A 
ATOM      5  C6  UNL d   1      -3.442  -2.301  -0.535  0.00  0.00     0.000 A 
ATOM      6  C7  UNL d   1      -2.134  -2.057  -0.986  0.00  0.00    -0.073 A 
ATOM      7  C8  UNL d   1      -1.634  -2.806  -2.191  0.00  0.00     0.078 C 
ENDROOT
BRANCH   1   8
ATOM      8  C1  UNL d   1       0.055  -0.745  -0.774  0.00  0.00     0.053 C 
ATOM      9  C   UNL d   1       0.163   0.681  -1.290  0.00  0.00     0.018 C 
ENDBRANCH   1   8
TORSDOF 1
ENDMDL
