MODEL 1
REMARK minimizedAffinity 2.70987296
REMARK minimizedRMSD -1
REMARK  1 active torsions:
REMARK  status: ('A' for Active; 'I' for Inactive)
REMARK    1  A    between atoms: C1_2  and  C2_3 
ROOT
ATOM      1  C2  UNL d   1      -0.608  -0.906  -0.922  0.00  0.00    -0.076 A 
ATOM      2  C3  UNL d   1      -0.766  -1.696   0.230  0.00  0.00     0.004 A 
ATOM      3  C4  UNL d   1      -1.625  -2.793   0.236  0.00  0.00    -0.003 A 
ATOM      4  C5  UNL d   1      -2.340  -3.120  -0.911  0.00  0.00     0.000 A 
ATOM      5  C6  UNL d   1      -2.182  -2.358  -2.069  0.00  0.00     0.000 A 
ATOM      6  C7  UNL d   1      -1.308  -1.258  -2.096  0.00  0.00    -0.073 A 
ATOM      7  C8  UNL d   1      -1.181  -0.469  -3.370  0.00  0.00     0.078 C 
ENDROOT
BRANCH   1   8
ATOM      8  C1  UNL d   1       0.317   0.288  -0.861  0.00  0.00     0.053 C 
ATOM      9  C   UNL d   1       1.773  -0.090  -1.085  0.00  0.00     0.018 C 
ENDBRANCH   1   8
TORSDOF 1
ENDMDL
