MODEL 1
REMARK minimizedAffinity 1.09501183
REMARK minimizedRMSD -1
REMARK  1 active torsions:
REMARK  status: ('A' for Active; 'I' for Inactive)
REMARK    1  A    between atoms: C1_2  and  C2_3 
ROOT
ATOM      1  C2  UNL d   1      -1.424  -1.418  -0.574  0.00  0.00    -0.076 A 
ATOM      2  C3  UNL d   1      -1.383  -2.636  -1.275  0.00  0.00     0.004 A 
ATOM      3  C4  UNL d   1      -2.510  -3.451  -1.364  0.00  0.00    -0.003 A 
ATOM      4  C5  UNL d   1      -3.697  -3.062  -0.754  0.00  0.00     0.000 A 
ATOM      5  C6  UNL d   1      -3.761  -1.849  -0.069  0.00  0.00     0.000 A 
ATOM      6  C7  UNL d   1      -2.638  -1.007   0.017  0.00  0.00    -0.073 A 
ATOM      7  C8  UNL d   1      -2.762   0.287   0.773  0.00  0.00     0.078 C 
ENDROOT
BRANCH   1   8
ATOM      8  C1  UNL d   1      -0.163  -0.589  -0.488  0.00  0.00     0.053 C 
ATOM      9  C   UNL d   1      -0.036   0.400  -1.637  0.00  0.00     0.018 C 
ENDBRANCH   1   8
TORSDOF 1
ENDMDL
