MODEL 1
REMARK minimizedAffinity -2.18215919
REMARK minimizedRMSD -1
REMARK  1 active torsions:
REMARK  status: ('A' for Active; 'I' for Inactive)
REMARK    1  A    between atoms: C1_2  and  C2_3 
ROOT
ATOM      1  C2  UNL d   1      -5.104   5.263   3.562  0.00  0.00    -0.076 A 
ATOM      2  C3  UNL d   1      -5.684   5.974   4.627  0.00  0.00     0.004 A 
ATOM      3  C4  UNL d   1      -5.997   5.339   5.828  0.00  0.00    -0.003 A 
ATOM      4  C5  UNL d   1      -5.735   3.982   5.983  0.00  0.00     0.000 A 
ATOM      5  C6  UNL d   1      -5.144   3.265   4.943  0.00  0.00     0.000 A 
ATOM      6  C7  UNL d   1      -4.807   3.894   3.732  0.00  0.00    -0.073 A 
ATOM      7  C8  UNL d   1      -4.177   3.072   2.642  0.00  0.00     0.078 C 
ENDROOT
BRANCH   1   8
ATOM      8  C1  UNL d   1      -4.812   6.000   2.274  0.00  0.00     0.053 C 
ATOM      9  C   UNL d   1      -5.987   5.974   1.309  0.00  0.00     0.018 C 
ENDBRANCH   1   8
TORSDOF 1
ENDMDL
