MODEL 1
REMARK minimizedAffinity -2.84576201
REMARK minimizedRMSD -1
REMARK  1 active torsions:
REMARK  status: ('A' for Active; 'I' for Inactive)
REMARK    1  A    between atoms: C1_2  and  C2_3 
ROOT
ATOM      1  C2  UNL d   1      -5.367   3.991   3.571  0.00  0.00    -0.076 A 
ATOM      2  C3  UNL d   1      -4.927   5.326   3.577  0.00  0.00     0.004 A 
ATOM      3  C4  UNL d   1      -4.695   6.000   4.775  0.00  0.00    -0.003 A 
ATOM      4  C5  UNL d   1      -4.900   5.349   5.987  0.00  0.00     0.000 A 
ATOM      5  C6  UNL d   1      -5.319   4.020   6.000  0.00  0.00     0.000 A 
ATOM      6  C7  UNL d   1      -5.541   3.321   4.801  0.00  0.00    -0.073 A 
ATOM      7  C8  UNL d   1      -5.999   1.890   4.874  0.00  0.00     0.078 C 
ENDROOT
BRANCH   1   8
ATOM      8  C1  UNL d   1      -5.627   3.320   2.242  0.00  0.00     0.053 C 
ATOM      9  C   UNL d   1      -5.263   4.206   1.060  0.00  0.00     0.018 C 
ENDBRANCH   1   8
TORSDOF 1
ENDMDL
