MODEL 1
REMARK minimizedAffinity -2.4156251
REMARK minimizedRMSD -1
REMARK  1 active torsions:
REMARK  status: ('A' for Active; 'I' for Inactive)
REMARK    1  A    between atoms: C1_2  and  C2_3 
ROOT
ATOM      1  C2  UNL d   1      -5.213   3.976   4.456  0.00  0.00    -0.076 A 
ATOM      2  C3  UNL d   1      -4.966   3.382   3.206  0.00  0.00     0.004 A 
ATOM      3  C4  UNL d   1      -5.241   4.063   2.022  0.00  0.00    -0.003 A 
ATOM      4  C5  UNL d   1      -5.765   5.350   2.067  0.00  0.00     0.000 A 
ATOM      5  C6  UNL d   1      -6.000   5.962   3.298  0.00  0.00     0.000 A 
ATOM      6  C7  UNL d   1      -5.714   5.295   4.502  0.00  0.00    -0.073 A 
ATOM      7  C8  UNL d   1      -5.992   6.000   5.802  0.00  0.00     0.078 C 
ENDROOT
BRANCH   1   8
ATOM      8  C1  UNL d   1      -4.921   3.179   5.707  0.00  0.00     0.053 C 
ATOM      9  C   UNL d   1      -5.985   2.130   5.991  0.00  0.00     0.018 C 
ENDBRANCH   1   8
TORSDOF 1
ENDMDL
