MODEL 1
REMARK minimizedAffinity -3.64619517
REMARK minimizedRMSD -1
REMARK  1 active torsions:
REMARK  status: ('A' for Active; 'I' for Inactive)
REMARK    1  A    between atoms: C1_2  and  C2_3 
ROOT
ATOM      1  C2  UNL d   1      -5.691   3.834   4.267  0.00  0.00    -0.076 A 
ATOM      2  C3  UNL d   1      -5.458   3.224   3.022  0.00  0.00     0.004 A 
ATOM      3  C4  UNL d   1      -5.334   3.986   1.862  0.00  0.00    -0.003 A 
ATOM      4  C5  UNL d   1      -5.440   5.371   1.928  0.00  0.00     0.000 A 
ATOM      5  C6  UNL d   1      -5.653   5.994   3.157  0.00  0.00     0.000 A 
ATOM      6  C7  UNL d   1      -5.764   5.241   4.339  0.00  0.00    -0.073 A 
ATOM      7  C8  UNL d   1      -6.000   5.965   5.636  0.00  0.00     0.078 C 
ENDROOT
BRANCH   1   8
ATOM      8  C1  UNL d   1      -5.844   2.954   5.487  0.00  0.00     0.053 C 
ATOM      9  C   UNL d   1      -4.511   2.431   6.000  0.00  0.00     0.018 C 
ENDBRANCH   1   8
TORSDOF 1
ENDMDL
