MODEL 1
REMARK minimizedAffinity -2.95455384
REMARK minimizedRMSD -1
REMARK  1 active torsions:
REMARK  status: ('A' for Active; 'I' for Inactive)
REMARK    1  A    between atoms: C1_2  and  C2_3 
ROOT
ATOM      1  C2  UNL d   1      -5.374   3.881   4.062  0.00  0.00    -0.076 A 
ATOM      2  C3  UNL d   1      -5.008   3.268   2.850  0.00  0.00     0.004 A 
ATOM      3  C4  UNL d   1      -4.916   4.007   1.672  0.00  0.00    -0.003 A 
ATOM      4  C5  UNL d   1      -5.187   5.371   1.686  0.00  0.00     0.000 A 
ATOM      5  C6  UNL d   1      -5.534   5.998   2.882  0.00  0.00     0.000 A 
ATOM      6  C7  UNL d   1      -5.615   5.271   4.082  0.00  0.00    -0.073 A 
ATOM      7  C8  UNL d   1      -6.000   5.998   5.342  0.00  0.00     0.078 C 
ENDROOT
BRANCH   1   8
ATOM      8  C1  UNL d   1      -5.484   3.024   5.302  0.00  0.00     0.053 C 
ATOM      9  C   UNL d   1      -4.125   2.647   5.873  0.00  0.00     0.018 C 
ENDBRANCH   1   8
TORSDOF 1
ENDMDL
