MODEL 1
REMARK minimizedAffinity -2.97449708
REMARK minimizedRMSD -1
REMARK  1 active torsions:
REMARK  status: ('A' for Active; 'I' for Inactive)
REMARK    1  A    between atoms: C1_2  and  C2_3 
ROOT
ATOM      1  C2  UNL d   1      -5.250   5.288   3.479  0.00  0.00    -0.076 A 
ATOM      2  C3  UNL d   1      -5.014   5.978   4.681  0.00  0.00     0.004 A 
ATOM      3  C4  UNL d   1      -5.274   5.382   5.913  0.00  0.00    -0.003 A 
ATOM      4  C5  UNL d   1      -5.775   4.085   5.964  0.00  0.00     0.000 A 
ATOM      5  C6  UNL d   1      -5.998   3.380   4.782  0.00  0.00     0.000 A 
ATOM      6  C7  UNL d   1      -5.725   3.961   3.531  0.00  0.00    -0.073 A 
ATOM      7  C8  UNL d   1      -5.991   3.156   2.289  0.00  0.00     0.078 C 
ENDROOT
BRANCH   1   8
ATOM      8  C1  UNL d   1      -4.974   5.996   2.171  0.00  0.00     0.053 C 
ATOM      9  C   UNL d   1      -5.995   5.655   1.097  0.00  0.00     0.018 C 
ENDBRANCH   1   8
TORSDOF 1
ENDMDL
