MODEL 1
REMARK minimizedAffinity 7.39625835
REMARK minimizedRMSD -1
REMARK  0 active torsions:
REMARK  status: ('A' for Active; 'I' for Inactive)
ROOT
ATOM      1  C1  BNZ d   1       5.481   0.144  -1.831  0.00  0.00     0.000 A 
ATOM      2  C2  BNZ d   1       5.771  -0.164  -3.133  0.00  0.00     0.000 A 
ATOM      3  C3  BNZ d   1       5.404   0.674  -4.149  0.00  0.00     0.000 A 
ATOM      4  C4  BNZ d   1       4.712   1.796  -3.866  0.00  0.00     0.000 A 
ATOM      5  C5  BNZ d   1       4.404   2.116  -2.558  0.00  0.00     0.000 A 
ATOM      6  C6  BNZ d   1       4.809   1.290  -1.535  0.00  0.00     0.000 A 
ENDROOT
TORSDOF 0
ENDMDL
