MODEL 1
REMARK minimizedAffinity -0.0472428463
REMARK minimizedRMSD -1
REMARK  0 active torsions:
REMARK  status: ('A' for Active; 'I' for Inactive)
ROOT
ATOM      1  C1  BNZ d   1       4.040   1.868  -5.574  0.00  0.00     0.000 A 
ATOM      2  C2  BNZ d   1       3.366   3.029  -5.299  0.00  0.00     0.000 A 
ATOM      3  C3  BNZ d   1       3.991   4.241  -5.396  0.00  0.00     0.000 A 
ATOM      4  C4  BNZ d   1       5.297   4.288  -5.729  0.00  0.00     0.000 A 
ATOM      5  C5  BNZ d   1       5.992   3.127  -6.000  0.00  0.00     0.000 A 
ATOM      6  C6  BNZ d   1       5.350   1.911  -5.938  0.00  0.00     0.000 A 
ENDROOT
TORSDOF 0
ENDMDL
