MODEL 1
REMARK minimizedAffinity -3.69468355
REMARK minimizedRMSD -1
REMARK  0 active torsions:
REMARK  status: ('A' for Active; 'I' for Inactive)
ROOT
ATOM      1  C1  BNZ d   1       5.659   2.246  -3.065  0.00  0.00     0.000 A 
ATOM      2  C2  BNZ d   1       6.000   0.934  -3.261  0.00  0.00     0.000 A 
ATOM      3  C3  BNZ d   1       5.845   0.346  -4.485  0.00  0.00     0.000 A 
ATOM      4  C4  BNZ d   1       5.312   1.057  -5.500  0.00  0.00     0.000 A 
ATOM      5  C5  BNZ d   1       4.955   2.378  -5.316  0.00  0.00     0.000 A 
ATOM      6  C6  BNZ d   1       5.149   2.978  -4.093  0.00  0.00     0.000 A 
ENDROOT
TORSDOF 0
ENDMDL
