MODEL 1
REMARK minimizedAffinity -2.71554041
REMARK minimizedRMSD -1
REMARK  0 active torsions:
REMARK  status: ('A' for Active; 'I' for Inactive)
ROOT
ATOM      1  C1  BNZ d   1       3.786   2.190  -6.000  0.00  0.00     0.000 A 
ATOM      2  C2  BNZ d   1       3.797   3.544  -5.796  0.00  0.00     0.000 A 
ATOM      3  C3  BNZ d   1       4.911   4.170  -5.312  0.00  0.00     0.000 A 
ATOM      4  C4  BNZ d   1       5.998   3.437  -4.995  0.00  0.00     0.000 A 
ATOM      5  C5  BNZ d   1       5.999   2.070  -5.186  0.00  0.00     0.000 A 
ATOM      6  C6  BNZ d   1       4.889   1.448  -5.710  0.00  0.00     0.000 A 
ENDROOT
TORSDOF 0
ENDMDL
