MODEL 1
REMARK minimizedAffinity 4.27857256
REMARK minimizedRMSD -1
REMARK  0 active torsions:
REMARK  status: ('A' for Active; 'I' for Inactive)
ROOT
ATOM      1  C1  BNZ d   1       3.935  -5.173  -5.103  0.00  0.00     0.000 A 
ATOM      2  C2  BNZ d   1       3.228  -4.452  -4.177  0.00  0.00     0.000 A 
ATOM      3  C3  BNZ d   1       1.864  -4.519  -4.130  0.00  0.00     0.000 A 
ATOM      4  C4  BNZ d   1       1.206  -5.274  -5.034  0.00  0.00     0.000 A 
ATOM      5  C5  BNZ d   1       1.903  -5.998  -5.980  0.00  0.00     0.000 A 
ATOM      6  C6  BNZ d   1       3.278  -5.959  -5.999  0.00  0.00     0.000 A 
ENDROOT
TORSDOF 0
ENDMDL
