MODEL 1
REMARK minimizedAffinity 3.26219153
REMARK minimizedRMSD -1
REMARK  0 active torsions:
REMARK  status: ('A' for Active; 'I' for Inactive)
ROOT
ATOM      1  C1  BNZ d   1       0.131  -2.949  -1.632  0.00  0.00     0.000 A 
ATOM      2  C2  BNZ d   1      -0.841  -3.065  -0.674  0.00  0.00     0.000 A 
ATOM      3  C3  BNZ d   1      -1.878  -3.941  -0.832  0.00  0.00     0.000 A 
ATOM      4  C4  BNZ d   1      -1.965  -4.669  -1.964  0.00  0.00     0.000 A 
ATOM      5  C5  BNZ d   1      -0.998  -4.557  -2.943  0.00  0.00     0.000 A 
ATOM      6  C6  BNZ d   1       0.066  -3.702  -2.764  0.00  0.00     0.000 A 
ENDROOT
TORSDOF 0
ENDMDL
