MODEL 1
REMARK minimizedAffinity 5.09452915
REMARK minimizedRMSD -1
REMARK  0 active torsions:
REMARK  status: ('A' for Active; 'I' for Inactive)
ROOT
ATOM      1  C1  BNZ d   1      -0.493  -2.566  -1.392  0.00  0.00     0.000 A 
ATOM      2  C2  BNZ d   1       0.182  -1.515  -0.831  0.00  0.00     0.000 A 
ATOM      3  C3  BNZ d   1      -0.052  -1.143   0.463  0.00  0.00     0.000 A 
ATOM      4  C4  BNZ d   1      -0.987  -1.797   1.182  0.00  0.00     0.000 A 
ATOM      5  C5  BNZ d   1      -1.682  -2.853   0.628  0.00  0.00     0.000 A 
ATOM      6  C6  BNZ d   1      -1.416  -3.250  -0.663  0.00  0.00     0.000 A 
ENDROOT
TORSDOF 0
ENDMDL
