MODEL 1
REMARK minimizedAffinity 0.3816396
REMARK minimizedRMSD -1
REMARK  0 active torsions:
REMARK  status: ('A' for Active; 'I' for Inactive)
ROOT
ATOM      1  C1  BNZ d   1       3.623  -5.335  -4.878  0.00  0.00     0.000 A 
ATOM      2  C2  BNZ d   1       2.883  -5.056  -3.760  0.00  0.00     0.000 A 
ATOM      3  C3  BNZ d   1       1.533  -5.268  -3.743  0.00  0.00     0.000 A 
ATOM      4  C4  BNZ d   1       0.919  -5.721  -4.855  0.00  0.00     0.000 A 
ATOM      5  C5  BNZ d   1       1.650  -5.999  -5.994  0.00  0.00     0.000 A 
ATOM      6  C6  BNZ d   1       3.014  -5.821  -5.995  0.00  0.00     0.000 A 
ENDROOT
TORSDOF 0
ENDMDL
