MODEL 1
REMARK minimizedAffinity 1.12148678
REMARK minimizedRMSD -1
REMARK  0 active torsions:
REMARK  status: ('A' for Active; 'I' for Inactive)
ROOT
ATOM      1  C1  BNZ d   1      -1.149   3.316   0.874  0.00  0.00     0.000 A 
ATOM      2  C2  BNZ d   1      -1.995   3.099   1.929  0.00  0.00     0.000 A 
ATOM      3  C3  BNZ d   1      -1.707   2.155   2.875  0.00  0.00     0.000 A 
ATOM      4  C4  BNZ d   1      -0.596   1.403   2.744  0.00  0.00     0.000 A 
ATOM      5  C5  BNZ d   1       0.263   1.603   1.681  0.00  0.00     0.000 A 
ATOM      6  C6  BNZ d   1      -0.010   2.581   0.752  0.00  0.00     0.000 A 
ENDROOT
TORSDOF 0
ENDMDL
