MODEL 1
REMARK minimizedAffinity 4.65809965
REMARK minimizedRMSD -1
REMARK  0 active torsions:
REMARK  status: ('A' for Active; 'I' for Inactive)
ROOT
ATOM      1  C1  BNZ d   1      -0.613  -2.633  -2.079  0.00  0.00     0.000 A 
ATOM      2  C2  BNZ d   1      -0.422  -1.551  -1.262  0.00  0.00     0.000 A 
ATOM      3  C3  BNZ d   1      -0.663  -1.638   0.081  0.00  0.00     0.000 A 
ATOM      4  C4  BNZ d   1      -1.133  -2.791   0.597  0.00  0.00     0.000 A 
ATOM      5  C5  BNZ d   1      -1.339  -3.888  -0.215  0.00  0.00     0.000 A 
ATOM      6  C6  BNZ d   1      -1.058  -3.809  -1.560  0.00  0.00     0.000 A 
ENDROOT
TORSDOF 0
ENDMDL
