MODEL 1
REMARK minimizedAffinity -1.03415358
REMARK minimizedRMSD -1
REMARK  0 active torsions:
REMARK  status: ('A' for Active; 'I' for Inactive)
ROOT
ATOM      1  C1  BNZ d   1      -5.216   3.384  -4.020  0.00  0.00     0.000 A 
ATOM      2  C2  BNZ d   1      -6.000   4.140  -4.851  0.00  0.00     0.000 A 
ATOM      3  C3  BNZ d   1      -5.443   4.883  -5.854  0.00  0.00     0.000 A 
ATOM      4  C4  BNZ d   1      -4.102   4.900  -6.000  0.00  0.00     0.000 A 
ATOM      5  C5  BNZ d   1      -3.298   4.151  -5.165  0.00  0.00     0.000 A 
ATOM      6  C6  BNZ d   1      -3.865   3.373  -4.181  0.00  0.00     0.000 A 
ENDROOT
TORSDOF 0
ENDMDL
