MODEL 1
REMARK minimizedAffinity 6.29302692
REMARK minimizedRMSD -1
REMARK  0 active torsions:
REMARK  status: ('A' for Active; 'I' for Inactive)
ROOT
ATOM      1  C1  BNZ d   1      -0.896  -2.444  -0.185  0.00  0.00     0.000 A 
ATOM      2  C2  BNZ d   1      -1.201  -3.598  -0.855  0.00  0.00     0.000 A 
ATOM      3  C3  BNZ d   1      -1.042  -3.683  -2.210  0.00  0.00     0.000 A 
ATOM      4  C4  BNZ d   1      -0.617  -2.604  -2.897  0.00  0.00     0.000 A 
ATOM      5  C5  BNZ d   1      -0.313  -1.430  -2.237  0.00  0.00     0.000 A 
ATOM      6  C6  BNZ d   1      -0.438  -1.360  -0.868  0.00  0.00     0.000 A 
ENDROOT
TORSDOF 0
ENDMDL
