MODEL 1
REMARK minimizedAffinity -2.3602829
REMARK minimizedRMSD -1
REMARK  0 active torsions:
REMARK  status: ('A' for Active; 'I' for Inactive)
ROOT
ATOM      1  C1  BNZ d   1       3.689   1.885  -5.969  0.00  0.00     0.000 A 
ATOM      2  C2  BNZ d   1       3.666   3.254  -5.999  0.00  0.00     0.000 A 
ATOM      3  C3  BNZ d   1       4.808   3.978  -5.798  0.00  0.00     0.000 A 
ATOM      4  C4  BNZ d   1       5.961   3.334  -5.526  0.00  0.00     0.000 A 
ATOM      5  C5  BNZ d   1       5.999   1.955  -5.482  0.00  0.00     0.000 A 
ATOM      6  C6  BNZ d   1       4.855   1.228  -5.724  0.00  0.00     0.000 A 
ENDROOT
TORSDOF 0
ENDMDL
