MODEL 1
REMARK minimizedAffinity -3.02275991
REMARK minimizedRMSD -1
REMARK  0 active torsions:
REMARK  status: ('A' for Active; 'I' for Inactive)
ROOT
ATOM      1  C1  BNZ d   1       4.857   4.436  -5.800  0.00  0.00     0.000 A 
ATOM      2  C2  BNZ d   1       5.999   3.701  -5.627  0.00  0.00     0.000 A 
ATOM      3  C3  BNZ d   1       5.965   2.335  -5.663  0.00  0.00     0.000 A 
ATOM      4  C4  BNZ d   1       4.784   1.705  -5.832  0.00  0.00     0.000 A 
ATOM      5  C5  BNZ d   1       3.622   2.432  -5.998  0.00  0.00     0.000 A 
ATOM      6  C6  BNZ d   1       3.666   3.807  -6.000  0.00  0.00     0.000 A 
ENDROOT
TORSDOF 0
ENDMDL
