MODEL 1
REMARK minimizedAffinity -3.84384203
REMARK minimizedRMSD -1
REMARK  3 active torsions:
REMARK  status: ('A' for Active; 'I' for Inactive)
REMARK    1  A    between atoms: C3'_2  and  C2'_3 
REMARK    2  A    between atoms: C2'_3  and  C1'_4 
REMARK    3  A    between atoms: C1'_4  and  C1_5 
ROOT
ATOM      1  C1  N4B d   1      -0.220   0.242   0.182  0.00  0.00    -0.075 A 
ATOM      2  C2  N4B d   1       1.141  -0.135   0.188  0.00  0.00     0.002 A 
ATOM      3  C3  N4B d   1       1.773  -0.442  -0.992  0.00  0.00     0.002 A 
ATOM      4  C4  N4B d   1       1.063  -0.399  -2.182  0.00  0.00    -0.004 A 
ATOM      5  C5  N4B d   1      -0.245  -0.009  -2.182  0.00  0.00     0.002 A 
ATOM      6  C6  N4B d   1      -0.892   0.306  -1.004  0.00  0.00     0.002 A 
ENDROOT
BRANCH   1   7
ATOM      7  C1' N4B d   1      -0.976   0.504   1.456  0.00  0.00     0.057 C 
BRANCH   7   8
ATOM      8  C2' N4B d   1      -1.494  -0.819   2.012  0.00  0.00     0.009 C 
BRANCH   8   9
ATOM      9  C3' N4B d   1      -0.878  -1.148   3.362  0.00  0.00     0.004 C 
ATOM     10  C4' N4B d   1       0.420  -1.890   3.243  0.00  0.00     0.003 C 
ENDBRANCH   8   9
ENDBRANCH   7   8
ENDBRANCH   1   7
TORSDOF 3
ENDMDL
