MODEL 1
REMARK minimizedAffinity -4.29532528
REMARK minimizedRMSD -1
REMARK  3 active torsions:
REMARK  status: ('A' for Active; 'I' for Inactive)
REMARK    1  A    between atoms: C3'_2  and  C2'_3 
REMARK    2  A    between atoms: C2'_3  and  C1'_4 
REMARK    3  A    between atoms: C1'_4  and  C1_5 
ROOT
ATOM      1  C1  N4B d   1      -0.136  -0.187  -0.101  0.00  0.00    -0.075 A 
ATOM      2  C2  N4B d   1       0.727  -0.618  -1.132  0.00  0.00     0.002 A 
ATOM      3  C3  N4B d   1       1.719  -1.528  -0.862  0.00  0.00     0.002 A 
ATOM      4  C4  N4B d   1       1.879  -2.005   0.431  0.00  0.00    -0.004 A 
ATOM      5  C5  N4B d   1       1.025  -1.602   1.416  0.00  0.00     0.002 A 
ATOM      6  C6  N4B d   1       0.021  -0.691   1.158  0.00  0.00     0.002 A 
ENDROOT
BRANCH   1   7
ATOM      7  C1' N4B d   1      -1.180   0.872  -0.330  0.00  0.00     0.057 C 
BRANCH   7   8
ATOM      8  C2' N4B d   1      -0.878   1.599  -1.637  0.00  0.00     0.009 C 
BRANCH   8   9
ATOM      9  C3' N4B d   1      -1.978   1.399  -2.665  0.00  0.00     0.004 C 
ATOM     10  C4' N4B d   1      -3.172   0.683  -2.107  0.00  0.00     0.003 C 
ENDBRANCH   8   9
ENDBRANCH   7   8
ENDBRANCH   1   7
TORSDOF 3
ENDMDL
