MODEL 1
REMARK minimizedAffinity -0.642522097
REMARK minimizedRMSD -1
REMARK  3 active torsions:
REMARK  status: ('A' for Active; 'I' for Inactive)
REMARK    1  A    between atoms: C3'_2  and  C2'_3 
REMARK    2  A    between atoms: C2'_3  and  C1'_4 
REMARK    3  A    between atoms: C1'_4  and  C1_5 
ROOT
ATOM      1  C1  N4B d   1      -0.182  -0.182   0.176  0.00  0.00    -0.075 A 
ATOM      2  C2  N4B d   1      -0.629  -0.803   1.363  0.00  0.00     0.002 A 
ATOM      3  C3  N4B d   1       0.207  -1.645   2.055  0.00  0.00     0.002 A 
ATOM      4  C4  N4B d   1       1.483  -1.893   1.572  0.00  0.00    -0.004 A 
ATOM      5  C5  N4B d   1       1.916  -1.270   0.438  0.00  0.00     0.002 A 
ATOM      6  C6  N4B d   1       1.088  -0.419  -0.265  0.00  0.00     0.002 A 
ENDROOT
BRANCH   1   7
ATOM      7  C1' N4B d   1      -1.089   0.678  -0.661  0.00  0.00     0.057 C 
BRANCH   7   8
ATOM      8  C2' N4B d   1      -0.920   0.302  -2.130  0.00  0.00     0.009 C 
BRANCH   8   9
ATOM      9  C3' N4B d   1      -1.627   1.281  -3.051  0.00  0.00     0.004 C 
ATOM     10  C4' N4B d   1      -3.118   1.121  -3.034  0.00  0.00     0.003 C 
ENDBRANCH   8   9
ENDBRANCH   7   8
ENDBRANCH   1   7
TORSDOF 3
ENDMDL
