MODEL 1
REMARK minimizedAffinity -3.06213355
REMARK minimizedRMSD -1
REMARK  3 active torsions:
REMARK  status: ('A' for Active; 'I' for Inactive)
REMARK    1  A    between atoms: C3'_2  and  C2'_3 
REMARK    2  A    between atoms: C2'_3  and  C1'_4 
REMARK    3  A    between atoms: C1'_4  and  C1_5 
ROOT
ATOM      1  C1  N4B d   1       0.057   0.300   0.021  0.00  0.00    -0.075 A 
ATOM      2  C2  N4B d   1      -0.277  -0.356   1.226  0.00  0.00     0.002 A 
ATOM      3  C3  N4B d   1       0.634  -1.186   1.831  0.00  0.00     0.002 A 
ATOM      4  C4  N4B d   1       1.873  -1.391   1.242  0.00  0.00    -0.004 A 
ATOM      5  C5  N4B d   1       2.197  -0.734   0.091  0.00  0.00     0.002 A 
ATOM      6  C6  N4B d   1       1.293   0.107  -0.526  0.00  0.00     0.002 A 
ENDROOT
BRANCH   1   7
ATOM      7  C1' N4B d   1      -0.937   1.150  -0.723  0.00  0.00     0.057 C 
BRANCH   7   8
ATOM      8  C2' N4B d   1      -1.504   0.350  -1.892  0.00  0.00     0.009 C 
BRANCH   8   9
ATOM      9  C3' N4B d   1      -2.239   1.237  -2.882  0.00  0.00     0.004 C 
ATOM     10  C4' N4B d   1      -1.818   2.673  -2.801  0.00  0.00     0.003 C 
ENDBRANCH   8   9
ENDBRANCH   7   8
ENDBRANCH   1   7
TORSDOF 3
ENDMDL
