MODEL 1
REMARK minimizedAffinity -2.83396816
REMARK minimizedRMSD -1
REMARK  3 active torsions:
REMARK  status: ('A' for Active; 'I' for Inactive)
REMARK    1  A    between atoms: C3'_2  and  C2'_3 
REMARK    2  A    between atoms: C2'_3  and  C1'_4 
REMARK    3  A    between atoms: C1'_4  and  C1_5 
ROOT
ATOM      1  C1  N4B d   1       0.385  -0.702  -0.036  0.00  0.00    -0.075 A 
ATOM      2  C2  N4B d   1      -0.466  -0.785   1.088  0.00  0.00     0.002 A 
ATOM      3  C3  N4B d   1      -0.056  -1.460   2.212  0.00  0.00     0.002 A 
ATOM      4  C4  N4B d   1       1.189  -2.072   2.228  0.00  0.00    -0.004 A 
ATOM      5  C5  N4B d   1       2.015  -1.965   1.148  0.00  0.00     0.002 A 
ATOM      6  C6  N4B d   1       1.617  -1.287   0.013  0.00  0.00     0.002 A 
ENDROOT
BRANCH   1   7
ATOM      7  C1' N4B d   1      -0.054  -0.048  -1.318  0.00  0.00     0.057 C 
BRANCH   7   8
ATOM      8  C2' N4B d   1      -1.131   0.987  -1.009  0.00  0.00     0.009 C 
BRANCH   8   9
ATOM      9  C3' N4B d   1      -2.328   0.855  -1.934  0.00  0.00     0.004 C 
ATOM     10  C4' N4B d   1      -2.177   1.651  -3.196  0.00  0.00     0.003 C 
ENDBRANCH   8   9
ENDBRANCH   7   8
ENDBRANCH   1   7
TORSDOF 3
ENDMDL
