MODEL 1
REMARK minimizedAffinity 6.89309597
REMARK minimizedRMSD -1
REMARK  3 active torsions:
REMARK  status: ('A' for Active; 'I' for Inactive)
REMARK    1  A    between atoms: C3'_2  and  C2'_3 
REMARK    2  A    between atoms: C2'_3  and  C1'_4 
REMARK    3  A    between atoms: C1'_4  and  C1_5 
ROOT
ATOM      1  C1  N4B d   1      -0.587  -0.712   0.026  0.00  0.00    -0.075 A 
ATOM      2  C2  N4B d   1       0.042  -0.717  -1.238  0.00  0.00     0.002 A 
ATOM      3  C3  N4B d   1       1.205  -0.011  -1.428  0.00  0.00     0.002 A 
ATOM      4  C4  N4B d   1       1.744   0.719  -0.380  0.00  0.00    -0.004 A 
ATOM      5  C5  N4B d   1       1.144   0.697   0.845  0.00  0.00     0.002 A 
ATOM      6  C6  N4B d   1      -0.023  -0.011   1.052  0.00  0.00     0.002 A 
ENDROOT
BRANCH   1   7
ATOM      7  C1' N4B d   1      -1.905  -1.399   0.260  0.00  0.00     0.057 C 
BRANCH   7   8
ATOM      8  C2' N4B d   1      -3.038  -0.436  -0.081  0.00  0.00     0.009 C 
BRANCH   8   9
ATOM      9  C3' N4B d   1      -4.373  -1.150  -0.205  0.00  0.00     0.004 C 
ATOM     10  C4' N4B d   1      -5.123  -0.769  -1.447  0.00  0.00     0.003 C 
ENDBRANCH   8   9
ENDBRANCH   7   8
ENDBRANCH   1   7
TORSDOF 3
ENDMDL
