MODEL 1
REMARK minimizedAffinity -2.55564022
REMARK minimizedRMSD -1
REMARK  3 active torsions:
REMARK  status: ('A' for Active; 'I' for Inactive)
REMARK    1  A    between atoms: C3'_2  and  C2'_3 
REMARK    2  A    between atoms: C2'_3  and  C1'_4 
REMARK    3  A    between atoms: C1'_4  and  C1_5 
ROOT
ATOM      1  C1  N4B d   1      -0.269   0.618  -1.049  0.00  0.00    -0.075 A 
ATOM      2  C2  N4B d   1      -0.944   1.855  -0.953  0.00  0.00     0.002 A 
ATOM      3  C3  N4B d   1      -1.647   2.339  -2.029  0.00  0.00     0.002 A 
ATOM      4  C4  N4B d   1      -1.673   1.617  -3.212  0.00  0.00    -0.004 A 
ATOM      5  C5  N4B d   1      -1.040   0.411  -3.289  0.00  0.00     0.002 A 
ATOM      6  C6  N4B d   1      -0.333  -0.090  -2.214  0.00  0.00     0.002 A 
ENDROOT
BRANCH   1   7
ATOM      7  C1' N4B d   1       0.583   0.089   0.072  0.00  0.00     0.057 C 
BRANCH   7   8
ATOM      8  C2' N4B d   1       2.017  -0.074  -0.423  0.00  0.00     0.009 C 
BRANCH   8   9
ATOM      9  C3' N4B d   1       2.741  -1.200   0.295  0.00  0.00     0.004 C 
ATOM     10  C4' N4B d   1       2.295  -1.364   1.717  0.00  0.00     0.003 C 
ENDBRANCH   8   9
ENDBRANCH   7   8
ENDBRANCH   1   7
TORSDOF 3
ENDMDL
