MODEL 1
REMARK minimizedAffinity -1.62056053
REMARK minimizedRMSD -1
REMARK  3 active torsions:
REMARK  status: ('A' for Active; 'I' for Inactive)
REMARK    1  A    between atoms: C3'_2  and  C2'_3 
REMARK    2  A    between atoms: C2'_3  and  C1'_4 
REMARK    3  A    between atoms: C1'_4  and  C1_5 
ROOT
ATOM      1  C1  N4B d   1      -0.398   0.393  -1.212  0.00  0.00    -0.075 A 
ATOM      2  C2  N4B d   1      -0.992   0.831  -0.008  0.00  0.00     0.002 A 
ATOM      3  C3  N4B d   1      -1.950   1.815  -0.034  0.00  0.00     0.002 A 
ATOM      4  C4  N4B d   1      -2.314   2.387  -1.244  0.00  0.00    -0.004 A 
ATOM      5  C5  N4B d   1      -1.753   1.940  -2.405  0.00  0.00     0.002 A 
ATOM      6  C6  N4B d   1      -0.792   0.949  -2.394  0.00  0.00     0.002 A 
ENDROOT
BRANCH   1   7
ATOM      7  C1' N4B d   1       0.714  -0.620  -1.225  0.00  0.00     0.057 C 
BRANCH   7   8
ATOM      8  C2' N4B d   1       1.922  -0.047  -0.489  0.00  0.00     0.009 C 
BRANCH   8   9
ATOM      9  C3' N4B d   1       2.510  -1.042   0.497  0.00  0.00     0.004 C 
ATOM     10  C4' N4B d   1       1.477  -1.637   1.408  0.00  0.00     0.003 C 
ENDBRANCH   8   9
ENDBRANCH   7   8
ENDBRANCH   1   7
TORSDOF 3
ENDMDL
