MODEL 1
REMARK minimizedAffinity 1.39852798
REMARK minimizedRMSD -1
REMARK  0 active torsions:
REMARK  status: ('A' for Active; 'I' for Inactive)
ROOT
ATOM      1  C1  DEN d   1       1.614  -1.288  -0.032  0.00  0.00     0.130 A 
ATOM      2  C2  DEN d   1       0.884  -0.048  -0.283  0.00  0.00    -0.031 A 
ATOM      3  C3  DEN d   1      -0.221   0.036   0.693  0.00  0.00     0.027 A 
ATOM      4  C4  DEN d   1      -0.867  -1.622   2.560  0.00  0.00     0.027 A 
ATOM      5  C5  DEN d   1      -0.550  -2.824   3.153  0.00  0.00    -0.003 A 
ATOM      6  C6  DEN d   1       0.480  -3.609   2.708  0.00  0.00     0.001 A 
ATOM      7  C7  DEN d   1       1.260  -3.178   1.667  0.00  0.00     0.017 A 
ATOM      8  C8  DEN d   1       0.942  -1.971   1.059  0.00  0.00    -0.094 A 
ATOM      9  C9  DEN d   1      -0.096  -1.186   1.532  0.00  0.00    -0.072 A 
ENDROOT
TORSDOF 0
ENDMDL
