MODEL 1
REMARK minimizedAffinity 2.20184875
REMARK minimizedRMSD -1
REMARK  0 active torsions:
REMARK  status: ('A' for Active; 'I' for Inactive)
ROOT
ATOM      1  C1  DEN d   1       0.670  -0.895  -0.596  0.00  0.00     0.130 A 
ATOM      2  C2  DEN d   1      -0.361   0.130  -0.460  0.00  0.00    -0.031 A 
ATOM      3  C3  DEN d   1      -1.030  -0.065   0.842  0.00  0.00     0.027 A 
ATOM      4  C4  DEN d   1      -0.569  -1.842   2.653  0.00  0.00     0.027 A 
ATOM      5  C5  DEN d   1       0.203  -2.934   2.984  0.00  0.00    -0.003 A 
ATOM      6  C6  DEN d   1       1.154  -3.439   2.137  0.00  0.00     0.001 A 
ATOM      7  C7  DEN d   1       1.389  -2.824   0.936  0.00  0.00     0.017 A 
ATOM      8  C8  DEN d   1       0.609  -1.728   0.592  0.00  0.00    -0.094 A 
ATOM      9  C9  DEN d   1      -0.339  -1.225   1.467  0.00  0.00    -0.072 A 
ENDROOT
TORSDOF 0
ENDMDL
