MODEL 1
REMARK minimizedAffinity 10.6624022
REMARK minimizedRMSD -1
REMARK  0 active torsions:
REMARK  status: ('A' for Active; 'I' for Inactive)
ROOT
ATOM      1  C1  DEN d   1       1.970  -2.406   0.982  0.00  0.00     0.130 A 
ATOM      2  C2  DEN d   1       2.015  -1.061   0.414  0.00  0.00    -0.031 A 
ATOM      3  C3  DEN d   1       0.858  -0.306   0.937  0.00  0.00     0.027 A 
ATOM      4  C4  DEN d   1      -0.985  -1.083   2.565  0.00  0.00     0.027 A 
ATOM      5  C5  DEN d   1      -1.453  -2.145   3.306  0.00  0.00    -0.003 A 
ATOM      6  C6  DEN d   1      -0.837  -3.369   3.299  0.00  0.00     0.001 A 
ATOM      7  C7  DEN d   1       0.309  -3.547   2.569  0.00  0.00     0.017 A 
ATOM      8  C8  DEN d   1       0.782  -2.483   1.813  0.00  0.00    -0.094 A 
ATOM      9  C9  DEN d   1       0.152  -1.251   1.843  0.00  0.00    -0.072 A 
ENDROOT
TORSDOF 0
ENDMDL
