MODEL 1
REMARK minimizedAffinity 0.0260707252
REMARK minimizedRMSD -1
REMARK  0 active torsions:
REMARK  status: ('A' for Active; 'I' for Inactive)
ROOT
ATOM      1  C1  DEN d   1      -1.552  -0.241   1.838  0.00  0.00     0.130 A 
ATOM      2  C2  DEN d   1      -0.671   0.274   0.794  0.00  0.00    -0.031 A 
ATOM      3  C3  DEN d   1       0.414  -0.707   0.588  0.00  0.00     0.027 A 
ATOM      4  C4  DEN d   1       0.809  -2.963   1.775  0.00  0.00     0.027 A 
ATOM      5  C5  DEN d   1       0.333  -3.821   2.742  0.00  0.00    -0.003 A 
ATOM      6  C6  DEN d   1      -0.776  -3.532   3.493  0.00  0.00     0.001 A 
ATOM      7  C7  DEN d   1      -1.473  -2.377   3.258  0.00  0.00     0.017 A 
ATOM      8  C8  DEN d   1      -0.995  -1.503   2.290  0.00  0.00    -0.094 A 
ATOM      9  C9  DEN d   1       0.121  -1.819   1.533  0.00  0.00    -0.072 A 
ENDROOT
TORSDOF 0
ENDMDL
