MODEL 1
REMARK minimizedAffinity 0.338593066
REMARK minimizedRMSD -1
REMARK  0 active torsions:
REMARK  status: ('A' for Active; 'I' for Inactive)
ROOT
ATOM      1  C1  DEN d   1       1.458  -3.040   2.824  0.00  0.00     0.130 A 
ATOM      2  C2  DEN d   1       2.298  -3.620   1.779  0.00  0.00    -0.031 A 
ATOM      3  C3  DEN d   1       1.988  -2.931   0.510  0.00  0.00     0.027 A 
ATOM      4  C4  DEN d   1       0.303  -1.030   0.065  0.00  0.00     0.027 A 
ATOM      5  C5  DEN d   1      -0.647  -0.215   0.639  0.00  0.00    -0.003 A 
ATOM      6  C6  DEN d   1      -0.984  -0.307   1.963  0.00  0.00     0.001 A 
ATOM      7  C7  DEN d   1      -0.333  -1.204   2.769  0.00  0.00     0.017 A 
ATOM      8  C8  DEN d   1       0.621  -2.034   2.195  0.00  0.00    -0.094 A 
ATOM      9  C9  DEN d   1       0.956  -1.917   0.857  0.00  0.00    -0.072 A 
ENDROOT
TORSDOF 0
ENDMDL
