MODEL 1
REMARK minimizedAffinity 11.2227383
REMARK minimizedRMSD -1
REMARK  1 active torsions:
REMARK  status: ('A' for Active; 'I' for Inactive)
REMARK    1  A    between atoms: C1_2  and  C2_3 
ROOT
ATOM      1  C2  UNL d   1      -2.243   3.150  -2.535  0.00  0.00    -0.073 A 
ATOM      2  C3  UNL d   1      -1.678   4.372  -2.919  0.00  0.00    -0.002 A 
ATOM      3  C4  UNL d   1      -0.477   4.802  -2.353  0.00  0.00     0.004 A 
ATOM      4  C5  UNL d   1       0.175   4.013  -1.405  0.00  0.00    -0.004 A 
ATOM      5  C6  UNL d   1      -0.368   2.783  -1.018  0.00  0.00    -0.075 A 
ATOM      6  C7  UNL d   1       0.320   1.924   0.002  0.00  0.00     0.076 C 
ATOM      7  C8  UNL d   1      -1.576   2.360  -1.589  0.00  0.00     0.001 A 
ENDROOT
BRANCH   1   8
ATOM      8  C1  UNL d   1      -3.536   2.679  -3.148  0.00  0.00     0.053 C 
ATOM      9  C   UNL d   1      -4.149   1.527  -2.369  0.00  0.00     0.018 C 
ENDBRANCH   1   8
TORSDOF 1
ENDMDL
