MODEL 1
REMARK minimizedAffinity 9.3160429
REMARK minimizedRMSD -1
REMARK  1 active torsions:
REMARK  status: ('A' for Active; 'I' for Inactive)
REMARK    1  A    between atoms: C1_2  and  C2_3 
ROOT
ATOM      1  C2  UNL d   1      -1.344   1.766  -0.133  0.00  0.00    -0.073 A 
ATOM      2  C3  UNL d   1      -1.513   1.516   1.234  0.00  0.00    -0.002 A 
ATOM      3  C4  UNL d   1      -2.717   0.998   1.712  0.00  0.00     0.004 A 
ATOM      4  C5  UNL d   1      -3.761   0.720   0.830  0.00  0.00    -0.004 A 
ATOM      5  C6  UNL d   1      -3.608   0.953  -0.540  0.00  0.00    -0.075 A 
ATOM      6  C7  UNL d   1      -4.722   0.661  -1.502  0.00  0.00     0.076 C 
ATOM      7  C8  UNL d   1      -2.396   1.475  -1.013  0.00  0.00     0.001 A 
ENDROOT
BRANCH   1   8
ATOM      8  C1  UNL d   1      -0.043   2.319  -0.655  0.00  0.00     0.053 C 
ATOM      9  C   UNL d   1      -0.164   3.781  -1.055  0.00  0.00     0.018 C 
ENDBRANCH   1   8
TORSDOF 1
ENDMDL
