MODEL 1
REMARK minimizedAffinity 7.94227457
REMARK minimizedRMSD -1
REMARK  1 active torsions:
REMARK  status: ('A' for Active; 'I' for Inactive)
REMARK    1  A    between atoms: C3_4  and  O_7 
ROOT
ATOM      1  C   UNL d   1       2.840   1.614  -6.000  0.00  0.00    -0.033 A 
ATOM      2  C1  UNL d   1       1.481   1.329  -5.848  0.00  0.00     0.039 A 
ATOM      3  C2  UNL d   1       1.065   0.378  -4.914  0.00  0.00    -0.080 A 
ATOM      4  C3  UNL d   1       2.016  -0.279  -4.138  0.00  0.00     0.150 A 
ATOM      5  C4  UNL d   1       3.371   0.002  -4.281  0.00  0.00    -0.007 A 
ATOM      6  C5  UNL d   1       3.784   0.952  -5.215  0.00  0.00     0.039 A 
ENDROOT
BRANCH   4   7
ATOM      7  O   UNL d   1       1.659  -1.218  -3.217  0.00  0.00    -0.526 OA
ATOM      8  H5  UNL d   1       0.694  -1.329  -3.249  0.00  0.00     0.418 HD
ENDBRANCH   4   7
TORSDOF 1
ENDMDL
