MODEL 1
REMARK minimizedAffinity 8.82953453
REMARK minimizedRMSD -1
REMARK  1 active torsions:
REMARK  status: ('A' for Active; 'I' for Inactive)
REMARK    1  A    between atoms: C3_4  and  O_7 
ROOT
ATOM      1  C   UNL d   1       3.631   4.268  -5.363  0.00  0.00    -0.033 A 
ATOM      2  C1  UNL d   1       4.459   4.283  -4.239  0.00  0.00     0.039 A 
ATOM      3  C2  UNL d   1       3.971   3.849  -3.005  0.00  0.00    -0.080 A 
ATOM      4  C3  UNL d   1       2.656   3.404  -2.908  0.00  0.00     0.150 A 
ATOM      5  C4  UNL d   1       1.827   3.383  -4.025  0.00  0.00    -0.007 A 
ATOM      6  C5  UNL d   1       2.315   3.817  -5.257  0.00  0.00     0.039 A 
ENDROOT
BRANCH   4   7
ATOM      7  O   UNL d   1       2.133   2.976  -1.724  0.00  0.00    -0.526 OA
ATOM      8  H5  UNL d   1       2.812   3.074  -1.035  0.00  0.00     0.418 HD
ENDBRANCH   4   7
TORSDOF 1
ENDMDL
