MODEL 1
REMARK minimizedAffinity 8.21114635
REMARK minimizedRMSD -1
REMARK  1 active torsions:
REMARK  status: ('A' for Active; 'I' for Inactive)
REMARK    1  A    between atoms: C3_4  and  O_7 
ROOT
ATOM      1  C   UNL d   1      -1.339  -2.107  -5.764  0.00  0.00    -0.033 A 
ATOM      2  C1  UNL d   1      -0.860  -2.853  -4.685  0.00  0.00     0.039 A 
ATOM      3  C2  UNL d   1       0.078  -2.298  -3.812  0.00  0.00    -0.080 A 
ATOM      4  C3  UNL d   1       0.528  -0.999  -4.029  0.00  0.00     0.150 A 
ATOM      5  C4  UNL d   1       0.052  -0.248  -5.099  0.00  0.00    -0.007 A 
ATOM      6  C5  UNL d   1      -0.884  -0.804  -5.970  0.00  0.00     0.039 A 
ENDROOT
BRANCH   4   7
ATOM      7  O   UNL d   1       1.447  -0.417  -3.207  0.00  0.00    -0.526 OA
ATOM      8  H5  UNL d   1       1.706  -1.063  -2.529  0.00  0.00     0.418 HD
ENDBRANCH   4   7
TORSDOF 1
ENDMDL
