MODEL 1
REMARK minimizedAffinity 11.8313675
REMARK minimizedRMSD -1
REMARK  1 active torsions:
REMARK  status: ('A' for Active; 'I' for Inactive)
REMARK    1  A    between atoms: C3_4  and  O_7 
ROOT
ATOM      1  C   UNL d   1       2.996   0.110  -5.999  0.00  0.00    -0.033 A 
ATOM      2  C1  UNL d   1       3.326  -1.237  -5.838  0.00  0.00     0.039 A 
ATOM      3  C2  UNL d   1       2.682  -2.005  -4.867  0.00  0.00    -0.080 A 
ATOM      4  C3  UNL d   1       1.709  -1.415  -4.063  0.00  0.00     0.150 A 
ATOM      5  C4  UNL d   1       1.373  -0.074  -4.220  0.00  0.00    -0.007 A 
ATOM      6  C5  UNL d   1       2.018   0.691  -5.191  0.00  0.00     0.039 A 
ENDROOT
BRANCH   4   7
ATOM      7  O   UNL d   1       1.057  -2.122  -3.098  0.00  0.00    -0.526 OA
ATOM      8  H5  UNL d   1       1.413  -3.026  -3.086  0.00  0.00     0.418 HD
ENDBRANCH   4   7
TORSDOF 1
ENDMDL
