MODEL 1
REMARK minimizedAffinity 8.17278481
REMARK minimizedRMSD -1
REMARK  1 active torsions:
REMARK  status: ('A' for Active; 'I' for Inactive)
REMARK    1  A    between atoms: C3_4  and  O_7 
ROOT
ATOM      1  C   UNL d   1       1.852   2.447  -2.064  0.00  0.00    -0.033 A 
ATOM      2  C1  UNL d   1       2.980   2.007  -2.758  0.00  0.00     0.039 A 
ATOM      3  C2  UNL d   1       2.973   0.759  -3.385  0.00  0.00    -0.080 A 
ATOM      4  C3  UNL d   1       1.833  -0.037  -3.311  0.00  0.00     0.150 A 
ATOM      5  C4  UNL d   1       0.704   0.397  -2.624  0.00  0.00    -0.007 A 
ATOM      6  C5  UNL d   1       0.713   1.643  -1.997  0.00  0.00     0.039 A 
ENDROOT
BRANCH   4   7
ATOM      7  O   UNL d   1       1.781  -1.264  -3.903  0.00  0.00    -0.526 OA
ATOM      8  H5  UNL d   1       2.642  -1.443  -4.316  0.00  0.00     0.418 HD
ENDBRANCH   4   7
TORSDOF 1
ENDMDL
