MODEL 1
REMARK minimizedAffinity 7.25512981
REMARK minimizedRMSD -1
REMARK  1 active torsions:
REMARK  status: ('A' for Active; 'I' for Inactive)
REMARK    1  A    between atoms: C3_4  and  O_7 
ROOT
ATOM      1  C   UNL d   1      -0.577  -2.443  -5.961  0.00  0.00    -0.033 A 
ATOM      2  C1  UNL d   1      -0.252  -3.801  -5.975  0.00  0.00     0.039 A 
ATOM      3  C2  UNL d   1      -1.264  -4.763  -5.988  0.00  0.00    -0.080 A 
ATOM      4  C3  UNL d   1      -2.595  -4.354  -5.988  0.00  0.00     0.150 A 
ATOM      5  C4  UNL d   1      -2.926  -3.003  -5.979  0.00  0.00    -0.007 A 
ATOM      6  C5  UNL d   1      -1.914  -2.044  -5.965  0.00  0.00     0.039 A 
ENDROOT
BRANCH   4   7
ATOM      7  O   UNL d   1      -3.617  -5.256  -5.996  0.00  0.00    -0.526 OA
ATOM      8  H5  UNL d   1      -3.238  -6.151  -5.973  0.00  0.00     0.418 HD
ENDBRANCH   4   7
TORSDOF 1
ENDMDL
