MODEL 1
REMARK minimizedAffinity 9.13034439
REMARK minimizedRMSD -1
REMARK  1 active torsions:
REMARK  status: ('A' for Active; 'I' for Inactive)
REMARK    1  A    between atoms: C3_4  and  O_7 
ROOT
ATOM      1  C   UNL d   1       2.104   4.926  -5.382  0.00  0.00    -0.033 A 
ATOM      2  C1  UNL d   1       2.579   3.766  -5.998  0.00  0.00     0.039 A 
ATOM      3  C2  UNL d   1       3.889   3.339  -5.771  0.00  0.00    -0.080 A 
ATOM      4  C3  UNL d   1       4.712   4.079  -4.926  0.00  0.00     0.150 A 
ATOM      5  C4  UNL d   1       4.244   5.233  -4.306  0.00  0.00    -0.007 A 
ATOM      6  C5  UNL d   1       2.937   5.658  -4.535  0.00  0.00     0.039 A 
ENDROOT
BRANCH   4   7
ATOM      7  O   UNL d   1       5.999   3.705  -4.678  0.00  0.00    -0.526 OA
ATOM      8  H5  UNL d   1       6.193   2.906  -5.196  0.00  0.00     0.418 HD
ENDBRANCH   4   7
TORSDOF 1
ENDMDL
