MODEL 1
REMARK minimizedAffinity 9.1437664
REMARK minimizedRMSD -1
REMARK  1 active torsions:
REMARK  status: ('A' for Active; 'I' for Inactive)
REMARK    1  A    between atoms: C3_4  and  O_7 
ROOT
ATOM      1  C   UNL d   1       5.996  -2.548   5.708  0.00  0.00    -0.033 A 
ATOM      2  C1  UNL d   1       5.945  -1.178   5.972  0.00  0.00     0.039 A 
ATOM      3  C2  UNL d   1       5.657  -0.277   4.945  0.00  0.00    -0.080 A 
ATOM      4  C3  UNL d   1       5.423  -0.758   3.660  0.00  0.00     0.150 A 
ATOM      5  C4  UNL d   1       5.468  -2.122   3.390  0.00  0.00    -0.007 A 
ATOM      6  C5  UNL d   1       5.756  -3.020   4.417  0.00  0.00     0.039 A 
ENDROOT
BRANCH   4   7
ATOM      7  O   UNL d   1       5.143   0.083   2.624  0.00  0.00    -0.526 OA
ATOM      8  H5  UNL d   1       5.174   0.997   2.953  0.00  0.00     0.418 HD
ENDBRANCH   4   7
TORSDOF 1
ENDMDL
