MODEL 1
REMARK minimizedAffinity 8.4304409
REMARK minimizedRMSD -1
REMARK  1 active torsions:
REMARK  status: ('A' for Active; 'I' for Inactive)
REMARK    1  A    between atoms: C3_4  and  O_7 
ROOT
ATOM      1  C   UNL d   1       3.086   1.041  -6.000  0.00  0.00    -0.033 A 
ATOM      2  C1  UNL d   1       3.743  -0.176  -5.810  0.00  0.00     0.039 A 
ATOM      3  C2  UNL d   1       3.201  -1.139  -4.956  0.00  0.00    -0.080 A 
ATOM      4  C3  UNL d   1       2.002  -0.872  -4.300  0.00  0.00     0.150 A 
ATOM      5  C4  UNL d   1       1.340   0.336  -4.488  0.00  0.00    -0.007 A 
ATOM      6  C5  UNL d   1       1.884   1.297  -5.340  0.00  0.00     0.039 A 
ENDROOT
BRANCH   4   7
ATOM      7  O   UNL d   1       1.437  -1.779  -3.454  0.00  0.00    -0.526 OA
ATOM      8  H5  UNL d   1       2.020  -2.555  -3.400  0.00  0.00     0.418 HD
ENDBRANCH   4   7
TORSDOF 1
ENDMDL
