MODEL 1
REMARK minimizedAffinity 7.89748669
REMARK minimizedRMSD -1
REMARK  1 active torsions:
REMARK  status: ('A' for Active; 'I' for Inactive)
REMARK    1  A    between atoms: C3_4  and  O_7 
ROOT
ATOM      1  C   UNL d   1       1.167   1.010  -5.954  0.00  0.00    -0.033 A 
ATOM      2  C1  UNL d   1      -0.059   0.464  -5.569  0.00  0.00     0.039 A 
ATOM      3  C2  UNL d   1      -0.132  -0.375  -4.454  0.00  0.00    -0.080 A 
ATOM      4  C3  UNL d   1       1.025  -0.658  -3.735  0.00  0.00     0.150 A 
ATOM      5  C4  UNL d   1       2.249  -0.114  -4.111  0.00  0.00    -0.007 A 
ATOM      6  C5  UNL d   1       2.321   0.722  -5.224  0.00  0.00     0.039 A 
ENDROOT
BRANCH   4   7
ATOM      7  O   UNL d   1       1.004  -1.474  -2.643  0.00  0.00    -0.526 OA
ATOM      8  H5  UNL d   1       0.096  -1.799  -2.520  0.00  0.00     0.418 HD
ENDBRANCH   4   7
TORSDOF 1
ENDMDL
