MODEL 1
REMARK minimizedAffinity 1.06630039
REMARK minimizedRMSD -1
REMARK  1 active torsions:
REMARK  status: ('A' for Active; 'I' for Inactive)
REMARK    1  A    between atoms: C3_4  and  O_7 
ROOT
ATOM      1  C   UNL d   1       0.186   0.261  -3.430  0.00  0.00    -0.033 A 
ATOM      2  C1  UNL d   1      -0.687   0.075  -4.504  0.00  0.00     0.039 A 
ATOM      3  C2  UNL d   1      -0.873  -1.200  -5.042  0.00  0.00    -0.080 A 
ATOM      4  C3  UNL d   1      -0.184  -2.279  -4.497  0.00  0.00     0.150 A 
ATOM      5  C4  UNL d   1       0.684  -2.102  -3.424  0.00  0.00    -0.007 A 
ATOM      6  C5  UNL d   1       0.870  -0.828  -2.889  0.00  0.00     0.039 A 
ENDROOT
BRANCH   4   7
ATOM      7  O   UNL d   1      -0.330  -3.541  -4.991  0.00  0.00    -0.526 OA
ATOM      8  H5  UNL d   1      -0.938  -3.506  -5.748  0.00  0.00     0.418 HD
ENDBRANCH   4   7
TORSDOF 1
ENDMDL
