MODEL 1
REMARK minimizedAffinity 7.00083494
REMARK minimizedRMSD -1
REMARK  1 active torsions:
REMARK  status: ('A' for Active; 'I' for Inactive)
REMARK    1  A    between atoms: C3_4  and  O_7 
ROOT
ATOM      1  C   UNL d   1      -5.066  -1.161  -3.023  0.00  0.00    -0.033 A 
ATOM      2  C1  UNL d   1      -4.596  -2.154  -3.885  0.00  0.00     0.039 A 
ATOM      3  C2  UNL d   1      -4.807  -3.501  -3.582  0.00  0.00    -0.080 A 
ATOM      4  C3  UNL d   1      -5.489  -3.841  -2.417  0.00  0.00     0.150 A 
ATOM      5  C4  UNL d   1      -5.964  -2.857  -1.557  0.00  0.00    -0.007 A 
ATOM      6  C5  UNL d   1      -5.751  -1.513  -1.860  0.00  0.00     0.039 A 
ENDROOT
BRANCH   4   7
ATOM      7  O   UNL d   1      -5.715  -5.142  -2.078  0.00  0.00    -0.526 OA
ATOM      8  H5  UNL d   1      -5.306  -5.711  -2.750  0.00  0.00     0.418 HD
ENDBRANCH   4   7
TORSDOF 1
ENDMDL
