MODEL 1
REMARK minimizedAffinity 3.90265536
REMARK minimizedRMSD -1
REMARK  1 active torsions:
REMARK  status: ('A' for Active; 'I' for Inactive)
REMARK    1  A    between atoms: C3_4  and  O_7 
ROOT
ATOM      1  C   UNL d   1       1.933   2.135  -1.394  0.00  0.00    -0.033 A 
ATOM      2  C1  UNL d   1       0.765   1.370  -1.438  0.00  0.00     0.039 A 
ATOM      3  C2  UNL d   1       0.658   0.308  -2.338  0.00  0.00    -0.080 A 
ATOM      4  C3  UNL d   1       1.723   0.021  -3.186  0.00  0.00     0.150 A 
ATOM      5  C4  UNL d   1       2.890   0.776  -3.146  0.00  0.00    -0.007 A 
ATOM      6  C5  UNL d   1       2.996   1.837  -2.247  0.00  0.00     0.039 A 
ENDROOT
BRANCH   4   7
ATOM      7  O   UNL d   1       1.663  -1.002  -4.085  0.00  0.00    -0.526 OA
ATOM      8  H5  UNL d   1       0.786  -1.417  -4.020  0.00  0.00     0.418 HD
ENDBRANCH   4   7
TORSDOF 1
ENDMDL
