MODEL 1
REMARK minimizedAffinity 3.11879277
REMARK minimizedRMSD -1
REMARK  1 active torsions:
REMARK  status: ('A' for Active; 'I' for Inactive)
REMARK    1  A    between atoms: C3_4  and  O_7 
ROOT
ATOM      1  C   UNL d   1       4.017   4.686  -4.395  0.00  0.00    -0.033 A 
ATOM      2  C1  UNL d   1       2.851   5.355  -4.019  0.00  0.00     0.039 A 
ATOM      3  C2  UNL d   1       2.058   4.853  -2.985  0.00  0.00    -0.080 A 
ATOM      4  C3  UNL d   1       2.444   3.684  -2.334  0.00  0.00     0.150 A 
ATOM      5  C4  UNL d   1       3.607   3.015  -2.701  0.00  0.00    -0.007 A 
ATOM      6  C5  UNL d   1       4.396   3.517  -3.735  0.00  0.00     0.039 A 
ENDROOT
BRANCH   4   7
ATOM      7  O   UNL d   1       1.700   3.154  -1.322  0.00  0.00    -0.526 OA
ATOM      8  H5  UNL d   1       0.911   3.707  -1.197  0.00  0.00     0.418 HD
ENDBRANCH   4   7
TORSDOF 1
ENDMDL
