MODEL 1
REMARK minimizedAffinity 4.55414104
REMARK minimizedRMSD -1
REMARK  1 active torsions:
REMARK  status: ('A' for Active; 'I' for Inactive)
REMARK    1  A    between atoms: C3_4  and  O_7 
ROOT
ATOM      1  C   UNL d   1      -2.998  -5.741  -5.993  0.00  0.00    -0.033 A 
ATOM      2  C1  UNL d   1      -3.461  -4.424  -5.997  0.00  0.00     0.039 A 
ATOM      3  C2  UNL d   1      -2.554  -3.363  -6.000  0.00  0.00    -0.080 A 
ATOM      4  C3  UNL d   1      -1.188  -3.631  -5.999  0.00  0.00     0.150 A 
ATOM      5  C4  UNL d   1      -0.719  -4.941  -5.999  0.00  0.00    -0.007 A 
ATOM      6  C5  UNL d   1      -1.627  -5.999  -5.996  0.00  0.00     0.039 A 
ENDROOT
BRANCH   4   7
ATOM      7  O   UNL d   1      -0.265  -2.628  -5.997  0.00  0.00    -0.526 OA
ATOM      8  H5  UNL d   1      -0.734  -1.778  -5.968  0.00  0.00     0.418 HD
ENDBRANCH   4   7
TORSDOF 1
ENDMDL
