MODEL 1
REMARK minimizedAffinity 2.90672994
REMARK minimizedRMSD -1
REMARK  2 active torsions:
REMARK  status: ('A' for Active; 'I' for Inactive)
REMARK    1  A    between atoms: C2'_3  and  C1'_4 
REMARK    2  A    between atoms: C1'_4  and  C1_5 
ROOT
ATOM      1  C1  I4B d   1      -1.401  -0.135   2.574  0.00  0.00    -0.075 A 
ATOM      2  C2  I4B d   1      -2.705  -0.204   2.149  0.00  0.00     0.003 A 
ATOM      3  C3  I4B d   1      -3.605  -1.112   2.757  0.00  0.00     0.002 A 
ATOM      4  C4  I4B d   1      -3.151  -1.963   3.743  0.00  0.00    -0.004 A 
ATOM      5  C5  I4B d   1      -1.834  -1.876   4.188  0.00  0.00     0.002 A 
ATOM      6  C6  I4B d   1      -0.957  -0.948   3.608  0.00  0.00     0.003 A 
ENDROOT
BRANCH   1   7
ATOM      7  C1' I4B d   1      -0.469   0.812   1.888  0.00  0.00     0.060 C 
BRANCH   7   8
ATOM      8  C2' I4B d   1       0.069   0.123   0.650  0.00  0.00    -0.013 C 
ATOM      9  C4' I4B d   1      -0.967   0.077  -0.442  0.00  0.00     0.013 C 
ATOM     10  C3' I4B d   1       1.293   0.865   0.203  0.00  0.00     0.013 C 
ENDBRANCH   7   8
ENDBRANCH   1   7
TORSDOF 2
ENDMDL
