MODEL 1
REMARK minimizedAffinity 5.57190704
REMARK minimizedRMSD -1
REMARK  2 active torsions:
REMARK  status: ('A' for Active; 'I' for Inactive)
REMARK    1  A    between atoms: C2'_3  and  C1'_4 
REMARK    2  A    between atoms: C1'_4  and  C1_5 
ROOT
ATOM      1  C1  I4B d   1       0.520  -0.018   1.714  0.00  0.00    -0.075 A 
ATOM      2  C2  I4B d   1      -0.592   0.654   1.272  0.00  0.00     0.003 A 
ATOM      3  C3  I4B d   1      -1.751   0.726   2.082  0.00  0.00     0.002 A 
ATOM      4  C4  I4B d   1      -1.772   0.072   3.298  0.00  0.00    -0.004 A 
ATOM      5  C5  I4B d   1      -0.635  -0.589   3.754  0.00  0.00     0.002 A 
ATOM      6  C6  I4B d   1       0.522  -0.624   2.963  0.00  0.00     0.003 A 
ENDROOT
BRANCH   1   7
ATOM      7  C1' I4B d   1       1.715  -0.101   0.818  0.00  0.00     0.060 C 
BRANCH   7   8
ATOM      8  C2' I4B d   1       2.069   1.306   0.380  0.00  0.00    -0.013 C 
ATOM      9  C4' I4B d   1       2.881   2.016   1.431  0.00  0.00     0.013 C 
ATOM     10  C3' I4B d   1       2.821   1.212  -0.914  0.00  0.00     0.013 C 
ENDBRANCH   7   8
ENDBRANCH   1   7
TORSDOF 2
ENDMDL
