MODEL 1
REMARK minimizedAffinity 5.51399183
REMARK minimizedRMSD -1
REMARK  2 active torsions:
REMARK  status: ('A' for Active; 'I' for Inactive)
REMARK    1  A    between atoms: C2'_3  and  C1'_4 
REMARK    2  A    between atoms: C1'_4  and  C1_5 
ROOT
ATOM      1  C1  I4B d   1      -0.386  -0.638   2.209  0.00  0.00    -0.075 A 
ATOM      2  C2  I4B d   1      -0.115  -0.576   0.865  0.00  0.00     0.003 A 
ATOM      3  C3  I4B d   1      -1.141  -0.249  -0.055  0.00  0.00     0.002 A 
ATOM      4  C4  I4B d   1      -2.425  -0.043   0.405  0.00  0.00    -0.004 A 
ATOM      5  C5  I4B d   1      -2.693  -0.083   1.771  0.00  0.00     0.002 A 
ATOM      6  C6  I4B d   1      -1.665  -0.371   2.680  0.00  0.00     0.003 A 
ENDROOT
BRANCH   1   7
ATOM      7  C1' I4B d   1       0.714  -1.018   3.149  0.00  0.00     0.060 C 
BRANCH   7   8
ATOM      8  C2' I4B d   1       0.102  -1.247   4.516  0.00  0.00    -0.013 C 
ATOM      9  C4' I4B d   1       0.833  -2.328   5.267  0.00  0.00     0.013 C 
ATOM     10  C3' I4B d   1       0.140   0.053   5.263  0.00  0.00     0.013 C 
ENDBRANCH   7   8
ENDBRANCH   1   7
TORSDOF 2
ENDMDL
