MODEL 1
REMARK minimizedAffinity 0.711038053
REMARK minimizedRMSD -1
REMARK  2 active torsions:
REMARK  status: ('A' for Active; 'I' for Inactive)
REMARK    1  A    between atoms: C2'_3  and  C1'_4 
REMARK    2  A    between atoms: C1'_4  and  C1_5 
ROOT
ATOM      1  C1  I4B d   1      -1.724   0.047   0.985  0.00  0.00    -0.075 A 
ATOM      2  C2  I4B d   1      -2.030   0.005   2.322  0.00  0.00     0.003 A 
ATOM      3  C3  I4B d   1      -1.049   0.334   3.289  0.00  0.00     0.002 A 
ATOM      4  C4  I4B d   1       0.230   0.648   2.879  0.00  0.00    -0.004 A 
ATOM      5  C5  I4B d   1       0.533   0.712   1.522  0.00  0.00     0.002 A 
ATOM      6  C6  I4B d   1      -0.453   0.422   0.568  0.00  0.00     0.003 A 
ENDROOT
BRANCH   1   7
ATOM      7  C1' I4B d   1      -2.775  -0.338  -0.008  0.00  0.00     0.060 C 
BRANCH   7   8
ATOM      8  C2' I4B d   1      -2.928  -1.845   0.036  0.00  0.00    -0.013 C 
ATOM      9  C4' I4B d   1      -4.079  -2.301  -0.822  0.00  0.00     0.013 C 
ATOM     10  C3' I4B d   1      -1.637  -2.455  -0.423  0.00  0.00     0.013 C 
ENDBRANCH   7   8
ENDBRANCH   1   7
TORSDOF 2
ENDMDL
