MODEL 1
REMARK minimizedAffinity 10.5840054
REMARK minimizedRMSD -1
REMARK  2 active torsions:
REMARK  status: ('A' for Active; 'I' for Inactive)
REMARK    1  A    between atoms: C2'_3  and  C1'_4 
REMARK    2  A    between atoms: C1'_4  and  C1_5 
ROOT
ATOM      1  C1  I4B d   1       0.258   0.052   0.622  0.00  0.00    -0.075 A 
ATOM      2  C2  I4B d   1      -0.862   0.648   1.145  0.00  0.00     0.003 A 
ATOM      3  C3  I4B d   1      -2.143   0.336   0.627  0.00  0.00     0.002 A 
ATOM      4  C4  I4B d   1      -2.252  -0.532  -0.440  0.00  0.00    -0.004 A 
ATOM      5  C5  I4B d   1      -1.117  -1.153  -0.953  0.00  0.00     0.002 A 
ATOM      6  C6  I4B d   1       0.145  -0.869  -0.411  0.00  0.00     0.003 A 
ENDROOT
BRANCH   1   7
ATOM      7  C1' I4B d   1       1.598   0.428   1.172  0.00  0.00     0.060 C 
BRANCH   7   8
ATOM      8  C2' I4B d   1       1.971   1.783   0.603  0.00  0.00    -0.013 C 
ATOM      9  C4' I4B d   1       2.249   2.776   1.701  0.00  0.00     0.013 C 
ATOM     10  C3' I4B d   1       3.170   1.600  -0.279  0.00  0.00     0.013 C 
ENDBRANCH   7   8
ENDBRANCH   1   7
TORSDOF 2
ENDMDL
