MODEL 1
REMARK minimizedAffinity -1.93161798
REMARK minimizedRMSD -1
REMARK  1 active torsions:
REMARK  status: ('A' for Active; 'I' for Inactive)
REMARK    1  A    between atoms: C3_4  and  O_7 
ROOT
ATOM      1  C   UNL d   1      -1.410   2.449   1.720  0.00  0.00    -0.033 A 
ATOM      2  C1  UNL d   1      -0.635   1.512   2.408  0.00  0.00     0.039 A 
ATOM      3  C2  UNL d   1      -0.102   0.413   1.732  0.00  0.00    -0.080 A 
ATOM      4  C3  UNL d   1      -0.350   0.263   0.370  0.00  0.00     0.150 A 
ATOM      5  C4  UNL d   1      -1.118   1.194  -0.322  0.00  0.00    -0.007 A 
ATOM      6  C5  UNL d   1      -1.650   2.290   0.355  0.00  0.00     0.039 A 
ENDROOT
BRANCH   4   7
ATOM      7  O   UNL d   1       0.145  -0.796  -0.332  0.00  0.00    -0.526 OA
ATOM      8  H5  UNL d   1       0.631  -1.372   0.282  0.00  0.00     0.418 HD
ENDBRANCH   4   7
TORSDOF 1
ENDMDL
