MODEL 1
REMARK minimizedAffinity -0.997541964
REMARK minimizedRMSD -1
REMARK  1 active torsions:
REMARK  status: ('A' for Active; 'I' for Inactive)
REMARK    1  A    between atoms: C3_4  and  O_7 
ROOT
ATOM      1  C   UNL d   1       1.148  -0.756  -0.532  0.00  0.00    -0.033 A 
ATOM      2  C1  UNL d   1       0.684  -1.233   0.696  0.00  0.00     0.039 A 
ATOM      3  C2  UNL d   1      -0.236  -0.486   1.434  0.00  0.00    -0.080 A 
ATOM      4  C3  UNL d   1      -0.686   0.732   0.933  0.00  0.00     0.150 A 
ATOM      5  C4  UNL d   1      -0.232   1.211  -0.291  0.00  0.00    -0.007 A 
ATOM      6  C5  UNL d   1       0.688   0.465  -1.026  0.00  0.00     0.039 A 
ENDROOT
BRANCH   4   7
ATOM      7  O   UNL d   1      -1.581   1.499   1.619  0.00  0.00    -0.526 OA
ATOM      8  H5  UNL d   1      -1.784   1.056   2.460  0.00  0.00     0.418 HD
ENDBRANCH   4   7
TORSDOF 1
ENDMDL
