MODEL 1
REMARK minimizedAffinity -1.39487159
REMARK minimizedRMSD -1
REMARK  1 active torsions:
REMARK  status: ('A' for Active; 'I' for Inactive)
REMARK    1  A    between atoms: C3_4  and  O_7 
ROOT
ATOM      1  C   UNL d   1      -0.057  -0.138  -0.803  0.00  0.00    -0.033 A 
ATOM      2  C1  UNL d   1      -0.264  -0.996   0.279  0.00  0.00     0.039 A 
ATOM      3  C2  UNL d   1      -0.780  -0.498   1.478  0.00  0.00    -0.080 A 
ATOM      4  C3  UNL d   1      -1.085   0.856   1.580  0.00  0.00     0.150 A 
ATOM      5  C4  UNL d   1      -0.885   1.715   0.505  0.00  0.00    -0.007 A 
ATOM      6  C5  UNL d   1      -0.369   1.217  -0.691  0.00  0.00     0.039 A 
ENDROOT
BRANCH   4   7
ATOM      7  O   UNL d   1      -1.586   1.388   2.731  0.00  0.00    -0.526 OA
ATOM      8  H5  UNL d   1      -1.644   0.683   3.397  0.00  0.00     0.418 HD
ENDBRANCH   4   7
TORSDOF 1
ENDMDL
