MODEL 1
REMARK minimizedAffinity -2.49697638
REMARK minimizedRMSD -1
REMARK  1 active torsions:
REMARK  status: ('A' for Active; 'I' for Inactive)
REMARK    1  A    between atoms: C3_4  and  O_7 
ROOT
ATOM      1  C   UNL d   1      -0.440  -0.734   0.301  0.00  0.00    -0.033 A 
ATOM      2  C1  UNL d   1       0.868  -0.702  -0.186  0.00  0.00     0.039 A 
ATOM      3  C2  UNL d   1       1.320   0.407  -0.903  0.00  0.00    -0.080 A 
ATOM      4  C3  UNL d   1       0.456   1.476  -1.126  0.00  0.00     0.150 A 
ATOM      5  C4  UNL d   1      -0.847   1.452  -0.640  0.00  0.00    -0.007 A 
ATOM      6  C5  UNL d   1      -1.297   0.343   0.076  0.00  0.00     0.039 A 
ENDROOT
BRANCH   4   7
ATOM      7  O   UNL d   1       0.850   2.578  -1.824  0.00  0.00    -0.526 OA
ATOM      8  H5  UNL d   1       1.765   2.442  -2.123  0.00  0.00     0.418 HD
ENDBRANCH   4   7
TORSDOF 1
ENDMDL
