MODEL 1
REMARK minimizedAffinity -1.4855597
REMARK minimizedRMSD -1
REMARK  1 active torsions:
REMARK  status: ('A' for Active; 'I' for Inactive)
REMARK    1  A    between atoms: C3_4  and  O_7 
ROOT
ATOM      1  C   UNL d   1      -0.244   2.182  -0.814  0.00  0.00    -0.033 A 
ATOM      2  C1  UNL d   1      -0.868   1.242   0.009  0.00  0.00     0.039 A 
ATOM      3  C2  UNL d   1      -0.430  -0.084   0.013  0.00  0.00    -0.080 A 
ATOM      4  C3  UNL d   1       0.632  -0.456  -0.808  0.00  0.00     0.150 A 
ATOM      5  C4  UNL d   1       1.260   0.477  -1.627  0.00  0.00    -0.007 A 
ATOM      6  C5  UNL d   1       0.821   1.800  -1.630  0.00  0.00     0.039 A 
ENDROOT
BRANCH   4   7
ATOM      7  O   UNL d   1       1.091  -1.739  -0.841  0.00  0.00    -0.526 OA
ATOM      8  H5  UNL d   1       0.544  -2.277  -0.246  0.00  0.00     0.418 HD
ENDBRANCH   4   7
TORSDOF 1
ENDMDL
