MODEL 1
REMARK minimizedAffinity -3.25744534
REMARK minimizedRMSD -1
REMARK  1 active torsions:
REMARK  status: ('A' for Active; 'I' for Inactive)
REMARK    1  A    between atoms: C3_4  and  O_7 
ROOT
ATOM      1  C   UNL d   1       0.768  -0.294  -0.537  0.00  0.00    -0.033 A 
ATOM      2  C1  UNL d   1       0.333   1.031  -0.599  0.00  0.00     0.039 A 
ATOM      3  C2  UNL d   1      -0.418   1.572   0.447  0.00  0.00    -0.080 A 
ATOM      4  C3  UNL d   1      -0.724   0.778   1.549  0.00  0.00     0.150 A 
ATOM      5  C4  UNL d   1      -0.291  -0.542   1.620  0.00  0.00    -0.007 A 
ATOM      6  C5  UNL d   1       0.458  -1.080   0.574  0.00  0.00     0.039 A 
ENDROOT
BRANCH   4   7
ATOM      7  O   UNL d   1      -1.458   1.260   2.592  0.00  0.00    -0.526 OA
ATOM      8  H5  UNL d   1      -1.713   2.176   2.392  0.00  0.00     0.418 HD
ENDBRANCH   4   7
TORSDOF 1
ENDMDL
