MODEL 1
REMARK minimizedAffinity -4.79579115
REMARK minimizedRMSD -1
REMARK  1 active torsions:
REMARK  status: ('A' for Active; 'I' for Inactive)
REMARK    1  A    between atoms: C3_4  and  O_7 
ROOT
ATOM      1  C   UNL d   1      -1.875   1.799   1.208  0.00  0.00    -0.033 A 
ATOM      2  C1  UNL d   1      -1.714   0.538   1.786  0.00  0.00     0.039 A 
ATOM      3  C2  UNL d   1      -0.915  -0.421   1.161  0.00  0.00    -0.080 A 
ATOM      4  C3  UNL d   1      -0.282  -0.107  -0.039  0.00  0.00     0.150 A 
ATOM      5  C4  UNL d   1      -0.435   1.148  -0.618  0.00  0.00    -0.007 A 
ATOM      6  C5  UNL d   1      -1.234   2.105   0.007  0.00  0.00     0.039 A 
ENDROOT
BRANCH   4   7
ATOM      7  O   UNL d   1       0.503  -1.013  -0.688  0.00  0.00    -0.526 OA
ATOM      8  H5  UNL d   1       0.493  -1.845  -0.186  0.00  0.00     0.418 HD
ENDBRANCH   4   7
TORSDOF 1
ENDMDL
