MODEL 1
REMARK minimizedAffinity -4.25838709
REMARK minimizedRMSD -1
REMARK  1 active torsions:
REMARK  status: ('A' for Active; 'I' for Inactive)
REMARK    1  A    between atoms: C3_4  and  O_7 
ROOT
ATOM      1  C   UNL d   1       0.950  -0.896  -0.802  0.00  0.00    -0.033 A 
ATOM      2  C1  UNL d   1       1.560  -1.984  -1.430  0.00  0.00     0.039 A 
ATOM      3  C2  UNL d   1       0.779  -2.970  -2.037  0.00  0.00    -0.080 A 
ATOM      4  C3  UNL d   1      -0.608  -2.856  -2.010  0.00  0.00     0.150 A 
ATOM      5  C4  UNL d   1      -1.222  -1.773  -1.390  0.00  0.00    -0.007 A 
ATOM      6  C5  UNL d   1      -0.441  -0.790  -0.783  0.00  0.00     0.039 A 
ENDROOT
BRANCH   4   7
ATOM      7  O   UNL d   1      -1.411  -3.796  -2.584  0.00  0.00    -0.526 OA
ATOM      8  H5  UNL d   1      -0.849  -4.499  -2.949  0.00  0.00     0.418 HD
ENDBRANCH   4   7
TORSDOF 1
ENDMDL
