MODEL 1
REMARK minimizedAffinity -4.5052309
REMARK minimizedRMSD -1
REMARK  1 active torsions:
REMARK  status: ('A' for Active; 'I' for Inactive)
REMARK    1  A    between atoms: C3_4  and  O_7 
ROOT
ATOM      1  C   UNL d   1      -1.785   2.650   1.514  0.00  0.00    -0.033 A 
ATOM      2  C1  UNL d   1      -1.106   2.810   0.304  0.00  0.00     0.039 A 
ATOM      3  C2  UNL d   1      -0.493   1.713  -0.305  0.00  0.00    -0.080 A 
ATOM      4  C3  UNL d   1      -0.567   0.464   0.305  0.00  0.00     0.150 A 
ATOM      5  C4  UNL d   1      -1.245   0.297   1.508  0.00  0.00    -0.007 A 
ATOM      6  C5  UNL d   1      -1.856   1.393   2.115  0.00  0.00     0.039 A 
ENDROOT
BRANCH   4   7
ATOM      7  O   UNL d   1       0.019  -0.635  -0.249  0.00  0.00    -0.526 OA
ATOM      8  H5  UNL d   1       0.475  -0.363  -1.062  0.00  0.00     0.418 HD
ENDBRANCH   4   7
TORSDOF 1
ENDMDL
