MODEL 1
REMARK minimizedAffinity -4.16123152
REMARK minimizedRMSD -1
REMARK  1 active torsions:
REMARK  status: ('A' for Active; 'I' for Inactive)
REMARK    1  A    between atoms: C3_4  and  O_7 
ROOT
ATOM      1  C   UNL d   1      -1.536   3.057   1.298  0.00  0.00    -0.033 A 
ATOM      2  C1  UNL d   1      -0.795   3.296   0.138  0.00  0.00     0.039 A 
ATOM      3  C2  UNL d   1      -0.126   2.246  -0.494  0.00  0.00    -0.080 A 
ATOM      4  C3  UNL d   1      -0.206   0.964   0.042  0.00  0.00     0.150 A 
ATOM      5  C4  UNL d   1      -0.945   0.718   1.195  0.00  0.00    -0.007 A 
ATOM      6  C5  UNL d   1      -1.612   1.767   1.825  0.00  0.00     0.039 A 
ENDROOT
BRANCH   4   7
ATOM      7  O   UNL d   1       0.433  -0.092  -0.537  0.00  0.00    -0.526 OA
ATOM      8  H5  UNL d   1       0.927   0.233  -1.308  0.00  0.00     0.418 HD
ENDBRANCH   4   7
TORSDOF 1
ENDMDL
