MODEL 1
REMARK minimizedAffinity -3.89190292
REMARK minimizedRMSD -1
REMARK  1 active torsions:
REMARK  status: ('A' for Active; 'I' for Inactive)
REMARK    1  A    between atoms: C3_4  and  O_7 
ROOT
ATOM      1  C   UNL d   1      -0.070  -0.171   0.201  0.00  0.00    -0.033 A 
ATOM      2  C1  UNL d   1      -0.126   0.071   1.575  0.00  0.00     0.039 A 
ATOM      3  C2  UNL d   1      -1.043   0.991   2.087  0.00  0.00    -0.080 A 
ATOM      4  C3  UNL d   1      -1.898   1.660   1.215  0.00  0.00     0.150 A 
ATOM      5  C4  UNL d   1      -1.850   1.422  -0.154  0.00  0.00    -0.007 A 
ATOM      6  C5  UNL d   1      -0.933   0.503  -0.664  0.00  0.00     0.039 A 
ENDROOT
BRANCH   4   7
ATOM      7  O   UNL d   1      -2.806   2.571   1.667  0.00  0.00    -0.526 OA
ATOM      8  H5  UNL d   1      -2.706   2.654   2.630  0.00  0.00     0.418 HD
ENDBRANCH   4   7
TORSDOF 1
ENDMDL
