MODEL 1
REMARK minimizedAffinity -5.23910332
REMARK minimizedRMSD -1
REMARK  1 active torsions:
REMARK  status: ('A' for Active; 'I' for Inactive)
REMARK    1  A    between atoms: C3_4  and  O_7 
ROOT
ATOM      1  C   UNL d   1      -1.878   1.398   1.597  0.00  0.00    -0.033 A 
ATOM      2  C1  UNL d   1      -1.523   2.303   0.594  0.00  0.00     0.039 A 
ATOM      3  C2  UNL d   1      -0.438   2.032  -0.242  0.00  0.00    -0.080 A 
ATOM      4  C3  UNL d   1       0.283   0.854  -0.065  0.00  0.00     0.150 A 
ATOM      5  C4  UNL d   1      -0.067  -0.054   0.929  0.00  0.00    -0.007 A 
ATOM      6  C5  UNL d   1      -1.151   0.219   1.763  0.00  0.00     0.039 A 
ENDROOT
BRANCH   4   7
ATOM      7  O   UNL d   1       1.352   0.548  -0.853  0.00  0.00    -0.526 OA
ATOM      8  H5  UNL d   1       1.494   1.280  -1.477  0.00  0.00     0.418 HD
ENDBRANCH   4   7
TORSDOF 1
ENDMDL
