MODEL 1
REMARK minimizedAffinity -3.63662052
REMARK minimizedRMSD -1
REMARK  1 active torsions:
REMARK  status: ('A' for Active; 'I' for Inactive)
REMARK    1  A    between atoms: C3_4  and  O_7 
ROOT
ATOM      1  C   UNL d   1      -2.253   2.240   0.219  0.00  0.00    -0.033 A 
ATOM      2  C1  UNL d   1      -1.543   2.426   1.407  0.00  0.00     0.039 A 
ATOM      3  C2  UNL d   1      -0.664   1.440   1.859  0.00  0.00    -0.080 A 
ATOM      4  C3  UNL d   1      -0.504   0.275   1.115  0.00  0.00     0.150 A 
ATOM      5  C4  UNL d   1      -1.205   0.084  -0.071  0.00  0.00    -0.007 A 
ATOM      6  C5  UNL d   1      -2.083   1.069  -0.520  0.00  0.00     0.039 A 
ENDROOT
BRANCH   4   7
ATOM      7  O   UNL d   1       0.339  -0.718   1.519  0.00  0.00    -0.526 OA
ATOM      8  H5  UNL d   1       0.733  -0.460   2.369  0.00  0.00     0.418 HD
ENDBRANCH   4   7
TORSDOF 1
ENDMDL
