MODEL 1
REMARK minimizedAffinity -2.44345403
REMARK minimizedRMSD -1
REMARK  1 active torsions:
REMARK  status: ('A' for Active; 'I' for Inactive)
REMARK    1  A    between atoms: C3_4  and  O_7 
ROOT
ATOM      1  C   UNL d   1      -0.559  -1.071  -0.574  0.00  0.00    -0.033 A 
ATOM      2  C1  UNL d   1       0.448  -0.212  -0.129  0.00  0.00     0.039 A 
ATOM      3  C2  UNL d   1       0.202   0.666   0.929  0.00  0.00    -0.080 A 
ATOM      4  C3  UNL d   1      -1.052   0.673   1.534  0.00  0.00     0.150 A 
ATOM      5  C4  UNL d   1      -2.058  -0.184   1.099  0.00  0.00    -0.007 A 
ATOM      6  C5  UNL d   1      -1.811  -1.058   0.041  0.00  0.00     0.039 A 
ENDROOT
BRANCH   4   7
ATOM      7  O   UNL d   1      -1.340   1.514   2.567  0.00  0.00    -0.526 OA
ATOM      8  H5  UNL d   1      -0.560   2.067   2.740  0.00  0.00     0.418 HD
ENDBRANCH   4   7
TORSDOF 1
ENDMDL
