MODEL 1
REMARK minimizedAffinity -4.96986198
REMARK minimizedRMSD -1
REMARK  1 active torsions:
REMARK  status: ('A' for Active; 'I' for Inactive)
REMARK    1  A    between atoms: C3_4  and  O_7 
ROOT
ATOM      1  C   UNL d   1       0.289   0.085  -0.310  0.00  0.00    -0.033 A 
ATOM      2  C1  UNL d   1       0.779   0.639  -1.494  0.00  0.00     0.039 A 
ATOM      3  C2  UNL d   1       0.115   0.410  -2.701  0.00  0.00    -0.080 A 
ATOM      4  C3  UNL d   1      -1.036  -0.373  -2.710  0.00  0.00     0.150 A 
ATOM      5  C4  UNL d   1      -1.532  -0.925  -1.533  0.00  0.00    -0.007 A 
ATOM      6  C5  UNL d   1      -0.867  -0.696  -0.329  0.00  0.00     0.039 A 
ENDROOT
BRANCH   4   7
ATOM      7  O   UNL d   1      -1.715  -0.629  -3.864  0.00  0.00    -0.526 OA
ATOM      8  H5  UNL d   1      -1.241  -0.208  -4.600  0.00  0.00     0.418 HD
ENDBRANCH   4   7
TORSDOF 1
ENDMDL
