MODEL 1
REMARK minimizedAffinity -4.29600811
REMARK minimizedRMSD -1
REMARK  1 active torsions:
REMARK  status: ('A' for Active; 'I' for Inactive)
REMARK    1  A    between atoms: C3_4  and  O_7 
ROOT
ATOM      1  C   UNL d   1       0.076  -0.507  -0.494  0.00  0.00    -0.033 A 
ATOM      2  C1  UNL d   1       0.390   0.822  -0.206  0.00  0.00     0.039 A 
ATOM      3  C2  UNL d   1      -0.507   1.614   0.512  0.00  0.00    -0.080 A 
ATOM      4  C3  UNL d   1      -1.714   1.065   0.938  0.00  0.00     0.150 A 
ATOM      5  C4  UNL d   1      -2.032  -0.259   0.658  0.00  0.00    -0.007 A 
ATOM      6  C5  UNL d   1      -1.135  -1.049  -0.060  0.00  0.00     0.039 A 
ENDROOT
BRANCH   4   7
ATOM      7  O   UNL d   1      -2.624   1.801   1.638  0.00  0.00    -0.526 OA
ATOM      8  H5  UNL d   1      -2.281   2.705   1.732  0.00  0.00     0.418 HD
ENDBRANCH   4   7
TORSDOF 1
ENDMDL
