MODEL 1
REMARK minimizedAffinity -4.70280361
REMARK minimizedRMSD -1
REMARK  0 active torsions:
REMARK  status: ('A' for Active; 'I' for Inactive)
ROOT
ATOM      1  C1  BNZ d   1       0.577   0.841  -1.723  0.00  0.00     0.000 A 
ATOM      2  C2  BNZ d   1       1.848   0.838  -2.231  0.00  0.00     0.000 A 
ATOM      3  C3  BNZ d   1       2.859   0.183  -1.585  0.00  0.00     0.000 A 
ATOM      4  C4  BNZ d   1       2.607  -0.433  -0.413  0.00  0.00     0.000 A 
ATOM      5  C5  BNZ d   1       1.333  -0.432   0.118  0.00  0.00     0.000 A 
ATOM      6  C6  BNZ d   1       0.309   0.195  -0.555  0.00  0.00     0.000 A 
ENDROOT
TORSDOF 0
ENDMDL
