MODEL 1
REMARK minimizedAffinity -3.3153379
REMARK minimizedRMSD -1
REMARK  0 active torsions:
REMARK  status: ('A' for Active; 'I' for Inactive)
ROOT
ATOM      1  C1  BNZ d   1      -0.887  -0.810  -0.051  0.00  0.00     0.000 A 
ATOM      2  C2  BNZ d   1      -0.455  -2.099  -0.212  0.00  0.00     0.000 A 
ATOM      3  C3  BNZ d   1       0.831  -2.365  -0.592  0.00  0.00     0.000 A 
ATOM      4  C4  BNZ d   1       1.671  -1.342  -0.849  0.00  0.00     0.000 A 
ATOM      5  C5  BNZ d   1       1.248  -0.036  -0.701  0.00  0.00     0.000 A 
ATOM      6  C6  BNZ d   1      -0.035   0.227  -0.280  0.00  0.00     0.000 A 
ENDROOT
TORSDOF 0
ENDMDL
