MODEL 1
REMARK minimizedAffinity -4.32367754
REMARK minimizedRMSD -1
REMARK  0 active torsions:
REMARK  status: ('A' for Active; 'I' for Inactive)
ROOT
ATOM      1  C1  BNZ d   1       2.708   0.236  -0.239  0.00  0.00     0.000 A 
ATOM      2  C2  BNZ d   1       1.499   0.390   0.385  0.00  0.00     0.000 A 
ATOM      3  C3  BNZ d   1       0.422  -0.369   0.022  0.00  0.00     0.000 A 
ATOM      4  C4  BNZ d   1       0.543  -1.251  -0.991  0.00  0.00     0.000 A 
ATOM      5  C5  BNZ d   1       1.753  -1.412  -1.637  0.00  0.00     0.000 A 
ATOM      6  C6  BNZ d   1       2.846  -0.674  -1.242  0.00  0.00     0.000 A 
ENDROOT
TORSDOF 0
ENDMDL
