MODEL 1
REMARK minimizedAffinity -4.05736685
REMARK minimizedRMSD -1
REMARK  0 active torsions:
REMARK  status: ('A' for Active; 'I' for Inactive)
ROOT
ATOM      1  C1  BNZ d   1       0.619   0.312   0.187  0.00  0.00     0.000 A 
ATOM      2  C2  BNZ d   1      -0.252  -0.716  -0.057  0.00  0.00     0.000 A 
ATOM      3  C3  BNZ d   1       0.173  -1.863  -0.667  0.00  0.00     0.000 A 
ATOM      4  C4  BNZ d   1       1.456  -1.965  -1.069  0.00  0.00     0.000 A 
ATOM      5  C5  BNZ d   1       2.344  -0.933  -0.838  0.00  0.00     0.000 A 
ATOM      6  C6  BNZ d   1       1.922   0.205  -0.188  0.00  0.00     0.000 A 
ENDROOT
TORSDOF 0
ENDMDL
