MODEL 1
REMARK minimizedAffinity -2.76201224
REMARK minimizedRMSD -1
REMARK  0 active torsions:
REMARK  status: ('A' for Active; 'I' for Inactive)
ROOT
ATOM      1  C1  BNZ d   1      -0.115  -1.283  -0.735  0.00  0.00     0.000 A 
ATOM      2  C2  BNZ d   1      -0.702  -0.276  -0.017  0.00  0.00     0.000 A 
ATOM      3  C3  BNZ d   1       0.004   0.844   0.324  0.00  0.00     0.000 A 
ATOM      4  C4  BNZ d   1       1.305   0.938  -0.019  0.00  0.00     0.000 A 
ATOM      5  C5  BNZ d   1       1.914  -0.074  -0.734  0.00  0.00     0.000 A 
ATOM      6  C6  BNZ d   1       1.190  -1.182  -1.109  0.00  0.00     0.000 A 
ENDROOT
TORSDOF 0
ENDMDL
