MODEL 1
REMARK minimizedAffinity -2.29538631
REMARK minimizedRMSD -1
REMARK  0 active torsions:
REMARK  status: ('A' for Active; 'I' for Inactive)
ROOT
ATOM      1  C1  BNZ d   1       3.361   0.150  -0.141  0.00  0.00     0.000 A 
ATOM      2  C2  BNZ d   1       2.129   0.481   0.357  0.00  0.00     0.000 A 
ATOM      3  C3  BNZ d   1       0.993  -0.073  -0.163  0.00  0.00     0.000 A 
ATOM      4  C4  BNZ d   1       1.087  -0.926  -1.204  0.00  0.00     0.000 A 
ATOM      5  C5  BNZ d   1       2.321  -1.262  -1.723  0.00  0.00     0.000 A 
ATOM      6  C6  BNZ d   1       3.465  -0.732  -1.172  0.00  0.00     0.000 A 
ENDROOT
TORSDOF 0
ENDMDL
