MODEL 1
REMARK minimizedAffinity -4.82015944
REMARK minimizedRMSD -1
REMARK  0 active torsions:
REMARK  status: ('A' for Active; 'I' for Inactive)
ROOT
ATOM      1  C1  BNZ d   1      -0.680   0.208   0.110  0.00  0.00     0.000 A 
ATOM      2  C2  BNZ d   1       0.374  -0.666   0.153  0.00  0.00     0.000 A 
ATOM      3  C3  BNZ d   1       1.514  -0.422  -0.560  0.00  0.00     0.000 A 
ATOM      4  C4  BNZ d   1       1.584   0.672  -1.345  0.00  0.00     0.000 A 
ATOM      5  C5  BNZ d   1       0.527   1.558  -1.406  0.00  0.00     0.000 A 
ATOM      6  C6  BNZ d   1      -0.604   1.330  -0.657  0.00  0.00     0.000 A 
ENDROOT
TORSDOF 0
ENDMDL
