MODEL 1
REMARK minimizedAffinity -1.25496542
REMARK minimizedRMSD -1
REMARK  0 active torsions:
REMARK  status: ('A' for Active; 'I' for Inactive)
ROOT
ATOM      1  C1  BNZ d   1      -1.303   0.977  -0.825  0.00  0.00     0.000 A 
ATOM      2  C2  BNZ d   1      -0.070   1.349  -1.292  0.00  0.00     0.000 A 
ATOM      3  C3  BNZ d   1       1.067   1.013  -0.611  0.00  0.00     0.000 A 
ATOM      4  C4  BNZ d   1       0.967   0.343   0.555  0.00  0.00     0.000 A 
ATOM      5  C5  BNZ d   1      -0.269  -0.031   1.044  0.00  0.00     0.000 A 
ATOM      6  C6  BNZ d   1      -1.408   0.274   0.335  0.00  0.00     0.000 A 
ENDROOT
TORSDOF 0
ENDMDL
