MODEL 1
REMARK minimizedAffinity -3.84614372
REMARK minimizedRMSD -1
REMARK  0 active torsions:
REMARK  status: ('A' for Active; 'I' for Inactive)
ROOT
ATOM      1  C1  BNZ d   1       0.216  -0.071   0.065  0.00  0.00     0.000 A 
ATOM      2  C2  BNZ d   1       0.887   0.928  -0.588  0.00  0.00     0.000 A 
ATOM      3  C3  BNZ d   1       2.027   0.661  -1.294  0.00  0.00     0.000 A 
ATOM      4  C4  BNZ d   1       2.516  -0.595  -1.312  0.00  0.00     0.000 A 
ATOM      5  C5  BNZ d   1       1.857  -1.612  -0.650  0.00  0.00     0.000 A 
ATOM      6  C6  BNZ d   1       0.688  -1.347   0.026  0.00  0.00     0.000 A 
ENDROOT
TORSDOF 0
ENDMDL
