MODEL 1
REMARK minimizedAffinity -4.61451054
REMARK minimizedRMSD -1
REMARK  0 active torsions:
REMARK  status: ('A' for Active; 'I' for Inactive)
ROOT
ATOM      1  C1  BNZ d   1       0.641  -1.389  -1.027  0.00  0.00     0.000 A 
ATOM      2  C2  BNZ d   1       1.718  -1.522  -1.863  0.00  0.00     0.000 A 
ATOM      3  C3  BNZ d   1       2.680  -0.553  -1.924  0.00  0.00     0.000 A 
ATOM      4  C4  BNZ d   1       2.544   0.565  -1.182  0.00  0.00     0.000 A 
ATOM      5  C5  BNZ d   1       1.459   0.718  -0.342  0.00  0.00     0.000 A 
ATOM      6  C6  BNZ d   1       0.513  -0.277  -0.253  0.00  0.00     0.000 A 
ENDROOT
TORSDOF 0
ENDMDL
