MODEL 1
REMARK minimizedAffinity -3.37132597
REMARK minimizedRMSD -1
REMARK  0 active torsions:
REMARK  status: ('A' for Active; 'I' for Inactive)
ROOT
ATOM      1  C1  BNZ d   1       0.817   2.450  -2.101  0.00  0.00     0.000 A 
ATOM      2  C2  BNZ d   1       1.496   2.134  -3.247  0.00  0.00     0.000 A 
ATOM      3  C3  BNZ d   1       2.354   1.070  -3.281  0.00  0.00     0.000 A 
ATOM      4  C4  BNZ d   1       2.561   0.349  -2.161  0.00  0.00     0.000 A 
ATOM      5  C5  BNZ d   1       1.890   0.660  -0.995  0.00  0.00     0.000 A 
ATOM      6  C6  BNZ d   1       0.998   1.708  -0.974  0.00  0.00     0.000 A 
ENDROOT
TORSDOF 0
ENDMDL
