MODEL 1
REMARK minimizedAffinity -4.68792009
REMARK minimizedRMSD -1
REMARK  0 active torsions:
REMARK  status: ('A' for Active; 'I' for Inactive)
ROOT
ATOM      1  C1  BNZ d   1       1.020   0.197   0.167  0.00  0.00     0.000 A 
ATOM      2  C2  BNZ d   1       2.067   0.153  -0.715  0.00  0.00     0.000 A 
ATOM      3  C3  BNZ d   1       2.238  -0.919  -1.545  0.00  0.00     0.000 A 
ATOM      4  C4  BNZ d   1       1.387  -1.962  -1.465  0.00  0.00     0.000 A 
ATOM      5  C5  BNZ d   1       0.332  -1.937  -0.575  0.00  0.00     0.000 A 
ATOM      6  C6  BNZ d   1       0.140  -0.840   0.233  0.00  0.00     0.000 A 
ENDROOT
TORSDOF 0
ENDMDL
