MODEL 1
REMARK minimizedAffinity -1.67332065
REMARK minimizedRMSD -1
REMARK  0 active torsions:
REMARK  status: ('A' for Active; 'I' for Inactive)
ROOT
ATOM      1  C1  BNZ d   1      -0.572  -0.214  -0.013  0.00  0.00     0.000 A 
ATOM      2  C2  BNZ d   1       0.743  -0.436   0.300  0.00  0.00     0.000 A 
ATOM      3  C3  BNZ d   1       1.726   0.376  -0.192  0.00  0.00     0.000 A 
ATOM      4  C4  BNZ d   1       1.399   1.384  -1.026  0.00  0.00     0.000 A 
ATOM      5  C5  BNZ d   1       0.079   1.615  -1.358  0.00  0.00     0.000 A 
ATOM      6  C6  BNZ d   1      -0.912   0.820  -0.831  0.00  0.00     0.000 A 
ENDROOT
TORSDOF 0
ENDMDL
