MODEL 1
REMARK minimizedAffinity -2.37305498
REMARK minimizedRMSD -1
REMARK  0 active torsions:
REMARK  status: ('A' for Active; 'I' for Inactive)
ROOT
ATOM      1  C1  BNZ d   1       0.015  -0.909   0.114  0.00  0.00     0.000 A 
ATOM      2  C2  BNZ d   1       0.495  -1.897  -0.704  0.00  0.00     0.000 A 
ATOM      3  C3  BNZ d   1       1.608  -1.693  -1.470  0.00  0.00     0.000 A 
ATOM      4  C4  BNZ d   1       2.215  -0.489  -1.449  0.00  0.00     0.000 A 
ATOM      5  C5  BNZ d   1       1.738   0.521  -0.637  0.00  0.00     0.000 A 
ATOM      6  C6  BNZ d   1       0.641   0.298   0.163  0.00  0.00     0.000 A 
ENDROOT
TORSDOF 0
ENDMDL
