MODEL 1
REMARK minimizedAffinity 10.8227015
REMARK minimizedRMSD -1
REMARK  0 active torsions:
REMARK  status: ('A' for Active; 'I' for Inactive)
ROOT
ATOM      1  C   UNL d   1      -5.531  -5.957  -2.862  0.00  0.00     0.078 C 
ATOM      2  C1  UNL d   1      -5.061  -5.572  -1.491  0.00  0.00    -0.077 A 
ATOM      3  C2  UNL d   1      -5.856  -4.782  -0.652  0.00  0.00    -0.001 A 
ATOM      4  C3  UNL d   1      -5.402  -4.423   0.618  0.00  0.00     0.003 A 
ATOM      5  C4  UNL d   1      -4.150  -4.848   1.060  0.00  0.00    -0.005 A 
ATOM      6  C5  UNL d   1      -3.351  -5.633   0.231  0.00  0.00     0.003 A 
ATOM      7  C6  UNL d   1      -3.804  -5.993  -1.039  0.00  0.00    -0.001 A 
ENDROOT
TORSDOF 0
ENDMDL
