MODEL 1
REMARK minimizedAffinity 11.2468624
REMARK minimizedRMSD -1
REMARK  0 active torsions:
REMARK  status: ('A' for Active; 'I' for Inactive)
ROOT
ATOM      1  C   UNL d   1       0.960   5.513  -0.058  0.00  0.00     0.078 C 
ATOM      2  C1  UNL d   1       0.820   4.094  -0.522  0.00  0.00    -0.077 A 
ATOM      3  C2  UNL d   1       1.720   3.106  -0.102  0.00  0.00    -0.001 A 
ATOM      4  C3  UNL d   1       1.584   1.791  -0.549  0.00  0.00     0.003 A 
ATOM      5  C4  UNL d   1       0.550   1.452  -1.420  0.00  0.00    -0.005 A 
ATOM      6  C5  UNL d   1      -0.349   2.428  -1.844  0.00  0.00     0.003 A 
ATOM      7  C6  UNL d   1      -0.214   3.744  -1.398  0.00  0.00    -0.001 A 
ENDROOT
TORSDOF 0
ENDMDL
