MODEL 1
REMARK minimizedAffinity 6.25775909
REMARK minimizedRMSD -1
REMARK  0 active torsions:
REMARK  status: ('A' for Active; 'I' for Inactive)
ROOT
ATOM      1  C   UNL d   1      -5.091   4.508  -0.508  0.00  0.00     0.078 C 
ATOM      2  C1  UNL d   1      -4.042   4.344  -1.566  0.00  0.00    -0.077 A 
ATOM      3  C2  UNL d   1      -3.374   5.454  -2.098  0.00  0.00    -0.001 A 
ATOM      4  C3  UNL d   1      -2.406   5.287  -3.090  0.00  0.00     0.003 A 
ATOM      5  C4  UNL d   1      -2.098   4.012  -3.559  0.00  0.00    -0.005 A 
ATOM      6  C5  UNL d   1      -2.758   2.901  -3.037  0.00  0.00     0.003 A 
ATOM      7  C6  UNL d   1      -3.726   3.066  -2.045  0.00  0.00    -0.001 A 
ENDROOT
TORSDOF 0
ENDMDL
