MODEL 1
REMARK minimizedAffinity 11.6117678
REMARK minimizedRMSD -1
REMARK  0 active torsions:
REMARK  status: ('A' for Active; 'I' for Inactive)
ROOT
ATOM      1  C   UNL d   1      -5.154   4.840  -0.775  0.00  0.00     0.078 C 
ATOM      2  C1  UNL d   1      -4.035   4.256  -1.585  0.00  0.00    -0.077 A 
ATOM      3  C2  UNL d   1      -3.901   2.871  -1.737  0.00  0.00    -0.001 A 
ATOM      4  C3  UNL d   1      -2.849   2.341  -2.486  0.00  0.00     0.003 A 
ATOM      5  C4  UNL d   1      -1.922   3.190  -3.088  0.00  0.00    -0.005 A 
ATOM      6  C5  UNL d   1      -2.046   4.570  -2.941  0.00  0.00     0.003 A 
ATOM      7  C6  UNL d   1      -3.098   5.101  -2.192  0.00  0.00    -0.001 A 
ENDROOT
TORSDOF 0
ENDMDL
