MODEL 1
REMARK minimizedAffinity 11.4122362
REMARK minimizedRMSD -1
REMARK  0 active torsions:
REMARK  status: ('A' for Active; 'I' for Inactive)
ROOT
ATOM      1  C   UNL d   1      -5.395   1.184  -2.519  0.00  0.00     0.078 C 
ATOM      2  C1  UNL d   1      -4.427   2.323  -2.408  0.00  0.00    -0.077 A 
ATOM      3  C2  UNL d   1      -4.662   3.386  -1.526  0.00  0.00    -0.001 A 
ATOM      4  C3  UNL d   1      -3.757   4.445  -1.439  0.00  0.00     0.003 A 
ATOM      5  C4  UNL d   1      -2.612   4.453  -2.232  0.00  0.00    -0.005 A 
ATOM      6  C5  UNL d   1      -2.370   3.401  -3.114  0.00  0.00     0.003 A 
ATOM      7  C6  UNL d   1      -3.274   2.341  -3.202  0.00  0.00    -0.001 A 
ENDROOT
TORSDOF 0
ENDMDL
