MODEL 1
REMARK minimizedAffinity 8.6220541
REMARK minimizedRMSD -1
REMARK  0 active torsions:
REMARK  status: ('A' for Active; 'I' for Inactive)
ROOT
ATOM      1  C   UNL d   1      -2.305   4.198  -5.387  0.00  0.00     0.078 C 
ATOM      2  C1  UNL d   1      -2.261   3.820  -3.937  0.00  0.00    -0.077 A 
ATOM      3  C2  UNL d   1      -1.157   3.148  -3.400  0.00  0.00    -0.001 A 
ATOM      4  C3  UNL d   1      -1.134   2.794  -2.050  0.00  0.00     0.003 A 
ATOM      5  C4  UNL d   1      -2.213   3.106  -1.226  0.00  0.00    -0.005 A 
ATOM      6  C5  UNL d   1      -3.318   3.773  -1.752  0.00  0.00     0.003 A 
ATOM      7  C6  UNL d   1      -3.343   4.128  -3.102  0.00  0.00    -0.001 A 
ENDROOT
TORSDOF 0
ENDMDL
