MODEL 1
REMARK minimizedAffinity 15.0234728
REMARK minimizedRMSD -1
REMARK  0 active torsions:
REMARK  status: ('A' for Active; 'I' for Inactive)
ROOT
ATOM      1  C   UNL d   1      -1.935   2.280  -2.637  0.00  0.00     0.078 C 
ATOM      2  C1  UNL d   1      -1.940   3.571  -3.400  0.00  0.00    -0.077 A 
ATOM      3  C2  UNL d   1      -1.968   3.581  -4.800  0.00  0.00    -0.001 A 
ATOM      4  C3  UNL d   1      -1.963   4.790  -5.497  0.00  0.00     0.003 A 
ATOM      5  C4  UNL d   1      -1.929   5.998  -4.803  0.00  0.00    -0.005 A 
ATOM      6  C5  UNL d   1      -1.899   5.997  -3.410  0.00  0.00     0.003 A 
ATOM      7  C6  UNL d   1      -1.904   4.789  -2.711  0.00  0.00    -0.001 A 
ENDROOT
TORSDOF 0
ENDMDL
