MODEL 1
REMARK minimizedAffinity 3.13703442
REMARK minimizedRMSD -1
REMARK  0 active torsions:
REMARK  status: ('A' for Active; 'I' for Inactive)
ROOT
ATOM      1  C   UNL d   1      -3.072   3.625  -1.971  0.00  0.00     0.078 C 
ATOM      2  C1  UNL d   1      -2.791   4.084  -3.370  0.00  0.00    -0.077 A 
ATOM      3  C2  UNL d   1      -2.397   5.402  -3.631  0.00  0.00    -0.001 A 
ATOM      4  C3  UNL d   1      -2.148   5.819  -4.940  0.00  0.00     0.003 A 
ATOM      5  C4  UNL d   1      -2.292   4.924  -5.998  0.00  0.00    -0.005 A 
ATOM      6  C5  UNL d   1      -2.686   3.611  -5.749  0.00  0.00     0.003 A 
ATOM      7  C6  UNL d   1      -2.935   3.192  -4.441  0.00  0.00    -0.001 A 
ENDROOT
TORSDOF 0
ENDMDL
