MODEL 1
REMARK minimizedAffinity 6.3270793
REMARK minimizedRMSD -1
REMARK  0 active torsions:
REMARK  status: ('A' for Active; 'I' for Inactive)
ROOT
ATOM      1  C   UNL d   1      -1.448   2.216  -2.787  0.00  0.00     0.078 C 
ATOM      2  C1  UNL d   1      -2.309   3.379  -2.395  0.00  0.00    -0.077 A 
ATOM      3  C2  UNL d   1      -1.955   4.688  -2.742  0.00  0.00    -0.001 A 
ATOM      4  C3  UNL d   1      -2.761   5.762  -2.362  0.00  0.00     0.003 A 
ATOM      5  C4  UNL d   1      -3.926   5.539  -1.631  0.00  0.00    -0.005 A 
ATOM      6  C5  UNL d   1      -4.285   4.239  -1.278  0.00  0.00     0.003 A 
ATOM      7  C6  UNL d   1      -3.480   3.164  -1.658  0.00  0.00    -0.001 A 
ENDROOT
TORSDOF 0
ENDMDL
