MODEL 1
REMARK minimizedAffinity 0.451483011
REMARK minimizedRMSD -1
REMARK  0 active torsions:
REMARK  status: ('A' for Active; 'I' for Inactive)
ROOT
ATOM      1  C   UNL d   1       1.397  -1.849   1.712  0.00  0.00     0.078 C 
ATOM      2  C1  UNL d   1       0.132  -1.871   2.518  0.00  0.00    -0.077 A 
ATOM      3  C2  UNL d   1      -0.865  -2.822   2.269  0.00  0.00    -0.001 A 
ATOM      4  C3  UNL d   1      -2.041  -2.824   3.021  0.00  0.00     0.003 A 
ATOM      5  C4  UNL d   1      -2.232  -1.878   4.026  0.00  0.00    -0.005 A 
ATOM      6  C5  UNL d   1      -1.246  -0.927   4.279  0.00  0.00     0.003 A 
ATOM      7  C6  UNL d   1      -0.069  -0.922   3.529  0.00  0.00    -0.001 A 
ENDROOT
TORSDOF 0
ENDMDL
