MODEL 1
REMARK minimizedAffinity 14.6674967
REMARK minimizedRMSD -1
REMARK  0 active torsions:
REMARK  status: ('A' for Active; 'I' for Inactive)
ROOT
ATOM      1  C   UNL d   1      -1.496   6.000  -5.966  0.00  0.00     0.078 C 
ATOM      2  C1  UNL d   1      -1.708   5.192  -4.721  0.00  0.00    -0.077 A 
ATOM      3  C2  UNL d   1      -1.695   5.797  -3.458  0.00  0.00    -0.001 A 
ATOM      4  C3  UNL d   1      -1.884   5.031  -2.306  0.00  0.00     0.003 A 
ATOM      5  C4  UNL d   1      -2.087   3.656  -2.406  0.00  0.00    -0.005 A 
ATOM      6  C5  UNL d   1      -2.100   3.045  -3.658  0.00  0.00     0.003 A 
ATOM      7  C6  UNL d   1      -1.911   3.809  -4.811  0.00  0.00    -0.001 A 
ENDROOT
TORSDOF 0
ENDMDL
