MODEL 1
REMARK minimizedAffinity 6.84741163
REMARK minimizedRMSD -1
REMARK  0 active torsions:
REMARK  status: ('A' for Active; 'I' for Inactive)
ROOT
ATOM      1  C   UNL d   1       0.074  -0.854   3.434  0.00  0.00     0.078 C 
ATOM      2  C1  UNL d   1       1.045  -1.279   2.373  0.00  0.00    -0.077 A 
ATOM      3  C2  UNL d   1       1.037  -2.585   1.870  0.00  0.00    -0.001 A 
ATOM      4  C3  UNL d   1       1.953  -2.969   0.889  0.00  0.00     0.003 A 
ATOM      5  C4  UNL d   1       2.885  -2.053   0.405  0.00  0.00    -0.005 A 
ATOM      6  C5  UNL d   1       2.902  -0.752   0.902  0.00  0.00     0.003 A 
ATOM      7  C6  UNL d   1       1.987  -0.366   1.883  0.00  0.00    -0.001 A 
ENDROOT
TORSDOF 0
ENDMDL
