MODEL 1
REMARK minimizedAffinity 8.80079651
REMARK minimizedRMSD -1
REMARK  0 active torsions:
REMARK  status: ('A' for Active; 'I' for Inactive)
ROOT
ATOM      1  C   UNL d   1       1.665  -1.844   1.403  0.00  0.00     0.078 C 
ATOM      2  C1  UNL d   1       0.480  -1.830   2.323  0.00  0.00    -0.077 A 
ATOM      3  C2  UNL d   1       0.221  -0.729   3.148  0.00  0.00    -0.001 A 
ATOM      4  C3  UNL d   1      -0.880  -0.734   4.007  0.00  0.00     0.003 A 
ATOM      5  C4  UNL d   1      -1.729  -1.838   4.048  0.00  0.00    -0.005 A 
ATOM      6  C5  UNL d   1      -1.478  -2.939   3.232  0.00  0.00     0.003 A 
ATOM      7  C6  UNL d   1      -0.378  -2.936   2.373  0.00  0.00    -0.001 A 
ENDROOT
TORSDOF 0
ENDMDL
