MODEL 1
REMARK minimizedAffinity 3.69230008
REMARK minimizedRMSD -1
REMARK  0 active torsions:
REMARK  status: ('A' for Active; 'I' for Inactive)
ROOT
ATOM      1  C   UNL d   1       1.208  -2.271   1.927  0.00  0.00     0.078 C 
ATOM      2  C1  UNL d   1       0.146  -2.157   2.980  0.00  0.00    -0.077 A 
ATOM      3  C2  UNL d   1      -0.833  -3.147   3.126  0.00  0.00    -0.001 A 
ATOM      4  C3  UNL d   1      -1.821  -3.023   4.105  0.00  0.00     0.003 A 
ATOM      5  C4  UNL d   1      -1.840  -1.910   4.943  0.00  0.00    -0.005 A 
ATOM      6  C5  UNL d   1      -0.871  -0.918   4.803  0.00  0.00     0.003 A 
ATOM      7  C6  UNL d   1       0.117  -1.041   3.825  0.00  0.00    -0.001 A 
ENDROOT
TORSDOF 0
ENDMDL
