MODEL 1
REMARK minimizedAffinity 9.24001026
REMARK minimizedRMSD -1
REMARK  0 active torsions:
REMARK  status: ('A' for Active; 'I' for Inactive)
ROOT
ATOM      1  C   UNL d   1       1.385  -1.793   1.758  0.00  0.00     0.078 C 
ATOM      2  C1  UNL d   1       0.162  -1.715   2.622  0.00  0.00    -0.077 A 
ATOM      3  C2  UNL d   1      -0.815  -2.718   2.581  0.00  0.00    -0.001 A 
ATOM      4  C3  UNL d   1      -1.953  -2.627   3.384  0.00  0.00     0.003 A 
ATOM      5  C4  UNL d   1      -2.125  -1.536   4.233  0.00  0.00    -0.005 A 
ATOM      6  C5  UNL d   1      -1.160  -0.532   4.278  0.00  0.00     0.003 A 
ATOM      7  C6  UNL d   1      -0.021  -0.621   3.476  0.00  0.00    -0.001 A 
ENDROOT
TORSDOF 0
ENDMDL
