MODEL 1
REMARK minimizedAffinity 5.68035746
REMARK minimizedRMSD -1
REMARK  0 active torsions:
REMARK  status: ('A' for Active; 'I' for Inactive)
ROOT
ATOM      1  C   UNL d   1       1.540  -1.862   1.739  0.00  0.00     0.078 C 
ATOM      2  C1  UNL d   1       0.266  -1.898   2.529  0.00  0.00    -0.077 A 
ATOM      3  C2  UNL d   1      -0.097  -0.833   3.362  0.00  0.00    -0.001 A 
ATOM      4  C3  UNL d   1      -1.281  -0.884   4.100  0.00  0.00     0.003 A 
ATOM      5  C4  UNL d   1      -2.112  -2.000   4.012  0.00  0.00    -0.005 A 
ATOM      6  C5  UNL d   1      -1.758  -3.066   3.187  0.00  0.00     0.003 A 
ATOM      7  C6  UNL d   1      -0.574  -3.016   2.449  0.00  0.00    -0.001 A 
ENDROOT
TORSDOF 0
ENDMDL
