MODEL 1
REMARK minimizedAffinity 10.4175472
REMARK minimizedRMSD -1
REMARK  0 active torsions:
REMARK  status: ('A' for Active; 'I' for Inactive)
ROOT
ATOM      1  C   UNL d   1      -4.506   3.746  -0.865  0.00  0.00     0.078 C 
ATOM      2  C1  UNL d   1      -3.478   4.208  -1.855  0.00  0.00    -0.077 A 
ATOM      3  C2  UNL d   1      -2.867   3.306  -2.733  0.00  0.00    -0.001 A 
ATOM      4  C3  UNL d   1      -1.905   3.749  -3.643  0.00  0.00     0.003 A 
ATOM      5  C4  UNL d   1      -1.545   5.095  -3.681  0.00  0.00    -0.005 A 
ATOM      6  C5  UNL d   1      -2.147   5.999  -2.809  0.00  0.00     0.003 A 
ATOM      7  C6  UNL d   1      -3.109   5.558  -1.899  0.00  0.00    -0.001 A 
ENDROOT
TORSDOF 0
ENDMDL
