MODEL 1
REMARK minimizedAffinity 16.4899673
REMARK minimizedRMSD -1
REMARK  0 active torsions:
REMARK  status: ('A' for Active; 'I' for Inactive)
ROOT
ATOM      1  C1  DEN d   1       1.706  -5.906  -4.319  0.00  0.00     0.130 A 
ATOM      2  C2  DEN d   1       1.988  -5.168  -3.091  0.00  0.00    -0.031 A 
ATOM      3  C3  DEN d   1       0.785  -4.386  -2.741  0.00  0.00     0.027 A 
ATOM      4  C4  DEN d   1      -1.478  -4.253  -3.972  0.00  0.00     0.027 A 
ATOM      5  C5  DEN d   1      -2.188  -4.694  -5.067  0.00  0.00    -0.003 A 
ATOM      6  C6  DEN d   1      -1.643  -5.536  -6.000  0.00  0.00     0.001 A 
ATOM      7  C7  DEN d   1      -0.365  -6.000  -5.831  0.00  0.00     0.017 A 
ATOM      8  C8  DEN d   1       0.360  -5.554  -4.733  0.00  0.00    -0.094 A 
ATOM      9  C9  DEN d   1      -0.213  -4.712  -3.795  0.00  0.00    -0.072 A 
ENDROOT
TORSDOF 0
ENDMDL
