MODEL 1
REMARK minimizedAffinity 7.73602247
REMARK minimizedRMSD -1
REMARK  0 active torsions:
REMARK  status: ('A' for Active; 'I' for Inactive)
ROOT
ATOM      1  C1  DEN d   1       5.838  -2.427  -1.128  0.00  0.00     0.130 A 
ATOM      2  C2  DEN d   1       5.999  -1.619  -2.334  0.00  0.00    -0.031 A 
ATOM      3  C3  DEN d   1       5.623  -2.450  -3.495  0.00  0.00     0.027 A 
ATOM      4  C4  DEN d   1       4.805  -4.896  -3.542  0.00  0.00     0.027 A 
ATOM      5  C5  DEN d   1       4.519  -5.999  -2.768  0.00  0.00    -0.003 A 
ATOM      6  C6  DEN d   1       4.684  -6.000  -1.409  0.00  0.00     0.001 A 
ATOM      7  C7  DEN d   1       5.105  -4.860  -0.775  0.00  0.00     0.017 A 
ATOM      8  C8  DEN d   1       5.401  -3.746  -1.549  0.00  0.00    -0.094 A 
ATOM      9  C9  DEN d   1       5.216  -3.761  -2.921  0.00  0.00    -0.072 A 
ENDROOT
TORSDOF 0
ENDMDL
