MODEL 1
REMARK minimizedAffinity 22.2037735
REMARK minimizedRMSD -1
REMARK  0 active torsions:
REMARK  status: ('A' for Active; 'I' for Inactive)
ROOT
ATOM      1  C1  DEN d   1       0.547   2.352   1.611  0.00  0.00     0.130 A 
ATOM      2  C2  DEN d   1      -0.802   1.926   1.974  0.00  0.00    -0.031 A 
ATOM      3  C3  DEN d   1      -1.757   2.888   1.387  0.00  0.00     0.027 A 
ATOM      4  C4  DEN d   1      -1.280   4.979  -0.046  0.00  0.00     0.027 A 
ATOM      5  C5  DEN d   1      -0.289   5.752  -0.608  0.00  0.00    -0.003 A 
ATOM      6  C6  DEN d   1       1.041   5.468  -0.442  0.00  0.00     0.001 A 
ATOM      7  C7  DEN d   1       1.415   4.357   0.266  0.00  0.00     0.017 A 
ATOM      8  C8  DEN d   1       0.421   3.576   0.842  0.00  0.00    -0.094 A 
ATOM      9  C9  DEN d   1      -0.918   3.873   0.653  0.00  0.00    -0.072 A 
ENDROOT
TORSDOF 0
ENDMDL
