MODEL 1
REMARK minimizedAffinity 21.6012383
REMARK minimizedRMSD -1
REMARK  0 active torsions:
REMARK  status: ('A' for Active; 'I' for Inactive)
ROOT
ATOM      1  C1  DEN d   1      -1.824  -5.682  -4.611  0.00  0.00     0.130 A 
ATOM      2  C2  DEN d   1      -1.373  -5.754  -5.998  0.00  0.00    -0.031 A 
ATOM      3  C3  DEN d   1       0.104  -5.748  -5.999  0.00  0.00     0.027 A 
ATOM      4  C4  DEN d   1       1.727  -5.638  -3.997  0.00  0.00     0.027 A 
ATOM      5  C5  DEN d   1       1.813  -5.554  -2.625  0.00  0.00    -0.003 A 
ATOM      6  C6  DEN d   1       0.702  -5.472  -1.828  0.00  0.00     0.001 A 
ATOM      7  C7  DEN d   1      -0.545  -5.519  -2.393  0.00  0.00     0.017 A 
ATOM      8  C8  DEN d   1      -0.639  -5.597  -3.777  0.00  0.00    -0.094 A 
ATOM      9  C9  DEN d   1       0.495  -5.691  -4.565  0.00  0.00    -0.072 A 
ENDROOT
TORSDOF 0
ENDMDL
