MODEL 1
REMARK minimizedAffinity 21.4092712
REMARK minimizedRMSD -1
REMARK  0 active torsions:
REMARK  status: ('A' for Active; 'I' for Inactive)
ROOT
ATOM      1  C1  DEN d   1       5.892  -1.648  -4.203  0.00  0.00     0.130 A 
ATOM      2  C2  DEN d   1       5.744  -2.819  -5.063  0.00  0.00    -0.031 A 
ATOM      3  C3  DEN d   1       5.612  -4.008  -4.196  0.00  0.00     0.027 A 
ATOM      4  C4  DEN d   1       5.617  -4.147  -1.621  0.00  0.00     0.027 A 
ATOM      5  C5  DEN d   1       5.726  -3.417  -0.457  0.00  0.00    -0.003 A 
ATOM      6  C6  DEN d   1       5.931  -2.063  -0.461  0.00  0.00     0.001 A 
ATOM      7  C7  DEN d   1       5.987  -1.388  -1.652  0.00  0.00     0.017 A 
ATOM      8  C8  DEN d   1       5.885  -2.118  -2.829  0.00  0.00    -0.094 A 
ATOM      9  C9  DEN d   1       5.667  -3.485  -2.804  0.00  0.00    -0.072 A 
ENDROOT
TORSDOF 0
ENDMDL
