MODEL 1
REMARK minimizedAffinity 16.658041
REMARK minimizedRMSD -1
REMARK  0 active torsions:
REMARK  status: ('A' for Active; 'I' for Inactive)
ROOT
ATOM      1  C1  DEN d   1       2.885   6.000   1.507  0.00  0.00     0.130 A 
ATOM      2  C2  DEN d   1       3.560   5.104   2.442  0.00  0.00    -0.031 A 
ATOM      3  C3  DEN d   1       2.857   3.806   2.419  0.00  0.00     0.027 A 
ATOM      4  C4  DEN d   1       0.802   3.098   1.031  0.00  0.00     0.027 A 
ATOM      5  C5  DEN d   1      -0.127   3.520   0.105  0.00  0.00    -0.003 A 
ATOM      6  C6  DEN d   1      -0.137   4.797  -0.389  0.00  0.00     0.001 A 
ATOM      7  C7  DEN d   1       0.827   5.686   0.007  0.00  0.00     0.017 A 
ATOM      8  C8  DEN d   1       1.762   5.270   0.946  0.00  0.00    -0.094 A 
ATOM      9  C9  DEN d   1       1.764   3.971   1.424  0.00  0.00    -0.072 A 
ENDROOT
TORSDOF 0
ENDMDL
