MODEL 1
REMARK minimizedAffinity 12.8696585
REMARK minimizedRMSD -1
REMARK  0 active torsions:
REMARK  status: ('A' for Active; 'I' for Inactive)
ROOT
ATOM      1  C1  DEN d   1       5.700  -4.319  -3.682  0.00  0.00     0.130 A 
ATOM      2  C2  DEN d   1       5.888  -3.464  -4.850  0.00  0.00    -0.031 A 
ATOM      3  C3  DEN d   1       6.000  -2.068  -4.381  0.00  0.00     0.027 A 
ATOM      4  C4  DEN d   1       5.904  -1.154  -1.971  0.00  0.00     0.027 A 
ATOM      5  C5  DEN d   1       5.747  -1.496  -0.646  0.00  0.00    -0.003 A 
ATOM      6  C6  DEN d   1       5.531  -2.788  -0.246  0.00  0.00     0.001 A 
ATOM      7  C7  DEN d   1       5.511  -3.793  -1.178  0.00  0.00     0.017 A 
ATOM      8  C8  DEN d   1       5.661  -3.455  -2.516  0.00  0.00    -0.094 A 
ATOM      9  C9  DEN d   1       5.891  -2.144  -2.899  0.00  0.00    -0.072 A 
ENDROOT
TORSDOF 0
ENDMDL
