MODEL 1
REMARK minimizedAffinity 20.1115913
REMARK minimizedRMSD -1
REMARK  0 active torsions:
REMARK  status: ('A' for Active; 'I' for Inactive)
ROOT
ATOM      1  C1  DEN d   1       0.745   2.499   1.450  0.00  0.00     0.130 A 
ATOM      2  C2  DEN d   1      -0.331   2.276   2.412  0.00  0.00    -0.031 A 
ATOM      3  C3  DEN d   1      -1.417   3.231   2.112  0.00  0.00     0.027 A 
ATOM      4  C4  DEN d   1      -1.537   5.020   0.258  0.00  0.00     0.027 A 
ATOM      5  C5  DEN d   1      -0.859   5.592  -0.796  0.00  0.00    -0.003 A 
ATOM      6  C6  DEN d   1       0.404   5.200  -1.151  0.00  0.00     0.001 A 
ATOM      7  C7  DEN d   1       1.012   4.176  -0.473  0.00  0.00     0.017 A 
ATOM      8  C8  DEN d   1       0.338   3.599   0.595  0.00  0.00    -0.094 A 
ATOM      9  C9  DEN d   1      -0.944   4.001   0.930  0.00  0.00    -0.072 A 
ENDROOT
TORSDOF 0
ENDMDL
