MODEL 1
REMARK minimizedAffinity 11.6252089
REMARK minimizedRMSD -1
REMARK  0 active torsions:
REMARK  status: ('A' for Active; 'I' for Inactive)
ROOT
ATOM      1  C1  DEN d   1       2.976   4.923   2.280  0.00  0.00     0.130 A 
ATOM      2  C2  DEN d   1       3.103   3.715   3.091  0.00  0.00    -0.031 A 
ATOM      3  C3  DEN d   1       2.051   2.769   2.669  0.00  0.00     0.027 A 
ATOM      4  C4  DEN d   1       0.250   3.053   0.845  0.00  0.00     0.027 A 
ATOM      5  C5  DEN d   1      -0.262   3.911  -0.103  0.00  0.00    -0.003 A 
ATOM      6  C6  DEN d   1       0.244   5.170  -0.298  0.00  0.00     0.001 A 
ATOM      7  C7  DEN d   1       1.322   5.589   0.435  0.00  0.00     0.017 A 
ATOM      8  C8  DEN d   1       1.839   4.732   1.398  0.00  0.00    -0.094 A 
ATOM      9  C9  DEN d   1       1.322   3.459   1.571  0.00  0.00    -0.072 A 
ENDROOT
TORSDOF 0
ENDMDL
