MODEL 1
REMARK minimizedAffinity -4.53495264
REMARK minimizedRMSD -1
REMARK  3 active torsions:
REMARK  status: ('A' for Active; 'I' for Inactive)
REMARK    1  A    between atoms: C3'_2  and  C2'_3 
REMARK    2  A    between atoms: C2'_3  and  C1'_4 
REMARK    3  A    between atoms: C1'_4  and  C1_5 
ROOT
ATOM      1  C1  N4B d   1      -2.052   0.983   0.755  0.00  0.00    -0.075 A 
ATOM      2  C2  N4B d   1      -2.163   2.158   1.532  0.00  0.00     0.002 A 
ATOM      3  C3  N4B d   1      -3.383   2.535   2.037  0.00  0.00     0.002 A 
ATOM      4  C4  N4B d   1      -4.505   1.767   1.765  0.00  0.00    -0.004 A 
ATOM      5  C5  N4B d   1      -4.385   0.620   1.036  0.00  0.00     0.002 A 
ATOM      6  C6  N4B d   1      -3.165   0.227   0.525  0.00  0.00     0.002 A 
ENDROOT
BRANCH   1   7
ATOM      7  C1' N4B d   1      -0.756   0.577   0.110  0.00  0.00     0.057 C 
BRANCH   7   8
ATOM      8  C2' N4B d   1      -0.357  -0.806   0.615  0.00  0.00     0.009 C 
BRANCH   8   9
ATOM      9  C3' N4B d   1       0.441  -1.581  -0.420  0.00  0.00     0.004 C 
ATOM     10  C4' N4B d   1       1.915  -1.570  -0.145  0.00  0.00     0.003 C 
ENDBRANCH   8   9
ENDBRANCH   7   8
ENDBRANCH   1   7
TORSDOF 3
ENDMDL
