MODEL 1
REMARK minimizedAffinity -4.68129635
REMARK minimizedRMSD -1
REMARK  3 active torsions:
REMARK  status: ('A' for Active; 'I' for Inactive)
REMARK    1  A    between atoms: C3'_2  and  C2'_3 
REMARK    2  A    between atoms: C2'_3  and  C1'_4 
REMARK    3  A    between atoms: C1'_4  and  C1_5 
ROOT
ATOM      1  C1  N4B d   1      -0.931   0.207  -0.446  0.00  0.00    -0.075 A 
ATOM      2  C2  N4B d   1      -1.302   1.305  -1.252  0.00  0.00     0.002 A 
ATOM      3  C3  N4B d   1      -2.296   2.157  -0.836  0.00  0.00     0.002 A 
ATOM      4  C4  N4B d   1      -2.944   1.920   0.367  0.00  0.00    -0.004 A 
ATOM      5  C5  N4B d   1      -2.562   0.871   1.151  0.00  0.00     0.002 A 
ATOM      6  C6  N4B d   1      -1.562   0.009   0.748  0.00  0.00     0.002 A 
ENDROOT
BRANCH   1   7
ATOM      7  C1' N4B d   1       0.090  -0.801  -0.898  0.00  0.00     0.057 C 
BRANCH   7   8
ATOM      8  C2' N4B d   1       0.547  -1.625   0.302  0.00  0.00     0.009 C 
BRANCH   8   9
ATOM      9  C3' N4B d   1       2.056  -1.793   0.336  0.00  0.00     0.004 C 
ATOM     10  C4' N4B d   1       2.789  -0.505   0.108  0.00  0.00     0.003 C 
ENDBRANCH   8   9
ENDBRANCH   7   8
ENDBRANCH   1   7
TORSDOF 3
ENDMDL
