MODEL 1
REMARK minimizedAffinity -2.77407742
REMARK minimizedRMSD -1
REMARK  0 active torsions:
REMARK  status: ('A' for Active; 'I' for Inactive)
ROOT
ATOM      1  C2' OXE d   1       1.494  -0.453  -1.004  0.00  0.00     0.078 C 
ATOM      2  C1' OXE d   1       0.440   2.147  -1.090  0.00  0.00     0.078 C 
ATOM      3  C1  OXE d   1       0.024   1.257   0.054  0.00  0.00    -0.078 A 
ATOM      4  C2  OXE d   1       0.508  -0.029   0.063  0.00  0.00    -0.078 A 
ATOM      5  C3  OXE d   1       0.199  -0.875   1.124  0.00  0.00     0.003 A 
ATOM      6  C4  OXE d   1      -0.722  -0.479   2.101  0.00  0.00    -0.002 A 
ATOM      7  C5  OXE d   1      -1.258   0.813   2.090  0.00  0.00    -0.002 A 
ATOM      8  C6  OXE d   1      -0.863   1.706   1.099  0.00  0.00     0.003 A 
ENDROOT
TORSDOF 0
ENDMDL
