MODEL 1
REMARK minimizedAffinity -3.62882257
REMARK minimizedRMSD -1
REMARK  0 active torsions:
REMARK  status: ('A' for Active; 'I' for Inactive)
ROOT
ATOM      1  C2' OXE d   1       0.486   0.043  -0.553  0.00  0.00     0.078 C 
ATOM      2  C1' OXE d   1      -1.044  -0.783   1.651  0.00  0.00     0.078 C 
ATOM      3  C1  OXE d   1      -1.092   0.675   1.268  0.00  0.00    -0.078 A 
ATOM      4  C2  OXE d   1      -0.304   1.079   0.217  0.00  0.00    -0.078 A 
ATOM      5  C3  OXE d   1      -0.353   2.402  -0.213  0.00  0.00     0.003 A 
ATOM      6  C4  OXE d   1      -1.078   3.356   0.511  0.00  0.00    -0.002 A 
ATOM      7  C5  OXE d   1      -1.856   2.973   1.608  0.00  0.00    -0.002 A 
ATOM      8  C6  OXE d   1      -1.908   1.633   1.973  0.00  0.00     0.003 A 
ENDROOT
TORSDOF 0
ENDMDL
