MODEL 1
REMARK minimizedAffinity -2.92471051
REMARK minimizedRMSD -1
REMARK  0 active torsions:
REMARK  status: ('A' for Active; 'I' for Inactive)
ROOT
ATOM      1  C2' OXE d   1       1.687  -3.086  -2.008  0.00  0.00     0.078 C 
ATOM      2  C1' OXE d   1      -1.119  -3.159  -2.046  0.00  0.00     0.078 C 
ATOM      3  C1  OXE d   1      -0.455  -1.975  -1.388  0.00  0.00    -0.078 A 
ATOM      4  C2  OXE d   1       0.918  -1.971  -1.333  0.00  0.00    -0.078 A 
ATOM      5  C3  OXE d   1       1.582  -0.877  -0.786  0.00  0.00     0.003 A 
ATOM      6  C4  OXE d   1       0.864   0.146  -0.155  0.00  0.00    -0.002 A 
ATOM      7  C5  OXE d   1      -0.535   0.141  -0.165  0.00  0.00    -0.002 A 
ATOM      8  C6  OXE d   1      -1.208  -0.888  -0.813  0.00  0.00     0.003 A 
ENDROOT
TORSDOF 0
ENDMDL
