MODEL 1
REMARK minimizedAffinity -1.19627059
REMARK minimizedRMSD -1
REMARK  0 active torsions:
REMARK  status: ('A' for Active; 'I' for Inactive)
ROOT
ATOM      1  C2' OXE d   1       1.272   0.028  -1.336  0.00  0.00     0.078 C 
ATOM      2  C1' OXE d   1      -0.585  -0.754   0.618  0.00  0.00     0.078 C 
ATOM      3  C1  OXE d   1      -0.337  -1.696  -0.533  0.00  0.00    -0.078 A 
ATOM      4  C2  OXE d   1       0.539  -1.284  -1.509  0.00  0.00    -0.078 A 
ATOM      5  C3  OXE d   1       0.845  -2.138  -2.565  0.00  0.00     0.003 A 
ATOM      6  C4  OXE d   1       0.155  -3.346  -2.723  0.00  0.00    -0.002 A 
ATOM      7  C5  OXE d   1      -0.771  -3.766  -1.762  0.00  0.00    -0.002 A 
ATOM      8  C6  OXE d   1      -0.996  -2.974  -0.641  0.00  0.00     0.003 A 
ENDROOT
TORSDOF 0
ENDMDL
