MODEL 1
REMARK minimizedAffinity -3.55516386
REMARK minimizedRMSD -1
REMARK  0 active torsions:
REMARK  status: ('A' for Active; 'I' for Inactive)
ROOT
ATOM      1  C2' OXE d   1      -1.198   2.459   1.524  0.00  0.00     0.078 C 
ATOM      2  C1' OXE d   1       0.232   2.809  -0.866  0.00  0.00     0.078 C 
ATOM      3  C1  OXE d   1       0.216   1.432  -0.251  0.00  0.00    -0.078 A 
ATOM      4  C2  OXE d   1      -0.447   1.281   0.943  0.00  0.00    -0.078 A 
ATOM      5  C3  OXE d   1      -0.538   0.020   1.526  0.00  0.00     0.003 A 
ATOM      6  C4  OXE d   1       0.168  -1.063   0.988  0.00  0.00    -0.002 A 
ATOM      7  C5  OXE d   1       0.882  -0.921  -0.207  0.00  0.00    -0.002 A 
ATOM      8  C6  OXE d   1       0.881   0.307  -0.860  0.00  0.00     0.003 A 
ENDROOT
TORSDOF 0
ENDMDL
