MODEL 1
REMARK minimizedAffinity -1.37328625
REMARK minimizedRMSD -1
REMARK  0 active torsions:
REMARK  status: ('A' for Active; 'I' for Inactive)
ROOT
ATOM      1  C2' OXE d   1      -1.271   1.533   2.161  0.00  0.00     0.078 C 
ATOM      2  C1' OXE d   1      -0.351  -1.119   2.163  0.00  0.00     0.078 C 
ATOM      3  C1  OXE d   1      -0.064  -0.276   0.946  0.00  0.00    -0.078 A 
ATOM      4  C2  OXE d   1      -0.558   1.006   0.934  0.00  0.00    -0.078 A 
ATOM      5  C3  OXE d   1      -0.275   1.844  -0.141  0.00  0.00     0.003 A 
ATOM      6  C4  OXE d   1       0.376   1.346  -1.276  0.00  0.00    -0.002 A 
ATOM      7  C5  OXE d   1       0.854   0.032  -1.300  0.00  0.00    -0.002 A 
ATOM      8  C6  OXE d   1       0.680  -0.778  -0.183  0.00  0.00     0.003 A 
ENDROOT
TORSDOF 0
ENDMDL
