MODEL 1
REMARK minimizedAffinity -3.70098281
REMARK minimizedRMSD -1
REMARK  0 active torsions:
REMARK  status: ('A' for Active; 'I' for Inactive)
ROOT
ATOM      1  C2' OXE d   1      -0.537  -0.756   1.918  0.00  0.00     0.078 C 
ATOM      2  C1' OXE d   1      -1.775   1.669   1.232  0.00  0.00     0.078 C 
ATOM      3  C1  OXE d   1      -0.755   1.104   0.275  0.00  0.00    -0.078 A 
ATOM      4  C2  OXE d   1      -0.120  -0.058   0.641  0.00  0.00    -0.078 A 
ATOM      5  C3  OXE d   1       0.790  -0.651  -0.231  0.00  0.00     0.003 A 
ATOM      6  C4  OXE d   1       1.177   0.006  -1.405  0.00  0.00    -0.002 A 
ATOM      7  C5  OXE d   1       0.572   1.211  -1.777  0.00  0.00    -0.002 A 
ATOM      8  C6  OXE d   1      -0.425   1.750  -0.971  0.00  0.00     0.003 A 
ENDROOT
TORSDOF 0
ENDMDL
