MODEL 1
REMARK minimizedAffinity 0.734677315
REMARK minimizedRMSD -1
REMARK  0 active torsions:
REMARK  status: ('A' for Active; 'I' for Inactive)
ROOT
ATOM      1  C2' OXE d   1       0.811  -0.331  -0.750  0.00  0.00     0.078 C 
ATOM      2  C1' OXE d   1      -0.114   2.311  -0.950  0.00  0.00     0.078 C 
ATOM      3  C1  OXE d   1      -0.466   1.535   0.295  0.00  0.00    -0.078 A 
ATOM      4  C2  OXE d   1      -0.049   0.228   0.363  0.00  0.00    -0.078 A 
ATOM      5  C3  OXE d   1      -0.299  -0.516   1.513  0.00  0.00     0.003 A 
ATOM      6  C4  OXE d   1      -1.104   0.005   2.533  0.00  0.00    -0.002 A 
ATOM      7  C5  OXE d   1      -1.573   1.321   2.465  0.00  0.00    -0.002 A 
ATOM      8  C6  OXE d   1      -1.228   2.112   1.375  0.00  0.00     0.003 A 
ENDROOT
TORSDOF 0
ENDMDL
