MODEL 1
REMARK minimizedAffinity -3.14270902
REMARK minimizedRMSD -1
REMARK  0 active torsions:
REMARK  status: ('A' for Active; 'I' for Inactive)
ROOT
ATOM      1  C2' OXE d   1       1.778  -0.383  -0.727  0.00  0.00     0.078 C 
ATOM      2  C1' OXE d   1      -0.739  -0.512   0.509  0.00  0.00     0.078 C 
ATOM      3  C1  OXE d   1      -0.441  -1.505  -0.586  0.00  0.00    -0.078 A 
ATOM      4  C2  OXE d   1       0.776  -1.405  -1.217  0.00  0.00    -0.078 A 
ATOM      5  C3  OXE d   1       1.123  -2.331  -2.197  0.00  0.00     0.003 A 
ATOM      6  C4  OXE d   1       0.185  -3.266  -2.652  0.00  0.00    -0.002 A 
ATOM      7  C5  OXE d   1      -1.074  -3.360  -2.050  0.00  0.00    -0.002 A 
ATOM      8  C6  OXE d   1      -1.387  -2.517  -0.989  0.00  0.00     0.003 A 
ENDROOT
TORSDOF 0
ENDMDL
