MODEL 1
REMARK minimizedAffinity -4.41357279
REMARK minimizedRMSD -1
REMARK  0 active torsions:
REMARK  status: ('A' for Active; 'I' for Inactive)
ROOT
ATOM      1  C2' OXE d   1      -2.157   1.967   1.057  0.00  0.00     0.078 C 
ATOM      2  C1' OXE d   1      -0.754   2.337  -1.347  0.00  0.00     0.078 C 
ATOM      3  C1  OXE d   1      -0.488   1.076  -0.564  0.00  0.00    -0.078 A 
ATOM      4  C2  OXE d   1      -1.144   0.925   0.634  0.00  0.00    -0.078 A 
ATOM      5  C3  OXE d   1      -0.976  -0.245   1.370  0.00  0.00     0.003 A 
ATOM      6  C4  OXE d   1      -0.030  -1.199   0.977  0.00  0.00    -0.002 A 
ATOM      7  C5  OXE d   1       0.678  -1.046  -0.220  0.00  0.00    -0.002 A 
ATOM      8  C6  OXE d   1       0.430   0.062  -1.021  0.00  0.00     0.003 A 
ENDROOT
TORSDOF 0
ENDMDL
