MODEL 1
REMARK minimizedAffinity -4.07757998
REMARK minimizedRMSD -1
REMARK  0 active torsions:
REMARK  status: ('A' for Active; 'I' for Inactive)
ROOT
ATOM      1  C2' OXE d   1       1.143  -2.931  -2.266  0.00  0.00     0.078 C 
ATOM      2  C1' OXE d   1       0.295  -0.458  -3.288  0.00  0.00     0.078 C 
ATOM      3  C1  OXE d   1       0.362  -0.614  -1.790  0.00  0.00    -0.078 A 
ATOM      4  C2  OXE d   1       0.733  -1.842  -1.298  0.00  0.00    -0.078 A 
ATOM      5  C3  OXE d   1       0.864  -2.023   0.076  0.00  0.00     0.003 A 
ATOM      6  C4  OXE d   1       0.473  -1.014   0.965  0.00  0.00    -0.002 A 
ATOM      7  C5  OXE d   1       0.054   0.231   0.485  0.00  0.00    -0.002 A 
ATOM      8  C6  OXE d   1       0.033   0.461  -0.886  0.00  0.00     0.003 A 
ENDROOT
TORSDOF 0
ENDMDL
