MODEL 1
REMARK minimizedAffinity -2.59169912
REMARK minimizedRMSD -1
REMARK  0 active torsions:
REMARK  status: ('A' for Active; 'I' for Inactive)
ROOT
ATOM      1  C2' OXE d   1       0.075  -1.403  -0.105  0.00  0.00     0.078 C 
ATOM      2  C1' OXE d   1      -1.076  -1.709   2.437  0.00  0.00     0.078 C 
ATOM      3  C1  OXE d   1      -0.973  -0.313   1.875  0.00  0.00    -0.078 A 
ATOM      4  C2  OXE d   1      -0.366  -0.168   0.650  0.00  0.00    -0.078 A 
ATOM      5  C3  OXE d   1      -0.295   1.091   0.061  0.00  0.00     0.003 A 
ATOM      6  C4  OXE d   1      -0.696   2.229   0.770  0.00  0.00    -0.002 A 
ATOM      7  C5  OXE d   1      -1.281   2.108   2.036  0.00  0.00    -0.002 A 
ATOM      8  C6  OXE d   1      -1.465   0.843   2.583  0.00  0.00     0.003 A 
ENDROOT
TORSDOF 0
ENDMDL
