MODEL 1
REMARK minimizedAffinity -2.04812241
REMARK minimizedRMSD -1
REMARK  0 active torsions:
REMARK  status: ('A' for Active; 'I' for Inactive)
ROOT
ATOM      1  C2' OXE d   1      -0.345   0.419  -0.702  0.00  0.00     0.078 C 
ATOM      2  C1' OXE d   1       1.343  -1.158   0.893  0.00  0.00     0.078 C 
ATOM      3  C1  OXE d   1       0.899  -1.722  -0.433  0.00  0.00    -0.078 A 
ATOM      4  C2  OXE d   1       0.035  -0.963  -1.186  0.00  0.00    -0.078 A 
ATOM      5  C3  OXE d   1      -0.362  -1.413  -2.442  0.00  0.00     0.003 A 
ATOM      6  C4  OXE d   1      -0.013  -2.697  -2.878  0.00  0.00    -0.002 A 
ATOM      7  C5  OXE d   1       0.833  -3.503  -2.109  0.00  0.00    -0.002 A 
ATOM      8  C6  OXE d   1       1.331  -3.014  -0.906  0.00  0.00     0.003 A 
ENDROOT
TORSDOF 0
ENDMDL
