MODEL 1
REMARK minimizedAffinity -2.61921167
REMARK minimizedRMSD -1
REMARK  0 active torsions:
REMARK  status: ('A' for Active; 'I' for Inactive)
ROOT
ATOM      1  C2' OXE d   1      -1.354  -3.219  -1.768  0.00  0.00     0.078 C 
ATOM      2  C1' OXE d   1       1.435  -2.905  -1.718  0.00  0.00     0.078 C 
ATOM      3  C1  OXE d   1       0.602  -1.914  -0.945  0.00  0.00    -0.078 A 
ATOM      4  C2  OXE d   1      -0.764  -2.047  -1.013  0.00  0.00    -0.078 A 
ATOM      5  C3  OXE d   1      -1.578  -1.193  -0.274  0.00  0.00     0.003 A 
ATOM      6  C4  OXE d   1      -1.025  -0.106   0.413  0.00  0.00    -0.002 A 
ATOM      7  C5  OXE d   1       0.362   0.072   0.463  0.00  0.00    -0.002 A 
ATOM      8  C6  OXE d   1       1.190  -0.846  -0.174  0.00  0.00     0.003 A 
ENDROOT
TORSDOF 0
ENDMDL
