MODEL 1
REMARK minimizedAffinity -5.70153236
REMARK minimizedRMSD -1
REMARK  0 active torsions:
REMARK  status: ('A' for Active; 'I' for Inactive)
ROOT
ATOM      1  C2' OXE d   1      -0.783   0.089   1.951  0.00  0.00     0.078 C 
ATOM      2  C1' OXE d   1       0.582  -0.273  -0.475  0.00  0.00     0.078 C 
ATOM      3  C1  OXE d   1       0.115   1.119  -0.132  0.00  0.00    -0.078 A 
ATOM      4  C2  OXE d   1      -0.593   1.279   1.035  0.00  0.00    -0.078 A 
ATOM      5  C3  OXE d   1      -1.000   2.551   1.426  0.00  0.00     0.003 A 
ATOM      6  C4  OXE d   1      -0.829   3.645   0.569  0.00  0.00    -0.002 A 
ATOM      7  C5  OXE d   1      -0.146   3.497  -0.643  0.00  0.00    -0.002 A 
ATOM      8  C6  OXE d   1       0.369   2.252  -0.988  0.00  0.00     0.003 A 
ENDROOT
TORSDOF 0
ENDMDL
