MODEL 1
REMARK minimizedAffinity -3.79497504
REMARK minimizedRMSD -1
REMARK  0 active torsions:
REMARK  status: ('A' for Active; 'I' for Inactive)
ROOT
ATOM      1  C2' OXE d   1       1.193   1.574  -1.521  0.00  0.00     0.078 C 
ATOM      2  C1' OXE d   1       0.732  -1.142  -0.984  0.00  0.00     0.078 C 
ATOM      3  C1  OXE d   1       0.130  -0.128  -0.044  0.00  0.00    -0.078 A 
ATOM      4  C2  OXE d   1       0.400   1.198  -0.288  0.00  0.00    -0.078 A 
ATOM      5  C3  OXE d   1      -0.176   2.177   0.516  0.00  0.00     0.003 A 
ATOM      6  C4  OXE d   1      -0.900   1.820   1.659  0.00  0.00    -0.002 A 
ATOM      7  C5  OXE d   1      -1.154   0.475   1.948  0.00  0.00    -0.002 A 
ATOM      8  C6  OXE d   1      -0.682  -0.508   1.085  0.00  0.00     0.003 A 
ENDROOT
TORSDOF 0
ENDMDL
