MODEL 1
REMARK minimizedAffinity 6.08678102
REMARK minimizedRMSD -1
REMARK  1 active torsions:
REMARK  status: ('A' for Active; 'I' for Inactive)
REMARK    1  A    between atoms: C1_2  and  C2_3 
ROOT
ATOM      1  C2  UNL d   1       0.929   2.168   1.470  0.00  0.00    -0.076 A 
ATOM      2  C3  UNL d   1      -0.044   3.097   1.880  0.00  0.00     0.004 A 
ATOM      3  C4  UNL d   1      -1.384   2.932   1.532  0.00  0.00    -0.003 A 
ATOM      4  C5  UNL d   1      -1.772   1.835   0.770  0.00  0.00     0.000 A 
ATOM      5  C6  UNL d   1      -0.823   0.895   0.370  0.00  0.00     0.000 A 
ATOM      6  C7  UNL d   1       0.529   1.038   0.726  0.00  0.00    -0.073 A 
ATOM      7  C8  UNL d   1       1.511  -0.003   0.263  0.00  0.00     0.078 C 
ENDROOT
BRANCH   1   8
ATOM      8  C1  UNL d   1       2.371   2.414   1.855  0.00  0.00     0.053 C 
ATOM      9  C   UNL d   1       2.504   3.334   3.058  0.00  0.00     0.018 C 
ENDBRANCH   1   8
TORSDOF 1
ENDMDL
