MODEL 1
REMARK minimizedAffinity 8.33837605
REMARK minimizedRMSD -1
REMARK  1 active torsions:
REMARK  status: ('A' for Active; 'I' for Inactive)
REMARK    1  A    between atoms: C1_2  and  C2_3 
ROOT
ATOM      1  C2  UNL d   1       0.689   1.087   0.807  0.00  0.00    -0.076 A 
ATOM      2  C3  UNL d   1       0.620  -0.312   0.685  0.00  0.00     0.004 A 
ATOM      3  C4  UNL d   1      -0.599  -0.981   0.780  0.00  0.00    -0.003 A 
ATOM      4  C5  UNL d   1      -1.769  -0.263   0.999  0.00  0.00     0.000 A 
ATOM      5  C6  UNL d   1      -1.721   1.127   1.105  0.00  0.00     0.000 A 
ATOM      6  C7  UNL d   1      -0.503   1.819   0.994  0.00  0.00    -0.073 A 
ATOM      7  C8  UNL d   1      -0.510   3.317   1.122  0.00  0.00     0.078 C 
ENDROOT
BRANCH   1   8
ATOM      8  C1  UNL d   1       2.042   1.756   0.721  0.00  0.00     0.053 C 
ATOM      9  C   UNL d   1       2.431   2.451   2.017  0.00  0.00     0.018 C 
ENDBRANCH   1   8
TORSDOF 1
ENDMDL
