MODEL 1
REMARK minimizedAffinity 2.4145937
REMARK minimizedRMSD -1
REMARK  1 active torsions:
REMARK  status: ('A' for Active; 'I' for Inactive)
REMARK    1  A    between atoms: C1_2  and  C2_3 
ROOT
ATOM      1  C2  UNL d   1      -2.722   3.373  -5.980  0.00  0.00    -0.076 A 
ATOM      2  C3  UNL d   1      -1.856   4.480  -5.964  0.00  0.00     0.004 A 
ATOM      3  C4  UNL d   1      -2.354   5.781  -5.972  0.00  0.00    -0.003 A 
ATOM      4  C5  UNL d   1      -3.728   5.997  -5.996  0.00  0.00     0.000 A 
ATOM      5  C6  UNL d   1      -4.602   4.910  -5.994  0.00  0.00     0.000 A 
ATOM      6  C7  UNL d   1      -4.116   3.592  -5.970  0.00  0.00    -0.073 A 
ATOM      7  C8  UNL d   1      -5.104   2.458  -5.975  0.00  0.00     0.078 C 
ENDROOT
BRANCH   1   8
ATOM      8  C1  UNL d   1      -2.123   1.985  -5.998  0.00  0.00     0.053 C 
ATOM      9  C   UNL d   1      -0.602   2.006  -5.999  0.00  0.00     0.018 C 
ENDBRANCH   1   8
TORSDOF 1
ENDMDL
