MODEL 1
REMARK minimizedAffinity 8.21903419
REMARK minimizedRMSD -1
REMARK  1 active torsions:
REMARK  status: ('A' for Active; 'I' for Inactive)
REMARK    1  A    between atoms: C1_2  and  C2_3 
ROOT
ATOM      1  C2  UNL d   1       1.588   2.849   2.580  0.00  0.00    -0.076 A 
ATOM      2  C3  UNL d   1       1.532   3.512   3.818  0.00  0.00     0.004 A 
ATOM      3  C4  UNL d   1       0.309   3.839   4.402  0.00  0.00    -0.003 A 
ATOM      4  C5  UNL d   1      -0.878   3.508   3.757  0.00  0.00     0.000 A 
ATOM      5  C6  UNL d   1      -0.841   2.835   2.536  0.00  0.00     0.000 A 
ATOM      6  C7  UNL d   1       0.384   2.483   1.942  0.00  0.00    -0.073 A 
ATOM      7  C8  UNL d   1       0.365   1.763   0.622  0.00  0.00     0.078 C 
ENDROOT
BRANCH   1   8
ATOM      8  C1  UNL d   1       2.943   2.545   1.982  0.00  0.00     0.053 C 
ATOM      9  C   UNL d   1       4.066   3.313   2.663  0.00  0.00     0.018 C 
ENDBRANCH   1   8
TORSDOF 1
ENDMDL
