MODEL 1
REMARK minimizedAffinity 7.15866137
REMARK minimizedRMSD -1
REMARK  1 active torsions:
REMARK  status: ('A' for Active; 'I' for Inactive)
REMARK    1  A    between atoms: C1_2  and  C2_3 
ROOT
ATOM      1  C2  UNL d   1       0.441   1.403   1.190  0.00  0.00    -0.076 A 
ATOM      2  C3  UNL d   1      -0.658   2.254   1.396  0.00  0.00     0.004 A 
ATOM      3  C4  UNL d   1      -1.959   1.818   1.153  0.00  0.00    -0.003 A 
ATOM      4  C5  UNL d   1      -2.182   0.522   0.700  0.00  0.00     0.000 A 
ATOM      5  C6  UNL d   1      -1.105  -0.342   0.507  0.00  0.00     0.000 A 
ATOM      6  C7  UNL d   1       0.212   0.077   0.763  0.00  0.00    -0.073 A 
ATOM      7  C8  UNL d   1       1.336  -0.895   0.532  0.00  0.00     0.078 C 
ENDROOT
BRANCH   1   8
ATOM      8  C1  UNL d   1       1.832   1.940   1.444  0.00  0.00     0.053 C 
ATOM      9  C   UNL d   1       1.935   2.688   2.765  0.00  0.00     0.018 C 
ENDBRANCH   1   8
TORSDOF 1
ENDMDL
