MODEL 1
REMARK minimizedAffinity 2.3451004
REMARK minimizedRMSD -1
REMARK  1 active torsions:
REMARK  status: ('A' for Active; 'I' for Inactive)
REMARK    1  A    between atoms: C1_2  and  C2_3 
ROOT
ATOM      1  C2  UNL d   1      -3.486   5.250  -5.711  0.00  0.00    -0.076 A 
ATOM      2  C3  UNL d   1      -4.678   5.994  -5.752  0.00  0.00     0.004 A 
ATOM      3  C4  UNL d   1      -5.913   5.363  -5.895  0.00  0.00    -0.003 A 
ATOM      4  C5  UNL d   1      -5.976   3.978  -5.998  0.00  0.00     0.000 A 
ATOM      5  C6  UNL d   1      -4.805   3.223  -5.941  0.00  0.00     0.000 A 
ATOM      6  C7  UNL d   1      -3.554   3.842  -5.781  0.00  0.00    -0.073 A 
ATOM      7  C8  UNL d   1      -2.322   2.979  -5.732  0.00  0.00     0.078 C 
ENDROOT
BRANCH   1   8
ATOM      8  C1  UNL d   1      -2.174   5.990  -5.581  0.00  0.00     0.053 C 
ATOM      9  C   UNL d   1      -1.639   5.984  -4.158  0.00  0.00     0.018 C 
ENDBRANCH   1   8
TORSDOF 1
ENDMDL
