MODEL 1
REMARK minimizedAffinity -3.16138196
REMARK minimizedRMSD -1
REMARK  1 active torsions:
REMARK  status: ('A' for Active; 'I' for Inactive)
REMARK    1  A    between atoms: C1_2  and  C2_3 
ROOT
ATOM      1  C2  UNL d   1      -0.482   0.767   0.380  0.00  0.00    -0.076 A 
ATOM      2  C3  UNL d   1      -0.780   2.125   0.586  0.00  0.00     0.004 A 
ATOM      3  C4  UNL d   1      -2.100   2.565   0.675  0.00  0.00    -0.003 A 
ATOM      4  C5  UNL d   1      -3.143   1.653   0.560  0.00  0.00     0.000 A 
ATOM      5  C6  UNL d   1      -2.866   0.299   0.374  0.00  0.00     0.000 A 
ATOM      6  C7  UNL d   1      -1.540  -0.163   0.298  0.00  0.00    -0.073 A 
ATOM      7  C8  UNL d   1      -1.299  -1.633   0.089  0.00  0.00     0.078 C 
ENDROOT
BRANCH   1   8
ATOM      8  C1  UNL d   1       0.968   0.353   0.264  0.00  0.00     0.053 C 
ATOM      9  C   UNL d   1       1.885   1.192   1.140  0.00  0.00     0.018 C 
ENDBRANCH   1   8
TORSDOF 1
ENDMDL
