MODEL 1
REMARK minimizedAffinity 9.04878998
REMARK minimizedRMSD -1
REMARK  1 active torsions:
REMARK  status: ('A' for Active; 'I' for Inactive)
REMARK    1  A    between atoms: C1_2  and  C2_3 
ROOT
ATOM      1  C2  UNL d   1      -1.009   1.893   0.887  0.00  0.00    -0.076 A 
ATOM      2  C3  UNL d   1      -2.413   1.840   0.920  0.00  0.00     0.004 A 
ATOM      3  C4  UNL d   1      -3.095   0.664   0.613  0.00  0.00    -0.003 A 
ATOM      4  C5  UNL d   1      -2.383  -0.480   0.269  0.00  0.00     0.000 A 
ATOM      5  C6  UNL d   1      -0.989  -0.451   0.248  0.00  0.00     0.000 A 
ATOM      6  C7  UNL d   1      -0.286   0.723   0.570  0.00  0.00    -0.073 A 
ATOM      7  C8  UNL d   1       1.217   0.699   0.526  0.00  0.00     0.078 C 
ENDROOT
BRANCH   1   8
ATOM      8  C1  UNL d   1      -0.326   3.204   1.202  0.00  0.00     0.053 C 
ATOM      9  C   UNL d   1       0.055   3.324   2.670  0.00  0.00     0.018 C 
ENDBRANCH   1   8
TORSDOF 1
ENDMDL
