MODEL 1
REMARK minimizedAffinity 6.82408667
REMARK minimizedRMSD -1
REMARK  0 active torsions:
REMARK  status: ('A' for Active; 'I' for Inactive)
ROOT
ATOM      1  C2' OXE d   1       1.662  -0.247  -0.340  0.00  0.00     0.078 C 
ATOM      2  C1' OXE d   1       3.651   1.733  -0.331  0.00  0.00     0.078 C 
ATOM      3  C1  OXE d   1       2.679   1.708   0.821  0.00  0.00    -0.078 A 
ATOM      4  C2  OXE d   1       1.680   0.764   0.785  0.00  0.00    -0.078 A 
ATOM      5  C3  OXE d   1       0.790   0.662   1.850  0.00  0.00     0.003 A 
ATOM      6  C4  OXE d   1       0.807   1.608   2.882  0.00  0.00    -0.002 A 
ATOM      7  C5  OXE d   1       1.791   2.602   2.918  0.00  0.00    -0.002 A 
ATOM      8  C6  OXE d   1       2.758   2.639   1.920  0.00  0.00     0.003 A 
ENDROOT
TORSDOF 0
ENDMDL
