MODEL 1
REMARK minimizedAffinity 11.4914951
REMARK minimizedRMSD -1
REMARK  0 active torsions:
REMARK  status: ('A' for Active; 'I' for Inactive)
ROOT
ATOM      1  C2' OXE d   1       2.265   3.076   3.261  0.00  0.00     0.078 C 
ATOM      2  C1' OXE d   1       0.751   0.714   3.194  0.00  0.00     0.078 C 
ATOM      3  C1  OXE d   1       1.611   1.032   1.997  0.00  0.00    -0.078 A 
ATOM      4  C2  OXE d   1       2.313   2.213   2.019  0.00  0.00    -0.078 A 
ATOM      5  C3  OXE d   1       3.165   2.529   0.964  0.00  0.00     0.003 A 
ATOM      6  C4  OXE d   1       3.196   1.730  -0.186  0.00  0.00    -0.002 A 
ATOM      7  C5  OXE d   1       2.458   0.543  -0.245  0.00  0.00    -0.002 A 
ATOM      8  C6  OXE d   1       1.696   0.158   0.852  0.00  0.00     0.003 A 
ENDROOT
TORSDOF 0
ENDMDL
