MODEL 1
REMARK minimizedAffinity 17.865469
REMARK minimizedRMSD -1
REMARK  0 active torsions:
REMARK  status: ('A' for Active; 'I' for Inactive)
ROOT
ATOM      1  C2' OXE d   1       2.306  -5.346   5.999  0.00  0.00     0.078 C 
ATOM      2  C1' OXE d   1      -0.424  -6.000   6.000  0.00  0.00     0.078 C 
ATOM      3  C1  OXE d   1      -0.000  -4.749   5.271  0.00  0.00    -0.078 A 
ATOM      4  C2  OXE d   1       1.331  -4.412   5.316  0.00  0.00    -0.078 A 
ATOM      5  C3  OXE d   1       1.784  -3.297   4.615  0.00  0.00     0.003 A 
ATOM      6  C4  OXE d   1       0.874  -2.433   3.994  0.00  0.00    -0.002 A 
ATOM      7  C5  OXE d   1      -0.491  -2.736   3.971  0.00  0.00    -0.002 A 
ATOM      8  C6  OXE d   1      -0.938  -3.910   4.567  0.00  0.00     0.003 A 
ENDROOT
TORSDOF 0
ENDMDL
