MODEL 1
REMARK minimizedAffinity 15.6677942
REMARK minimizedRMSD -1
REMARK  0 active torsions:
REMARK  status: ('A' for Active; 'I' for Inactive)
ROOT
ATOM      1  C2' OXE d   1       2.880   4.057   2.932  0.00  0.00     0.078 C 
ATOM      2  C1' OXE d   1       4.900   5.999   3.093  0.00  0.00     0.078 C 
ATOM      3  C1  OXE d   1       4.516   5.497   1.724  0.00  0.00    -0.078 A 
ATOM      4  C2  OXE d   1       3.559   4.513   1.658  0.00  0.00    -0.078 A 
ATOM      5  C3  OXE d   1       3.128   4.053   0.417  0.00  0.00     0.003 A 
ATOM      6  C4  OXE d   1       3.768   4.472  -0.756  0.00  0.00    -0.002 A 
ATOM      7  C5  OXE d   1       4.772   5.445  -0.707  0.00  0.00    -0.002 A 
ATOM      8  C6  OXE d   1       5.127   5.997   0.518  0.00  0.00     0.003 A 
ENDROOT
TORSDOF 0
ENDMDL
