MODEL 1
REMARK minimizedAffinity 9.57751656
REMARK minimizedRMSD -1
REMARK  0 active torsions:
REMARK  status: ('A' for Active; 'I' for Inactive)
ROOT
ATOM      1  C2' OXE d   1       1.503   1.932   2.250  0.00  0.00     0.078 C 
ATOM      2  C1' OXE d   1       3.576   3.635   1.426  0.00  0.00     0.078 C 
ATOM      3  C1  OXE d   1       3.194   2.499   0.512  0.00  0.00    -0.078 A 
ATOM      4  C2  OXE d   1       2.210   1.642   0.944  0.00  0.00    -0.078 A 
ATOM      5  C3  OXE d   1       1.781   0.610   0.115  0.00  0.00     0.003 A 
ATOM      6  C4  OXE d   1       2.448   0.343  -1.087  0.00  0.00    -0.002 A 
ATOM      7  C5  OXE d   1       3.479   1.179  -1.528  0.00  0.00    -0.002 A 
ATOM      8  C6  OXE d   1       3.835   2.284  -0.762  0.00  0.00     0.003 A 
ENDROOT
TORSDOF 0
ENDMDL
