MODEL 1
REMARK minimizedAffinity 19.4380054
REMARK minimizedRMSD -1
REMARK  0 active torsions:
REMARK  status: ('A' for Active; 'I' for Inactive)
ROOT
ATOM      1  C2' OXE d   1       2.682  -0.779  -1.096  0.00  0.00     0.078 C 
ATOM      2  C1' OXE d   1       4.096   1.646  -1.111  0.00  0.00     0.078 C 
ATOM      3  C1  OXE d   1       2.635   1.686  -0.738  0.00  0.00    -0.078 A 
ATOM      4  C2  OXE d   1       1.940   0.501  -0.779  0.00  0.00    -0.078 A 
ATOM      5  C3  OXE d   1       0.603   0.473  -0.391  0.00  0.00     0.003 A 
ATOM      6  C4  OXE d   1      -0.078   1.663  -0.109  0.00  0.00    -0.002 A 
ATOM      7  C5  OXE d   1       0.602   2.885  -0.100  0.00  0.00    -0.002 A 
ATOM      8  C6  OXE d   1       1.965   2.909  -0.370  0.00  0.00     0.003 A 
ENDROOT
TORSDOF 0
ENDMDL
