MODEL 1
REMARK minimizedAffinity 9.58323765
REMARK minimizedRMSD -1
REMARK  0 active torsions:
REMARK  status: ('A' for Active; 'I' for Inactive)
ROOT
ATOM      1  C2' OXE d   1       5.621   1.854   4.187  0.00  0.00     0.078 C 
ATOM      2  C1' OXE d   1       4.124   3.203   2.234  0.00  0.00     0.078 C 
ATOM      3  C1  OXE d   1       4.380   3.914   3.539  0.00  0.00    -0.078 A 
ATOM      4  C2  OXE d   1       5.074   3.228   4.507  0.00  0.00    -0.078 A 
ATOM      5  C3  OXE d   1       5.385   3.857   5.708  0.00  0.00     0.003 A 
ATOM      6  C4  OXE d   1       4.866   5.125   6.000  0.00  0.00    -0.002 A 
ATOM      7  C5  OXE d   1       4.124   5.825   5.043  0.00  0.00    -0.002 A 
ATOM      8  C6  OXE d   1       3.908   5.252   3.795  0.00  0.00     0.003 A 
ENDROOT
TORSDOF 0
ENDMDL
