MODEL 1
REMARK minimizedAffinity 10.7339277
REMARK minimizedRMSD -1
REMARK  0 active torsions:
REMARK  status: ('A' for Active; 'I' for Inactive)
ROOT
ATOM      1  C2' OXE d   1       2.082   1.115   1.833  0.00  0.00     0.078 C 
ATOM      2  C1' OXE d   1       4.211  -0.709   1.961  0.00  0.00     0.078 C 
ATOM      3  C1  OXE d   1       3.259  -0.820   0.797  0.00  0.00    -0.078 A 
ATOM      4  C2  OXE d   1       2.193   0.046   0.767  0.00  0.00    -0.078 A 
ATOM      5  C3  OXE d   1       1.315   0.023  -0.313  0.00  0.00     0.003 A 
ATOM      6  C4  OXE d   1       1.419  -0.975  -1.289  0.00  0.00    -0.002 A 
ATOM      7  C5  OXE d   1       2.474  -1.893  -1.257  0.00  0.00    -0.002 A 
ATOM      8  C6  OXE d   1       3.425  -1.803  -0.246  0.00  0.00     0.003 A 
ENDROOT
TORSDOF 0
ENDMDL
