MODEL 1
REMARK minimizedAffinity 11.5060129
REMARK minimizedRMSD -1
REMARK  0 active torsions:
REMARK  status: ('A' for Active; 'I' for Inactive)
ROOT
ATOM      1  C2' OXE d   1       4.798   2.095  -1.335  0.00  0.00     0.078 C 
ATOM      2  C1' OXE d   1       5.690   0.354   0.679  0.00  0.00     0.078 C 
ATOM      3  C1  OXE d   1       4.262   0.217   0.212  0.00  0.00    -0.078 A 
ATOM      4  C2  OXE d   1       3.821   1.103  -0.741  0.00  0.00    -0.078 A 
ATOM      5  C3  OXE d   1       2.530   0.985  -1.247  0.00  0.00     0.003 A 
ATOM      6  C4  OXE d   1       1.629   0.072  -0.686  0.00  0.00    -0.002 A 
ATOM      7  C5  OXE d   1       2.047  -0.814   0.313  0.00  0.00    -0.002 A 
ATOM      8  C6  OXE d   1       3.369  -0.783   0.742  0.00  0.00     0.003 A 
ENDROOT
TORSDOF 0
ENDMDL
