MODEL 1
REMARK minimizedAffinity 4.57637978
REMARK minimizedRMSD -1
REMARK  1 active torsions:
REMARK  status: ('A' for Active; 'I' for Inactive)
REMARK    1  A    between atoms: N_2  and  C1_3 
ROOT
ATOM      1  C1  UNL d   1      -4.562   3.731   1.142  0.00  0.00     0.143 A 
ATOM      2  C2  UNL d   1      -3.454   2.994   0.708  0.00  0.00    -0.057 A 
ATOM      3  C3  UNL d   1      -2.269   2.959   1.452  0.00  0.00     0.033 A 
ATOM      4  C4  UNL d   1      -2.160   3.686   2.633  0.00  0.00    -0.042 A 
ATOM      5  C5  UNL d   1      -3.240   4.446   3.070  0.00  0.00     0.033 A 
ATOM      6  C6  UNL d   1      -4.423   4.471   2.326  0.00  0.00    -0.057 A 
ENDROOT
BRANCH   1   7
ATOM      7  N   UNL d   1      -5.734   3.885   0.397  0.00  0.00    -0.732 N 
ATOM      8  C   UNL d   1      -5.994   3.042  -0.751  0.00  0.00     0.284 C 
ATOM      9  H3  UNL d   1      -6.548   4.050   0.984  0.00  0.00     0.395 HD
ENDBRANCH   1   7
TORSDOF 1
ENDMDL
