MODEL 1
REMARK minimizedAffinity 0.986738265
REMARK minimizedRMSD -1
REMARK  1 active torsions:
REMARK  status: ('A' for Active; 'I' for Inactive)
REMARK    1  A    between atoms: N_2  and  C1_3 
ROOT
ATOM      1  C1  UNL d   1       4.376  -5.849  -3.153  0.00  0.00     0.143 A 
ATOM      2  C2  UNL d   1       5.556  -5.912  -3.901  0.00  0.00    -0.057 A 
ATOM      3  C3  UNL d   1       5.527  -5.972  -5.299  0.00  0.00     0.033 A 
ATOM      4  C4  UNL d   1       4.311  -6.000  -5.975  0.00  0.00    -0.042 A 
ATOM      5  C5  UNL d   1       3.125  -5.963  -5.251  0.00  0.00     0.033 A 
ATOM      6  C6  UNL d   1       3.161  -5.896  -3.855  0.00  0.00    -0.057 A 
ENDROOT
BRANCH   1   7
ATOM      7  N   UNL d   1       4.337  -5.887  -1.757  0.00  0.00    -0.732 N 
ATOM      8  C   UNL d   1       5.558  -5.825  -0.983  0.00  0.00     0.284 C 
ATOM      9  H3  UNL d   1       3.574  -5.332  -1.374  0.00  0.00     0.395 HD
ENDBRANCH   1   7
TORSDOF 1
ENDMDL
