MODEL 1
REMARK minimizedAffinity 5.45497465
REMARK minimizedRMSD -1
REMARK  1 active torsions:
REMARK  status: ('A' for Active; 'I' for Inactive)
REMARK    1  A    between atoms: N_2  and  C1_3 
ROOT
ATOM      1  C1  UNL d   1       3.617  -3.534   3.375  0.00  0.00     0.143 A 
ATOM      2  C2  UNL d   1       2.630  -4.161   4.144  0.00  0.00    -0.057 A 
ATOM      3  C3  UNL d   1       1.322  -3.662   4.192  0.00  0.00     0.033 A 
ATOM      4  C4  UNL d   1       0.985  -2.508   3.494  0.00  0.00    -0.042 A 
ATOM      5  C5  UNL d   1       1.956  -1.854   2.744  0.00  0.00     0.033 A 
ATOM      6  C6  UNL d   1       3.258  -2.360   2.694  0.00  0.00    -0.057 A 
ENDROOT
BRANCH   1   7
ATOM      7  N   UNL d   1       4.958  -3.924   3.364  0.00  0.00    -0.732 N 
ATOM      8  C   UNL d   1       5.999  -2.995   3.747  0.00  0.00     0.284 C 
ATOM      9  H3  UNL d   1       5.091  -4.867   3.721  0.00  0.00     0.395 HD
ENDBRANCH   1   7
TORSDOF 1
ENDMDL
