MODEL 1
REMARK minimizedAffinity 4.75918674
REMARK minimizedRMSD -1
REMARK  1 active torsions:
REMARK  status: ('A' for Active; 'I' for Inactive)
REMARK    1  A    between atoms: N_2  and  C1_3 
ROOT
ATOM      1  C1  UNL d   1      -3.822   2.570  -1.761  0.00  0.00     0.143 A 
ATOM      2  C2  UNL d   1      -2.973   2.008  -0.801  0.00  0.00    -0.057 A 
ATOM      3  C3  UNL d   1      -2.252   0.837  -1.066  0.00  0.00     0.033 A 
ATOM      4  C4  UNL d   1      -2.390   0.190  -2.289  0.00  0.00    -0.042 A 
ATOM      5  C5  UNL d   1      -3.247   0.717  -3.249  0.00  0.00     0.033 A 
ATOM      6  C6  UNL d   1      -3.959   1.890  -2.981  0.00  0.00    -0.057 A 
ENDROOT
BRANCH   1   7
ATOM      7  N   UNL d   1      -4.640   3.677  -1.523  0.00  0.00    -0.732 N 
ATOM      8  C   UNL d   1      -6.000   3.502  -1.060  0.00  0.00     0.284 C 
ATOM      9  H3  UNL d   1      -4.141   4.439  -1.069  0.00  0.00     0.395 HD
ENDBRANCH   1   7
TORSDOF 1
ENDMDL
