MODEL 1
REMARK minimizedAffinity -6.53468132
REMARK minimizedRMSD -1
REMARK  0 active torsions:
REMARK  status: ('A' for Active; 'I' for Inactive)
ROOT
ATOM      1  C1  DEN d   1       0.240   0.093  -0.568  0.00  0.00     0.130 A 
ATOM      2  C2  DEN d   1      -0.961   0.361  -1.354  0.00  0.00    -0.031 A 
ATOM      3  C3  DEN d   1      -1.975   0.947  -0.454  0.00  0.00     0.027 A 
ATOM      4  C4  DEN d   1      -1.801   1.465   2.067  0.00  0.00     0.027 A 
ATOM      5  C5  DEN d   1      -0.982   1.400   3.172  0.00  0.00    -0.003 A 
ATOM      6  C6  DEN d   1       0.279   0.868   3.116  0.00  0.00     0.001 A 
ATOM      7  C7  DEN d   1       0.775   0.421   1.920  0.00  0.00     0.017 A 
ATOM      8  C8  DEN d   1      -0.048   0.476   0.803  0.00  0.00    -0.094 A 
ATOM      9  C9  DEN d   1      -1.315   1.029   0.877  0.00  0.00    -0.072 A 
ENDROOT
TORSDOF 0
ENDMDL
