MODEL 1
REMARK minimizedAffinity -6.29969406
REMARK minimizedRMSD -1
REMARK  0 active torsions:
REMARK  status: ('A' for Active; 'I' for Inactive)
ROOT
ATOM      1  C1  DEN d   1       0.995  -0.093  -0.071  0.00  0.00     0.130 A 
ATOM      2  C2  DEN d   1      -0.116   0.166  -0.983  0.00  0.00    -0.031 A 
ATOM      3  C3  DEN d   1      -1.207   0.791  -0.208  0.00  0.00     0.027 A 
ATOM      4  C4  DEN d   1      -1.281   1.384   2.301  0.00  0.00     0.027 A 
ATOM      5  C5  DEN d   1      -0.579   1.344   3.485  0.00  0.00    -0.003 A 
ATOM      6  C6  DEN d   1       0.673   0.795   3.574  0.00  0.00     0.001 A 
ATOM      7  C7  DEN d   1       1.281   0.306   2.448  0.00  0.00     0.017 A 
ATOM      8  C8  DEN d   1       0.576   0.336   1.251  0.00  0.00    -0.094 A 
ATOM      9  C9  DEN d   1      -0.684   0.906   1.180  0.00  0.00    -0.072 A 
ENDROOT
TORSDOF 0
ENDMDL
