MODEL 1
REMARK minimizedAffinity -1.79307973
REMARK minimizedRMSD -1
REMARK  0 active torsions:
REMARK  status: ('A' for Active; 'I' for Inactive)
ROOT
ATOM      1  C1  DEN d   1       1.395  -1.300   0.060  0.00  0.00     0.130 A 
ATOM      2  C2  DEN d   1       2.210  -0.943   1.218  0.00  0.00    -0.031 A 
ATOM      3  C3  DEN d   1       1.332  -0.288   2.208  0.00  0.00     0.027 A 
ATOM      4  C4  DEN d   1      -1.196   0.202   2.063  0.00  0.00     0.027 A 
ATOM      5  C5  DEN d   1      -2.317   0.095   1.269  0.00  0.00    -0.003 A 
ATOM      6  C6  DEN d   1      -2.272  -0.450   0.013  0.00  0.00     0.001 A 
ATOM      7  C7  DEN d   1      -1.091  -0.949  -0.468  0.00  0.00     0.017 A 
ATOM      8  C8  DEN d   1       0.045  -0.838   0.323  0.00  0.00    -0.094 A 
ATOM      9  C9  DEN d   1      -0.024  -0.295   1.595  0.00  0.00    -0.072 A 
ENDROOT
TORSDOF 0
ENDMDL
