MODEL 1
REMARK minimizedAffinity -2.46240687
REMARK minimizedRMSD -1
REMARK  0 active torsions:
REMARK  status: ('A' for Active; 'I' for Inactive)
ROOT
ATOM      1  C1  DEN d   1      -2.160   0.379   0.502  0.00  0.00     0.130 A 
ATOM      2  C2  DEN d   1      -2.371   0.151   1.929  0.00  0.00    -0.031 A 
ATOM      3  C3  DEN d   1      -1.065  -0.174   2.537  0.00  0.00     0.027 A 
ATOM      4  C4  DEN d   1       1.251  -0.340   1.415  0.00  0.00     0.027 A 
ATOM      5  C5  DEN d   1       1.929  -0.242   0.220  0.00  0.00    -0.003 A 
ATOM      6  C6  DEN d   1       1.292   0.034  -0.960  0.00  0.00     0.001 A 
ATOM      7  C7  DEN d   1      -0.058   0.267  -0.965  0.00  0.00     0.017 A 
ATOM      8  C8  DEN d   1      -0.750   0.162   0.235  0.00  0.00    -0.094 A 
ATOM      9  C9  DEN d   1      -0.085  -0.106   1.420  0.00  0.00    -0.072 A 
ENDROOT
TORSDOF 0
ENDMDL
