MODEL 1
REMARK minimizedAffinity -4.25400448
REMARK minimizedRMSD -1
REMARK  0 active torsions:
REMARK  status: ('A' for Active; 'I' for Inactive)
ROOT
ATOM      1  C1  DEN d   1       0.154   2.246  -2.269  0.00  0.00     0.130 A 
ATOM      2  C2  DEN d   1       1.229   1.678  -3.079  0.00  0.00    -0.031 A 
ATOM      3  C3  DEN d   1       1.477   0.301  -2.607  0.00  0.00     0.027 A 
ATOM      4  C4  DEN d   1       0.305  -1.001  -0.714  0.00  0.00     0.027 A 
ATOM      5  C5  DEN d   1      -0.661  -0.932   0.265  0.00  0.00    -0.003 A 
ATOM      6  C6  DEN d   1      -1.394   0.203   0.488  0.00  0.00     0.001 A 
ATOM      7  C7  DEN d   1      -1.204   1.302  -0.308  0.00  0.00     0.017 A 
ATOM      8  C8  DEN d   1      -0.226   1.242  -1.292  0.00  0.00    -0.094 A 
ATOM      9  C9  DEN d   1       0.497   0.081  -1.510  0.00  0.00    -0.072 A 
ENDROOT
TORSDOF 0
ENDMDL
