MODEL 1
REMARK minimizedAffinity -3.01179314
REMARK minimizedRMSD -1
REMARK  0 active torsions:
REMARK  status: ('A' for Active; 'I' for Inactive)
ROOT
ATOM      1  C1  DEN d   1       0.923  -1.005  -3.267  0.00  0.00     0.130 A 
ATOM      2  C2  DEN d   1       0.876   0.186  -4.110  0.00  0.00    -0.031 A 
ATOM      3  C3  DEN d   1       0.285   1.283  -3.317  0.00  0.00     0.027 A 
ATOM      4  C4  DEN d   1      -0.552   1.254  -0.878  0.00  0.00     0.027 A 
ATOM      5  C5  DEN d   1      -0.728   0.467   0.239  0.00  0.00    -0.003 A 
ATOM      6  C6  DEN d   1      -0.401  -0.863   0.255  0.00  0.00     0.001 A 
ATOM      7  C7  DEN d   1       0.163  -1.436  -0.855  0.00  0.00     0.017 A 
ATOM      8  C8  DEN d   1       0.337  -0.651  -1.987  0.00  0.00    -0.094 A 
ATOM      9  C9  DEN d   1       0.011   0.694  -1.979  0.00  0.00    -0.072 A 
ENDROOT
TORSDOF 0
ENDMDL
