MODEL 1
REMARK minimizedAffinity -5.31940985
REMARK minimizedRMSD -1
REMARK  0 active torsions:
REMARK  status: ('A' for Active; 'I' for Inactive)
ROOT
ATOM      1  C1  DEN d   1       0.862  -0.387  -0.010  0.00  0.00     0.130 A 
ATOM      2  C2  DEN d   1      -0.216  -1.109  -0.679  0.00  0.00    -0.031 A 
ATOM      3  C3  DEN d   1      -1.481  -0.781   0.009  0.00  0.00     0.027 A 
ATOM      4  C4  DEN d   1      -1.872   0.772   2.031  0.00  0.00     0.027 A 
ATOM      5  C5  DEN d   1      -1.259   1.597   2.948  0.00  0.00    -0.003 A 
ATOM      6  C6  DEN d   1       0.097   1.790   2.964  0.00  0.00     0.001 A 
ATOM      7  C7  DEN d   1       0.880   1.185   2.017  0.00  0.00     0.017 A 
ATOM      8  C8  DEN d   1       0.270   0.346   1.094  0.00  0.00    -0.094 A 
ATOM      9  C9  DEN d   1      -1.103   0.173   1.086  0.00  0.00    -0.072 A 
ENDROOT
TORSDOF 0
ENDMDL
