MODEL 1
REMARK minimizedAffinity -2.5771246
REMARK minimizedRMSD -1
REMARK  0 active torsions:
REMARK  status: ('A' for Active; 'I' for Inactive)
ROOT
ATOM      1  C1  DEN d   1      -0.969   0.557   2.629  0.00  0.00     0.130 A 
ATOM      2  C2  DEN d   1      -2.202   1.140   2.106  0.00  0.00    -0.031 A 
ATOM      3  C3  DEN d   1      -2.273   0.838   0.662  0.00  0.00     0.027 A 
ATOM      4  C4  DEN d   1      -0.604  -0.471  -0.805  0.00  0.00     0.027 A 
ATOM      5  C5  DEN d   1       0.596  -1.147  -0.811  0.00  0.00    -0.003 A 
ATOM      6  C6  DEN d   1       1.369  -1.272   0.313  0.00  0.00     0.001 A 
ATOM      7  C7  DEN d   1       0.928  -0.751   1.501  0.00  0.00     0.017 A 
ATOM      8  C8  DEN d   1      -0.278  -0.062   1.513  0.00  0.00    -0.094 A 
ATOM      9  C9  DEN d   1      -1.050   0.043   0.369  0.00  0.00    -0.072 A 
ENDROOT
TORSDOF 0
ENDMDL
