MODEL 1
REMARK minimizedAffinity -3.4565382
REMARK minimizedRMSD -1
REMARK  0 active torsions:
REMARK  status: ('A' for Active; 'I' for Inactive)
ROOT
ATOM      1  C1  DEN d   1       1.119  -0.194  -0.708  0.00  0.00     0.130 A 
ATOM      2  C2  DEN d   1       0.043   0.178  -1.623  0.00  0.00    -0.031 A 
ATOM      3  C3  DEN d   1      -1.142   0.528  -0.814  0.00  0.00     0.027 A 
ATOM      4  C4  DEN d   1      -1.412   0.535   1.751  0.00  0.00     0.027 A 
ATOM      5  C5  DEN d   1      -0.778   0.283   2.947  0.00  0.00    -0.003 A 
ATOM      6  C6  DEN d   1       0.512  -0.175   3.007  0.00  0.00     0.001 A 
ATOM      7  C7  DEN d   1       1.224  -0.351   1.850  0.00  0.00     0.017 A 
ATOM      8  C8  DEN d   1       0.589  -0.106   0.640  0.00  0.00    -0.094 A 
ATOM      9  C9  DEN d   1      -0.712   0.368   0.601  0.00  0.00    -0.072 A 
ENDROOT
TORSDOF 0
ENDMDL
