MODEL 1
REMARK minimizedAffinity -3.38581538
REMARK minimizedRMSD -1
REMARK  0 active torsions:
REMARK  status: ('A' for Active; 'I' for Inactive)
ROOT
ATOM      1  C1  DEN d   1      -0.358  -0.178  -1.577  0.00  0.00     0.130 A 
ATOM      2  C2  DEN d   1       1.048  -0.572  -1.616  0.00  0.00    -0.031 A 
ATOM      3  C3  DEN d   1       1.551  -0.606  -0.228  0.00  0.00     0.027 A 
ATOM      4  C4  DEN d   1       0.295  -0.096   1.967  0.00  0.00     0.027 A 
ATOM      5  C5  DEN d   1      -0.912   0.292   2.505  0.00  0.00    -0.003 A 
ATOM      6  C6  DEN d   1      -2.000   0.581   1.725  0.00  0.00     0.001 A 
ATOM      7  C7  DEN d   1      -1.916   0.443   0.364  0.00  0.00     0.017 A 
ATOM      8  C8  DEN d   1      -0.701   0.059  -0.186  0.00  0.00    -0.094 A 
ATOM      9  C9  DEN d   1       0.384  -0.240   0.620  0.00  0.00    -0.072 A 
ENDROOT
TORSDOF 0
ENDMDL
