MODEL 1
REMARK minimizedAffinity 6.84954643
REMARK minimizedRMSD -1
REMARK  0 active torsions:
REMARK  status: ('A' for Active; 'I' for Inactive)
ROOT
ATOM      1  C2' OXE d   1      -2.343  -4.003  -5.997  0.00  0.00     0.078 C 
ATOM      2  C1' OXE d   1      -4.899  -5.163  -5.937  0.00  0.00     0.078 C 
ATOM      3  C1  OXE d   1      -4.810  -3.657  -5.949  0.00  0.00    -0.078 A 
ATOM      4  C2  OXE d   1      -3.555  -3.098  -5.931  0.00  0.00    -0.078 A 
ATOM      5  C3  OXE d   1      -3.416  -1.714  -5.996  0.00  0.00     0.003 A 
ATOM      6  C4  OXE d   1      -4.541  -0.885  -5.924  0.00  0.00    -0.002 A 
ATOM      7  C5  OXE d   1      -5.828  -1.434  -5.902  0.00  0.00    -0.002 A 
ATOM      8  C6  OXE d   1      -5.980  -2.815  -5.957  0.00  0.00     0.003 A 
ENDROOT
TORSDOF 0
ENDMDL
