MODEL 1
REMARK minimizedAffinity 10.423542
REMARK minimizedRMSD -1
REMARK  0 active torsions:
REMARK  status: ('A' for Active; 'I' for Inactive)
ROOT
ATOM      1  C2' OXE d   1      -5.267   1.310   1.496  0.00  0.00     0.078 C 
ATOM      2  C1' OXE d   1      -4.490  -1.247   0.638  0.00  0.00     0.078 C 
ATOM      3  C1  OXE d   1      -3.437  -0.363   1.258  0.00  0.00    -0.078 A 
ATOM      4  C2  OXE d   1      -3.815   0.903   1.632  0.00  0.00    -0.078 A 
ATOM      5  C3  OXE d   1      -2.897   1.740   2.259  0.00  0.00     0.003 A 
ATOM      6  C4  OXE d   1      -1.554   1.360   2.373  0.00  0.00    -0.002 A 
ATOM      7  C5  OXE d   1      -1.139   0.089   1.961  0.00  0.00    -0.002 A 
ATOM      8  C6  OXE d   1      -2.075  -0.799   1.442  0.00  0.00     0.003 A 
ENDROOT
TORSDOF 0
ENDMDL
