MODEL 1
REMARK minimizedAffinity 9.76282215
REMARK minimizedRMSD -1
REMARK  0 active torsions:
REMARK  status: ('A' for Active; 'I' for Inactive)
ROOT
ATOM      1  C2' OXE d   1      -4.016  -2.650   0.658  0.00  0.00     0.078 C 
ATOM      2  C1' OXE d   1      -5.874  -0.791  -0.327  0.00  0.00     0.078 C 
ATOM      3  C1  OXE d   1      -4.609  -0.258   0.297  0.00  0.00    -0.078 A 
ATOM      4  C2  OXE d   1      -3.727  -1.173   0.819  0.00  0.00    -0.078 A 
ATOM      5  C3  OXE d   1      -2.519  -0.738   1.356  0.00  0.00     0.003 A 
ATOM      6  C4  OXE d   1      -2.263   0.630   1.510  0.00  0.00    -0.002 A 
ATOM      7  C5  OXE d   1      -3.166   1.580   1.021  0.00  0.00    -0.002 A 
ATOM      8  C6  OXE d   1      -4.322   1.153   0.376  0.00  0.00     0.003 A 
ENDROOT
TORSDOF 0
ENDMDL
