MODEL 1
REMARK minimizedAffinity 6.74448252
REMARK minimizedRMSD -1
REMARK  0 active torsions:
REMARK  status: ('A' for Active; 'I' for Inactive)
ROOT
ATOM      1  C2' OXE d   1      -1.240  -3.938  -5.950  0.00  0.00     0.078 C 
ATOM      2  C1' OXE d   1      -1.107  -1.134  -5.977  0.00  0.00     0.078 C 
ATOM      3  C1  OXE d   1      -2.473  -1.773  -5.965  0.00  0.00    -0.078 A 
ATOM      4  C2  OXE d   1      -2.529  -3.146  -6.000  0.00  0.00    -0.078 A 
ATOM      5  C3  OXE d   1      -3.762  -3.787  -5.936  0.00  0.00     0.003 A 
ATOM      6  C4  OXE d   1      -4.950  -3.048  -5.992  0.00  0.00    -0.002 A 
ATOM      7  C5  OXE d   1      -4.915  -1.649  -5.998  0.00  0.00    -0.002 A 
ATOM      8  C6  OXE d   1      -3.688  -0.998  -5.942  0.00  0.00     0.003 A 
ENDROOT
TORSDOF 0
ENDMDL
