MODEL 1
REMARK minimizedAffinity 5.26797056
REMARK minimizedRMSD -1
REMARK  0 active torsions:
REMARK  status: ('A' for Active; 'I' for Inactive)
ROOT
ATOM      1  C2' OXE d   1      -4.515   0.998   1.088  0.00  0.00     0.078 C 
ATOM      2  C1' OXE d   1      -1.851   0.478   1.805  0.00  0.00     0.078 C 
ATOM      3  C1  OXE d   1      -2.628  -0.628   1.136  0.00  0.00    -0.078 A 
ATOM      4  C2  OXE d   1      -3.945  -0.380   0.831  0.00  0.00    -0.078 A 
ATOM      5  C3  OXE d   1      -4.691  -1.347   0.163  0.00  0.00     0.003 A 
ATOM      6  C4  OXE d   1      -4.160  -2.623  -0.062  0.00  0.00    -0.002 A 
ATOM      7  C5  OXE d   1      -2.833  -2.909   0.277  0.00  0.00    -0.002 A 
ATOM      8  C6  OXE d   1      -2.043  -1.911   0.837  0.00  0.00     0.003 A 
ENDROOT
TORSDOF 0
ENDMDL
