MODEL 1
REMARK minimizedAffinity 9.15861416
REMARK minimizedRMSD -1
REMARK  0 active torsions:
REMARK  status: ('A' for Active; 'I' for Inactive)
ROOT
ATOM      1  C2' OXE d   1      -4.915   0.182   3.521  0.00  0.00     0.078 C 
ATOM      2  C1' OXE d   1      -4.586   0.655   0.773  0.00  0.00     0.078 C 
ATOM      3  C1  OXE d   1      -3.346   0.424   1.600  0.00  0.00    -0.078 A 
ATOM      4  C2  OXE d   1      -3.513   0.240   2.952  0.00  0.00    -0.078 A 
ATOM      5  C3  OXE d   1      -2.407  -0.032   3.752  0.00  0.00     0.003 A 
ATOM      6  C4  OXE d   1      -1.114   0.032   3.220  0.00  0.00    -0.002 A 
ATOM      7  C5  OXE d   1      -0.919   0.258   1.853  0.00  0.00    -0.002 A 
ATOM      8  C6  OXE d   1      -2.025   0.413   1.024  0.00  0.00     0.003 A 
ENDROOT
TORSDOF 0
ENDMDL
