MODEL 1
REMARK minimizedAffinity 6.44844818
REMARK minimizedRMSD -1
REMARK  0 active torsions:
REMARK  status: ('A' for Active; 'I' for Inactive)
ROOT
ATOM      1  C2' OXE d   1      -4.509   2.047   0.429  0.00  0.00     0.078 C 
ATOM      2  C1' OXE d   1      -4.063  -0.724   0.484  0.00  0.00     0.078 C 
ATOM      3  C1  OXE d   1      -2.985   0.173   1.037  0.00  0.00    -0.078 A 
ATOM      4  C2  OXE d   1      -3.191   1.529   0.964  0.00  0.00    -0.078 A 
ATOM      5  C3  OXE d   1      -2.252   2.400   1.509  0.00  0.00     0.003 A 
ATOM      6  C4  OXE d   1      -1.031   1.914   1.992  0.00  0.00    -0.002 A 
ATOM      7  C5  OXE d   1      -0.784   0.538   2.040  0.00  0.00    -0.002 A 
ATOM      8  C6  OXE d   1      -1.765  -0.346   1.606  0.00  0.00     0.003 A 
ENDROOT
TORSDOF 0
ENDMDL
