MODEL 1
REMARK minimizedAffinity 1.70715666
REMARK minimizedRMSD -1
REMARK  0 active torsions:
REMARK  status: ('A' for Active; 'I' for Inactive)
ROOT
ATOM      1  C2' OXE d   1      -5.841   1.474   3.197  0.00  0.00     0.078 C 
ATOM      2  C1' OXE d   1      -5.439   1.121   0.442  0.00  0.00     0.078 C 
ATOM      3  C1  OXE d   1      -4.323   0.718   1.373  0.00  0.00    -0.078 A 
ATOM      4  C2  OXE d   1      -4.510   0.938   2.716  0.00  0.00    -0.078 A 
ATOM      5  C3  OXE d   1      -3.535   0.533   3.623  0.00  0.00     0.003 A 
ATOM      6  C4  OXE d   1      -2.303   0.047   3.169  0.00  0.00    -0.002 A 
ATOM      7  C5  OXE d   1      -2.076  -0.147   1.802  0.00  0.00    -0.002 A 
ATOM      8  C6  OXE d   1      -3.090   0.142   0.896  0.00  0.00     0.003 A 
ENDROOT
TORSDOF 0
ENDMDL
