MODEL 1
REMARK minimizedAffinity -3.42257667
REMARK minimizedRMSD -1
REMARK  0 active torsions:
REMARK  status: ('A' for Active; 'I' for Inactive)
ROOT
ATOM      1  C2' OXE d   1      -1.602   2.054   3.395  0.00  0.00     0.078 C 
ATOM      2  C1' OXE d   1       0.514   0.434   2.511  0.00  0.00     0.078 C 
ATOM      3  C1  OXE d   1      -0.870   0.127   1.996  0.00  0.00    -0.078 A 
ATOM      4  C2  OXE d   1      -1.906   0.895   2.470  0.00  0.00    -0.078 A 
ATOM      5  C3  OXE d   1      -3.195   0.689   1.986  0.00  0.00     0.003 A 
ATOM      6  C4  OXE d   1      -3.470  -0.391   1.138  0.00  0.00    -0.002 A 
ATOM      7  C5  OXE d   1      -2.435  -1.210   0.675  0.00  0.00    -0.002 A 
ATOM      8  C6  OXE d   1      -1.127  -0.939   1.060  0.00  0.00     0.003 A 
ENDROOT
TORSDOF 0
ENDMDL
