MODEL 1
REMARK minimizedAffinity -0.189146772
REMARK minimizedRMSD -1
REMARK  0 active torsions:
REMARK  status: ('A' for Active; 'I' for Inactive)
ROOT
ATOM      1  C2' OXE d   1      -2.232  -0.254  -5.641  0.00  0.00     0.078 C 
ATOM      2  C1' OXE d   1      -1.447  -2.925  -6.000  0.00  0.00     0.078 C 
ATOM      3  C1  OXE d   1      -2.923  -2.634  -5.895  0.00  0.00    -0.078 A 
ATOM      4  C2  OXE d   1      -3.296  -1.330  -5.673  0.00  0.00    -0.078 A 
ATOM      5  C3  OXE d   1      -4.647  -0.999  -5.624  0.00  0.00     0.003 A 
ATOM      6  C4  OXE d   1      -5.624  -2.001  -5.644  0.00  0.00    -0.002 A 
ATOM      7  C5  OXE d   1      -5.264  -3.340  -5.830  0.00  0.00    -0.002 A 
ATOM      8  C6  OXE d   1      -3.923  -3.668  -6.000  0.00  0.00     0.003 A 
ENDROOT
TORSDOF 0
ENDMDL
