MODEL 1
REMARK minimizedAffinity 8.19055176
REMARK minimizedRMSD -1
REMARK  0 active torsions:
REMARK  status: ('A' for Active; 'I' for Inactive)
ROOT
ATOM      1  C2' OXE d   1      -4.413   2.716   2.305  0.00  0.00     0.078 C 
ATOM      2  C1' OXE d   1      -5.996   2.358   4.595  0.00  0.00     0.078 C 
ATOM      3  C1  OXE d   1      -5.240   3.656   4.459  0.00  0.00    -0.078 A 
ATOM      4  C2  OXE d   1      -4.431   3.803   3.358  0.00  0.00    -0.078 A 
ATOM      5  C3  OXE d   1      -3.754   5.002   3.155  0.00  0.00     0.003 A 
ATOM      6  C4  OXE d   1      -3.768   5.999   4.139  0.00  0.00    -0.002 A 
ATOM      7  C5  OXE d   1      -4.554   5.852   5.287  0.00  0.00    -0.002 A 
ATOM      8  C6  OXE d   1      -5.327   4.707   5.441  0.00  0.00     0.003 A 
ENDROOT
TORSDOF 0
ENDMDL
