MODEL 1
REMARK minimizedAffinity 8.86289978
REMARK minimizedRMSD -1
REMARK  0 active torsions:
REMARK  status: ('A' for Active; 'I' for Inactive)
ROOT
ATOM      1  C2' OXE d   1      -1.516  -3.175  -5.953  0.00  0.00     0.078 C 
ATOM      2  C1' OXE d   1      -2.298  -0.479  -5.965  0.00  0.00     0.078 C 
ATOM      3  C1  OXE d   1      -3.383  -1.526  -5.956  0.00  0.00    -0.078 A 
ATOM      4  C2  OXE d   1      -2.992  -2.843  -5.997  0.00  0.00    -0.078 A 
ATOM      5  C3  OXE d   1      -3.951  -3.850  -5.936  0.00  0.00     0.003 A 
ATOM      6  C4  OXE d   1      -5.314  -3.534  -5.987  0.00  0.00    -0.002 A 
ATOM      7  C5  OXE d   1      -5.734  -2.199  -5.986  0.00  0.00    -0.002 A 
ATOM      8  C6  OXE d   1      -4.784  -1.186  -5.927  0.00  0.00     0.003 A 
ENDROOT
TORSDOF 0
ENDMDL
