MODEL 1
REMARK minimizedAffinity 4.01800108
REMARK minimizedRMSD -1
REMARK  0 active torsions:
REMARK  status: ('A' for Active; 'I' for Inactive)
ROOT
ATOM      1  C2' OXE d   1      -1.848  -0.118  -5.989  0.00  0.00     0.078 C 
ATOM      2  C1' OXE d   1      -1.039  -2.806  -5.998  0.00  0.00     0.078 C 
ATOM      3  C1  OXE d   1      -2.519  -2.517  -5.982  0.00  0.00    -0.078 A 
ATOM      4  C2  OXE d   1      -2.905  -1.199  -5.930  0.00  0.00    -0.078 A 
ATOM      5  C3  OXE d   1      -4.258  -0.876  -5.969  0.00  0.00     0.003 A 
ATOM      6  C4  OXE d   1      -5.230  -1.882  -5.904  0.00  0.00    -0.002 A 
ATOM      7  C5  OXE d   1      -4.857  -3.230  -5.916  0.00  0.00    -0.002 A 
ATOM      8  C6  OXE d   1      -3.510  -3.564  -5.998  0.00  0.00     0.003 A 
ENDROOT
TORSDOF 0
ENDMDL
