MODEL 1
REMARK minimizedAffinity 3.9292469
REMARK minimizedRMSD -1
REMARK  0 active torsions:
REMARK  status: ('A' for Active; 'I' for Inactive)
ROOT
ATOM      1  C2' OXE d   1      -2.577  -0.800  -5.972  0.00  0.00     0.078 C 
ATOM      2  C1' OXE d   1      -1.193  -3.242  -5.967  0.00  0.00     0.078 C 
ATOM      3  C1  OXE d   1      -2.700  -3.288  -5.966  0.00  0.00    -0.078 A 
ATOM      4  C2  OXE d   1      -3.369  -2.089  -5.921  0.00  0.00    -0.078 A 
ATOM      5  C3  OXE d   1      -4.760  -2.073  -5.973  0.00  0.00     0.003 A 
ATOM      6  C4  OXE d   1      -5.485  -3.269  -5.916  0.00  0.00    -0.002 A 
ATOM      7  C5  OXE d   1      -4.823  -4.502  -5.921  0.00  0.00    -0.002 A 
ATOM      8  C6  OXE d   1      -3.435  -4.529  -5.988  0.00  0.00     0.003 A 
ENDROOT
TORSDOF 0
ENDMDL
