MODEL 1
REMARK minimizedAffinity 0.206395626
REMARK minimizedRMSD -1
REMARK  0 active torsions:
REMARK  status: ('A' for Active; 'I' for Inactive)
ROOT
ATOM      1  C2' OXE d   1      -3.453   0.857   0.739  0.00  0.00     0.078 C 
ATOM      2  C1' OXE d   1      -1.413   0.676   2.658  0.00  0.00     0.078 C 
ATOM      3  C1  OXE d   1      -2.835   0.775   3.151  0.00  0.00    -0.078 A 
ATOM      4  C2  OXE d   1      -3.823   0.910   2.205  0.00  0.00    -0.078 A 
ATOM      5  C3  OXE d   1      -5.156   0.949   2.603  0.00  0.00     0.003 A 
ATOM      6  C4  OXE d   1      -5.490   1.007   3.961  0.00  0.00    -0.002 A 
ATOM      7  C5  OXE d   1      -4.495   0.911   4.941  0.00  0.00    -0.002 A 
ATOM      8  C6  OXE d   1      -3.170   0.752   4.553  0.00  0.00     0.003 A 
ENDROOT
TORSDOF 0
ENDMDL
