MODEL 1
REMARK minimizedAffinity -1.63669062
REMARK minimizedRMSD -1
REMARK  0 active torsions:
REMARK  status: ('A' for Active; 'I' for Inactive)
ROOT
ATOM      1  C2' OXE d   1      -5.733  -2.607  -5.655  0.00  0.00     0.078 C 
ATOM      2  C1' OXE d   1      -3.752  -4.566  -6.000  0.00  0.00     0.078 C 
ATOM      3  C1  OXE d   1      -3.311  -3.125  -5.924  0.00  0.00    -0.078 A 
ATOM      4  C2  OXE d   1      -4.292  -2.170  -5.802  0.00  0.00    -0.078 A 
ATOM      5  C3  OXE d   1      -3.937  -0.830  -5.672  0.00  0.00     0.003 A 
ATOM      6  C4  OXE d   1      -2.602  -0.433  -5.819  0.00  0.00    -0.002 A 
ATOM      7  C5  OXE d   1      -1.592  -1.387  -5.984  0.00  0.00    -0.002 A 
ATOM      8  C6  OXE d   1      -1.924  -2.737  -5.995  0.00  0.00     0.003 A 
ENDROOT
TORSDOF 0
ENDMDL
