MODEL 1
REMARK minimizedAffinity 0.542098105
REMARK minimizedRMSD -1
REMARK  0 active torsions:
REMARK  status: ('A' for Active; 'I' for Inactive)
ROOT
ATOM      1  C2' OXE d   1       0.607  -1.123  -4.858  0.00  0.00     0.078 C 
ATOM      2  C1' OXE d   1       3.007   0.083  -5.674  0.00  0.00     0.078 C 
ATOM      3  C1  OXE d   1       2.597   0.238  -4.231  0.00  0.00    -0.078 A 
ATOM      4  C2  OXE d   1       1.398  -0.316  -3.852  0.00  0.00    -0.078 A 
ATOM      5  C3  OXE d   1       0.999  -0.249  -2.520  0.00  0.00     0.003 A 
ATOM      6  C4  OXE d   1       1.732   0.507  -1.597  0.00  0.00    -0.002 A 
ATOM      7  C5  OXE d   1       2.936   1.113  -1.972  0.00  0.00    -0.002 A 
ATOM      8  C6  OXE d   1       3.403   0.952  -3.272  0.00  0.00     0.003 A 
ENDROOT
TORSDOF 0
ENDMDL
