MODEL 1
REMARK minimizedAffinity 14.2134552
REMARK minimizedRMSD -1
REMARK  0 active torsions:
REMARK  status: ('A' for Active; 'I' for Inactive)
ROOT
ATOM      1  C2' OXE d   1       5.645  -5.928   4.561  0.00  0.00     0.078 C 
ATOM      2  C1' OXE d   1       6.000  -5.132   1.893  0.00  0.00     0.078 C 
ATOM      3  C1  OXE d   1       4.590  -5.361   2.377  0.00  0.00    -0.078 A 
ATOM      4  C2  OXE d   1       4.429  -5.795   3.671  0.00  0.00    -0.078 A 
ATOM      5  C3  OXE d   1       3.147  -5.969   4.185  0.00  0.00     0.003 A 
ATOM      6  C4  OXE d   1       2.027  -5.854   3.352  0.00  0.00    -0.002 A 
ATOM      7  C5  OXE d   1       2.172  -5.451   2.021  0.00  0.00    -0.002 A 
ATOM      8  C6  OXE d   1       3.440  -5.160   1.530  0.00  0.00     0.003 A 
ENDROOT
TORSDOF 0
ENDMDL
