MODEL 1
REMARK minimizedAffinity 9.82180977
REMARK minimizedRMSD -1
REMARK  0 active torsions:
REMARK  status: ('A' for Active; 'I' for Inactive)
ROOT
ATOM      1  C2' OXE d   1      -4.014   3.100   2.290  0.00  0.00     0.078 C 
ATOM      2  C1' OXE d   1      -4.484   0.336   2.433  0.00  0.00     0.078 C 
ATOM      3  C1  OXE d   1      -3.068   0.797   2.196  0.00  0.00    -0.078 A 
ATOM      4  C2  OXE d   1      -2.854   2.150   2.082  0.00  0.00    -0.078 A 
ATOM      5  C3  OXE d   1      -1.559   2.632   1.918  0.00  0.00     0.003 A 
ATOM      6  C4  OXE d   1      -0.493   1.746   1.716  0.00  0.00    -0.002 A 
ATOM      7  C5  OXE d   1      -0.695   0.364   1.789  0.00  0.00    -0.002 A 
ATOM      8  C6  OXE d   1      -1.966  -0.125   2.071  0.00  0.00     0.003 A 
ENDROOT
TORSDOF 0
ENDMDL
