MODEL 1
REMARK minimizedAffinity -3.40472078
REMARK minimizedRMSD -1
REMARK  1 active torsions:
REMARK  status: ('A' for Active; 'I' for Inactive)
REMARK    1  A    between atoms: C1_2  and  C2_3 
ROOT
ATOM      1  C2  UNL d   1       0.262   0.115   0.509  0.00  0.00    -0.077 A 
ATOM      2  C3  UNL d   1       1.119  -0.843  -0.049  0.00  0.00     0.002 A 
ATOM      3  C4  UNL d   1       2.488  -0.812   0.225  0.00  0.00     0.002 A 
ATOM      4  C5  UNL d   1       3.010   0.173   1.061  0.00  0.00    -0.004 A 
ATOM      5  C6  UNL d   1       2.166   1.132   1.620  0.00  0.00     0.002 A 
ATOM      6  C7  UNL d   1       0.798   1.102   1.345  0.00  0.00     0.002 A 
ENDROOT
BRANCH   1   7
ATOM      7  C1  UNL d   1      -1.222   0.054   0.254  0.00  0.00     0.055 C 
ATOM      8  C   UNL d   1      -1.521  -0.143  -1.225  0.00  0.00     0.019 C 
ENDBRANCH   1   7
TORSDOF 1
ENDMDL
