MODEL 1
REMARK minimizedAffinity -0.158758149
REMARK minimizedRMSD -1
REMARK  1 active torsions:
REMARK  status: ('A' for Active; 'I' for Inactive)
REMARK    1  A    between atoms: C1_2  and  C2_3 
ROOT
ATOM      1  C2  UNL d   1       1.425  -1.125   1.387  0.00  0.00    -0.077 A 
ATOM      2  C3  UNL d   1       0.860  -2.319   1.858  0.00  0.00     0.002 A 
ATOM      3  C4  UNL d   1      -0.395  -2.733   1.406  0.00  0.00     0.002 A 
ATOM      4  C5  UNL d   1      -1.092  -1.962   0.479  0.00  0.00    -0.004 A 
ATOM      5  C6  UNL d   1      -0.540  -0.772   0.006  0.00  0.00     0.002 A 
ATOM      6  C7  UNL d   1       0.714  -0.356   0.458  0.00  0.00     0.002 A 
ENDROOT
BRANCH   1   7
ATOM      7  C1  UNL d   1       2.799  -0.702   1.836  0.00  0.00     0.055 C 
ATOM      8  C   UNL d   1       2.724   0.364   2.919  0.00  0.00     0.019 C 
ENDBRANCH   1   7
TORSDOF 1
ENDMDL
