MODEL 1
REMARK minimizedAffinity -6.37508869
REMARK minimizedRMSD -1
REMARK  1 active torsions:
REMARK  status: ('A' for Active; 'I' for Inactive)
REMARK    1  A    between atoms: C1_2  and  C2_3 
ROOT
ATOM      1  C2  UNL d   1       0.148  -0.569   0.814  0.00  0.00    -0.077 A 
ATOM      2  C3  UNL d   1       0.789  -1.723   1.286  0.00  0.00     0.002 A 
ATOM      3  C4  UNL d   1       2.178  -1.751   1.429  0.00  0.00     0.002 A 
ATOM      4  C5  UNL d   1       2.936  -0.627   1.108  0.00  0.00    -0.004 A 
ATOM      5  C6  UNL d   1       2.308   0.525   0.636  0.00  0.00     0.002 A 
ATOM      6  C7  UNL d   1       0.920   0.554   0.491  0.00  0.00     0.002 A 
ENDROOT
BRANCH   1   7
ATOM      7  C1  UNL d   1      -1.354  -0.521   0.705  0.00  0.00     0.055 C 
ATOM      8  C   UNL d   1      -1.794  -0.032  -0.667  0.00  0.00     0.019 C 
ENDBRANCH   1   7
TORSDOF 1
ENDMDL
