MODEL 1
REMARK minimizedAffinity -5.68546772
REMARK minimizedRMSD -1
REMARK  1 active torsions:
REMARK  status: ('A' for Active; 'I' for Inactive)
REMARK    1  A    between atoms: C1_2  and  C2_3 
ROOT
ATOM      1  C2  UNL d   1       1.765   0.297   0.378  0.00  0.00    -0.077 A 
ATOM      2  C3  UNL d   1       1.285   1.608   0.250  0.00  0.00     0.002 A 
ATOM      3  C4  UNL d   1      -0.062   1.842  -0.033  0.00  0.00     0.002 A 
ATOM      4  C5  UNL d   1      -0.940   0.772  -0.186  0.00  0.00    -0.004 A 
ATOM      5  C6  UNL d   1      -0.472  -0.536  -0.063  0.00  0.00     0.002 A 
ATOM      6  C7  UNL d   1       0.875  -0.772   0.219  0.00  0.00     0.002 A 
ENDROOT
BRANCH   1   7
ATOM      7  C1  UNL d   1       3.207   0.044   0.732  0.00  0.00     0.055 C 
ATOM      8  C   UNL d   1       3.328  -0.892   1.926  0.00  0.00     0.019 C 
ENDBRANCH   1   7
TORSDOF 1
ENDMDL
