MODEL 1
REMARK minimizedAffinity 0.287688971
REMARK minimizedRMSD -1
REMARK  1 active torsions:
REMARK  status: ('A' for Active; 'I' for Inactive)
REMARK    1  A    between atoms: C1_2  and  C2_3 
ROOT
ATOM      1  C2  UNL d   1      -0.479  -0.616   0.264  0.00  0.00    -0.077 A 
ATOM      2  C3  UNL d   1       0.763  -0.467  -0.370  0.00  0.00     0.002 A 
ATOM      3  C4  UNL d   1       1.724  -1.476  -0.286  0.00  0.00     0.002 A 
ATOM      4  C5  UNL d   1       1.452  -2.642   0.426  0.00  0.00    -0.004 A 
ATOM      5  C6  UNL d   1       0.221  -2.799   1.062  0.00  0.00     0.002 A 
ATOM      6  C7  UNL d   1      -0.740  -1.791   0.981  0.00  0.00     0.002 A 
ENDROOT
BRANCH   1   7
ATOM      7  C1  UNL d   1      -1.535   0.450   0.135  0.00  0.00     0.055 C 
ATOM      8  C   UNL d   1      -0.914   1.818  -0.108  0.00  0.00     0.019 C 
ENDBRANCH   1   7
TORSDOF 1
ENDMDL
