MODEL 1
REMARK minimizedAffinity 10.5996628
REMARK minimizedRMSD -1
REMARK  2 active torsions:
REMARK  status: ('A' for Active; 'I' for Inactive)
REMARK    1  A    between atoms: C2'_3  and  C1'_4 
REMARK    2  A    between atoms: C1'_4  and  C1_5 
ROOT
ATOM      1  C1  I4B d   1       4.842  -4.520   3.393  0.00  0.00    -0.075 A 
ATOM      2  C2  I4B d   1       4.802  -5.472   4.382  0.00  0.00     0.003 A 
ATOM      3  C3  I4B d   1       5.145  -5.132   5.713  0.00  0.00     0.002 A 
ATOM      4  C4  I4B d   1       5.568  -3.850   5.999  0.00  0.00    -0.004 A 
ATOM      5  C5  I4B d   1       5.586  -2.881   5.000  0.00  0.00     0.002 A 
ATOM      6  C6  I4B d   1       5.209  -3.214   3.691  0.00  0.00     0.003 A 
ENDROOT
BRANCH   1   7
ATOM      7  C1' I4B d   1       4.505  -4.922   1.992  0.00  0.00     0.060 C 
BRANCH   7   8
ATOM      8  C2' I4B d   1       3.952  -3.705   1.278  0.00  0.00    -0.013 C 
ATOM      9  C4' I4B d   1       4.918  -3.195   0.242  0.00  0.00     0.013 C 
ATOM     10  C3' I4B d   1       2.643  -4.089   0.656  0.00  0.00     0.013 C 
ENDBRANCH   7   8
ENDBRANCH   1   7
TORSDOF 2
ENDMDL
