MODEL 1
REMARK minimizedAffinity 10.3481998
REMARK minimizedRMSD -1
REMARK  2 active torsions:
REMARK  status: ('A' for Active; 'I' for Inactive)
REMARK    1  A    between atoms: C2'_3  and  C1'_4 
REMARK    2  A    between atoms: C1'_4  and  C1_5 
ROOT
ATOM      1  C1  I4B d   1       3.563  -3.234   1.349  0.00  0.00    -0.075 A 
ATOM      2  C2  I4B d   1       2.438  -2.957   2.085  0.00  0.00     0.003 A 
ATOM      3  C3  I4B d   1       1.342  -2.289   1.488  0.00  0.00     0.002 A 
ATOM      4  C4  I4B d   1       1.433  -1.873   0.175  0.00  0.00    -0.004 A 
ATOM      5  C5  I4B d   1       2.565  -2.175  -0.576  0.00  0.00     0.002 A 
ATOM      6  C6  I4B d   1       3.632  -2.871   0.010  0.00  0.00     0.003 A 
ENDROOT
BRANCH   1   7
ATOM      7  C1' I4B d   1       4.715  -3.912   2.021  0.00  0.00     0.060 C 
BRANCH   7   8
ATOM      8  C2' I4B d   1       4.324  -4.182   3.459  0.00  0.00    -0.013 C 
ATOM      9  C4' I4B d   1       4.525  -5.631   3.816  0.00  0.00     0.013 C 
ATOM     10  C3' I4B d   1       5.147  -3.288   4.338  0.00  0.00     0.013 C 
ENDBRANCH   7   8
ENDBRANCH   1   7
TORSDOF 2
ENDMDL
