MODEL 1
REMARK minimizedAffinity 4.35427284
REMARK minimizedRMSD -1
REMARK  2 active torsions:
REMARK  status: ('A' for Active; 'I' for Inactive)
REMARK    1  A    between atoms: C2'_3  and  C1'_4 
REMARK    2  A    between atoms: C1'_4  and  C1_5 
ROOT
ATOM      1  C1  I4B d   1       4.693  -4.508   3.334  0.00  0.00    -0.075 A 
ATOM      2  C2  I4B d   1       4.875  -5.658   4.060  0.00  0.00     0.003 A 
ATOM      3  C3  I4B d   1       5.258  -5.589   5.422  0.00  0.00     0.002 A 
ATOM      4  C4  I4B d   1       5.496  -4.358   5.999  0.00  0.00    -0.004 A 
ATOM      5  C5  I4B d   1       5.289  -3.192   5.267  0.00  0.00     0.002 A 
ATOM      6  C6  I4B d   1       4.873  -3.267   3.930  0.00  0.00     0.003 A 
ENDROOT
BRANCH   1   7
ATOM      7  C1' I4B d   1       4.321  -4.619   1.889  0.00  0.00     0.060 C 
BRANCH   7   8
ATOM      8  C2' I4B d   1       3.750  -3.286   1.451  0.00  0.00    -0.013 C 
ATOM      9  C4' I4B d   1       4.493  -2.740   0.260  0.00  0.00     0.013 C 
ATOM     10  C3' I4B d   1       2.297  -3.485   1.137  0.00  0.00     0.013 C 
ENDBRANCH   7   8
ENDBRANCH   1   7
TORSDOF 2
ENDMDL
