MODEL 1
REMARK minimizedAffinity -1.80406678
REMARK minimizedRMSD -1
REMARK  2 active torsions:
REMARK  status: ('A' for Active; 'I' for Inactive)
REMARK    1  A    between atoms: C2'_3  and  C1'_4 
REMARK    2  A    between atoms: C1'_4  and  C1_5 
ROOT
ATOM      1  C1  I4B d   1       3.494  -2.686   1.787  0.00  0.00    -0.075 A 
ATOM      2  C2  I4B d   1       4.471  -3.086   0.909  0.00  0.00     0.003 A 
ATOM      3  C3  I4B d   1       4.190  -3.178  -0.475  0.00  0.00     0.002 A 
ATOM      4  C4  I4B d   1       2.915  -2.911  -0.930  0.00  0.00    -0.004 A 
ATOM      5  C5  I4B d   1       1.932  -2.483  -0.041  0.00  0.00     0.002 A 
ATOM      6  C6  I4B d   1       2.227  -2.358   1.324  0.00  0.00     0.003 A 
ENDROOT
BRANCH   1   7
ATOM      7  C1' I4B d   1       3.816  -2.631   3.247  0.00  0.00     0.060 C 
BRANCH   7   8
ATOM      8  C2' I4B d   1       4.757  -3.777   3.561  0.00  0.00    -0.013 C 
ATOM      9  C4' I4B d   1       4.957  -3.926   5.046  0.00  0.00     0.013 C 
ATOM     10  C3' I4B d   1       4.180  -5.026   2.964  0.00  0.00     0.013 C 
ENDBRANCH   7   8
ENDBRANCH   1   7
TORSDOF 2
ENDMDL
