MODEL 1
REMARK minimizedAffinity -0.197861612
REMARK minimizedRMSD -1
REMARK  2 active torsions:
REMARK  status: ('A' for Active; 'I' for Inactive)
REMARK    1  A    between atoms: C2'_3  and  C1'_4 
REMARK    2  A    between atoms: C1'_4  and  C1_5 
ROOT
ATOM      1  C1  I4B d   1      -3.202   0.226  -3.911  0.00  0.00    -0.075 A 
ATOM      2  C2  I4B d   1      -3.485   1.037  -4.983  0.00  0.00     0.003 A 
ATOM      3  C3  I4B d   1      -3.115   2.403  -4.960  0.00  0.00     0.002 A 
ATOM      4  C4  I4B d   1      -2.513   2.926  -3.833  0.00  0.00    -0.004 A 
ATOM      5  C5  I4B d   1      -2.207   2.097  -2.757  0.00  0.00     0.002 A 
ATOM      6  C6  I4B d   1      -2.542   0.736  -2.801  0.00  0.00     0.003 A 
ENDROOT
BRANCH   1   7
ATOM      7  C1' I4B d   1      -3.637  -1.204  -3.956  0.00  0.00     0.060 C 
BRANCH   7   8
ATOM      8  C2' I4B d   1      -4.750  -1.386  -2.944  0.00  0.00    -0.013 C 
ATOM      9  C4' I4B d   1      -4.398  -0.747  -1.626  0.00  0.00     0.013 C 
ATOM     10  C3' I4B d   1      -6.000  -0.788  -3.519  0.00  0.00     0.013 C 
ENDBRANCH   7   8
ENDBRANCH   1   7
TORSDOF 2
ENDMDL
