MODEL 1
REMARK minimizedAffinity -2.39788842
REMARK minimizedRMSD -1
REMARK  0 active torsions:
REMARK  status: ('A' for Active; 'I' for Inactive)
ROOT
ATOM      1  C4' PXY d   1       3.181  -4.468   0.753  0.00  0.00     0.077 C 
ATOM      2  C1' PXY d   1      -1.757  -3.221   3.488  0.00  0.00     0.077 C 
ATOM      3  C1  PXY d   1      -0.463  -3.538   2.763  0.00  0.00    -0.082 A 
ATOM      4  C2  PXY d   1      -0.015  -4.782   2.738  0.00  0.00     0.003 A 
ATOM      5  C3  PXY d   1       1.169  -5.081   2.115  0.00  0.00     0.003 A 
ATOM      6  C4  PXY d   1       1.875  -4.104   1.465  0.00  0.00    -0.082 A 
ATOM      7  C5  PXY d   1       1.419  -2.834   1.477  0.00  0.00     0.003 A 
ATOM      8  C6  PXY d   1       0.236  -2.544   2.150  0.00  0.00     0.003 A 
ENDROOT
TORSDOF 0
ENDMDL
