MODEL 1
REMARK minimizedAffinity 0.932957172
REMARK minimizedRMSD -1
REMARK  0 active torsions:
REMARK  status: ('A' for Active; 'I' for Inactive)
ROOT
ATOM      1  C4' PXY d   1      -0.336   0.064   1.937  0.00  0.00     0.077 C 
ATOM      2  C1' PXY d   1       2.837  -4.186  -0.363  0.00  0.00     0.077 C 
ATOM      3  C1  PXY d   1       1.994  -3.078   0.236  0.00  0.00    -0.082 A 
ATOM      4  C2  PXY d   1       2.509  -1.868   0.377  0.00  0.00     0.003 A 
ATOM      5  C3  PXY d   1       1.772  -0.862   0.947  0.00  0.00     0.003 A 
ATOM      6  C4  PXY d   1       0.475  -1.083   1.328  0.00  0.00    -0.082 A 
ATOM      7  C5  PXY d   1      -0.061  -2.313   1.177  0.00  0.00     0.003 A 
ATOM      8  C6  PXY d   1       0.718  -3.331   0.635  0.00  0.00     0.003 A 
ENDROOT
TORSDOF 0
ENDMDL
