MODEL 1
REMARK minimizedAffinity 1.24730611
REMARK minimizedRMSD -1
REMARK  0 active torsions:
REMARK  status: ('A' for Active; 'I' for Inactive)
ROOT
ATOM      1  C4' PXY d   1       2.776  -4.227   0.548  0.00  0.00     0.077 C 
ATOM      2  C1' PXY d   1      -0.718   0.310   1.333  0.00  0.00     0.077 C 
ATOM      3  C1  PXY d   1       0.202  -0.874   1.116  0.00  0.00    -0.082 A 
ATOM      4  C2  PXY d   1      -0.057  -2.023   1.719  0.00  0.00     0.003 A 
ATOM      5  C3  PXY d   1       0.783  -3.095   1.559  0.00  0.00     0.003 A 
ATOM      6  C4  PXY d   1       1.869  -3.007   0.730  0.00  0.00    -0.082 A 
ATOM      7  C5  PXY d   1       2.134  -1.842   0.103  0.00  0.00     0.003 A 
ATOM      8  C6  PXY d   1       1.292  -0.753   0.311  0.00  0.00     0.003 A 
ENDROOT
TORSDOF 0
ENDMDL
