MODEL 1
REMARK minimizedAffinity 1.09302557
REMARK minimizedRMSD -1
REMARK  0 active torsions:
REMARK  status: ('A' for Active; 'I' for Inactive)
ROOT
ATOM      1  C4' PXY d   1       3.084  -4.232   0.017  0.00  0.00     0.077 C 
ATOM      2  C1' PXY d   1      -0.678  -0.274   1.917  0.00  0.00     0.077 C 
ATOM      3  C1  PXY d   1       0.308  -1.318   1.431  0.00  0.00    -0.082 A 
ATOM      4  C2  PXY d   1       1.166  -1.011   0.471  0.00  0.00     0.003 A 
ATOM      5  C3  PXY d   1       2.042  -1.953  -0.003  0.00  0.00     0.003 A 
ATOM      6  C4  PXY d   1       2.077  -3.206   0.547  0.00  0.00    -0.082 A 
ATOM      7  C5  PXY d   1       1.212  -3.524   1.533  0.00  0.00     0.003 A 
ATOM      8  C6  PXY d   1       0.303  -2.567   1.972  0.00  0.00     0.003 A 
ENDROOT
TORSDOF 0
ENDMDL
