MODEL 1
REMARK minimizedAffinity 1.03985429
REMARK minimizedRMSD -1
REMARK  0 active torsions:
REMARK  status: ('A' for Active; 'I' for Inactive)
ROOT
ATOM      1  C4' PXY d   1       2.501  -4.779   0.657  0.00  0.00     0.077 C 
ATOM      2  C1' PXY d   1      -0.327   0.241   1.116  0.00  0.00     0.077 C 
ATOM      3  C1  PXY d   1       0.415  -1.074   0.983  0.00  0.00    -0.082 A 
ATOM      4  C2  PXY d   1       0.266  -2.006   1.910  0.00  0.00     0.003 A 
ATOM      5  C3  PXY d   1       0.955  -3.189   1.821  0.00  0.00     0.003 A 
ATOM      6  C4  PXY d   1       1.764  -3.440   0.746  0.00  0.00    -0.082 A 
ATOM      7  C5  PXY d   1       1.913  -2.498  -0.209  0.00  0.00     0.003 A 
ATOM      8  C6  PXY d   1       1.237  -1.288  -0.080  0.00  0.00     0.003 A 
ENDROOT
TORSDOF 0
ENDMDL
