MODEL 1
REMARK minimizedAffinity -3.96200514
REMARK minimizedRMSD -1
REMARK  0 active torsions:
REMARK  status: ('A' for Active; 'I' for Inactive)
ROOT
ATOM      1  C4' PXY d   1       3.773  -4.657  -0.308  0.00  0.00     0.077 C 
ATOM      2  C1' PXY d   1       0.035  -0.512   1.195  0.00  0.00     0.077 C 
ATOM      3  C1  PXY d   1       1.015  -1.603   0.813  0.00  0.00    -0.082 A 
ATOM      4  C2  PXY d   1       1.781  -1.450  -0.255  0.00  0.00     0.003 A 
ATOM      5  C3  PXY d   1       2.650  -2.441  -0.633  0.00  0.00     0.003 A 
ATOM      6  C4  PXY d   1       2.776  -3.577   0.120  0.00  0.00    -0.082 A 
ATOM      7  C5  PXY d   1       2.006  -3.736   1.218  0.00  0.00     0.003 A 
ATOM      8  C6  PXY d   1       1.100  -2.737   1.561  0.00  0.00     0.003 A 
ENDROOT
TORSDOF 0
ENDMDL
