MODEL 1
REMARK minimizedAffinity 2.93498516
REMARK minimizedRMSD -1
REMARK  0 active torsions:
REMARK  status: ('A' for Active; 'I' for Inactive)
ROOT
ATOM      1  C4' PXY d   1      -2.009   5.399   5.985  0.00  0.00     0.077 C 
ATOM      2  C1' PXY d   1      -5.999   1.483   4.519  0.00  0.00     0.077 C 
ATOM      3  C1  PXY d   1      -4.962   2.519   4.905  0.00  0.00    -0.082 A 
ATOM      4  C2  PXY d   1      -3.706   2.363   4.519  0.00  0.00     0.003 A 
ATOM      5  C3  PXY d   1      -2.749   3.273   4.886  0.00  0.00     0.003 A 
ATOM      6  C4  PXY d   1      -3.091   4.383   5.611  0.00  0.00    -0.082 A 
ATOM      7  C5  PXY d   1      -4.372   4.555   6.000  0.00  0.00     0.003 A 
ATOM      8  C6  PXY d   1      -5.321   3.598   5.652  0.00  0.00     0.003 A 
ENDROOT
TORSDOF 0
ENDMDL
