MODEL 1
REMARK minimizedAffinity -2.56653118
REMARK minimizedRMSD -1
REMARK  0 active torsions:
REMARK  status: ('A' for Active; 'I' for Inactive)
ROOT
ATOM      1  C4' PXY d   1      -0.699  -0.098   0.415  0.00  0.00     0.077 C 
ATOM      2  C1' PXY d   1       2.570  -4.640   1.862  0.00  0.00     0.077 C 
ATOM      3  C1  PXY d   1       1.704  -3.452   1.492  0.00  0.00    -0.082 A 
ATOM      4  C2  PXY d   1       1.783  -2.940   0.275  0.00  0.00     0.003 A 
ATOM      5  C3  PXY d   1       1.030  -1.846  -0.067  0.00  0.00     0.003 A 
ATOM      6  C4  PXY d   1       0.149  -1.303   0.830  0.00  0.00    -0.082 A 
ATOM      7  C5  PXY d   1       0.056  -1.827   2.070  0.00  0.00     0.003 A 
ATOM      8  C6  PXY d   1       0.858  -2.912   2.411  0.00  0.00     0.003 A 
ENDROOT
TORSDOF 0
ENDMDL
