MODEL 1
REMARK minimizedAffinity 1.26722157
REMARK minimizedRMSD -1
REMARK  0 active torsions:
REMARK  status: ('A' for Active; 'I' for Inactive)
ROOT
ATOM      1  C4' PXY d   1       2.401  -4.884   0.173  0.00  0.00     0.077 C 
ATOM      2  C1' PXY d   1      -0.303   0.057   1.469  0.00  0.00     0.077 C 
ATOM      3  C1  PXY d   1       0.408  -1.234   1.117  0.00  0.00    -0.082 A 
ATOM      4  C2  PXY d   1       0.137  -2.337   1.796  0.00  0.00     0.003 A 
ATOM      5  C3  PXY d   1       0.794  -3.506   1.513  0.00  0.00     0.003 A 
ATOM      6  C4  PXY d   1       1.701  -3.560   0.488  0.00  0.00    -0.082 A 
ATOM      7  C5  PXY d   1       1.975  -2.442  -0.217  0.00  0.00     0.003 A 
ATOM      8  C6  PXY d   1       1.327  -1.255   0.113  0.00  0.00     0.003 A 
ENDROOT
TORSDOF 0
ENDMDL
