MODEL 1
REMARK minimizedAffinity 1.45580733
REMARK minimizedRMSD -1
REMARK  0 active torsions:
REMARK  status: ('A' for Active; 'I' for Inactive)
ROOT
ATOM      1  C4' PXY d   1      -0.442  -1.270   2.090  0.00  0.00     0.077 C 
ATOM      2  C1' PXY d   1       3.440  -4.393  -0.841  0.00  0.00     0.077 C 
ATOM      3  C1  PXY d   1       2.428  -3.563  -0.076  0.00  0.00    -0.082 A 
ATOM      4  C2  PXY d   1       1.729  -4.120   0.900  0.00  0.00     0.003 A 
ATOM      5  C3  PXY d   1       0.788  -3.393   1.581  0.00  0.00     0.003 A 
ATOM      6  C4  PXY d   1       0.597  -2.067   1.296  0.00  0.00    -0.082 A 
ATOM      7  C5  PXY d   1       1.313  -1.489   0.309  0.00  0.00     0.003 A 
ATOM      8  C6  PXY d   1       2.235  -2.255  -0.398  0.00  0.00     0.003 A 
ENDROOT
TORSDOF 0
ENDMDL
