MODEL 1
REMARK minimizedAffinity 2.85512209
REMARK minimizedRMSD -1
REMARK  0 active torsions:
REMARK  status: ('A' for Active; 'I' for Inactive)
ROOT
ATOM      1  C4' PXY d   1      -2.962   5.668   5.308  0.00  0.00     0.077 C 
ATOM      2  C1' PXY d   1      -5.999   0.765   4.923  0.00  0.00     0.077 C 
ATOM      3  C1  PXY d   1      -5.213   2.057   5.029  0.00  0.00    -0.082 A 
ATOM      4  C2  PXY d   1      -4.145   2.237   4.269  0.00  0.00     0.003 A 
ATOM      5  C3  PXY d   1      -3.404   3.386   4.374  0.00  0.00     0.003 A 
ATOM      6  C4  PXY d   1      -3.791   4.384   5.229  0.00  0.00    -0.082 A 
ATOM      7  C5  PXY d   1      -4.886   4.212   6.000  0.00  0.00     0.003 A 
ATOM      8  C6  PXY d   1      -5.600   3.021   5.907  0.00  0.00     0.003 A 
ENDROOT
TORSDOF 0
ENDMDL
