MODEL 1
REMARK minimizedAffinity 3.15164304
REMARK minimizedRMSD -1
REMARK  0 active torsions:
REMARK  status: ('A' for Active; 'I' for Inactive)
ROOT
ATOM      1  C4' PXY d   1       0.174  -1.156   1.300  0.00  0.00     0.077 C 
ATOM      2  C1' PXY d   1       3.896  -5.498   0.455  0.00  0.00     0.077 C 
ATOM      3  C1  PXY d   1       2.910  -4.368   0.679  0.00  0.00    -0.082 A 
ATOM      4  C2  PXY d   1       3.160  -3.172   0.171  0.00  0.00     0.003 A 
ATOM      5  C3  PXY d   1       2.295  -2.131   0.390  0.00  0.00     0.003 A 
ATOM      6  C4  PXY d   1       1.136  -2.329   1.092  0.00  0.00    -0.082 A 
ATOM      7  C5  PXY d   1       0.869  -3.549   1.604  0.00  0.00     0.003 A 
ATOM      8  C6  PXY d   1       1.780  -4.582   1.405  0.00  0.00     0.003 A 
ENDROOT
TORSDOF 0
ENDMDL
