MODEL 1
REMARK minimizedAffinity -1.63458312
REMARK minimizedRMSD -1
REMARK  0 active torsions:
REMARK  status: ('A' for Active; 'I' for Inactive)
ROOT
ATOM      1  C4' PXY d   1      -0.146  -1.390   2.265  0.00  0.00     0.077 C 
ATOM      2  C1' PXY d   1       3.747  -4.557  -0.604  0.00  0.00     0.077 C 
ATOM      3  C1  PXY d   1       2.721  -3.737   0.154  0.00  0.00    -0.082 A 
ATOM      4  C2  PXY d   1       2.361  -2.551  -0.309  0.00  0.00     0.003 A 
ATOM      5  C3  PXY d   1       1.459  -1.783   0.381  0.00  0.00     0.003 A 
ATOM      6  C4  PXY d   1       0.879  -2.256   1.528  0.00  0.00    -0.082 A 
ATOM      7  C5  PXY d   1       1.234  -3.470   2.000  0.00  0.00     0.003 A 
ATOM      8  C6  PXY d   1       2.182  -4.217   1.308  0.00  0.00     0.003 A 
ENDROOT
TORSDOF 0
ENDMDL
