MODEL 1
REMARK minimizedAffinity -4.90357924
REMARK minimizedRMSD -1
REMARK  0 active torsions:
REMARK  status: ('A' for Active; 'I' for Inactive)
ROOT
ATOM      1  C   UNL d   1      -2.549   2.307   1.112  0.00  0.00     0.077 C 
ATOM      2  C1  UNL d   1      -1.514   1.259   0.831  0.00  0.00    -0.074 A 
ATOM      3  C2  UNL d   1      -0.879   1.191  -0.413  0.00  0.00    -0.005 A 
ATOM      4  C3  UNL d   1       0.089   0.216  -0.656  0.00  0.00     0.006 A 
ATOM      5  C4  UNL d   1       0.431  -0.699   0.341  0.00  0.00    -0.005 A 
ATOM      6  C5  UNL d   1      -0.193  -0.645   1.591  0.00  0.00    -0.074 A 
ATOM      7  C6  UNL d   1       0.169  -1.615   2.677  0.00  0.00     0.077 C 
ATOM      8  C7  UNL d   1      -1.160   0.341   1.830  0.00  0.00    -0.001 A 
ENDROOT
TORSDOF 0
ENDMDL
