MODEL 1
REMARK minimizedAffinity -5.16849804
REMARK minimizedRMSD -1
REMARK  0 active torsions:
REMARK  status: ('A' for Active; 'I' for Inactive)
ROOT
ATOM      1  C   UNL d   1      -0.898   1.876   1.030  0.00  0.00     0.077 C 
ATOM      2  C1  UNL d   1      -0.748   0.405   0.782  0.00  0.00    -0.074 A 
ATOM      3  C2  UNL d   1      -1.264  -0.532   1.683  0.00  0.00    -0.005 A 
ATOM      4  C3  UNL d   1      -1.125  -1.898   1.435  0.00  0.00     0.006 A 
ATOM      5  C4  UNL d   1      -0.470  -2.339   0.284  0.00  0.00    -0.005 A 
ATOM      6  C5  UNL d   1       0.051  -1.417  -0.629  0.00  0.00    -0.074 A 
ATOM      7  C6  UNL d   1       0.750  -1.875  -1.875  0.00  0.00     0.077 C 
ATOM      8  C7  UNL d   1      -0.098  -0.047  -0.375  0.00  0.00    -0.001 A 
ENDROOT
TORSDOF 0
ENDMDL
