MODEL 1
REMARK minimizedAffinity -3.39552355
REMARK minimizedRMSD -1
REMARK  0 active torsions:
REMARK  status: ('A' for Active; 'I' for Inactive)
ROOT
ATOM      1  C   UNL d   1       1.273   0.945  -1.976  0.00  0.00     0.077 C 
ATOM      2  C1  UNL d   1       0.443   0.617  -0.771  0.00  0.00    -0.074 A 
ATOM      3  C2  UNL d   1       0.601  -0.600  -0.099  0.00  0.00    -0.005 A 
ATOM      4  C3  UNL d   1      -0.172  -0.887   1.026  0.00  0.00     0.006 A 
ATOM      5  C4  UNL d   1      -1.109   0.038   1.490  0.00  0.00    -0.005 A 
ATOM      6  C5  UNL d   1      -1.280   1.259   0.831  0.00  0.00    -0.074 A 
ATOM      7  C6  UNL d   1      -2.276   2.268   1.321  0.00  0.00     0.077 C 
ATOM      8  C7  UNL d   1      -0.495   1.543  -0.295  0.00  0.00    -0.001 A 
ENDROOT
TORSDOF 0
ENDMDL
