MODEL 1
REMARK minimizedAffinity -3.76036572
REMARK minimizedRMSD -1
REMARK  0 active torsions:
REMARK  status: ('A' for Active; 'I' for Inactive)
ROOT
ATOM      1  C   UNL d   1       1.438   1.347  -1.688  0.00  0.00     0.077 C 
ATOM      2  C1  UNL d   1       0.296   1.139  -0.738  0.00  0.00    -0.074 A 
ATOM      3  C2  UNL d   1      -0.995   1.569  -1.060  0.00  0.00    -0.005 A 
ATOM      4  C3  UNL d   1      -2.049   1.360  -0.171  0.00  0.00     0.006 A 
ATOM      5  C4  UNL d   1      -1.822   0.721   1.049  0.00  0.00    -0.005 A 
ATOM      6  C5  UNL d   1      -0.538   0.284   1.389  0.00  0.00    -0.074 A 
ATOM      7  C6  UNL d   1      -0.279  -0.414   2.691  0.00  0.00     0.077 C 
ATOM      8  C7  UNL d   1       0.514   0.491   0.486  0.00  0.00    -0.001 A 
ENDROOT
TORSDOF 0
ENDMDL
