MODEL 1
REMARK minimizedAffinity -1.54948258
REMARK minimizedRMSD -1
REMARK  0 active torsions:
REMARK  status: ('A' for Active; 'I' for Inactive)
ROOT
ATOM      1  C   UNL d   1       1.107   1.425  -1.851  0.00  0.00     0.077 C 
ATOM      2  C1  UNL d   1       0.410   0.793  -0.683  0.00  0.00    -0.074 A 
ATOM      3  C2  UNL d   1       0.817  -0.452  -0.191  0.00  0.00    -0.005 A 
ATOM      4  C3  UNL d   1       0.165  -1.024   0.901  0.00  0.00     0.006 A 
ATOM      5  C4  UNL d   1      -0.898  -0.357   1.512  0.00  0.00    -0.005 A 
ATOM      6  C5  UNL d   1      -1.318   0.888   1.035  0.00  0.00    -0.074 A 
ATOM      7  C6  UNL d   1      -2.453   1.622   1.686  0.00  0.00     0.077 C 
ATOM      8  C7  UNL d   1      -0.654   1.459  -0.059  0.00  0.00    -0.001 A 
ENDROOT
TORSDOF 0
ENDMDL
