MODEL 1
REMARK minimizedAffinity -5.64409828
REMARK minimizedRMSD -1
REMARK  0 active torsions:
REMARK  status: ('A' for Active; 'I' for Inactive)
ROOT
ATOM      1  C   UNL d   1      -1.918  -0.897   2.359  0.00  0.00     0.077 C 
ATOM      2  C1  UNL d   1      -1.443   0.179   1.428  0.00  0.00    -0.074 A 
ATOM      3  C2  UNL d   1      -2.034   1.446   1.433  0.00  0.00    -0.005 A 
ATOM      4  C3  UNL d   1      -1.575   2.440   0.569  0.00  0.00     0.006 A 
ATOM      5  C4  UNL d   1      -0.522   2.177  -0.308  0.00  0.00    -0.005 A 
ATOM      6  C5  UNL d   1       0.082   0.915  -0.327  0.00  0.00    -0.074 A 
ATOM      7  C6  UNL d   1       1.221   0.619  -1.257  0.00  0.00     0.077 C 
ATOM      8  C7  UNL d   1      -0.380  -0.076   0.550  0.00  0.00    -0.001 A 
ENDROOT
TORSDOF 0
ENDMDL
