MODEL 1
REMARK minimizedAffinity -4.46696138
REMARK minimizedRMSD -1
REMARK  0 active torsions:
REMARK  status: ('A' for Active; 'I' for Inactive)
ROOT
ATOM      1  C   UNL d   1      -1.995   2.510   0.720  0.00  0.00     0.077 C 
ATOM      2  C1  UNL d   1      -1.345   1.177   0.946  0.00  0.00    -0.074 A 
ATOM      3  C2  UNL d   1      -1.396   0.555   2.197  0.00  0.00    -0.005 A 
ATOM      4  C3  UNL d   1      -0.795  -0.689   2.389  0.00  0.00     0.006 A 
ATOM      5  C4  UNL d   1      -0.138  -1.322   1.334  0.00  0.00    -0.005 A 
ATOM      6  C5  UNL d   1      -0.077  -0.716   0.075  0.00  0.00    -0.074 A 
ATOM      7  C6  UNL d   1       0.616  -1.387  -1.073  0.00  0.00     0.077 C 
ATOM      8  C7  UNL d   1      -0.690   0.531  -0.112  0.00  0.00    -0.001 A 
ENDROOT
TORSDOF 0
ENDMDL
