MODEL 1
REMARK minimizedAffinity -6.13173485
REMARK minimizedRMSD -1
REMARK  0 active torsions:
REMARK  status: ('A' for Active; 'I' for Inactive)
ROOT
ATOM      1  C   UNL d   1      -2.481   1.498   1.450  0.00  0.00     0.077 C 
ATOM      2  C1  UNL d   1      -1.280   0.672   1.094  0.00  0.00    -0.074 A 
ATOM      3  C2  UNL d   1      -0.722   0.730  -0.187  0.00  0.00    -0.005 A 
ATOM      4  C3  UNL d   1       0.400  -0.037  -0.500  0.00  0.00     0.006 A 
ATOM      5  C4  UNL d   1       0.975  -0.867   0.463  0.00  0.00    -0.005 A 
ATOM      6  C5  UNL d   1       0.431  -0.937   1.749  0.00  0.00    -0.074 A 
ATOM      7  C6  UNL d   1       1.043  -1.817   2.799  0.00  0.00     0.077 C 
ATOM      8  C7  UNL d   1      -0.692  -0.158   2.059  0.00  0.00    -0.001 A 
ENDROOT
TORSDOF 0
ENDMDL
