MODEL 1
REMARK minimizedAffinity -4.22055244
REMARK minimizedRMSD -1
REMARK  0 active torsions:
REMARK  status: ('A' for Active; 'I' for Inactive)
ROOT
ATOM      1  C   UNL d   1      -0.087  -1.161  -1.550  0.00  0.00     0.077 C 
ATOM      2  C1  UNL d   1      -0.423  -0.398  -0.303  0.00  0.00    -0.074 A 
ATOM      3  C2  UNL d   1       0.163  -0.728   0.922  0.00  0.00    -0.005 A 
ATOM      4  C3  UNL d   1      -0.152  -0.003   2.071  0.00  0.00     0.006 A 
ATOM      5  C4  UNL d   1      -1.056   1.058   2.006  0.00  0.00    -0.005 A 
ATOM      6  C5  UNL d   1      -1.652   1.404   0.789  0.00  0.00    -0.074 A 
ATOM      7  C6  UNL d   1      -2.617   2.548   0.700  0.00  0.00     0.077 C 
ATOM      8  C7  UNL d   1      -1.324   0.675  -0.362  0.00  0.00    -0.001 A 
ENDROOT
TORSDOF 0
ENDMDL
