MODEL 1
REMARK minimizedAffinity -4.39334488
REMARK minimizedRMSD -1
REMARK  0 active torsions:
REMARK  status: ('A' for Active; 'I' for Inactive)
ROOT
ATOM      1  C   UNL d   1       0.976  -1.746  -0.426  0.00  0.00     0.077 C 
ATOM      2  C1  UNL d   1       0.232  -0.511  -0.011  0.00  0.00    -0.074 A 
ATOM      3  C2  UNL d   1      -0.487  -0.474   1.188  0.00  0.00    -0.005 A 
ATOM      4  C3  UNL d   1      -1.166   0.685   1.565  0.00  0.00     0.006 A 
ATOM      5  C4  UNL d   1      -1.133   1.816   0.749  0.00  0.00    -0.005 A 
ATOM      6  C5  UNL d   1      -0.418   1.798  -0.453  0.00  0.00    -0.074 A 
ATOM      7  C6  UNL d   1      -0.364   3.008  -1.337  0.00  0.00     0.077 C 
ATOM      8  C7  UNL d   1       0.267   0.632  -0.822  0.00  0.00    -0.001 A 
ENDROOT
TORSDOF 0
ENDMDL
