MODEL 1
REMARK minimizedAffinity -4.48350525
REMARK minimizedRMSD -1
REMARK  0 active torsions:
REMARK  status: ('A' for Active; 'I' for Inactive)
ROOT
ATOM      1  C   UNL d   1      -2.700   2.683   1.152  0.00  0.00     0.077 C 
ATOM      2  C1  UNL d   1      -1.661   1.606   1.249  0.00  0.00    -0.074 A 
ATOM      3  C2  UNL d   1      -1.216   1.147   2.492  0.00  0.00    -0.005 A 
ATOM      4  C3  UNL d   1      -0.255   0.138   2.566  0.00  0.00     0.006 A 
ATOM      5  C4  UNL d   1       0.268  -0.421   1.400  0.00  0.00    -0.005 A 
ATOM      6  C5  UNL d   1      -0.166   0.026   0.147  0.00  0.00    -0.074 A 
ATOM      7  C6  UNL d   1       0.380  -0.571  -1.116  0.00  0.00     0.077 C 
ATOM      8  C7  UNL d   1      -1.136   1.035   0.081  0.00  0.00    -0.001 A 
ENDROOT
TORSDOF 0
ENDMDL
