MODEL 1
REMARK minimizedAffinity -2.68084955
REMARK minimizedRMSD -1
REMARK  0 active torsions:
REMARK  status: ('A' for Active; 'I' for Inactive)
ROOT
ATOM      1  C   UNL d   1      -0.418   2.343  -1.450  0.00  0.00     0.077 C 
ATOM      2  C1  UNL d   1      -0.315   0.997  -0.796  0.00  0.00    -0.074 A 
ATOM      3  C2  UNL d   1      -0.530   0.847   0.578  0.00  0.00    -0.005 A 
ATOM      4  C3  UNL d   1      -0.441  -0.412   1.171  0.00  0.00     0.006 A 
ATOM      5  C4  UNL d   1      -0.136  -1.533   0.397  0.00  0.00    -0.005 A 
ATOM      6  C5  UNL d   1       0.082  -1.403  -0.978  0.00  0.00    -0.074 A 
ATOM      7  C6  UNL d   1       0.401  -2.598  -1.826  0.00  0.00     0.077 C 
ATOM      8  C7  UNL d   1      -0.017  -0.135  -1.568  0.00  0.00    -0.001 A 
ENDROOT
TORSDOF 0
ENDMDL
