MODEL 1
REMARK minimizedAffinity -3.71277332
REMARK minimizedRMSD -1
REMARK  0 active torsions:
REMARK  status: ('A' for Active; 'I' for Inactive)
ROOT
ATOM      1  C   UNL d   1      -0.712   0.617   1.251  0.00  0.00     0.077 C 
ATOM      2  C1  UNL d   1       0.127   0.055   0.141  0.00  0.00    -0.074 A 
ATOM      3  C2  UNL d   1       1.247   0.744  -0.333  0.00  0.00    -0.005 A 
ATOM      4  C3  UNL d   1       2.023   0.204  -1.359  0.00  0.00     0.006 A 
ATOM      5  C4  UNL d   1       1.686  -1.028  -1.920  0.00  0.00    -0.005 A 
ATOM      6  C5  UNL d   1       0.569  -1.732  -1.459  0.00  0.00    -0.074 A 
ATOM      7  C6  UNL d   1       0.199  -3.062  -2.044  0.00  0.00     0.077 C 
ATOM      8  C7  UNL d   1      -0.201  -1.186  -0.423  0.00  0.00    -0.001 A 
ENDROOT
TORSDOF 0
ENDMDL
