MODEL 1
REMARK minimizedAffinity -2.50864768
REMARK minimizedRMSD -1
REMARK  0 active torsions:
REMARK  status: ('A' for Active; 'I' for Inactive)
ROOT
ATOM      1  C   UNL d   1      -2.438   2.879   0.772  0.00  0.00     0.077 C 
ATOM      2  C1  UNL d   1      -1.698   1.592   0.991  0.00  0.00    -0.074 A 
ATOM      3  C2  UNL d   1      -1.401   1.145   2.283  0.00  0.00    -0.005 A 
ATOM      4  C3  UNL d   1      -0.722  -0.058   2.472  0.00  0.00     0.006 A 
ATOM      5  C4  UNL d   1      -0.332  -0.825   1.373  0.00  0.00    -0.005 A 
ATOM      6  C5  UNL d   1      -0.621  -0.395   0.074  0.00  0.00    -0.074 A 
ATOM      7  C6  UNL d   1      -0.219  -1.212  -1.117  0.00  0.00     0.077 C 
ATOM      8  C7  UNL d   1      -1.311   0.812  -0.107  0.00  0.00    -0.001 A 
ENDROOT
TORSDOF 0
ENDMDL
