MODEL 1
REMARK minimizedAffinity -3.97606707
REMARK minimizedRMSD -1
REMARK  0 active torsions:
REMARK  status: ('A' for Active; 'I' for Inactive)
ROOT
ATOM      1  C   UNL d   1       0.733  -2.080  -1.382  0.00  0.00     0.077 C 
ATOM      2  C1  UNL d   1       0.464  -0.739  -0.767  0.00  0.00    -0.074 A 
ATOM      3  C2  UNL d   1       0.980   0.430  -1.337  0.00  0.00    -0.005 A 
ATOM      4  C3  UNL d   1       0.714   1.671  -0.759  0.00  0.00     0.006 A 
ATOM      5  C4  UNL d   1      -0.070   1.756   0.393  0.00  0.00    -0.005 A 
ATOM      6  C5  UNL d   1      -0.596   0.599   0.976  0.00  0.00    -0.074 A 
ATOM      7  C6  UNL d   1      -1.448   0.673   2.207  0.00  0.00     0.077 C 
ATOM      8  C7  UNL d   1      -0.329  -0.644   0.385  0.00  0.00    -0.001 A 
ENDROOT
TORSDOF 0
ENDMDL
