MODEL 1
REMARK minimizedAffinity -3.54029679
REMARK minimizedRMSD -1
REMARK  0 active torsions:
REMARK  status: ('A' for Active; 'I' for Inactive)
ROOT
ATOM      1  C   UNL d   1      -2.367   1.633   1.178  0.00  0.00     0.077 C 
ATOM      2  C1  UNL d   1      -1.131   1.021   0.591  0.00  0.00    -0.074 A 
ATOM      3  C2  UNL d   1      -0.624  -0.186   1.082  0.00  0.00    -0.005 A 
ATOM      4  C3  UNL d   1       0.522  -0.749   0.519  0.00  0.00     0.006 A 
ATOM      5  C4  UNL d   1       1.170  -0.112  -0.539  0.00  0.00    -0.005 A 
ATOM      6  C5  UNL d   1       0.677   1.096  -1.045  0.00  0.00    -0.074 A 
ATOM      7  C6  UNL d   1       1.356   1.789  -2.188  0.00  0.00     0.077 C 
ATOM      8  C7  UNL d   1      -0.478   1.651  -0.478  0.00  0.00    -0.001 A 
ENDROOT
TORSDOF 0
ENDMDL
