MODEL 1
REMARK minimizedAffinity -0.54320848
REMARK minimizedRMSD -1
REMARK  1 active torsions:
REMARK  status: ('A' for Active; 'I' for Inactive)
REMARK    1  A    between atoms: C1_2  and  C2_3 
ROOT
ATOM      1  C2  UNL d   1      -0.639   0.222   0.371  0.00  0.00    -0.073 A 
ATOM      2  C3  UNL d   1      -0.573   1.555  -0.052  0.00  0.00    -0.002 A 
ATOM      3  C4  UNL d   1       0.527   2.008  -0.783  0.00  0.00     0.004 A 
ATOM      4  C5  UNL d   1       1.565   1.134  -1.103  0.00  0.00    -0.004 A 
ATOM      5  C6  UNL d   1       1.512  -0.204  -0.699  0.00  0.00    -0.075 A 
ATOM      6  C7  UNL d   1       2.622  -1.156  -1.034  0.00  0.00     0.076 C 
ATOM      7  C8  UNL d   1       0.406  -0.651   0.037  0.00  0.00     0.001 A 
ENDROOT
BRANCH   1   8
ATOM      8  C1  UNL d   1      -1.827  -0.273   1.155  0.00  0.00     0.053 C 
ATOM      9  C   UNL d   1      -2.016   0.497   2.452  0.00  0.00     0.018 C 
ENDBRANCH   1   8
TORSDOF 1
ENDMDL
