MODEL 1
REMARK minimizedAffinity -2.37680483
REMARK minimizedRMSD -1
REMARK  1 active torsions:
REMARK  status: ('A' for Active; 'I' for Inactive)
REMARK    1  A    between atoms: C1_2  and  C2_3 
ROOT
ATOM      1  C2  UNL d   1      -1.184  -0.207   1.356  0.00  0.00    -0.073 A 
ATOM      2  C3  UNL d   1      -0.663  -1.505   1.315  0.00  0.00    -0.002 A 
ATOM      3  C4  UNL d   1       0.372  -1.823   0.435  0.00  0.00     0.004 A 
ATOM      4  C5  UNL d   1       0.901  -0.845  -0.408  0.00  0.00    -0.004 A 
ATOM      5  C6  UNL d   1       0.402   0.461  -0.374  0.00  0.00    -0.075 A 
ATOM      6  C7  UNL d   1       0.958   1.523  -1.276  0.00  0.00     0.076 C 
ATOM      7  C8  UNL d   1      -0.640   0.771   0.511  0.00  0.00     0.001 A 
ENDROOT
BRANCH   1   8
ATOM      8  C1  UNL d   1      -2.298   0.142   2.309  0.00  0.00     0.053 C 
ATOM      9  C   UNL d   1      -1.775   0.783   3.585  0.00  0.00     0.018 C 
ENDBRANCH   1   8
TORSDOF 1
ENDMDL
