MODEL 1
REMARK minimizedAffinity -6.02198267
REMARK minimizedRMSD -1
REMARK  1 active torsions:
REMARK  status: ('A' for Active; 'I' for Inactive)
REMARK    1  A    between atoms: C1_2  and  C2_3 
ROOT
ATOM      1  C2  UNL d   1      -0.593   1.024   0.011  0.00  0.00    -0.073 A 
ATOM      2  C3  UNL d   1      -1.231  -0.205   0.208  0.00  0.00    -0.002 A 
ATOM      3  C4  UNL d   1      -0.520  -1.398   0.076  0.00  0.00     0.004 A 
ATOM      4  C5  UNL d   1       0.837  -1.374  -0.247  0.00  0.00    -0.004 A 
ATOM      5  C6  UNL d   1       1.496  -0.155  -0.436  0.00  0.00    -0.075 A 
ATOM      6  C7  UNL d   1       2.954  -0.112  -0.786  0.00  0.00     0.076 C 
ATOM      7  C8  UNL d   1       0.774   1.039  -0.304  0.00  0.00     0.001 A 
ENDROOT
BRANCH   1   8
ATOM      8  C1  UNL d   1      -1.356   2.316   0.159  0.00  0.00     0.053 C 
ATOM      9  C   UNL d   1      -1.580   2.681   1.617  0.00  0.00     0.018 C 
ENDBRANCH   1   8
TORSDOF 1
ENDMDL
