MODEL 1
REMARK minimizedAffinity -2.28073978
REMARK minimizedRMSD -1
REMARK  1 active torsions:
REMARK  status: ('A' for Active; 'I' for Inactive)
REMARK    1  A    between atoms: C1_2  and  C2_3 
ROOT
ATOM      1  C2  UNL d   1       1.757  -0.025  -0.346  0.00  0.00    -0.073 A 
ATOM      2  C3  UNL d   1       0.979   1.127  -0.180  0.00  0.00    -0.002 A 
ATOM      3  C4  UNL d   1      -0.402   1.026  -0.008  0.00  0.00     0.004 A 
ATOM      4  C5  UNL d   1      -1.018  -0.225   0.007  0.00  0.00    -0.004 A 
ATOM      5  C6  UNL d   1      -0.256  -1.388  -0.145  0.00  0.00    -0.075 A 
ATOM      6  C7  UNL d   1      -0.904  -2.742  -0.134  0.00  0.00     0.076 C 
ATOM      7  C8  UNL d   1       1.130  -1.279  -0.320  0.00  0.00     0.001 A 
ENDROOT
BRANCH   1   8
ATOM      8  C1  UNL d   1       3.250   0.079  -0.525  0.00  0.00     0.053 C 
ATOM      9  C   UNL d   1       3.734  -0.700  -1.738  0.00  0.00     0.018 C 
ENDBRANCH   1   8
TORSDOF 1
ENDMDL
