MODEL 1
REMARK minimizedAffinity -4.03509378
REMARK minimizedRMSD -1
REMARK  1 active torsions:
REMARK  status: ('A' for Active; 'I' for Inactive)
REMARK    1  A    between atoms: C1_2  and  C2_3 
ROOT
ATOM      1  C2  UNL d   1       0.383   0.521  -0.823  0.00  0.00    -0.073 A 
ATOM      2  C3  UNL d   1       1.702   0.467  -1.287  0.00  0.00    -0.002 A 
ATOM      3  C4  UNL d   1       2.460  -0.693  -1.123  0.00  0.00     0.004 A 
ATOM      4  C5  UNL d   1       1.906  -1.812  -0.501  0.00  0.00    -0.004 A 
ATOM      5  C6  UNL d   1       0.585  -1.781  -0.042  0.00  0.00    -0.075 A 
ATOM      6  C7  UNL d   1      -0.026  -2.975   0.631  0.00  0.00     0.076 C 
ATOM      7  C8  UNL d   1      -0.169  -0.612  -0.208  0.00  0.00     0.001 A 
ENDROOT
BRANCH   1   8
ATOM      8  C1  UNL d   1      -0.441   1.770  -1.004  0.00  0.00     0.053 C 
ATOM      9  C   UNL d   1       0.159   2.704  -2.042  0.00  0.00     0.018 C 
ENDBRANCH   1   8
TORSDOF 1
ENDMDL
