MODEL 1
REMARK minimizedAffinity -5.21052265
REMARK minimizedRMSD -1
REMARK  1 active torsions:
REMARK  status: ('A' for Active; 'I' for Inactive)
REMARK    1  A    between atoms: C1_2  and  C2_3 
ROOT
ATOM      1  C2  UNL d   1      -0.526   0.082   0.330  0.00  0.00    -0.073 A 
ATOM      2  C3  UNL d   1      -0.871  -1.273   0.376  0.00  0.00    -0.002 A 
ATOM      3  C4  UNL d   1       0.014  -2.243  -0.099  0.00  0.00     0.004 A 
ATOM      4  C5  UNL d   1       1.254  -1.868  -0.616  0.00  0.00    -0.004 A 
ATOM      5  C6  UNL d   1       1.622  -0.520  -0.659  0.00  0.00    -0.075 A 
ATOM      6  C7  UNL d   1       2.951  -0.101  -1.215  0.00  0.00     0.076 C 
ATOM      7  C8  UNL d   1       0.727   0.448  -0.184  0.00  0.00     0.001 A 
ENDROOT
BRANCH   1   8
ATOM      8  C1  UNL d   1      -1.475   1.132   0.847  0.00  0.00     0.053 C 
ATOM      9  C   UNL d   1      -1.454   1.222   2.364  0.00  0.00     0.018 C 
ENDBRANCH   1   8
TORSDOF 1
ENDMDL
