MODEL 1
REMARK minimizedAffinity -4.94777012
REMARK minimizedRMSD -1
REMARK  1 active torsions:
REMARK  status: ('A' for Active; 'I' for Inactive)
REMARK    1  A    between atoms: C1_2  and  C2_3 
ROOT
ATOM      1  C2  UNL d   1      -0.165  -0.258  -0.180  0.00  0.00    -0.073 A 
ATOM      2  C3  UNL d   1      -0.336  -1.608   0.145  0.00  0.00    -0.002 A 
ATOM      3  C4  UNL d   1       0.716  -2.511  -0.014  0.00  0.00     0.004 A 
ATOM      4  C5  UNL d   1       1.951  -2.072  -0.493  0.00  0.00    -0.004 A 
ATOM      5  C6  UNL d   1       2.145  -0.725  -0.813  0.00  0.00    -0.075 A 
ATOM      6  C7  UNL d   1       3.466  -0.238  -1.331  0.00  0.00     0.076 C 
ATOM      7  C8  UNL d   1       1.083   0.175  -0.652  0.00  0.00     0.001 A 
ENDROOT
BRANCH   1   8
ATOM      8  C1  UNL d   1      -1.296   0.721  -0.004  0.00  0.00     0.053 C 
ATOM      9  C   UNL d   1      -1.893   0.657   1.393  0.00  0.00     0.018 C 
ENDBRANCH   1   8
TORSDOF 1
ENDMDL
