MODEL 1
REMARK minimizedAffinity -4.40382624
REMARK minimizedRMSD -1
REMARK  1 active torsions:
REMARK  status: ('A' for Active; 'I' for Inactive)
REMARK    1  A    between atoms: C1_2  and  C2_3 
ROOT
ATOM      1  C2  UNL d   1       0.609  -0.190  -0.041  0.00  0.00    -0.073 A 
ATOM      2  C3  UNL d   1       1.787   0.566  -0.014  0.00  0.00    -0.002 A 
ATOM      3  C4  UNL d   1       2.814   0.303  -0.922  0.00  0.00     0.004 A 
ATOM      4  C5  UNL d   1       2.672  -0.713  -1.867  0.00  0.00    -0.004 A 
ATOM      5  C6  UNL d   1       1.498  -1.472  -1.917  0.00  0.00    -0.075 A 
ATOM      6  C7  UNL d   1       1.331  -2.569  -2.927  0.00  0.00     0.076 C 
ATOM      7  C8  UNL d   1       0.472  -1.203  -1.001  0.00  0.00     0.001 A 
ENDROOT
BRANCH   1   8
ATOM      8  C1  UNL d   1      -0.505   0.094   0.933  0.00  0.00     0.053 C 
ATOM      9  C   UNL d   1      -1.683   0.785   0.265  0.00  0.00     0.018 C 
ENDBRANCH   1   8
TORSDOF 1
ENDMDL
