MODEL 1
REMARK minimizedAffinity -2.11519146
REMARK minimizedRMSD -1
REMARK  1 active torsions:
REMARK  status: ('A' for Active; 'I' for Inactive)
REMARK    1  A    between atoms: C1_2  and  C2_3 
ROOT
ATOM      1  C2  UNL d   1      -0.403  -0.381   0.154  0.00  0.00    -0.073 A 
ATOM      2  C3  UNL d   1      -0.465  -1.698   0.622  0.00  0.00    -0.002 A 
ATOM      3  C4  UNL d   1       0.612  -2.565   0.431  0.00  0.00     0.004 A 
ATOM      4  C5  UNL d   1       1.762  -2.123  -0.223  0.00  0.00    -0.004 A 
ATOM      5  C6  UNL d   1       1.847  -0.807  -0.687  0.00  0.00    -0.075 A 
ATOM      6  C7  UNL d   1       3.076  -0.316  -1.394  0.00  0.00     0.076 C 
ATOM      7  C8  UNL d   1       0.761   0.057  -0.494  0.00  0.00     0.001 A 
ENDROOT
BRANCH   1   8
ATOM      8  C1  UNL d   1      -1.561   0.561   0.364  0.00  0.00     0.053 C 
ATOM      9  C   UNL d   1      -2.130   0.461   1.770  0.00  0.00     0.018 C 
ENDBRANCH   1   8
TORSDOF 1
ENDMDL
