MODEL 1
REMARK minimizedAffinity -3.06881809
REMARK minimizedRMSD -1
REMARK  1 active torsions:
REMARK  status: ('A' for Active; 'I' for Inactive)
REMARK    1  A    between atoms: C1_2  and  C2_3 
ROOT
ATOM      1  C2  UNL d   1       0.895  -0.436  -0.047  0.00  0.00    -0.073 A 
ATOM      2  C3  UNL d   1       2.070   0.291   0.176  0.00  0.00    -0.002 A 
ATOM      3  C4  UNL d   1       3.110   0.250  -0.754  0.00  0.00     0.004 A 
ATOM      4  C5  UNL d   1       2.984  -0.510  -1.916  0.00  0.00    -0.004 A 
ATOM      5  C6  UNL d   1       1.813  -1.234  -2.162  0.00  0.00    -0.075 A 
ATOM      6  C7  UNL d   1       1.663  -2.059  -3.406  0.00  0.00     0.076 C 
ATOM      7  C8  UNL d   1       0.774  -1.191  -1.222  0.00  0.00     0.001 A 
ENDROOT
BRANCH   1   8
ATOM      8  C1  UNL d   1      -0.233  -0.391   0.951  0.00  0.00     0.053 C 
ATOM      9  C   UNL d   1      -1.379   0.489   0.476  0.00  0.00     0.018 C 
ENDBRANCH   1   8
TORSDOF 1
ENDMDL
