MODEL 1
REMARK minimizedAffinity 7.29917431
REMARK minimizedRMSD -1
REMARK  0 active torsions:
REMARK  status: ('A' for Active; 'I' for Inactive)
ROOT
ATOM      1  C   UNL d   1      -1.859   1.720   2.638  0.00  0.00     0.020 A 
ATOM      2  C1  UNL d   1      -0.705   2.326   2.143  0.00  0.00     0.020 A 
ATOM      3  C2  UNL d   1       0.502   1.624   2.131  0.00  0.00     0.034 A 
ATOM      4  C3  UNL d   1       0.557   0.312   2.615  0.00  0.00     0.017 A 
ATOM      5  C4  UNL d   1      -0.602  -0.295   3.112  0.00  0.00     0.017 A 
ATOM      6  C5  UNL d   1      -1.808   0.412   3.121  0.00  0.00     0.034 A 
ATOM      7 Cl   UNL d   1      -0.611  -1.911   3.726  0.00  0.00    -0.070 Cl
ATOM      8 Cl1  UNL d   1       2.084  -0.497   2.570  0.00  0.00    -0.070 Cl
ENDROOT
TORSDOF 0
ENDMDL
