MODEL 1
REMARK minimizedAffinity 4.23785782
REMARK minimizedRMSD -1
REMARK  0 active torsions:
REMARK  status: ('A' for Active; 'I' for Inactive)
ROOT
ATOM      1  C   UNL d   1      -5.648   3.944  -1.734  0.00  0.00     0.020 A 
ATOM      2  C1  UNL d   1      -5.646   5.336  -1.639  0.00  0.00     0.020 A 
ATOM      3  C2  UNL d   1      -5.754   5.950  -0.390  0.00  0.00     0.034 A 
ATOM      4  C3  UNL d   1      -5.864   5.173   0.769  0.00  0.00     0.017 A 
ATOM      5  C4  UNL d   1      -5.866   3.777   0.673  0.00  0.00     0.017 A 
ATOM      6  C5  UNL d   1      -5.758   3.167  -0.581  0.00  0.00     0.034 A 
ATOM      7 Cl   UNL d   1      -5.998   2.752   2.058  0.00  0.00    -0.070 Cl
ATOM      8 Cl1  UNL d   1      -5.993   6.000   2.281  0.00  0.00    -0.070 Cl
ENDROOT
TORSDOF 0
ENDMDL
