MODEL 1
REMARK minimizedAffinity 0.335191607
REMARK minimizedRMSD -1
REMARK  0 active torsions:
REMARK  status: ('A' for Active; 'I' for Inactive)
ROOT
ATOM      1  C   UNL d   1      -0.648   1.043   2.317  0.00  0.00     0.020 A 
ATOM      2  C1  UNL d   1      -0.294   2.180   3.043  0.00  0.00     0.020 A 
ATOM      3  C2  UNL d   1       1.036   2.385   3.414  0.00  0.00     0.034 A 
ATOM      4  C3  UNL d   1       2.018   1.453   3.059  0.00  0.00     0.017 A 
ATOM      5  C4  UNL d   1       1.662   0.312   2.330  0.00  0.00     0.017 A 
ATOM      6  C5  UNL d   1       0.328   0.112   1.961  0.00  0.00     0.034 A 
ATOM      7 Cl   UNL d   1       2.817  -0.882   1.856  0.00  0.00    -0.070 Cl
ATOM      8 Cl1  UNL d   1       3.644   1.771   3.550  0.00  0.00    -0.070 Cl
ENDROOT
TORSDOF 0
ENDMDL
