MODEL 1
REMARK minimizedAffinity 6.0851984
REMARK minimizedRMSD -1
REMARK  0 active torsions:
REMARK  status: ('A' for Active; 'I' for Inactive)
ROOT
ATOM      1  C   UNL d   1      -1.147  -2.358  -1.203  0.00  0.00     0.020 A 
ATOM      2  C1  UNL d   1      -2.374  -2.243  -0.550  0.00  0.00     0.020 A 
ATOM      3  C2  UNL d   1      -2.488  -1.436   0.584  0.00  0.00     0.034 A 
ATOM      4  C3  UNL d   1      -1.374  -0.741   1.068  0.00  0.00     0.017 A 
ATOM      5  C4  UNL d   1      -0.143  -0.857   0.412  0.00  0.00     0.017 A 
ATOM      6  C5  UNL d   1      -0.034  -1.666  -0.723  0.00  0.00     0.034 A 
ATOM      7 Cl   UNL d   1       1.276  -0.030   0.950  0.00  0.00    -0.070 Cl
ATOM      8 Cl1  UNL d   1      -1.588   0.240   2.475  0.00  0.00    -0.070 Cl
ENDROOT
TORSDOF 0
ENDMDL
