MODEL 1
REMARK minimizedAffinity 13.8565426
REMARK minimizedRMSD -1
REMARK  0 active torsions:
REMARK  status: ('A' for Active; 'I' for Inactive)
ROOT
ATOM      1  C   UNL d   1       2.705   1.161  -0.456  0.00  0.00     0.020 A 
ATOM      2  C1  UNL d   1       3.916   0.508  -0.229  0.00  0.00     0.020 A 
ATOM      3  C2  UNL d   1       3.995  -0.500   0.735  0.00  0.00     0.034 A 
ATOM      4  C3  UNL d   1       2.863  -0.856   1.476  0.00  0.00     0.017 A 
ATOM      5  C4  UNL d   1       1.648  -0.199   1.248  0.00  0.00     0.017 A 
ATOM      6  C5  UNL d   1       1.574   0.809   0.281  0.00  0.00     0.034 A 
ATOM      7 Cl   UNL d   1       0.208  -0.583   2.123  0.00  0.00    -0.070 Cl
ATOM      8 Cl1  UNL d   1       3.034  -2.110   2.652  0.00  0.00    -0.070 Cl
ENDROOT
TORSDOF 0
ENDMDL
