MODEL 1
REMARK minimizedAffinity 6.39721537
REMARK minimizedRMSD -1
REMARK  0 active torsions:
REMARK  status: ('A' for Active; 'I' for Inactive)
ROOT
ATOM      1  C   UNL d   1      -0.462  -3.037  -1.921  0.00  0.00     0.020 A 
ATOM      2  C1  UNL d   1      -0.180  -2.367  -3.111  0.00  0.00     0.020 A 
ATOM      3  C2  UNL d   1       0.746  -1.321  -3.120  0.00  0.00     0.034 A 
ATOM      4  C3  UNL d   1       1.392  -0.943  -1.938  0.00  0.00     0.017 A 
ATOM      5  C4  UNL d   1       1.108  -1.616  -0.744  0.00  0.00     0.017 A 
ATOM      6  C5  UNL d   1       0.181  -2.662  -0.741  0.00  0.00     0.034 A 
ATOM      7 Cl   UNL d   1       1.866  -1.206   0.754  0.00  0.00    -0.070 Cl
ATOM      8 Cl1  UNL d   1       2.526   0.359  -2.023  0.00  0.00    -0.070 Cl
ENDROOT
TORSDOF 0
ENDMDL
