MODEL 1
REMARK minimizedAffinity 2.65552115
REMARK minimizedRMSD -1
REMARK  0 active torsions:
REMARK  status: ('A' for Active; 'I' for Inactive)
ROOT
ATOM      1  C   UNL d   1      -1.448  -0.068   1.649  0.00  0.00     0.020 A 
ATOM      2  C1  UNL d   1      -0.263   0.311   2.279  0.00  0.00     0.020 A 
ATOM      3  C2  UNL d   1       0.957  -0.210   1.843  0.00  0.00     0.034 A 
ATOM      4  C3  UNL d   1       0.995  -1.112   0.773  0.00  0.00     0.017 A 
ATOM      5  C4  UNL d   1      -0.195  -1.492   0.141  0.00  0.00     0.017 A 
ATOM      6  C5  UNL d   1      -1.413  -0.967   0.582  0.00  0.00     0.034 A 
ATOM      7 Cl   UNL d   1      -0.227  -2.600  -1.184  0.00  0.00    -0.070 Cl
ATOM      8 Cl1  UNL d   1       2.539  -1.716   0.286  0.00  0.00    -0.070 Cl
ENDROOT
TORSDOF 0
ENDMDL
