MODEL 1
REMARK minimizedAffinity 11.1409197
REMARK minimizedRMSD -1
REMARK  0 active torsions:
REMARK  status: ('A' for Active; 'I' for Inactive)
ROOT
ATOM      1  C   UNL d   1      -0.855   0.634   2.894  0.00  0.00     0.020 A 
ATOM      2  C1  UNL d   1      -1.651   1.752   2.650  0.00  0.00     0.020 A 
ATOM      3  C2  UNL d   1      -2.589   1.729   1.616  0.00  0.00     0.034 A 
ATOM      4  C3  UNL d   1      -2.734   0.586   0.822  0.00  0.00     0.017 A 
ATOM      5  C4  UNL d   1      -1.934  -0.536   1.067  0.00  0.00     0.017 A 
ATOM      6  C5  UNL d   1      -0.996  -0.508   2.104  0.00  0.00     0.034 A 
ATOM      7 Cl   UNL d   1      -2.054  -1.983   0.130  0.00  0.00    -0.070 Cl
ATOM      8 Cl1  UNL d   1      -3.914   0.627  -0.439  0.00  0.00    -0.070 Cl
ENDROOT
TORSDOF 0
ENDMDL
