MODEL 1
REMARK minimizedAffinity 9.25624561
REMARK minimizedRMSD -1
REMARK  2 active torsions:
REMARK  status: ('A' for Active; 'I' for Inactive)
REMARK    1  A    between atoms: C2'_3  and  C1'_4 
REMARK    2  A    between atoms: C1'_4  and  C1_5 
ROOT
ATOM      1  C1  I4B d   1      -3.688  -0.048  -2.989  0.00  0.00    -0.075 A 
ATOM      2  C2  I4B d   1      -2.373   0.201  -3.296  0.00  0.00     0.003 A 
ATOM      3  C3  I4B d   1      -2.040   0.932  -4.462  0.00  0.00     0.002 A 
ATOM      4  C4  I4B d   1      -3.043   1.348  -5.313  0.00  0.00    -0.004 A 
ATOM      5  C5  I4B d   1      -4.376   1.114  -4.989  0.00  0.00     0.002 A 
ATOM      6  C6  I4B d   1      -4.702   0.422  -3.813  0.00  0.00     0.003 A 
ENDROOT
BRANCH   1   7
ATOM      7  C1' I4B d   1      -4.003  -0.851  -1.767  0.00  0.00     0.060 C 
BRANCH   7   8
ATOM      8  C2' I4B d   1      -4.529   0.097  -0.708  0.00  0.00    -0.013 C 
ATOM      9  C4' I4B d   1      -5.884  -0.337  -0.213  0.00  0.00     0.013 C 
ATOM     10  C3' I4B d   1      -3.532   0.140   0.411  0.00  0.00     0.013 C 
ENDBRANCH   7   8
ENDBRANCH   1   7
TORSDOF 2
ENDMDL
