MODEL 1
REMARK minimizedAffinity 9.65095329
REMARK minimizedRMSD -1
REMARK  2 active torsions:
REMARK  status: ('A' for Active; 'I' for Inactive)
REMARK    1  A    between atoms: C2'_3  and  C1'_4 
REMARK    2  A    between atoms: C1'_4  and  C1_5 
ROOT
ATOM      1  C1  I4B d   1       2.146   0.448  -0.148  0.00  0.00    -0.075 A 
ATOM      2  C2  I4B d   1       1.893   0.592   1.193  0.00  0.00     0.003 A 
ATOM      3  C3  I4B d   1       0.621   1.030   1.636  0.00  0.00     0.002 A 
ATOM      4  C4  I4B d   1      -0.345   1.360   0.707  0.00  0.00    -0.004 A 
ATOM      5  C5  I4B d   1      -0.094   1.192  -0.651  0.00  0.00     0.002 A 
ATOM      6  C6  I4B d   1       1.155   0.722  -1.082  0.00  0.00     0.003 A 
ENDROOT
BRANCH   1   7
ATOM      7  C1' I4B d   1       3.510   0.015  -0.582  0.00  0.00     0.060 C 
BRANCH   7   8
ATOM      8  C2' I4B d   1       4.446   1.196  -0.427  0.00  0.00    -0.013 C 
ATOM      9  C4' I4B d   1       5.655   0.830   0.392  0.00  0.00     0.013 C 
ATOM     10  C3' I4B d   1       4.841   1.656  -1.799  0.00  0.00     0.013 C 
ENDBRANCH   7   8
ENDBRANCH   1   7
TORSDOF 2
ENDMDL
