MODEL 1
REMARK minimizedAffinity 10.5316286
REMARK minimizedRMSD -1
REMARK  2 active torsions:
REMARK  status: ('A' for Active; 'I' for Inactive)
REMARK    1  A    between atoms: C2'_3  and  C1'_4 
REMARK    2  A    between atoms: C1'_4  and  C1_5 
ROOT
ATOM      1  C1  I4B d   1       1.673   0.220  -0.155  0.00  0.00    -0.075 A 
ATOM      2  C2  I4B d   1       0.943   0.614  -1.247  0.00  0.00     0.003 A 
ATOM      3  C3  I4B d   1      -0.291   1.288  -1.074  0.00  0.00     0.002 A 
ATOM      4  C4  I4B d   1      -0.777   1.499   0.200  0.00  0.00    -0.004 A 
ATOM      5  C5  I4B d   1      -0.024   1.118   1.307  0.00  0.00     0.002 A 
ATOM      6  C6  I4B d   1       1.215   0.486   1.129  0.00  0.00     0.003 A 
ENDROOT
BRANCH   1   7
ATOM      7  C1' I4B d   1       2.956  -0.518  -0.374  0.00  0.00     0.060 C 
BRANCH   7   8
ATOM      8  C2' I4B d   1       4.094   0.472  -0.231  0.00  0.00    -0.013 C 
ATOM      9  C4' I4B d   1       5.236  -0.120   0.553  0.00  0.00     0.013 C 
ATOM     10  C3' I4B d   1       4.533   0.874  -1.608  0.00  0.00     0.013 C 
ENDBRANCH   7   8
ENDBRANCH   1   7
TORSDOF 2
ENDMDL
