MODEL 1
REMARK minimizedAffinity 6.78717613
REMARK minimizedRMSD -1
REMARK  2 active torsions:
REMARK  status: ('A' for Active; 'I' for Inactive)
REMARK    1  A    between atoms: C2'_3  and  C1'_4 
REMARK    2  A    between atoms: C1'_4  and  C1_5 
ROOT
ATOM      1  C1  I4B d   1       3.899  -1.153  -0.534  0.00  0.00    -0.075 A 
ATOM      2  C2  I4B d   1       5.174  -1.192  -0.027  0.00  0.00     0.003 A 
ATOM      3  C3  I4B d   1       6.000  -0.044  -0.088  0.00  0.00     0.002 A 
ATOM      4  C4  I4B d   1       5.532   1.099  -0.705  0.00  0.00    -0.004 A 
ATOM      5  C5  I4B d   1       4.231   1.143  -1.197  0.00  0.00     0.002 A 
ATOM      6  C6  I4B d   1       3.404   0.014  -1.101  0.00  0.00     0.003 A 
ENDROOT
BRANCH   1   7
ATOM      7  C1' I4B d   1       3.065  -2.394  -0.483  0.00  0.00     0.060 C 
BRANCH   7   8
ATOM      8  C2' I4B d   1       2.418  -2.578  -1.841  0.00  0.00    -0.013 C 
ATOM      9  C4' I4B d   1       3.452  -2.831  -2.907  0.00  0.00     0.013 C 
ATOM     10  C3' I4B d   1       1.451  -3.720  -1.743  0.00  0.00     0.013 C 
ENDBRANCH   7   8
ENDBRANCH   1   7
TORSDOF 2
ENDMDL
