MODEL 1
REMARK minimizedAffinity 15.9081106
REMARK minimizedRMSD -1
REMARK  2 active torsions:
REMARK  status: ('A' for Active; 'I' for Inactive)
REMARK    1  A    between atoms: C2'_3  and  C1'_4 
REMARK    2  A    between atoms: C1'_4  and  C1_5 
ROOT
ATOM      1  C1  I4B d   1      -0.888  -4.911  -2.481  0.00  0.00    -0.075 A 
ATOM      2  C2  I4B d   1      -0.405  -5.536  -1.359  0.00  0.00     0.003 A 
ATOM      3  C3  I4B d   1       0.785  -5.077  -0.743  0.00  0.00     0.002 A 
ATOM      4  C4  I4B d   1       1.482  -4.029  -1.308  0.00  0.00    -0.004 A 
ATOM      5  C5  I4B d   1       0.979  -3.381  -2.433  0.00  0.00     0.002 A 
ATOM      6  C6  I4B d   1      -0.220  -3.817  -3.016  0.00  0.00     0.003 A 
ENDROOT
BRANCH   1   7
ATOM      7  C1' I4B d   1      -2.129  -5.442  -3.125  0.00  0.00     0.060 C 
BRANCH   7   8
ATOM      8  C2' I4B d   1      -1.953  -5.347  -4.627  0.00  0.00    -0.013 C 
ATOM      9  C4' I4B d   1      -0.669  -5.998  -5.068  0.00  0.00     0.013 C 
ATOM     10  C3' I4B d   1      -3.140  -5.996  -5.274  0.00  0.00     0.013 C 
ENDBRANCH   7   8
ENDBRANCH   1   7
TORSDOF 2
ENDMDL
