MODEL 1
REMARK minimizedAffinity 13.9730864
REMARK minimizedRMSD -1
REMARK  2 active torsions:
REMARK  status: ('A' for Active; 'I' for Inactive)
REMARK    1  A    between atoms: C2'_3  and  C1'_4 
REMARK    2  A    between atoms: C1'_4  and  C1_5 
ROOT
ATOM      1  C1  I4B d   1       0.797   0.823  -0.381  0.00  0.00    -0.075 A 
ATOM      2  C2  I4B d   1       0.954   0.713   0.978  0.00  0.00     0.003 A 
ATOM      3  C3  I4B d   1       0.057   1.369   1.856  0.00  0.00     0.002 A 
ATOM      4  C4  I4B d   1      -0.946   2.160   1.335  0.00  0.00    -0.004 A 
ATOM      5  C5  I4B d   1      -1.119   2.252  -0.043  0.00  0.00     0.002 A 
ATOM      6  C6  I4B d   1      -0.250   1.570  -0.907  0.00  0.00     0.003 A 
ENDROOT
BRANCH   1   7
ATOM      7  C1' I4B d   1       1.782   0.144  -1.278  0.00  0.00     0.060 C 
BRANCH   7   8
ATOM      8  C2' I4B d   1       2.970  -0.275  -0.435  0.00  0.00    -0.013 C 
ATOM      9  C4' I4B d   1       3.159  -1.769  -0.464  0.00  0.00     0.013 C 
ATOM     10  C3' I4B d   1       4.182   0.435  -0.959  0.00  0.00     0.013 C 
ENDBRANCH   7   8
ENDBRANCH   1   7
TORSDOF 2
ENDMDL
