MODEL 1
REMARK minimizedAffinity 13.3991737
REMARK minimizedRMSD -1
REMARK  2 active torsions:
REMARK  status: ('A' for Active; 'I' for Inactive)
REMARK    1  A    between atoms: C2'_3  and  C1'_4 
REMARK    2  A    between atoms: C1'_4  and  C1_5 
ROOT
ATOM      1  C1  I4B d   1      -0.125   0.982   1.763  0.00  0.00    -0.075 A 
ATOM      2  C2  I4B d   1       0.289   2.227   1.359  0.00  0.00     0.003 A 
ATOM      3  C3  I4B d   1      -0.661   3.244   1.098  0.00  0.00     0.002 A 
ATOM      4  C4  I4B d   1      -2.008   2.960   1.204  0.00  0.00    -0.004 A 
ATOM      5  C5  I4B d   1      -2.424   1.704   1.637  0.00  0.00     0.002 A 
ATOM      6  C6  I4B d   1      -1.477   0.712   1.930  0.00  0.00     0.003 A 
ENDROOT
BRANCH   1   7
ATOM      7  C1' I4B d   1       0.903  -0.078   1.998  0.00  0.00     0.060 C 
BRANCH   7   8
ATOM      8  C2' I4B d   1       0.571  -0.770   3.305  0.00  0.00    -0.013 C 
ATOM      9  C4' I4B d   1       0.920  -2.234   3.251  0.00  0.00     0.013 C 
ATOM     10  C3' I4B d   1       1.321  -0.074   4.401  0.00  0.00     0.013 C 
ENDBRANCH   7   8
ENDBRANCH   1   7
TORSDOF 2
ENDMDL
