MODEL 1
REMARK minimizedAffinity 2.93777227
REMARK minimizedRMSD -1
REMARK  1 active torsions:
REMARK  status: ('A' for Active; 'I' for Inactive)
REMARK    1  A    between atoms: C3_4  and  O_7 
ROOT
ATOM      1  C   UNL d   1       5.735   0.343   2.556  0.00  0.00    -0.033 A 
ATOM      2  C1  UNL d   1       4.555   0.722   3.199  0.00  0.00     0.039 A 
ATOM      3  C2  UNL d   1       3.638   1.549   2.548  0.00  0.00    -0.080 A 
ATOM      4  C3  UNL d   1       3.912   1.990   1.256  0.00  0.00     0.150 A 
ATOM      5  C4  UNL d   1       5.084   1.613   0.609  0.00  0.00    -0.007 A 
ATOM      6  C5  UNL d   1       5.999   0.787   1.260  0.00  0.00     0.039 A 
ENDROOT
BRANCH   4   7
ATOM      7  O   UNL d   1       3.050   2.803   0.583  0.00  0.00    -0.526 OA
ATOM      8  H5  UNL d   1       2.298   3.004   1.165  0.00  0.00     0.418 HD
ENDBRANCH   4   7
TORSDOF 1
ENDMDL
