MODEL 1
REMARK minimizedAffinity 6.15767622
REMARK minimizedRMSD -1
REMARK  1 active torsions:
REMARK  status: ('A' for Active; 'I' for Inactive)
REMARK    1  A    between atoms: C3_4  and  O_7 
ROOT
ATOM      1  C   UNL d   1       4.496   3.514  -0.407  0.00  0.00    -0.033 A 
ATOM      2  C1  UNL d   1       5.620   2.730  -0.675  0.00  0.00     0.039 A 
ATOM      3  C2  UNL d   1       6.000   1.723   0.215  0.00  0.00    -0.080 A 
ATOM      4  C3  UNL d   1       5.249   1.511   1.367  0.00  0.00     0.150 A 
ATOM      5  C4  UNL d   1       4.126   2.286   1.639  0.00  0.00    -0.007 A 
ATOM      6  C5  UNL d   1       3.749   3.291   0.750  0.00  0.00     0.039 A 
ENDROOT
BRANCH   4   7
ATOM      7  O   UNL d   1       5.583   0.544   2.268  0.00  0.00    -0.526 OA
ATOM      8  H5  UNL d   1       6.397   0.107   1.963  0.00  0.00     0.418 HD
ENDBRANCH   4   7
TORSDOF 1
ENDMDL
