MODEL 1
REMARK minimizedAffinity 14.4487514
REMARK minimizedRMSD -1
REMARK  1 active torsions:
REMARK  status: ('A' for Active; 'I' for Inactive)
REMARK    1  A    between atoms: C3_4  and  O_7 
ROOT
ATOM      1  C   UNL d   1      -0.625  -3.058   0.357  0.00  0.00    -0.033 A 
ATOM      2  C1  UNL d   1      -0.415  -4.173  -0.456  0.00  0.00     0.039 A 
ATOM      3  C2  UNL d   1      -0.466  -4.047  -1.845  0.00  0.00    -0.080 A 
ATOM      4  C3  UNL d   1      -0.727  -2.801  -2.409  0.00  0.00     0.150 A 
ATOM      5  C4  UNL d   1      -0.934  -1.684  -1.605  0.00  0.00    -0.007 A 
ATOM      6  C5  UNL d   1      -0.883  -1.813  -0.218  0.00  0.00     0.039 A 
ENDROOT
BRANCH   4   7
ATOM      7  O   UNL d   1      -0.792  -2.629  -3.759  0.00  0.00    -0.526 OA
ATOM      8  H5  UNL d   1      -0.658  -3.492  -4.186  0.00  0.00     0.418 HD
ENDBRANCH   4   7
TORSDOF 1
ENDMDL
