MODEL 1
REMARK minimizedAffinity 10.3499842
REMARK minimizedRMSD -1
REMARK  1 active torsions:
REMARK  status: ('A' for Active; 'I' for Inactive)
REMARK    1  A    between atoms: C3_4  and  O_7 
ROOT
ATOM      1  C   UNL d   1      -0.761   2.051  -4.438  0.00  0.00    -0.033 A 
ATOM      2  C1  UNL d   1      -0.758   2.995  -5.466  0.00  0.00     0.039 A 
ATOM      3  C2  UNL d   1      -1.965   3.453  -5.999  0.00  0.00    -0.080 A 
ATOM      4  C3  UNL d   1      -3.165   2.960  -5.496  0.00  0.00     0.150 A 
ATOM      5  C4  UNL d   1      -3.176   2.022  -4.469  0.00  0.00    -0.007 A 
ATOM      6  C5  UNL d   1      -1.970   1.565  -3.938  0.00  0.00     0.039 A 
ENDROOT
BRANCH   4   7
ATOM      7  O   UNL d   1      -4.368   3.373  -5.988  0.00  0.00    -0.526 OA
ATOM      8  H5  UNL d   1      -4.205   4.000  -6.712  0.00  0.00     0.418 HD
ENDBRANCH   4   7
TORSDOF 1
ENDMDL
