MODEL 1
REMARK minimizedAffinity 9.14938736
REMARK minimizedRMSD -1
REMARK  1 active torsions:
REMARK  status: ('A' for Active; 'I' for Inactive)
REMARK    1  A    between atoms: C3_4  and  O_7 
ROOT
ATOM      1  C   UNL d   1      -2.496  -0.681   1.618  0.00  0.00    -0.033 A 
ATOM      2  C1  UNL d   1      -2.420   0.711   1.694  0.00  0.00     0.039 A 
ATOM      3  C2  UNL d   1      -2.489   1.350   2.934  0.00  0.00    -0.080 A 
ATOM      4  C3  UNL d   1      -2.631   0.585   4.089  0.00  0.00     0.150 A 
ATOM      5  C4  UNL d   1      -2.704  -0.802   4.021  0.00  0.00    -0.007 A 
ATOM      6  C5  UNL d   1      -2.636  -1.438   2.782  0.00  0.00     0.039 A 
ENDROOT
BRANCH   4   7
ATOM      7  O   UNL d   1      -2.708   1.164   5.321  0.00  0.00    -0.526 OA
ATOM      8  H5  UNL d   1      -2.673   2.128   5.211  0.00  0.00     0.418 HD
ENDBRANCH   4   7
TORSDOF 1
ENDMDL
