MODEL 1
REMARK minimizedAffinity 11.9257374
REMARK minimizedRMSD -1
REMARK  1 active torsions:
REMARK  status: ('A' for Active; 'I' for Inactive)
REMARK    1  A    between atoms: C3_4  and  O_7 
ROOT
ATOM      1  C   UNL d   1       6.000   0.432  -3.671  0.00  0.00    -0.033 A 
ATOM      2  C1  UNL d   1       5.631  -0.877  -3.358  0.00  0.00     0.039 A 
ATOM      3  C2  UNL d   1       4.409  -1.129  -2.731  0.00  0.00    -0.080 A 
ATOM      4  C3  UNL d   1       3.566  -0.065  -2.424  0.00  0.00     0.150 A 
ATOM      5  C4  UNL d   1       3.925   1.242  -2.738  0.00  0.00    -0.007 A 
ATOM      6  C5  UNL d   1       5.146   1.492  -3.363  0.00  0.00     0.039 A 
ENDROOT
BRANCH   4   7
ATOM      7  O   UNL d   1       2.366  -0.261  -1.809  0.00  0.00    -0.526 OA
ATOM      8  H5  UNL d   1       2.264  -1.210  -1.627  0.00  0.00     0.418 HD
ENDBRANCH   4   7
TORSDOF 1
ENDMDL
