MODEL 1
REMARK minimizedAffinity 9.54365444
REMARK minimizedRMSD -1
REMARK  1 active torsions:
REMARK  status: ('A' for Active; 'I' for Inactive)
REMARK    1  A    between atoms: C3_4  and  O_7 
ROOT
ATOM      1  C   UNL d   1       5.549   1.393   1.465  0.00  0.00    -0.033 A 
ATOM      2  C1  UNL d   1       5.999   0.859   2.674  0.00  0.00     0.039 A 
ATOM      3  C2  UNL d   1       5.366   1.203   3.870  0.00  0.00    -0.080 A 
ATOM      4  C3  UNL d   1       4.285   2.080   3.843  0.00  0.00     0.150 A 
ATOM      5  C4  UNL d   1       3.828   2.612   2.642  0.00  0.00    -0.007 A 
ATOM      6  C5  UNL d   1       4.463   2.269   1.449  0.00  0.00     0.039 A 
ENDROOT
BRANCH   4   7
ATOM      7  O   UNL d   1       3.638   2.448   4.986  0.00  0.00    -0.526 OA
ATOM      8  H5  UNL d   1       4.081   2.025   5.740  0.00  0.00     0.418 HD
ENDBRANCH   4   7
TORSDOF 1
ENDMDL
