MODEL 1
REMARK minimizedAffinity 5.77255106
REMARK minimizedRMSD -1
REMARK  1 active torsions:
REMARK  status: ('A' for Active; 'I' for Inactive)
REMARK    1  A    between atoms: C3_4  and  O_7 
ROOT
ATOM      1  C   UNL d   1       5.263   1.507   1.123  0.00  0.00    -0.033 A 
ATOM      2  C1  UNL d   1       4.508   2.416   1.865  0.00  0.00     0.039 A 
ATOM      3  C2  UNL d   1       4.491   3.767   1.510  0.00  0.00    -0.080 A 
ATOM      4  C3  UNL d   1       5.232   4.193   0.411  0.00  0.00     0.150 A 
ATOM      5  C4  UNL d   1       5.984   3.291  -0.336  0.00  0.00    -0.007 A 
ATOM      6  C5  UNL d   1       6.000   1.944   0.021  0.00  0.00     0.039 A 
ENDROOT
BRANCH   4   7
ATOM      7  O   UNL d   1       5.251   5.501   0.028  0.00  0.00    -0.526 OA
ATOM      8  H5  UNL d   1       4.709   6.012   0.653  0.00  0.00     0.418 HD
ENDBRANCH   4   7
TORSDOF 1
ENDMDL
