MODEL 1
REMARK minimizedAffinity 2.78226113
REMARK minimizedRMSD -1
REMARK  1 active torsions:
REMARK  status: ('A' for Active; 'I' for Inactive)
REMARK    1  A    between atoms: C3_4  and  O_7 
ROOT
ATOM      1  C   UNL d   1      -2.353  -1.691   0.954  0.00  0.00    -0.033 A 
ATOM      2  C1  UNL d   1      -1.620  -2.268  -0.084  0.00  0.00     0.039 A 
ATOM      3  C2  UNL d   1      -0.845  -3.405   0.155  0.00  0.00    -0.080 A 
ATOM      4  C3  UNL d   1      -0.813  -3.954   1.433  0.00  0.00     0.150 A 
ATOM      5  C4  UNL d   1      -1.545  -3.386   2.471  0.00  0.00    -0.007 A 
ATOM      6  C5  UNL d   1      -2.317  -2.251   2.231  0.00  0.00     0.039 A 
ENDROOT
BRANCH   4   7
ATOM      7  O   UNL d   1      -0.068  -5.060   1.715  0.00  0.00    -0.526 OA
ATOM      8  H5  UNL d   1       0.406  -5.325   0.910  0.00  0.00     0.418 HD
ENDBRANCH   4   7
TORSDOF 1
ENDMDL
