MODEL 1
REMARK minimizedAffinity 2.46147656
REMARK minimizedRMSD -1
REMARK  1 active torsions:
REMARK  status: ('A' for Active; 'I' for Inactive)
REMARK    1  A    between atoms: C3_4  and  O_7 
ROOT
ATOM      1  C   UNL d   1      -4.610   6.000  -1.842  0.00  0.00    -0.033 A 
ATOM      2  C1  UNL d   1      -3.568   5.172  -1.419  0.00  0.00     0.039 A 
ATOM      3  C2  UNL d   1      -3.738   4.346  -0.306  0.00  0.00    -0.080 A 
ATOM      4  C3  UNL d   1      -4.954   4.355   0.373  0.00  0.00     0.150 A 
ATOM      5  C4  UNL d   1      -5.997   5.174  -0.046  0.00  0.00    -0.007 A 
ATOM      6  C5  UNL d   1      -5.825   6.000  -1.156  0.00  0.00     0.039 A 
ENDROOT
BRANCH   4   7
ATOM      7  O   UNL d   1      -5.165   3.570   1.467  0.00  0.00    -0.526 OA
ATOM      8  H5  UNL d   1      -4.348   3.080   1.656  0.00  0.00     0.418 HD
ENDBRANCH   4   7
TORSDOF 1
ENDMDL
