MODEL 1
REMARK minimizedAffinity 5.6237731
REMARK minimizedRMSD -1
REMARK  1 active torsions:
REMARK  status: ('A' for Active; 'I' for Inactive)
REMARK    1  A    between atoms: C3_4  and  O_7 
ROOT
ATOM      1  C   UNL d   1      -1.787  -2.792  -0.977  0.00  0.00    -0.033 A 
ATOM      2  C1  UNL d   1      -1.453  -3.892  -0.185  0.00  0.00     0.039 A 
ATOM      3  C2  UNL d   1      -1.448  -3.778   1.206  0.00  0.00    -0.080 A 
ATOM      4  C3  UNL d   1      -1.779  -2.560   1.793  0.00  0.00     0.150 A 
ATOM      5  C4  UNL d   1      -2.117  -1.460   1.010  0.00  0.00    -0.007 A 
ATOM      6  C5  UNL d   1      -2.120  -1.576  -0.379  0.00  0.00     0.039 A 
ENDROOT
BRANCH   4   7
ATOM      7  O   UNL d   1      -1.783  -2.398   3.147  0.00  0.00    -0.526 OA
ATOM      8  H5  UNL d   1      -1.502  -3.233   3.557  0.00  0.00     0.418 HD
ENDBRANCH   4   7
TORSDOF 1
ENDMDL
