MODEL 1
REMARK minimizedAffinity 10.6219196
REMARK minimizedRMSD -1
REMARK  1 active torsions:
REMARK  status: ('A' for Active; 'I' for Inactive)
REMARK    1  A    between atoms: C3_4  and  O_7 
ROOT
ATOM      1  C   UNL d   1       5.134   1.564   0.745  0.00  0.00    -0.033 A 
ATOM      2  C1  UNL d   1       6.000   2.118  -0.200  0.00  0.00     0.039 A 
ATOM      3  C2  UNL d   1       5.951   3.486  -0.477  0.00  0.00    -0.080 A 
ATOM      4  C3  UNL d   1       5.034   4.287   0.198  0.00  0.00     0.150 A 
ATOM      5  C4  UNL d   1       4.171   3.743   1.143  0.00  0.00    -0.007 A 
ATOM      6  C5  UNL d   1       4.220   2.377   1.418  0.00  0.00     0.039 A 
ENDROOT
BRANCH   4   7
ATOM      7  O   UNL d   1       4.947   5.626  -0.042  0.00  0.00    -0.526 OA
ATOM      8  H5  UNL d   1       5.584   5.856  -0.739  0.00  0.00     0.418 HD
ENDBRANCH   4   7
TORSDOF 1
ENDMDL
