MODEL 1
REMARK minimizedAffinity 0.477876246
REMARK minimizedRMSD -1
REMARK  1 active torsions:
REMARK  status: ('A' for Active; 'I' for Inactive)
REMARK    1  A    between atoms: C3_4  and  O_7 
ROOT
ATOM      1  C   UNL d   1      -3.047  -2.163   1.116  0.00  0.00    -0.033 A 
ATOM      2  C1  UNL d   1      -2.931  -2.771   2.368  0.00  0.00     0.039 A 
ATOM      3  C2  UNL d   1      -1.907  -3.689   2.607  0.00  0.00    -0.080 A 
ATOM      4  C3  UNL d   1      -1.007  -3.990   1.589  0.00  0.00     0.150 A 
ATOM      5  C4  UNL d   1      -1.114  -3.385   0.341  0.00  0.00    -0.007 A 
ATOM      6  C5  UNL d   1      -2.138  -2.469   0.103  0.00  0.00     0.039 A 
ENDROOT
BRANCH   4   7
ATOM      7  O   UNL d   1       0.006  -4.883   1.774  0.00  0.00    -0.526 OA
ATOM      8  H5  UNL d   1      -0.061  -5.242   2.675  0.00  0.00     0.418 HD
ENDBRANCH   4   7
TORSDOF 1
ENDMDL
