MODEL 1
REMARK minimizedAffinity 6.10549641
REMARK minimizedRMSD -1
REMARK  1 active torsions:
REMARK  status: ('A' for Active; 'I' for Inactive)
REMARK    1  A    between atoms: C3_4  and  O_7 
ROOT
ATOM      1  C   UNL d   1      -5.452   1.504   6.000  0.00  0.00    -0.033 A 
ATOM      2  C1  UNL d   1      -4.144   1.982   5.892  0.00  0.00     0.039 A 
ATOM      3  C2  UNL d   1      -3.079   1.087   5.775  0.00  0.00    -0.080 A 
ATOM      4  C3  UNL d   1      -3.335  -0.281   5.767  0.00  0.00     0.150 A 
ATOM      5  C4  UNL d   1      -4.635  -0.765   5.871  0.00  0.00    -0.007 A 
ATOM      6  C5  UNL d   1      -5.697   0.131   5.988  0.00  0.00     0.039 A 
ENDROOT
BRANCH   4   7
ATOM      7  O   UNL d   1      -2.327  -1.194   5.661  0.00  0.00    -0.526 OA
ATOM      8  H5  UNL d   1      -1.482  -0.716   5.626  0.00  0.00     0.418 HD
ENDBRANCH   4   7
TORSDOF 1
ENDMDL
