MODEL 1
REMARK minimizedAffinity 3.97545385
REMARK minimizedRMSD -1
REMARK  1 active torsions:
REMARK  status: ('A' for Active; 'I' for Inactive)
REMARK    1  A    between atoms: C3_4  and  O_7 
ROOT
ATOM      1  C   UNL d   1      -2.387  -1.349  -0.104  0.00  0.00    -0.033 A 
ATOM      2  C1  UNL d   1      -1.452  -1.668  -1.091  0.00  0.00     0.039 A 
ATOM      3  C2  UNL d   1      -0.660  -2.810  -0.961  0.00  0.00    -0.080 A 
ATOM      4  C3  UNL d   1      -0.812  -3.624   0.159  0.00  0.00     0.150 A 
ATOM      5  C4  UNL d   1      -1.744  -3.314   1.144  0.00  0.00    -0.007 A 
ATOM      6  C5  UNL d   1      -2.534  -2.172   1.013  0.00  0.00     0.039 A 
ENDROOT
BRANCH   4   7
ATOM      7  O   UNL d   1      -0.058  -4.746   0.332  0.00  0.00    -0.526 OA
ATOM      8  H5  UNL d   1       0.562  -4.818  -0.413  0.00  0.00     0.418 HD
ENDBRANCH   4   7
TORSDOF 1
ENDMDL
