MODEL 1
REMARK minimizedAffinity -3.77407479
REMARK minimizedRMSD -1
REMARK  0 active torsions:
REMARK  status: ('A' for Active; 'I' for Inactive)
ROOT
ATOM      1  C4' PXY d   1       5.405  -5.705  -4.262  0.00  0.00     0.077 C 
ATOM      2  C1' PXY d   1       4.523  -0.263  -6.000  0.00  0.00     0.077 C 
ATOM      3  C1  PXY d   1       4.766  -1.688  -5.541  0.00  0.00    -0.082 A 
ATOM      4  C2  PXY d   1       3.995  -2.662  -5.995  0.00  0.00     0.003 A 
ATOM      5  C3  PXY d   1       4.181  -3.951  -5.566  0.00  0.00     0.003 A 
ATOM      6  C4  PXY d   1       5.201  -4.254  -4.705  0.00  0.00    -0.082 A 
ATOM      7  C5  PXY d   1       6.000  -3.267  -4.246  0.00  0.00     0.003 A 
ATOM      8  C6  PXY d   1       5.768  -1.959  -4.661  0.00  0.00     0.003 A 
ENDROOT
TORSDOF 0
ENDMDL
