MODEL 1
REMARK minimizedAffinity -3.81259727
REMARK minimizedRMSD -1
REMARK  0 active torsions:
REMARK  status: ('A' for Active; 'I' for Inactive)
ROOT
ATOM      1  C4' PXY d   1       5.049  -0.516  -5.999  0.00  0.00     0.077 C 
ATOM      2  C1' PXY d   1       5.223  -5.992  -4.156  0.00  0.00     0.077 C 
ATOM      3  C1  PXY d   1       5.165  -4.555  -4.636  0.00  0.00    -0.082 A 
ATOM      4  C2  PXY d   1       6.000  -4.145  -5.577  0.00  0.00     0.003 A 
ATOM      5  C3  PXY d   1       5.983  -2.841  -5.999  0.00  0.00     0.003 A 
ATOM      6  C4  PXY d   1       5.065  -1.960  -5.491  0.00  0.00    -0.082 A 
ATOM      7  C5  PXY d   1       4.203  -2.373  -4.539  0.00  0.00     0.003 A 
ATOM      8  C6  PXY d   1       4.264  -3.691  -4.094  0.00  0.00     0.003 A 
ENDROOT
TORSDOF 0
ENDMDL
