MODEL 1
REMARK minimizedAffinity -3.73920751
REMARK minimizedRMSD -1
REMARK  0 active torsions:
REMARK  status: ('A' for Active; 'I' for Inactive)
ROOT
ATOM      1  C4' PXY d   1       4.907  -0.010  -5.999  0.00  0.00     0.077 C 
ATOM      2  C1' PXY d   1       4.861  -5.567  -4.407  0.00  0.00     0.077 C 
ATOM      3  C1  PXY d   1       4.860  -4.110  -4.827  0.00  0.00    -0.082 A 
ATOM      4  C2  PXY d   1       5.975  -3.559  -5.280  0.00  0.00     0.003 A 
ATOM      5  C3  PXY d   1       6.000  -2.235  -5.634  0.00  0.00     0.003 A 
ATOM      6  C4  PXY d   1       4.859  -1.480  -5.573  0.00  0.00    -0.082 A 
ATOM      7  C5  PXY d   1       3.715  -2.037  -5.122  0.00  0.00     0.003 A 
ATOM      8  C6  PXY d   1       3.721  -3.373  -4.729  0.00  0.00     0.003 A 
ENDROOT
TORSDOF 0
ENDMDL
