MODEL 1
REMARK minimizedAffinity -2.85086656
REMARK minimizedRMSD -1
REMARK  0 active torsions:
REMARK  status: ('A' for Active; 'I' for Inactive)
ROOT
ATOM      1  C4' PXY d   1       3.365  -5.994  -4.381  0.00  0.00     0.077 C 
ATOM      2  C1' PXY d   1       5.932  -1.070  -5.989  0.00  0.00     0.077 C 
ATOM      3  C1  PXY d   1       5.268  -2.369  -5.573  0.00  0.00    -0.082 A 
ATOM      4  C2  PXY d   1       3.976  -2.380  -5.286  0.00  0.00     0.003 A 
ATOM      5  C3  PXY d   1       3.367  -3.539  -4.878  0.00  0.00     0.003 A 
ATOM      6  C4  PXY d   1       4.075  -4.709  -4.814  0.00  0.00    -0.082 A 
ATOM      7  C5  PXY d   1       5.391  -4.707  -5.116  0.00  0.00     0.003 A 
ATOM      8  C6  PXY d   1       6.000  -3.512  -5.488  0.00  0.00     0.003 A 
ENDROOT
TORSDOF 0
ENDMDL
