MODEL 1
REMARK minimizedAffinity -4.00606394
REMARK minimizedRMSD -1
REMARK  0 active torsions:
REMARK  status: ('A' for Active; 'I' for Inactive)
ROOT
ATOM      1  C4' PXY d   1       4.504  -5.780  -5.267  0.00  0.00     0.077 C 
ATOM      2  C1' PXY d   1       4.829  -0.051  -5.961  0.00  0.00     0.077 C 
ATOM      3  C1  PXY d   1       4.754  -1.555  -5.787  0.00  0.00    -0.082 A 
ATOM      4  C2  PXY d   1       3.606  -2.117  -5.445  0.00  0.00     0.003 A 
ATOM      5  C3  PXY d   1       3.528  -3.473  -5.252  0.00  0.00     0.003 A 
ATOM      6  C4  PXY d   1       4.624  -4.266  -5.463  0.00  0.00    -0.082 A 
ATOM      7  C5  PXY d   1       5.796  -3.701  -5.823  0.00  0.00     0.003 A 
ATOM      8  C6  PXY d   1       5.864  -2.319  -5.973  0.00  0.00     0.003 A 
ENDROOT
TORSDOF 0
ENDMDL
