MODEL 1
REMARK minimizedAffinity -0.187081441
REMARK minimizedRMSD -1
REMARK  0 active torsions:
REMARK  status: ('A' for Active; 'I' for Inactive)
ROOT
ATOM      1  C4' PXY d   1       5.688  -0.483  -5.366  0.00  0.00     0.077 C 
ATOM      2  C1' PXY d   1       3.996  -5.989  -4.878  0.00  0.00     0.077 C 
ATOM      3  C1  PXY d   1       4.427  -4.541  -5.005  0.00  0.00    -0.082 A 
ATOM      4  C2  PXY d   1       5.580  -4.251  -5.587  0.00  0.00     0.003 A 
ATOM      5  C3  PXY d   1       6.000  -2.949  -5.682  0.00  0.00     0.003 A 
ATOM      6  C4  PXY d   1       5.208  -1.930  -5.224  0.00  0.00    -0.082 A 
ATOM      7  C5  PXY d   1       4.026  -2.218  -4.639  0.00  0.00     0.003 A 
ATOM      8  C6  PXY d   1       3.637  -3.548  -4.515  0.00  0.00     0.003 A 
ENDROOT
TORSDOF 0
ENDMDL
