MODEL 1
REMARK minimizedAffinity -0.482561886
REMARK minimizedRMSD -1
REMARK  0 active torsions:
REMARK  status: ('A' for Active; 'I' for Inactive)
ROOT
ATOM      1  C4' PXY d   1       5.954  -1.678  -3.178  0.00  0.00     0.077 C 
ATOM      2  C1' PXY d   1       3.256  -5.999  -5.910  0.00  0.00     0.077 C 
ATOM      3  C1  PXY d   1       3.974  -4.874  -5.192  0.00  0.00    -0.082 A 
ATOM      4  C2  PXY d   1       3.271  -3.910  -4.619  0.00  0.00     0.003 A 
ATOM      5  C3  PXY d   1       3.905  -2.868  -3.993  0.00  0.00     0.003 A 
ATOM      6  C4  PXY d   1       5.271  -2.839  -3.906  0.00  0.00    -0.082 A 
ATOM      7  C5  PXY d   1       5.995  -3.825  -4.479  0.00  0.00     0.003 A 
ATOM      8  C6  PXY d   1       5.334  -4.852  -5.145  0.00  0.00     0.003 A 
ENDROOT
TORSDOF 0
ENDMDL
