MODEL 1
REMARK minimizedAffinity -4.12346458
REMARK minimizedRMSD -1
REMARK  0 active torsions:
REMARK  status: ('A' for Active; 'I' for Inactive)
ROOT
ATOM      1  C4' PXY d   1       4.996  -5.811  -4.593  0.00  0.00     0.077 C 
ATOM      2  C1' PXY d   1       4.487  -0.183  -5.809  0.00  0.00     0.077 C 
ATOM      3  C1  PXY d   1       4.632  -1.659  -5.496  0.00  0.00    -0.082 A 
ATOM      4  C2  PXY d   1       3.554  -2.381  -5.235  0.00  0.00     0.003 A 
ATOM      5  C3  PXY d   1       3.670  -3.710  -4.919  0.00  0.00     0.003 A 
ATOM      6  C4  PXY d   1       4.897  -4.319  -4.923  0.00  0.00    -0.082 A 
ATOM      7  C5  PXY d   1       6.000  -3.591  -5.198  0.00  0.00     0.003 A 
ATOM      8  C6  PXY d   1       5.865  -2.234  -5.476  0.00  0.00     0.003 A 
ENDROOT
TORSDOF 0
ENDMDL
