MODEL 1
REMARK minimizedAffinity -2.7094655
REMARK minimizedRMSD -1
REMARK  0 active torsions:
REMARK  status: ('A' for Active; 'I' for Inactive)
ROOT
ATOM      1  C4' PXY d   1       3.932  -0.930  -5.971  0.00  0.00     0.077 C 
ATOM      2  C1' PXY d   1       5.994  -6.000  -4.111  0.00  0.00     0.077 C 
ATOM      3  C1  PXY d   1       5.448  -4.676  -4.610  0.00  0.00    -0.082 A 
ATOM      4  C2  PXY d   1       5.982  -3.545  -4.178  0.00  0.00     0.003 A 
ATOM      5  C3  PXY d   1       5.480  -2.338  -4.594  0.00  0.00     0.003 A 
ATOM      6  C4  PXY d   1       4.456  -2.290  -5.502  0.00  0.00    -0.082 A 
ATOM      7  C5  PXY d   1       3.914  -3.440  -5.955  0.00  0.00     0.003 A 
ATOM      8  C6  PXY d   1       4.410  -4.654  -5.489  0.00  0.00     0.003 A 
ENDROOT
TORSDOF 0
ENDMDL
