MODEL 1
REMARK minimizedAffinity -0.689002097
REMARK minimizedRMSD -1
REMARK  0 active torsions:
REMARK  status: ('A' for Active; 'I' for Inactive)
ROOT
ATOM      1  C4' PXY d   1       4.150  -5.998  -5.814  0.00  0.00     0.077 C 
ATOM      2  C1' PXY d   1       5.998  -0.816  -4.039  0.00  0.00     0.077 C 
ATOM      3  C1  PXY d   1       5.524  -2.180  -4.499  0.00  0.00    -0.082 A 
ATOM      4  C2  PXY d   1       4.687  -2.272  -5.520  0.00  0.00     0.003 A 
ATOM      5  C3  PXY d   1       4.223  -3.496  -5.929  0.00  0.00     0.003 A 
ATOM      6  C4  PXY d   1       4.662  -4.642  -5.321  0.00  0.00    -0.082 A 
ATOM      7  C5  PXY d   1       5.525  -4.557  -4.286  0.00  0.00     0.003 A 
ATOM      8  C6  PXY d   1       5.951  -3.302  -3.860  0.00  0.00     0.003 A 
ENDROOT
TORSDOF 0
ENDMDL
