MODEL 1
REMARK minimizedAffinity -2.4190135
REMARK minimizedRMSD -1
REMARK  0 active torsions:
REMARK  status: ('A' for Active; 'I' for Inactive)
ROOT
ATOM      1  C4' PXY d   1       5.973  -5.998  -3.218  0.00  0.00     0.077 C 
ATOM      2  C1' PXY d   1       5.893  -0.930  -5.996  0.00  0.00     0.077 C 
ATOM      3  C1  PXY d   1       5.910  -2.265  -5.278  0.00  0.00    -0.082 A 
ATOM      4  C2  PXY d   1       5.851  -2.298  -3.957  0.00  0.00     0.003 A 
ATOM      5  C3  PXY d   1       5.897  -3.495  -3.290  0.00  0.00     0.003 A 
ATOM      6  C4  PXY d   1       5.950  -4.673  -3.985  0.00  0.00    -0.082 A 
ATOM      7  C5  PXY d   1       6.000  -4.649  -5.334  0.00  0.00     0.003 A 
ATOM      8  C6  PXY d   1       5.994  -3.421  -5.990  0.00  0.00     0.003 A 
ENDROOT
TORSDOF 0
ENDMDL
