MODEL 1
REMARK minimizedAffinity -3.63137579
REMARK minimizedRMSD -1
REMARK  0 active torsions:
REMARK  status: ('A' for Active; 'I' for Inactive)
ROOT
ATOM      1  C4' PXY d   1       4.502  -5.563  -4.171  0.00  0.00     0.077 C 
ATOM      2  C1' PXY d   1       5.206  -0.123  -5.993  0.00  0.00     0.077 C 
ATOM      3  C1  PXY d   1       5.012  -1.546  -5.507  0.00  0.00    -0.082 A 
ATOM      4  C2  PXY d   1       6.000  -2.418  -5.628  0.00  0.00     0.003 A 
ATOM      5  C3  PXY d   1       5.830  -3.717  -5.223  0.00  0.00     0.003 A 
ATOM      6  C4  PXY d   1       4.657  -4.114  -4.640  0.00  0.00    -0.082 A 
ATOM      7  C5  PXY d   1       3.649  -3.227  -4.503  0.00  0.00     0.003 A 
ATOM      8  C6  PXY d   1       3.826  -1.923  -4.958  0.00  0.00     0.003 A 
ENDROOT
TORSDOF 0
ENDMDL
