MODEL 1
REMARK minimizedAffinity 3.4032557
REMARK minimizedRMSD -1
REMARK  1 active torsions:
REMARK  status: ('A' for Active; 'I' for Inactive)
REMARK    1  A    between atoms: C1_2  and  C2_3 
ROOT
ATOM      1  C2  UNL d   1      -4.719  -0.385  -3.494  0.00  0.00    -0.076 A 
ATOM      2  C3  UNL d   1      -4.829  -1.765  -3.739  0.00  0.00     0.004 A 
ATOM      3  C4  UNL d   1      -4.489  -2.696  -2.760  0.00  0.00    -0.003 A 
ATOM      4  C5  UNL d   1      -4.035  -2.264  -1.519  0.00  0.00     0.000 A 
ATOM      5  C6  UNL d   1      -3.936  -0.898  -1.253  0.00  0.00     0.000 A 
ATOM      6  C7  UNL d   1      -4.290   0.054  -2.223  0.00  0.00    -0.073 A 
ATOM      7  C8  UNL d   1      -4.158   1.514  -1.884  0.00  0.00     0.078 C 
ENDROOT
BRANCH   1   8
ATOM      8  C1  UNL d   1      -5.076   0.579  -4.603  0.00  0.00     0.053 C 
ATOM      9  C   UNL d   1      -4.115   0.494  -5.780  0.00  0.00     0.018 C 
ENDBRANCH   1   8
TORSDOF 1
ENDMDL
