MODEL 1
REMARK minimizedAffinity 10.4366236
REMARK minimizedRMSD -1
REMARK  1 active torsions:
REMARK  status: ('A' for Active; 'I' for Inactive)
REMARK    1  A    between atoms: C1_2  and  C2_3 
ROOT
ATOM      1  C2  UNL d   1       3.581  -3.688   1.374  0.00  0.00    -0.076 A 
ATOM      2  C3  UNL d   1       3.199  -2.367   1.082  0.00  0.00     0.004 A 
ATOM      3  C4  UNL d   1       1.891  -1.935   1.295  0.00  0.00    -0.003 A 
ATOM      4  C5  UNL d   1       0.944  -2.816   1.805  0.00  0.00     0.000 A 
ATOM      5  C6  UNL d   1       1.310  -4.125   2.117  0.00  0.00     0.000 A 
ATOM      6  C7  UNL d   1       2.629  -4.572   1.924  0.00  0.00    -0.073 A 
ATOM      7  C8  UNL d   1       2.967  -5.996   2.272  0.00  0.00     0.078 C 
ENDROOT
BRANCH   1   8
ATOM      8  C1  UNL d   1       5.007  -4.107   1.096  0.00  0.00     0.053 C 
ATOM      9  C   UNL d   1       5.974  -2.933   1.116  0.00  0.00     0.018 C 
ENDBRANCH   1   8
TORSDOF 1
ENDMDL
