MODEL 1
REMARK minimizedAffinity 6.77391243
REMARK minimizedRMSD -1
REMARK  1 active torsions:
REMARK  status: ('A' for Active; 'I' for Inactive)
REMARK    1  A    between atoms: C1_2  and  C2_3 
ROOT
ATOM      1  C2  UNL d   1      -0.138   2.155  -2.362  0.00  0.00    -0.076 A 
ATOM      2  C3  UNL d   1      -0.100   1.281  -1.262  0.00  0.00     0.004 A 
ATOM      3  C4  UNL d   1       0.797   0.215  -1.222  0.00  0.00    -0.003 A 
ATOM      4  C5  UNL d   1       1.672   0.006  -2.283  0.00  0.00     0.000 A 
ATOM      5  C6  UNL d   1       1.661   0.873  -3.374  0.00  0.00     0.000 A 
ATOM      6  C7  UNL d   1       0.774   1.962  -3.422  0.00  0.00    -0.073 A 
ATOM      7  C8  UNL d   1       0.800   2.863  -4.627  0.00  0.00     0.078 C 
ENDROOT
BRANCH   1   8
ATOM      8  C1  UNL d   1      -1.151   3.277  -2.361  0.00  0.00     0.053 C 
ATOM      9  C   UNL d   1      -2.574   2.777  -2.169  0.00  0.00     0.018 C 
ENDBRANCH   1   8
TORSDOF 1
ENDMDL
