MODEL 1
REMARK minimizedAffinity 14.6486263
REMARK minimizedRMSD -1
REMARK  1 active torsions:
REMARK  status: ('A' for Active; 'I' for Inactive)
REMARK    1  A    between atoms: C1_2  and  C2_3 
ROOT
ATOM      1  C2  UNL d   1       1.259  -0.449   1.863  0.00  0.00    -0.076 A 
ATOM      2  C3  UNL d   1       1.131  -0.357   3.259  0.00  0.00     0.004 A 
ATOM      3  C4  UNL d   1       1.247   0.869   3.912  0.00  0.00    -0.003 A 
ATOM      4  C5  UNL d   1       1.492   2.024   3.178  0.00  0.00     0.000 A 
ATOM      5  C6  UNL d   1       1.604   1.955   1.789  0.00  0.00     0.000 A 
ATOM      6  C7  UNL d   1       1.474   0.729   1.115  0.00  0.00    -0.073 A 
ATOM      7  C8  UNL d   1       1.610   0.711  -0.383  0.00  0.00     0.078 C 
ENDROOT
BRANCH   1   8
ATOM      8  C1  UNL d   1       1.151  -1.810   1.213  0.00  0.00     0.053 C 
ATOM      9  C   UNL d   1       2.386  -2.666   1.446  0.00  0.00     0.018 C 
ENDBRANCH   1   8
TORSDOF 1
ENDMDL
