MODEL 1
REMARK minimizedAffinity -2.89082623
REMARK minimizedRMSD -1
REMARK  1 active torsions:
REMARK  status: ('A' for Active; 'I' for Inactive)
REMARK    1  A    between atoms: C1_2  and  C2_3 
ROOT
ATOM      1  C2  UNL d   1       1.375   1.307   0.728  0.00  0.00    -0.076 A 
ATOM      2  C3  UNL d   1       1.710   0.477   1.811  0.00  0.00     0.004 A 
ATOM      3  C4  UNL d   1       1.009  -0.704   2.054  0.00  0.00    -0.003 A 
ATOM      4  C5  UNL d   1      -0.037  -1.073   1.216  0.00  0.00     0.000 A 
ATOM      5  C6  UNL d   1      -0.372  -0.269   0.126  0.00  0.00     0.000 A 
ATOM      6  C7  UNL d   1       0.335   0.915  -0.142  0.00  0.00    -0.073 A 
ATOM      7  C8  UNL d   1      -0.071   1.747  -1.328  0.00  0.00     0.078 C 
ENDROOT
BRANCH   1   8
ATOM      8  C1  UNL d   1       2.153   2.589   0.531  0.00  0.00     0.053 C 
ATOM      9  C   UNL d   1       1.366   3.819   0.955  0.00  0.00     0.018 C 
ENDBRANCH   1   8
TORSDOF 1
ENDMDL
