MODEL 1
REMARK minimizedAffinity -2.03162336
REMARK minimizedRMSD -1
REMARK  1 active torsions:
REMARK  status: ('A' for Active; 'I' for Inactive)
REMARK    1  A    between atoms: C1_2  and  C2_3 
ROOT
ATOM      1  C2  UNL d   1       0.556   1.569   0.027  0.00  0.00    -0.076 A 
ATOM      2  C3  UNL d   1       0.593   0.922   1.275  0.00  0.00     0.004 A 
ATOM      3  C4  UNL d   1       0.243  -0.422   1.397  0.00  0.00    -0.003 A 
ATOM      4  C5  UNL d   1      -0.148  -1.141   0.273  0.00  0.00     0.000 A 
ATOM      5  C6  UNL d   1      -0.173  -0.521  -0.975  0.00  0.00     0.000 A 
ATOM      6  C7  UNL d   1       0.192   0.829  -1.119  0.00  0.00    -0.073 A 
ATOM      7  C8  UNL d   1       0.141   1.449  -2.488  0.00  0.00     0.078 C 
ENDROOT
BRANCH   1   8
ATOM      8  C1  UNL d   1       0.920   3.035  -0.040  0.00  0.00     0.053 C 
ATOM      9  C   UNL d   1       2.374   3.257  -0.428  0.00  0.00     0.018 C 
ENDBRANCH   1   8
TORSDOF 1
ENDMDL
