MODEL 1
REMARK minimizedAffinity -5.95051527
REMARK minimizedRMSD -1
REMARK  1 active torsions:
REMARK  status: ('A' for Active; 'I' for Inactive)
REMARK    1  A    between atoms: C1_2  and  C2_3 
ROOT
ATOM      1  C2  UNL d   1      -0.113  -1.215  -1.464  0.00  0.00    -0.076 A 
ATOM      2  C3  UNL d   1      -0.923  -2.143  -2.142  0.00  0.00     0.004 A 
ATOM      3  C4  UNL d   1      -0.859  -3.503  -1.844  0.00  0.00    -0.003 A 
ATOM      4  C5  UNL d   1       0.016  -3.957  -0.863  0.00  0.00     0.000 A 
ATOM      5  C6  UNL d   1       0.814  -3.049  -0.169  0.00  0.00     0.000 A 
ATOM      6  C7  UNL d   1       0.750  -1.672  -0.445  0.00  0.00    -0.073 A 
ATOM      7  C8  UNL d   1       1.638  -0.738   0.330  0.00  0.00     0.078 C 
ENDROOT
BRANCH   1   8
ATOM      8  C1  UNL d   1      -0.206   0.244  -1.849  0.00  0.00     0.053 C 
ATOM      9  C   UNL d   1      -0.933   1.077  -0.805  0.00  0.00     0.018 C 
ENDBRANCH   1   8
TORSDOF 1
ENDMDL
