MODEL 1
REMARK minimizedAffinity -2.76447296
REMARK minimizedRMSD -1
REMARK  1 active torsions:
REMARK  status: ('A' for Active; 'I' for Inactive)
REMARK    1  A    between atoms: C1_2  and  C2_3 
ROOT
ATOM      1  C2  UNL d   1       0.278  -1.451  -1.080  0.00  0.00    -0.076 A 
ATOM      2  C3  UNL d   1      -0.159  -2.768  -0.856  0.00  0.00     0.004 A 
ATOM      3  C4  UNL d   1      -0.417  -3.228   0.434  0.00  0.00    -0.003 A 
ATOM      4  C5  UNL d   1      -0.242  -2.379   1.521  0.00  0.00     0.000 A 
ATOM      5  C6  UNL d   1       0.173  -1.064   1.316  0.00  0.00     0.000 A 
ATOM      6  C7  UNL d   1       0.422  -0.579   0.020  0.00  0.00    -0.073 A 
ATOM      7  C8  UNL d   1       0.874   0.847  -0.142  0.00  0.00     0.078 C 
ENDROOT
BRANCH   1   8
ATOM      8  C1  UNL d   1       0.568  -1.015  -2.499  0.00  0.00     0.053 C 
ATOM      9  C   UNL d   1       0.682  -2.191  -3.457  0.00  0.00     0.018 C 
ENDBRANCH   1   8
TORSDOF 1
ENDMDL
