MODEL 1
REMARK minimizedAffinity -5.96367598
REMARK minimizedRMSD -1
REMARK  1 active torsions:
REMARK  status: ('A' for Active; 'I' for Inactive)
REMARK    1  A    between atoms: C1_2  and  C2_3 
ROOT
ATOM      1  C2  UNL d   1      -0.562  -1.001  -1.036  0.00  0.00    -0.076 A 
ATOM      2  C3  UNL d   1      -0.462  -0.695  -2.404  0.00  0.00     0.004 A 
ATOM      3  C4  UNL d   1      -0.233  -1.694  -3.349  0.00  0.00    -0.003 A 
ATOM      4  C5  UNL d   1      -0.101  -3.017  -2.940  0.00  0.00     0.000 A 
ATOM      5  C6  UNL d   1      -0.215  -3.341  -1.589  0.00  0.00     0.000 A 
ATOM      6  C7  UNL d   1      -0.462  -2.348  -0.625  0.00  0.00    -0.073 A 
ATOM      7  C8  UNL d   1      -0.569  -2.754   0.819  0.00  0.00     0.078 C 
ENDROOT
BRANCH   1   8
ATOM      8  C1  UNL d   1      -0.783   0.128  -0.055  0.00  0.00     0.053 C 
ATOM      9  C   UNL d   1      -1.114   1.442  -0.745  0.00  0.00     0.018 C 
ENDBRANCH   1   8
TORSDOF 1
ENDMDL
