MODEL 1
REMARK minimizedAffinity -3.97493458
REMARK minimizedRMSD -1
REMARK  1 active torsions:
REMARK  status: ('A' for Active; 'I' for Inactive)
REMARK    1  A    between atoms: C1_2  and  C2_3 
ROOT
ATOM      1  C2  UNL d   1      -0.482  -1.449  -0.818  0.00  0.00    -0.076 A 
ATOM      2  C3  UNL d   1      -0.660  -2.238   0.331  0.00  0.00     0.004 A 
ATOM      3  C4  UNL d   1      -0.638  -1.668   1.603  0.00  0.00    -0.003 A 
ATOM      4  C5  UNL d   1      -0.439  -0.299   1.746  0.00  0.00     0.000 A 
ATOM      5  C6  UNL d   1      -0.278   0.501   0.615  0.00  0.00     0.000 A 
ATOM      6  C7  UNL d   1      -0.313  -0.055  -0.675  0.00  0.00    -0.073 A 
ATOM      7  C8  UNL d   1      -0.128   0.854  -1.858  0.00  0.00     0.078 C 
ENDROOT
BRANCH   1   8
ATOM      8  C1  UNL d   1      -0.487  -2.127  -2.170  0.00  0.00     0.053 C 
ATOM      9  C   UNL d   1      -0.910  -3.585  -2.088  0.00  0.00     0.018 C 
ENDBRANCH   1   8
TORSDOF 1
ENDMDL
