MODEL 1
REMARK minimizedAffinity -2.91306734
REMARK minimizedRMSD -1
REMARK  1 active torsions:
REMARK  status: ('A' for Active; 'I' for Inactive)
REMARK    1  A    between atoms: C1_2  and  C2_3 
ROOT
ATOM      1  C2  UNL d   1       0.365   1.695  -0.163  0.00  0.00    -0.076 A 
ATOM      2  C3  UNL d   1       0.795   0.845   0.871  0.00  0.00     0.004 A 
ATOM      3  C4  UNL d   1       0.525  -0.522   0.834  0.00  0.00    -0.003 A 
ATOM      4  C5  UNL d   1      -0.179  -1.061  -0.237  0.00  0.00     0.000 A 
ATOM      5  C6  UNL d   1      -0.598  -0.235  -1.279  0.00  0.00     0.000 A 
ATOM      6  C7  UNL d   1      -0.320   1.143  -1.266  0.00  0.00    -0.073 A 
ATOM      7  C8  UNL d   1      -0.802   1.988  -2.413  0.00  0.00     0.078 C 
ENDROOT
BRANCH   1   8
ATOM      8  C1  UNL d   1       0.663   3.174  -0.055  0.00  0.00     0.053 C 
ATOM      9  C   UNL d   1       2.134   3.489  -0.278  0.00  0.00     0.018 C 
ENDBRANCH   1   8
TORSDOF 1
ENDMDL
