MODEL 1
REMARK minimizedAffinity -5.63524342
REMARK minimizedRMSD -1
REMARK  1 active torsions:
REMARK  status: ('A' for Active; 'I' for Inactive)
REMARK    1  A    between atoms: C1_2  and  C2_3 
ROOT
ATOM      1  C2  UNL d   1      -0.922  -2.543  -0.572  0.00  0.00    -0.076 A 
ATOM      2  C3  UNL d   1      -0.670  -2.990  -1.881  0.00  0.00     0.004 A 
ATOM      3  C4  UNL d   1      -0.221  -2.111  -2.865  0.00  0.00    -0.003 A 
ATOM      4  C5  UNL d   1      -0.016  -0.771  -2.556  0.00  0.00     0.000 A 
ATOM      5  C6  UNL d   1      -0.244  -0.314  -1.259  0.00  0.00     0.000 A 
ATOM      6  C7  UNL d   1      -0.682  -1.190  -0.251  0.00  0.00    -0.073 A 
ATOM      7  C8  UNL d   1      -0.918  -0.642   1.130  0.00  0.00     0.078 C 
ENDROOT
BRANCH   1   8
ATOM      8  C1  UNL d   1      -1.434  -3.537   0.446  0.00  0.00     0.053 C 
ATOM      9  C   UNL d   1      -0.455  -4.675   0.693  0.00  0.00     0.018 C 
ENDBRANCH   1   8
TORSDOF 1
ENDMDL
