MODEL 1
REMARK minimizedAffinity -4.84682369
REMARK minimizedRMSD -1
REMARK  1 active torsions:
REMARK  status: ('A' for Active; 'I' for Inactive)
REMARK    1  A    between atoms: C1_2  and  C2_3 
ROOT
ATOM      1  C2  UNL d   1       0.614   1.291   0.709  0.00  0.00    -0.076 A 
ATOM      2  C3  UNL d   1       0.767   0.883   2.045  0.00  0.00     0.004 A 
ATOM      3  C4  UNL d   1       0.002  -0.158   2.570  0.00  0.00    -0.003 A 
ATOM      4  C5  UNL d   1      -0.928  -0.807   1.766  0.00  0.00     0.000 A 
ATOM      5  C6  UNL d   1      -1.081  -0.427   0.433  0.00  0.00     0.000 A 
ATOM      6  C7  UNL d   1      -0.307   0.609  -0.115  0.00  0.00    -0.073 A 
ATOM      7  C8  UNL d   1      -0.518   0.983  -1.557  0.00  0.00     0.078 C 
ENDROOT
BRANCH   1   8
ATOM      8  C1  UNL d   1       1.451   2.444   0.203  0.00  0.00     0.053 C 
ATOM      9  C   UNL d   1       2.397   2.986   1.264  0.00  0.00     0.018 C 
ENDBRANCH   1   8
TORSDOF 1
ENDMDL
