MODEL 1
REMARK minimizedAffinity -5.99023485
REMARK minimizedRMSD -1
REMARK  1 active torsions:
REMARK  status: ('A' for Active; 'I' for Inactive)
REMARK    1  A    between atoms: C1_2  and  C2_3 
ROOT
ATOM      1  C2  UNL d   1      -0.477  -0.504  -0.289  0.00  0.00    -0.076 A 
ATOM      2  C3  UNL d   1      -0.595  -1.527   0.668  0.00  0.00     0.004 A 
ATOM      3  C4  UNL d   1      -0.180  -2.827   0.385  0.00  0.00    -0.003 A 
ATOM      4  C5  UNL d   1       0.360  -3.126  -0.861  0.00  0.00     0.000 A 
ATOM      5  C6  UNL d   1       0.501  -2.120  -1.817  0.00  0.00     0.000 A 
ATOM      6  C7  UNL d   1       0.103  -0.801  -1.541  0.00  0.00    -0.073 A 
ATOM      7  C8  UNL d   1       0.273   0.243  -2.611  0.00  0.00     0.078 C 
ENDROOT
BRANCH   1   8
ATOM      8  C1  UNL d   1      -0.969   0.881   0.066  0.00  0.00     0.053 C 
ATOM      9  C   UNL d   1      -2.289   0.854   0.821  0.00  0.00     0.018 C 
ENDBRANCH   1   8
TORSDOF 1
ENDMDL
