MODEL 1
REMARK minimizedAffinity -3.39802885
REMARK minimizedRMSD -1
REMARK  1 active torsions:
REMARK  status: ('A' for Active; 'I' for Inactive)
REMARK    1  A    between atoms: C1_2  and  C2_3 
ROOT
ATOM      1  C2  UNL d   1      -0.276  -1.102  -0.689  0.00  0.00    -0.076 A 
ATOM      2  C3  UNL d   1      -0.783  -1.431   0.580  0.00  0.00     0.004 A 
ATOM      3  C4  UNL d   1      -0.922  -2.761   0.974  0.00  0.00    -0.003 A 
ATOM      4  C5  UNL d   1      -0.555  -3.783   0.106  0.00  0.00     0.000 A 
ATOM      5  C6  UNL d   1      -0.034  -3.474  -1.150  0.00  0.00     0.000 A 
ATOM      6  C7  UNL d   1       0.128  -2.139  -1.557  0.00  0.00    -0.073 A 
ATOM      7  C8  UNL d   1       0.691  -1.864  -2.924  0.00  0.00     0.078 C 
ENDROOT
BRANCH   1   8
ATOM      8  C1  UNL d   1      -0.173   0.357  -1.071  0.00  0.00     0.053 C 
ATOM      9  C   UNL d   1       0.283   1.232   0.086  0.00  0.00     0.018 C 
ENDBRANCH   1   8
TORSDOF 1
ENDMDL
