MODEL 1
REMARK minimizedAffinity -2.68022704
REMARK minimizedRMSD -1
REMARK  1 active torsions:
REMARK  status: ('A' for Active; 'I' for Inactive)
REMARK    1  A    between atoms: C1_2  and  C2_3 
ROOT
ATOM      1  C2  UNL d   1       2.493  -0.025  -0.272  0.00  0.00    -0.073 A 
ATOM      2  C3  UNL d   1       2.569  -1.421  -0.333  0.00  0.00    -0.002 A 
ATOM      3  C4  UNL d   1       1.416  -2.196  -0.199  0.00  0.00     0.004 A 
ATOM      4  C5  UNL d   1       0.177  -1.585  -0.009  0.00  0.00    -0.004 A 
ATOM      5  C6  UNL d   1       0.079  -0.191   0.044  0.00  0.00    -0.075 A 
ATOM      6  C7  UNL d   1      -1.246   0.482   0.250  0.00  0.00     0.076 C 
ATOM      7  C8  UNL d   1       1.241   0.581  -0.089  0.00  0.00     0.001 A 
ENDROOT
BRANCH   1   8
ATOM      8  C1  UNL d   1       3.734   0.816  -0.423  0.00  0.00     0.053 C 
ATOM      9  C   UNL d   1       3.473   2.280  -0.102  0.00  0.00     0.018 C 
ENDBRANCH   1   8
TORSDOF 1
ENDMDL
