MODEL 1
REMARK minimizedAffinity -4.15162945
REMARK minimizedRMSD -1
REMARK  1 active torsions:
REMARK  status: ('A' for Active; 'I' for Inactive)
REMARK    1  A    between atoms: C1_2  and  C2_3 
ROOT
ATOM      1  C2  UNL d   1      -0.870   0.467   0.295  0.00  0.00    -0.073 A 
ATOM      2  C3  UNL d   1      -0.394   1.676  -0.225  0.00  0.00    -0.002 A 
ATOM      3  C4  UNL d   1       0.975   1.947  -0.238  0.00  0.00     0.004 A 
ATOM      4  C5  UNL d   1       1.881   1.011   0.261  0.00  0.00    -0.004 A 
ATOM      5  C6  UNL d   1       1.425  -0.208   0.773  0.00  0.00    -0.075 A 
ATOM      6  C7  UNL d   1       2.387  -1.224   1.316  0.00  0.00     0.076 C 
ATOM      7  C8  UNL d   1       0.049  -0.472   0.785  0.00  0.00     0.001 A 
ENDROOT
BRANCH   1   8
ATOM      8  C1  UNL d   1      -2.347   0.167   0.305  0.00  0.00     0.053 C 
ATOM      9  C   UNL d   1      -3.030   0.713   1.549  0.00  0.00     0.018 C 
ENDBRANCH   1   8
TORSDOF 1
ENDMDL
