MODEL 1
REMARK minimizedAffinity -3.62419391
REMARK minimizedRMSD -1
REMARK  1 active torsions:
REMARK  status: ('A' for Active; 'I' for Inactive)
REMARK    1  A    between atoms: C1_2  and  C2_3 
ROOT
ATOM      1  C2  UNL d   1      -0.130   0.190  -0.518  0.00  0.00    -0.073 A 
ATOM      2  C3  UNL d   1       0.180  -0.796  -1.462  0.00  0.00    -0.002 A 
ATOM      3  C4  UNL d   1       1.237  -1.680  -1.237  0.00  0.00     0.004 A 
ATOM      4  C5  UNL d   1       1.989  -1.591  -0.065  0.00  0.00    -0.004 A 
ATOM      5  C6  UNL d   1       1.686  -0.620   0.895  0.00  0.00    -0.075 A 
ATOM      6  C7  UNL d   1       2.487  -0.510   2.160  0.00  0.00     0.076 C 
ATOM      7  C8  UNL d   1       0.626   0.265   0.661  0.00  0.00     0.001 A 
ENDROOT
BRANCH   1   8
ATOM      8  C1  UNL d   1      -1.274   1.141  -0.754  0.00  0.00     0.053 C 
ATOM      9  C   UNL d   1      -2.624   0.454  -0.622  0.00  0.00     0.018 C 
ENDBRANCH   1   8
TORSDOF 1
ENDMDL
