MODEL 1
REMARK minimizedAffinity -3.79949141
REMARK minimizedRMSD -1
REMARK  1 active torsions:
REMARK  status: ('A' for Active; 'I' for Inactive)
REMARK    1  A    between atoms: C1_2  and  C2_3 
ROOT
ATOM      1  C2  UNL d   1       0.455   0.319  -0.690  0.00  0.00    -0.073 A 
ATOM      2  C3  UNL d   1      -0.188  -0.674  -1.438  0.00  0.00    -0.002 A 
ATOM      3  C4  UNL d   1       0.240  -2.000  -1.365  0.00  0.00     0.004 A 
ATOM      4  C5  UNL d   1       1.309  -2.348  -0.540  0.00  0.00    -0.004 A 
ATOM      5  C6  UNL d   1       1.956  -1.373   0.225  0.00  0.00    -0.075 A 
ATOM      6  C7  UNL d   1       3.109  -1.731   1.116  0.00  0.00     0.076 C 
ATOM      7  C8  UNL d   1       1.522  -0.043   0.144  0.00  0.00     0.001 A 
ENDROOT
BRANCH   1   8
ATOM      8  C1  UNL d   1      -0.008   1.751  -0.760  0.00  0.00     0.053 C 
ATOM      9  C   UNL d   1       1.043   2.716  -0.236  0.00  0.00     0.018 C 
ENDBRANCH   1   8
TORSDOF 1
ENDMDL
