MODEL 1
REMARK minimizedAffinity -2.33232021
REMARK minimizedRMSD -1
REMARK  1 active torsions:
REMARK  status: ('A' for Active; 'I' for Inactive)
REMARK    1  A    between atoms: C1_2  and  C2_3 
ROOT
ATOM      1  C2  UNL d   1      -0.734   0.155   0.024  0.00  0.00    -0.073 A 
ATOM      2  C3  UNL d   1      -0.472   1.530   0.026  0.00  0.00    -0.002 A 
ATOM      3  C4  UNL d   1       0.843   1.997   0.006  0.00  0.00     0.004 A 
ATOM      4  C5  UNL d   1       1.908   1.096  -0.023  0.00  0.00    -0.004 A 
ATOM      5  C6  UNL d   1       1.666  -0.282  -0.036  0.00  0.00    -0.075 A 
ATOM      6  C7  UNL d   1       2.800  -1.264  -0.064  0.00  0.00     0.076 C 
ATOM      7  C8  UNL d   1       0.343  -0.743  -0.013  0.00  0.00     0.001 A 
ENDROOT
BRANCH   1   8
ATOM      8  C1  UNL d   1      -2.152  -0.354   0.039  0.00  0.00     0.053 C 
ATOM      9  C   UNL d   1      -3.164   0.780   0.083  0.00  0.00     0.018 C 
ENDBRANCH   1   8
TORSDOF 1
ENDMDL
