MODEL 1
REMARK minimizedAffinity -3.8529799
REMARK minimizedRMSD -1
REMARK  0 active torsions:
REMARK  status: ('A' for Active; 'I' for Inactive)
ROOT
ATOM      1  C   UNL d   1       1.047  -2.151  -1.057  0.00  0.00     0.077 C 
ATOM      2  C1  UNL d   1       0.491  -0.758  -1.053  0.00  0.00    -0.074 A 
ATOM      3  C2  UNL d   1       0.521   0.030  -2.208  0.00  0.00    -0.005 A 
ATOM      4  C3  UNL d   1      -0.009   1.321  -2.192  0.00  0.00     0.006 A 
ATOM      5  C4  UNL d   1      -0.571   1.835  -1.023  0.00  0.00    -0.005 A 
ATOM      6  C5  UNL d   1      -0.610   1.061   0.141  0.00  0.00    -0.074 A 
ATOM      7  C6  UNL d   1      -1.220   1.594   1.403  0.00  0.00     0.077 C 
ATOM      8  C7  UNL d   1      -0.083  -0.238   0.115  0.00  0.00    -0.001 A 
ENDROOT
TORSDOF 0
ENDMDL
