MODEL 1
REMARK minimizedAffinity -4.3826642
REMARK minimizedRMSD -1
REMARK  0 active torsions:
REMARK  status: ('A' for Active; 'I' for Inactive)
ROOT
ATOM      1  C   UNL d   1      -0.498   1.928   2.399  0.00  0.00     0.077 C 
ATOM      2  C1  UNL d   1      -0.423   1.426   0.988  0.00  0.00    -0.074 A 
ATOM      3  C2  UNL d   1      -0.790   2.243  -0.086  0.00  0.00    -0.005 A 
ATOM      4  C3  UNL d   1      -0.706   1.765  -1.394  0.00  0.00     0.006 A 
ATOM      5  C4  UNL d   1      -0.255   0.468  -1.640  0.00  0.00    -0.005 A 
ATOM      6  C5  UNL d   1       0.118  -0.363  -0.579  0.00  0.00    -0.074 A 
ATOM      7  C6  UNL d   1       0.614  -1.757  -0.827  0.00  0.00     0.077 C 
ATOM      8  C7  UNL d   1       0.037   0.126   0.732  0.00  0.00    -0.001 A 
ENDROOT
TORSDOF 0
ENDMDL
