MODEL 1
REMARK minimizedAffinity -4.40100336
REMARK minimizedRMSD -1
REMARK  0 active torsions:
REMARK  status: ('A' for Active; 'I' for Inactive)
ROOT
ATOM      1  C   UNL d   1       0.499   3.308   2.323  0.00  0.00     0.077 C 
ATOM      2  C1  UNL d   1       0.001   2.215   1.425  0.00  0.00    -0.074 A 
ATOM      3  C2  UNL d   1      -1.320   2.209   0.963  0.00  0.00    -0.005 A 
ATOM      4  C3  UNL d   1      -1.766   1.191   0.121  0.00  0.00     0.006 A 
ATOM      5  C4  UNL d   1      -0.899   0.169  -0.267  0.00  0.00    -0.005 A 
ATOM      6  C5  UNL d   1       0.425   0.158   0.184  0.00  0.00    -0.074 A 
ATOM      7  C6  UNL d   1       1.373  -0.927  -0.231  0.00  0.00     0.077 C 
ATOM      8  C7  UNL d   1       0.868   1.189   1.024  0.00  0.00    -0.001 A 
ENDROOT
TORSDOF 0
ENDMDL
