MODEL 1
REMARK minimizedAffinity -2.5994513
REMARK minimizedRMSD -1
REMARK  0 active torsions:
REMARK  status: ('A' for Active; 'I' for Inactive)
ROOT
ATOM      1  C   UNL d   1      -1.570   2.587  -1.497  0.00  0.00     0.077 C 
ATOM      2  C1  UNL d   1      -0.777   1.970  -0.384  0.00  0.00    -0.074 A 
ATOM      3  C2  UNL d   1      -0.672   2.602   0.860  0.00  0.00    -0.005 A 
ATOM      4  C3  UNL d   1       0.061   2.011   1.889  0.00  0.00     0.006 A 
ATOM      5  C4  UNL d   1       0.695   0.784   1.686  0.00  0.00    -0.005 A 
ATOM      6  C5  UNL d   1       0.599   0.137   0.450  0.00  0.00    -0.074 A 
ATOM      7  C6  UNL d   1       1.266  -1.187   0.218  0.00  0.00     0.077 C 
ATOM      8  C7  UNL d   1      -0.145   0.734  -0.577  0.00  0.00    -0.001 A 
ENDROOT
TORSDOF 0
ENDMDL
