MODEL 1
REMARK minimizedAffinity -1.36142707
REMARK minimizedRMSD -1
REMARK  0 active torsions:
REMARK  status: ('A' for Active; 'I' for Inactive)
ROOT
ATOM      1  C   UNL d   1      -1.027   3.142   1.358  0.00  0.00     0.077 C 
ATOM      2  C1  UNL d   1      -0.530   1.738   1.184  0.00  0.00    -0.074 A 
ATOM      3  C2  UNL d   1       0.140   1.079   2.220  0.00  0.00    -0.005 A 
ATOM      4  C3  UNL d   1       0.588  -0.231   2.046  0.00  0.00     0.006 A 
ATOM      5  C4  UNL d   1       0.372  -0.893   0.837  0.00  0.00    -0.005 A 
ATOM      6  C5  UNL d   1      -0.297  -0.250  -0.210  0.00  0.00    -0.074 A 
ATOM      7  C6  UNL d   1      -0.546  -0.950  -1.513  0.00  0.00     0.077 C 
ATOM      8  C7  UNL d   1      -0.750   1.064  -0.025  0.00  0.00    -0.001 A 
ENDROOT
TORSDOF 0
ENDMDL
