MODEL 1
REMARK minimizedAffinity -5.77515793
REMARK minimizedRMSD -1
REMARK  0 active torsions:
REMARK  status: ('A' for Active; 'I' for Inactive)
ROOT
ATOM      1  C   UNL d   1      -0.078   0.782  -2.848  0.00  0.00     0.077 C 
ATOM      2  C1  UNL d   1      -0.006   0.701  -1.352  0.00  0.00    -0.074 A 
ATOM      3  C2  UNL d   1       0.711  -0.322  -0.722  0.00  0.00    -0.005 A 
ATOM      4  C3  UNL d   1       0.777  -0.379   0.670  0.00  0.00     0.006 A 
ATOM      5  C4  UNL d   1       0.129   0.584   1.445  0.00  0.00    -0.005 A 
ATOM      6  C5  UNL d   1      -0.592   1.614   0.832  0.00  0.00    -0.074 A 
ATOM      7  C6  UNL d   1      -1.287   2.662   1.650  0.00  0.00     0.077 C 
ATOM      8  C7  UNL d   1      -0.648   1.669  -0.567  0.00  0.00    -0.001 A 
ENDROOT
TORSDOF 0
ENDMDL
