MODEL 1
REMARK minimizedAffinity -4.24478054
REMARK minimizedRMSD -1
REMARK  0 active torsions:
REMARK  status: ('A' for Active; 'I' for Inactive)
ROOT
ATOM      1  C   UNL d   1      -1.692   2.772  -0.611  0.00  0.00     0.077 C 
ATOM      2  C1  UNL d   1      -0.886   1.740   0.121  0.00  0.00    -0.074 A 
ATOM      3  C2  UNL d   1      -0.355   2.007   1.387  0.00  0.00    -0.005 A 
ATOM      4  C3  UNL d   1       0.384   1.034   2.060  0.00  0.00     0.006 A 
ATOM      5  C4  UNL d   1       0.599  -0.214   1.474  0.00  0.00    -0.005 A 
ATOM      6  C5  UNL d   1       0.075  -0.500   0.210  0.00  0.00    -0.074 A 
ATOM      7  C6  UNL d   1       0.288  -1.840  -0.429  0.00  0.00     0.077 C 
ATOM      8  C7  UNL d   1      -0.673   0.480  -0.457  0.00  0.00    -0.001 A 
ENDROOT
TORSDOF 0
ENDMDL
