MODEL 1
REMARK minimizedAffinity 12.2506695
REMARK minimizedRMSD -1
REMARK  2 active torsions:
REMARK  status: ('A' for Active; 'I' for Inactive)
REMARK    1  A    between atoms: C2'_3  and  C1'_4 
REMARK    2  A    between atoms: C1'_4  and  C1_5 
ROOT
ATOM      1  C1  I4B d   1       0.929   2.180   2.249  0.00  0.00    -0.075 A 
ATOM      2  C2  I4B d   1      -0.220   2.202   3.000  0.00  0.00     0.003 A 
ATOM      3  C3  I4B d   1      -0.308   3.034   4.143  0.00  0.00     0.002 A 
ATOM      4  C4  I4B d   1       0.786   3.783   4.525  0.00  0.00    -0.004 A 
ATOM      5  C5  I4B d   1       1.942   3.776   3.749  0.00  0.00     0.002 A 
ATOM      6  C6  I4B d   1       2.010   2.979   2.597  0.00  0.00     0.003 A 
ENDROOT
BRANCH   1   7
ATOM      7  C1' I4B d   1       1.000   1.266   1.067  0.00  0.00     0.060 C 
BRANCH   7   8
ATOM      8  C2' I4B d   1      -0.120   0.253   1.192  0.00  0.00    -0.013 C 
ATOM      9  C4' I4B d   1      -1.085   0.362   0.041  0.00  0.00     0.013 C 
ATOM     10  C3' I4B d   1       0.495  -1.113   1.256  0.00  0.00     0.013 C 
ENDBRANCH   7   8
ENDBRANCH   1   7
TORSDOF 2
ENDMDL
