MODEL 1
REMARK minimizedAffinity 3.86689115
REMARK minimizedRMSD -1
REMARK  2 active torsions:
REMARK  status: ('A' for Active; 'I' for Inactive)
REMARK    1  A    between atoms: C2'_3  and  C1'_4 
REMARK    2  A    between atoms: C1'_4  and  C1_5 
ROOT
ATOM      1  C1  I4B d   1      -0.032   3.076   2.485  0.00  0.00    -0.075 A 
ATOM      2  C2  I4B d   1       1.334   3.031   2.356  0.00  0.00     0.003 A 
ATOM      3  C3  I4B d   1       1.947   1.979   1.634  0.00  0.00     0.002 A 
ATOM      4  C4  I4B d   1       1.166   0.973   1.104  0.00  0.00    -0.004 A 
ATOM      5  C5  I4B d   1      -0.220   1.032   1.216  0.00  0.00     0.002 A 
ATOM      6  C6  I4B d   1      -0.824   2.097   1.901  0.00  0.00     0.003 A 
ENDROOT
BRANCH   1   7
ATOM      7  C1' I4B d   1      -0.644   4.184   3.282  0.00  0.00     0.060 C 
BRANCH   7   8
ATOM      8  C2' I4B d   1      -1.236   3.582   4.540  0.00  0.00    -0.013 C 
ATOM      9  C4' I4B d   1      -0.205   3.479   5.633  0.00  0.00     0.013 C 
ATOM     10  C3' I4B d   1      -2.391   4.439   4.965  0.00  0.00     0.013 C 
ENDBRANCH   7   8
ENDBRANCH   1   7
TORSDOF 2
ENDMDL
