MODEL 1
REMARK minimizedAffinity -0.589694977
REMARK minimizedRMSD -1
REMARK  2 active torsions:
REMARK  status: ('A' for Active; 'I' for Inactive)
REMARK    1  A    between atoms: C2'_3  and  C1'_4 
REMARK    2  A    between atoms: C1'_4  and  C1_5 
ROOT
ATOM      1  C1  I4B d   1      -0.362   2.676   2.375  0.00  0.00    -0.075 A 
ATOM      2  C2  I4B d   1       0.184   3.935   2.349  0.00  0.00     0.003 A 
ATOM      3  C3  I4B d   1      -0.245   4.917   3.275  0.00  0.00     0.002 A 
ATOM      4  C4  I4B d   1      -1.251   4.614   4.170  0.00  0.00    -0.004 A 
ATOM      5  C5  I4B d   1      -1.787   3.330   4.210  0.00  0.00     0.002 A 
ATOM      6  C6  I4B d   1      -1.331   2.351   3.315  0.00  0.00     0.003 A 
ENDROOT
BRANCH   1   7
ATOM      7  C1' I4B d   1       0.090   1.673   1.362  0.00  0.00     0.060 C 
BRANCH   7   8
ATOM      8  C2' I4B d   1      -0.093   2.283  -0.013  0.00  0.00    -0.013 C 
ATOM      9  C4' I4B d   1       1.161   2.155  -0.838  0.00  0.00     0.013 C 
ATOM     10  C3' I4B d   1      -1.249   1.594  -0.675  0.00  0.00     0.013 C 
ENDBRANCH   7   8
ENDBRANCH   1   7
TORSDOF 2
ENDMDL
