MODEL 1
REMARK minimizedAffinity 6.72207022
REMARK minimizedRMSD -1
REMARK  2 active torsions:
REMARK  status: ('A' for Active; 'I' for Inactive)
REMARK    1  A    between atoms: C2'_3  and  C1'_4 
REMARK    2  A    between atoms: C1'_4  and  C1_5 
ROOT
ATOM      1  C1  I4B d   1       0.272   1.455   2.027  0.00  0.00    -0.075 A 
ATOM      2  C2  I4B d   1      -0.681   1.832   2.940  0.00  0.00     0.003 A 
ATOM      3  C3  I4B d   1      -0.361   2.755   3.965  0.00  0.00     0.002 A 
ATOM      4  C4  I4B d   1       0.929   3.233   4.070  0.00  0.00    -0.004 A 
ATOM      5  C5  I4B d   1       1.889   2.867   3.130  0.00  0.00     0.002 A 
ATOM      6  C6  I4B d   1       1.555   1.982   2.095  0.00  0.00     0.003 A 
ENDROOT
BRANCH   1   7
ATOM      7  C1' I4B d   1      -0.092   0.453   0.978  0.00  0.00     0.060 C 
BRANCH   7   8
ATOM      8  C2' I4B d   1       0.183  -0.929   1.536  0.00  0.00    -0.013 C 
ATOM      9  C4' I4B d   1      -1.034  -1.810   1.435  0.00  0.00     0.013 C 
ATOM     10  C3' I4B d   1       1.339  -1.512   0.779  0.00  0.00     0.013 C 
ENDBRANCH   7   8
ENDBRANCH   1   7
TORSDOF 2
ENDMDL
