MODEL 1
REMARK minimizedAffinity 9.42891407
REMARK minimizedRMSD -1
REMARK  2 active torsions:
REMARK  status: ('A' for Active; 'I' for Inactive)
REMARK    1  A    between atoms: C2'_3  and  C1'_4 
REMARK    2  A    between atoms: C1'_4  and  C1_5 
ROOT
ATOM      1  C1  I4B d   1       1.143   3.688   2.421  0.00  0.00    -0.075 A 
ATOM      2  C2  I4B d   1       0.988   4.907   1.809  0.00  0.00     0.003 A 
ATOM      3  C3  I4B d   1       1.810   5.999   2.177  0.00  0.00     0.002 A 
ATOM      4  C4  I4B d   1       2.733   5.844   3.191  0.00  0.00    -0.004 A 
ATOM      5  C5  I4B d   1       2.905   4.602   3.795  0.00  0.00     0.002 A 
ATOM      6  C6  I4B d   1       2.114   3.513   3.399  0.00  0.00     0.003 A 
ENDROOT
BRANCH   1   7
ATOM      7  C1' I4B d   1       0.236   2.565   2.031  0.00  0.00     0.060 C 
BRANCH   7   8
ATOM      8  C2' I4B d   1       1.011   1.634   1.120  0.00  0.00    -0.013 C 
ATOM      9  C4' I4B d   1       0.336   0.292   1.009  0.00  0.00     0.013 C 
ATOM     10  C3' I4B d   1       1.130   2.293  -0.222  0.00  0.00     0.013 C 
ENDBRANCH   7   8
ENDBRANCH   1   7
TORSDOF 2
ENDMDL
