MODEL 1
REMARK minimizedAffinity -1.86582863
REMARK minimizedRMSD -1
REMARK  2 active torsions:
REMARK  status: ('A' for Active; 'I' for Inactive)
REMARK    1  A    between atoms: C2'_3  and  C1'_4 
REMARK    2  A    between atoms: C1'_4  and  C1_5 
ROOT
ATOM      1  C1  I4B d   1       0.273   2.823   1.985  0.00  0.00    -0.075 A 
ATOM      2  C2  I4B d   1      -0.711   2.586   2.913  0.00  0.00     0.003 A 
ATOM      3  C3  I4B d   1      -0.878   3.462   4.013  0.00  0.00     0.002 A 
ATOM      4  C4  I4B d   1      -0.014   4.526   4.173  0.00  0.00    -0.004 A 
ATOM      5  C5  I4B d   1       0.967   4.778   3.218  0.00  0.00     0.002 A 
ATOM      6  C6  I4B d   1       1.104   3.928   2.111  0.00  0.00     0.003 A 
ENDROOT
BRANCH   1   7
ATOM      7  C1' I4B d   1       0.443   1.860   0.853  0.00  0.00     0.060 C 
BRANCH   7   8
ATOM      8  C2' I4B d   1      -0.564   0.743   1.036  0.00  0.00    -0.013 C 
ATOM      9  C4' I4B d   1      -1.599   0.757  -0.058  0.00  0.00     0.013 C 
ATOM     10  C3' I4B d   1       0.184  -0.557   1.057  0.00  0.00     0.013 C 
ENDBRANCH   7   8
ENDBRANCH   1   7
TORSDOF 2
ENDMDL
