MODEL 1
REMARK minimizedAffinity 12.9818535
REMARK minimizedRMSD -1
REMARK  2 active torsions:
REMARK  status: ('A' for Active; 'I' for Inactive)
REMARK    1  A    between atoms: C2'_3  and  C1'_4 
REMARK    2  A    between atoms: C1'_4  and  C1_5 
ROOT
ATOM      1  C1  I4B d   1      -0.497   2.477   3.159  0.00  0.00    -0.075 A 
ATOM      2  C2  I4B d   1      -1.764   2.239   3.629  0.00  0.00     0.003 A 
ATOM      3  C3  I4B d   1      -2.184   2.797   4.861  0.00  0.00     0.002 A 
ATOM      4  C4  I4B d   1      -1.293   3.538   5.610  0.00  0.00    -0.004 A 
ATOM      5  C5  I4B d   1      -0.016   3.797   5.121  0.00  0.00     0.002 A 
ATOM      6  C6  I4B d   1       0.381   3.274   3.882  0.00  0.00     0.003 A 
ENDROOT
BRANCH   1   7
ATOM      7  C1' I4B d   1      -0.077   1.846   1.869  0.00  0.00     0.060 C 
BRANCH   7   8
ATOM      8  C2' I4B d   1      -0.709   0.471   1.795  0.00  0.00    -0.013 C 
ATOM      9  C4' I4B d   1      -1.457   0.284   0.501  0.00  0.00     0.013 C 
ATOM     10  C3' I4B d   1       0.381  -0.548   1.941  0.00  0.00     0.013 C 
ENDBRANCH   7   8
ENDBRANCH   1   7
TORSDOF 2
ENDMDL
