MODEL 1
REMARK minimizedAffinity -2.08373356
REMARK minimizedRMSD -1
REMARK  2 active torsions:
REMARK  status: ('A' for Active; 'I' for Inactive)
REMARK    1  A    between atoms: C2'_3  and  C1'_4 
REMARK    2  A    between atoms: C1'_4  and  C1_5 
ROOT
ATOM      1  C1  I4B d   1       1.507   3.297   2.650  0.00  0.00    -0.075 A 
ATOM      2  C2  I4B d   1       1.834   3.093   1.333  0.00  0.00     0.003 A 
ATOM      3  C3  I4B d   1       0.993   2.314   0.502  0.00  0.00     0.002 A 
ATOM      4  C4  I4B d   1      -0.131   1.719   1.039  0.00  0.00    -0.004 A 
ATOM      5  C5  I4B d   1      -0.473   1.945   2.369  0.00  0.00     0.002 A 
ATOM      6  C6  I4B d   1       0.345   2.749   3.177  0.00  0.00     0.003 A 
ENDROOT
BRANCH   1   7
ATOM      7  C1' I4B d   1       2.435   4.097   3.508  0.00  0.00     0.060 C 
BRANCH   7   8
ATOM      8  C2' I4B d   1       3.855   3.745   3.115  0.00  0.00    -0.013 C 
ATOM      9  C4' I4B d   1       4.612   4.963   2.655  0.00  0.00     0.013 C 
ATOM     10  C3' I4B d   1       4.519   3.110   4.300  0.00  0.00     0.013 C 
ENDBRANCH   7   8
ENDBRANCH   1   7
TORSDOF 2
ENDMDL
