MODEL 1
REMARK minimizedAffinity 4.32873106
REMARK minimizedRMSD -1
REMARK  2 active torsions:
REMARK  status: ('A' for Active; 'I' for Inactive)
REMARK    1  A    between atoms: C2'_3  and  C1'_4 
REMARK    2  A    between atoms: C1'_4  and  C1_5 
ROOT
ATOM      1  C1  I4B d   1       2.709   4.567   3.363  0.00  0.00    -0.075 A 
ATOM      2  C2  I4B d   1       3.681   5.317   2.750  0.00  0.00     0.003 A 
ATOM      3  C3  I4B d   1       5.012   5.293   3.235  0.00  0.00     0.002 A 
ATOM      4  C4  I4B d   1       5.312   4.550   4.358  0.00  0.00    -0.004 A 
ATOM      5  C5  I4B d   1       4.330   3.772   4.964  0.00  0.00     0.002 A 
ATOM      6  C6  I4B d   1       3.023   3.771   4.456  0.00  0.00     0.003 A 
ENDROOT
BRANCH   1   7
ATOM      7  C1' I4B d   1       1.308   4.642   2.845  0.00  0.00     0.060 C 
BRANCH   7   8
ATOM      8  C2' I4B d   1       0.533   3.476   3.426  0.00  0.00    -0.013 C 
ATOM      9  C4' I4B d   1      -0.419   3.935   4.499  0.00  0.00     0.013 C 
ATOM     10  C3' I4B d   1      -0.200   2.803   2.304  0.00  0.00     0.013 C 
ENDBRANCH   7   8
ENDBRANCH   1   7
TORSDOF 2
ENDMDL
