MODEL 1
REMARK minimizedAffinity 4.82672501
REMARK minimizedRMSD -1
REMARK  2 active torsions:
REMARK  status: ('A' for Active; 'I' for Inactive)
REMARK    1  A    between atoms: C2'_3  and  C1'_4 
REMARK    2  A    between atoms: C1'_4  and  C1_5 
ROOT
ATOM      1  C1  I4B d   1       4.323   0.671  -0.380  0.00  0.00    -0.075 A 
ATOM      2  C2  I4B d   1       3.858   1.954  -0.522  0.00  0.00     0.003 A 
ATOM      3  C3  I4B d   1       4.045   2.899   0.516  0.00  0.00     0.002 A 
ATOM      4  C4  I4B d   1       4.653   2.507   1.691  0.00  0.00    -0.004 A 
ATOM      5  C5  I4B d   1       5.144   1.211   1.825  0.00  0.00     0.002 A 
ATOM      6  C6  I4B d   1       4.989   0.290   0.778  0.00  0.00     0.003 A 
ENDROOT
BRANCH   1   7
ATOM      7  C1' I4B d   1       4.079  -0.311  -1.482  0.00  0.00     0.060 C 
BRANCH   7   8
ATOM      8  C2' I4B d   1       3.016  -1.283  -1.015  0.00  0.00    -0.013 C 
ATOM      9  C4' I4B d   1       3.006  -2.529  -1.861  0.00  0.00     0.013 C 
ATOM     10  C3' I4B d   1       3.286  -1.608   0.424  0.00  0.00     0.013 C 
ENDBRANCH   7   8
ENDBRANCH   1   7
TORSDOF 2
ENDMDL
