MODEL 1
REMARK minimizedAffinity 0.186712414
REMARK minimizedRMSD -1
REMARK  2 active torsions:
REMARK  status: ('A' for Active; 'I' for Inactive)
REMARK    1  A    between atoms: C2'_3  and  C1'_4 
REMARK    2  A    between atoms: C1'_4  and  C1_5 
ROOT
ATOM      1  C1  I4B d   1       3.697   4.187   5.771  0.00  0.00    -0.075 A 
ATOM      2  C2  I4B d   1       3.452   5.514   5.523  0.00  0.00     0.003 A 
ATOM      3  C3  I4B d   1       2.122   5.999   5.487  0.00  0.00     0.002 A 
ATOM      4  C4  I4B d   1       1.073   5.118   5.653  0.00  0.00    -0.004 A 
ATOM      5  C5  I4B d   1       1.324   3.777   5.927  0.00  0.00     0.002 A 
ATOM      6  C6  I4B d   1       2.645   3.310   5.998  0.00  0.00     0.003 A 
ENDROOT
BRANCH   1   7
ATOM      7  C1' I4B d   1       5.112   3.703   5.768  0.00  0.00     0.060 C 
BRANCH   7   8
ATOM      8  C2' I4B d   1       5.172   2.437   4.937  0.00  0.00    -0.013 C 
ATOM      9  C4' I4B d   1       4.231   1.389   5.471  0.00  0.00     0.013 C 
ATOM     10  C3' I4B d   1       4.834   2.797   3.521  0.00  0.00     0.013 C 
ENDBRANCH   7   8
ENDBRANCH   1   7
TORSDOF 2
ENDMDL
