MODEL 1
REMARK minimizedAffinity 8.66596985
REMARK minimizedRMSD -1
REMARK  2 active torsions:
REMARK  status: ('A' for Active; 'I' for Inactive)
REMARK    1  A    between atoms: C2'_3  and  C1'_4 
REMARK    2  A    between atoms: C1'_4  and  C1_5 
ROOT
ATOM      1  C1  I4B d   1       0.861  -2.887   4.792  0.00  0.00    -0.075 A 
ATOM      2  C2  I4B d   1       0.347  -1.615   4.853  0.00  0.00     0.003 A 
ATOM      3  C3  I4B d   1       0.455  -0.749   3.737  0.00  0.00     0.002 A 
ATOM      4  C4  I4B d   1       1.125  -1.175   2.609  0.00  0.00    -0.004 A 
ATOM      5  C5  I4B d   1       1.625  -2.472   2.541  0.00  0.00     0.002 A 
ATOM      6  C6  I4B d   1       1.482  -3.338   3.635  0.00  0.00     0.003 A 
ENDROOT
BRANCH   1   7
ATOM      7  C1' I4B d   1       0.758  -3.763   6.000  0.00  0.00     0.060 C 
BRANCH   7   8
ATOM      8  C2' I4B d   1      -0.415  -4.701   5.798  0.00  0.00    -0.013 C 
ATOM      9  C4' I4B d   1      -1.431  -4.107   4.859  0.00  0.00     0.013 C 
ATOM     10  C3' I4B d   1       0.116  -6.000   5.270  0.00  0.00     0.013 C 
ENDBRANCH   7   8
ENDBRANCH   1   7
TORSDOF 2
ENDMDL
