MODEL 1
REMARK minimizedAffinity 3.4945004
REMARK minimizedRMSD -1
REMARK  2 active torsions:
REMARK  status: ('A' for Active; 'I' for Inactive)
REMARK    1  A    between atoms: C2'_3  and  C1'_4 
REMARK    2  A    between atoms: C1'_4  and  C1_5 
ROOT
ATOM      1  C1  I4B d   1       3.071   3.493   5.763  0.00  0.00    -0.075 A 
ATOM      2  C2  I4B d   1       4.027   4.474   5.675  0.00  0.00     0.003 A 
ATOM      3  C3  I4B d   1       5.387   4.128   5.483  0.00  0.00     0.002 A 
ATOM      4  C4  I4B d   1       5.750   2.798   5.435  0.00  0.00    -0.004 A 
ATOM      5  C5  I4B d   1       4.777   1.805   5.501  0.00  0.00     0.002 A 
ATOM      6  C6  I4B d   1       3.427   2.155   5.654  0.00  0.00     0.003 A 
ENDROOT
BRANCH   1   7
ATOM      7  C1' I4B d   1       1.649   3.892   6.000  0.00  0.00     0.060 C 
BRANCH   7   8
ATOM      8  C2' I4B d   1       1.571   5.403   5.935  0.00  0.00    -0.013 C 
ATOM      9  C4' I4B d   1       2.334   5.938   4.752  0.00  0.00     0.013 C 
ATOM     10  C3' I4B d   1       0.124   5.790   5.865  0.00  0.00     0.013 C 
ENDBRANCH   7   8
ENDBRANCH   1   7
TORSDOF 2
ENDMDL
