MODEL 1
REMARK minimizedAffinity -2.78896904
REMARK minimizedRMSD -1
REMARK  2 active torsions:
REMARK  status: ('A' for Active; 'I' for Inactive)
REMARK    1  A    between atoms: C2'_3  and  C1'_4 
REMARK    2  A    between atoms: C1'_4  and  C1_5 
ROOT
ATOM      1  C1  I4B d   1       3.870   4.227   5.890  0.00  0.00    -0.075 A 
ATOM      2  C2  I4B d   1       3.575   5.567   5.911  0.00  0.00     0.003 A 
ATOM      3  C3  I4B d   1       2.229   5.999   5.990  0.00  0.00     0.002 A 
ATOM      4  C4  I4B d   1       1.214   5.064   5.994  0.00  0.00    -0.004 A 
ATOM      5  C5  I4B d   1       1.516   3.706   5.995  0.00  0.00     0.002 A 
ATOM      6  C6  I4B d   1       2.853   3.284   5.955  0.00  0.00     0.003 A 
ENDROOT
BRANCH   1   7
ATOM      7  C1' I4B d   1       5.301   3.806   5.773  0.00  0.00     0.060 C 
BRANCH   7   8
ATOM      8  C2' I4B d   1       5.368   2.645   4.801  0.00  0.00    -0.013 C 
ATOM      9  C4' I4B d   1       4.495   1.505   5.252  0.00  0.00     0.013 C 
ATOM     10  C3' I4B d   1       4.949   3.147   3.451  0.00  0.00     0.013 C 
ENDBRANCH   7   8
ENDBRANCH   1   7
TORSDOF 2
ENDMDL
