MODEL 1
REMARK minimizedAffinity 14.4937944
REMARK minimizedRMSD -1
REMARK  2 active torsions:
REMARK  status: ('A' for Active; 'I' for Inactive)
REMARK    1  A    between atoms: C2'_3  and  C1'_4 
REMARK    2  A    between atoms: C1'_4  and  C1_5 
ROOT
ATOM      1  C1  I4B d   1      -3.087   0.893  -3.388  0.00  0.00    -0.075 A 
ATOM      2  C2  I4B d   1      -2.147   1.777  -2.920  0.00  0.00     0.003 A 
ATOM      3  C3  I4B d   1      -1.478   1.526  -1.698  0.00  0.00     0.002 A 
ATOM      4  C4  I4B d   1      -1.813   0.412  -0.956  0.00  0.00    -0.004 A 
ATOM      5  C5  I4B d   1      -2.749  -0.496  -1.444  0.00  0.00     0.002 A 
ATOM      6  C6  I4B d   1      -3.381  -0.261  -2.673  0.00  0.00     0.003 A 
ENDROOT
BRANCH   1   7
ATOM      7  C1' I4B d   1      -3.798   1.206  -4.666  0.00  0.00     0.060 C 
BRANCH   7   8
ATOM      8  C2' I4B d   1      -5.282   1.269  -4.371  0.00  0.00    -0.013 C 
ATOM      9  C4' I4B d   1      -5.789   2.686  -4.425  0.00  0.00     0.013 C 
ATOM     10  C3' I4B d   1      -5.990   0.403  -5.370  0.00  0.00     0.013 C 
ENDBRANCH   7   8
ENDBRANCH   1   7
TORSDOF 2
ENDMDL
