MODEL 1
REMARK minimizedAffinity -4.55196238
REMARK minimizedRMSD -1
REMARK  0 active torsions:
REMARK  status: ('A' for Active; 'I' for Inactive)
ROOT
ATOM      1  C   UNL d   1      -1.314   2.934   0.684  0.00  0.00     0.124 A 
ATOM      2  C1  UNL d   1      -0.910   2.886  -0.644  0.00  0.00     0.062 A 
ATOM      3  C2  UNL d   1      -0.279   1.751  -1.143  0.00  0.00     0.162 A 
ATOM      4  C3  UNL d   1      -0.048   0.653  -0.315  0.00  0.00    -0.034 A 
ATOM      5  C4  UNL d   1      -0.456   0.708   1.019  0.00  0.00     0.162 A 
ATOM      6  C5  UNL d   1      -1.087   1.845   1.513  0.00  0.00     0.062 A 
ATOM      7  F   UNL d   1      -1.476   1.889   2.796  0.00  0.00    -0.097 F 
ATOM      8  F1  UNL d   1      -0.249  -0.330   1.843  0.00  0.00    -0.096 F 
ATOM      9  I   UNL d   1       0.897  -1.047  -1.058  0.00  0.00    -0.060 I 
ATOM     10  F2  UNL d   1       0.101   1.733  -2.429  0.00  0.00    -0.096 F 
ATOM     11  F3  UNL d   1      -1.128   3.937  -1.447  0.00  0.00    -0.097 F 
ATOM     12  F4  UNL d   1      -1.921   4.028   1.162  0.00  0.00    -0.092 F 
ENDROOT
TORSDOF 0
ENDMDL
