MODEL 1
REMARK minimizedAffinity -5.3608427
REMARK minimizedRMSD -1
REMARK  0 active torsions:
REMARK  status: ('A' for Active; 'I' for Inactive)
ROOT
ATOM      1  C   UNL d   1       0.494  -0.070  -1.405  0.00  0.00     0.124 A 
ATOM      2  C1  UNL d   1      -0.101   1.125  -1.786  0.00  0.00     0.062 A 
ATOM      3  C2  UNL d   1      -0.574   2.011  -0.822  0.00  0.00     0.162 A 
ATOM      4  C3  UNL d   1      -0.452   1.706   0.534  0.00  0.00    -0.034 A 
ATOM      5  C4  UNL d   1       0.146   0.502   0.910  0.00  0.00     0.162 A 
ATOM      6  C5  UNL d   1       0.617  -0.380  -0.058  0.00  0.00     0.062 A 
ATOM      7  F   UNL d   1       1.192  -1.534   0.313  0.00  0.00    -0.097 F 
ATOM      8  F1  UNL d   1       0.279   0.178   2.204  0.00  0.00    -0.096 F 
ATOM      9  I   UNL d   1      -1.157   3.028   1.978  0.00  0.00    -0.060 I 
ATOM     10  F2  UNL d   1      -1.144   3.158  -1.220  0.00  0.00    -0.096 F 
ATOM     11  F3  UNL d   1      -0.223   1.426  -3.087  0.00  0.00    -0.097 F 
ATOM     12  F4  UNL d   1       0.947  -0.921  -2.334  0.00  0.00    -0.092 F 
ENDROOT
TORSDOF 0
ENDMDL
