MODEL 1
REMARK minimizedAffinity -2.42885256
REMARK minimizedRMSD -1
REMARK  0 active torsions:
REMARK  status: ('A' for Active; 'I' for Inactive)
ROOT
ATOM      1  C   UNL d   1      -0.570   1.642  -0.889  0.00  0.00     0.124 A 
ATOM      2  C1  UNL d   1      -0.843   0.837   0.208  0.00  0.00     0.062 A 
ATOM      3  C2  UNL d   1      -0.468  -0.503   0.203  0.00  0.00     0.162 A 
ATOM      4  C3  UNL d   1       0.185  -1.047  -0.902  0.00  0.00    -0.034 A 
ATOM      5  C4  UNL d   1       0.455  -0.232  -2.003  0.00  0.00     0.162 A 
ATOM      6  C5  UNL d   1       0.078   1.107  -1.993  0.00  0.00     0.062 A 
ATOM      7  F   UNL d   1       0.342   1.883  -3.055  0.00  0.00    -0.097 F 
ATOM      8  F1  UNL d   1       1.082  -0.723  -3.083  0.00  0.00    -0.096 F 
ATOM      9  I   UNL d   1       0.748  -3.051  -0.913  0.00  0.00    -0.060 I 
ATOM     10  F2  UNL d   1      -0.744  -1.258   1.278  0.00  0.00    -0.096 F 
ATOM     11  F3  UNL d   1      -1.470   1.351   1.276  0.00  0.00    -0.097 F 
ATOM     12  F4  UNL d   1      -0.933   2.931  -0.883  0.00  0.00    -0.092 F 
ENDROOT
TORSDOF 0
ENDMDL
