MODEL 1
REMARK minimizedAffinity -3.50692391
REMARK minimizedRMSD -1
REMARK  0 active torsions:
REMARK  status: ('A' for Active; 'I' for Inactive)
ROOT
ATOM      1  C   UNL d   1      -0.488   2.609   0.329  0.00  0.00     0.124 A 
ATOM      2  C1  UNL d   1       0.043   2.290  -0.913  0.00  0.00     0.062 A 
ATOM      3  C2  UNL d   1       0.332   0.966  -1.231  0.00  0.00     0.162 A 
ATOM      4  C3  UNL d   1       0.090  -0.049  -0.306  0.00  0.00    -0.034 A 
ATOM      5  C4  UNL d   1      -0.444   0.280   0.942  0.00  0.00     0.162 A 
ATOM      6  C5  UNL d   1      -0.731   1.604   1.255  0.00  0.00     0.062 A 
ATOM      7  F   UNL d   1      -1.244   1.911   2.456  0.00  0.00    -0.097 F 
ATOM      8  F1  UNL d   1      -0.689  -0.672   1.855  0.00  0.00    -0.096 F 
ATOM      9  I   UNL d   1       0.520  -2.030  -0.778  0.00  0.00    -0.060 I 
ATOM     10  F2  UNL d   1       0.844   0.687  -2.439  0.00  0.00    -0.096 F 
ATOM     11  F3  UNL d   1       0.279   3.259  -1.808  0.00  0.00    -0.097 F 
ATOM     12  F4  UNL d   1      -0.764   3.884   0.633  0.00  0.00    -0.092 F 
ENDROOT
TORSDOF 0
ENDMDL
