MODEL 1
REMARK minimizedAffinity -4.76302767
REMARK minimizedRMSD -1
REMARK  0 active torsions:
REMARK  status: ('A' for Active; 'I' for Inactive)
ROOT
ATOM      1  C   UNL d   1      -0.770   2.846   0.307  0.00  0.00     0.124 A 
ATOM      2  C1  UNL d   1      -0.277   2.600  -0.967  0.00  0.00     0.062 A 
ATOM      3  C2  UNL d   1       0.011   1.298  -1.367  0.00  0.00     0.162 A 
ATOM      4  C3  UNL d   1      -0.194   0.232  -0.492  0.00  0.00    -0.034 A 
ATOM      5  C4  UNL d   1      -0.688   0.487   0.788  0.00  0.00     0.162 A 
ATOM      6  C5  UNL d   1      -0.975   1.789   1.183  0.00  0.00     0.062 A 
ATOM      7  F   UNL d   1      -1.450   2.025   2.415  0.00  0.00    -0.097 F 
ATOM      8  F1  UNL d   1      -0.897  -0.516   1.655  0.00  0.00    -0.096 F 
ATOM      9  I   UNL d   1       0.236  -1.716  -1.086  0.00  0.00    -0.060 I 
ATOM     10  F2  UNL d   1       0.485   1.090  -2.604  0.00  0.00    -0.096 F 
ATOM     11  F3  UNL d   1      -0.078   3.619  -1.815  0.00  0.00    -0.097 F 
ATOM     12  F4  UNL d   1      -1.045   4.099   0.690  0.00  0.00    -0.092 F 
ENDROOT
TORSDOF 0
ENDMDL
