MODEL 1
REMARK minimizedAffinity -1.50052559
REMARK minimizedRMSD -1
REMARK  0 active torsions:
REMARK  status: ('A' for Active; 'I' for Inactive)
ROOT
ATOM      1  C   UNL d   1      -1.040   3.093   0.403  0.00  0.00     0.124 A 
ATOM      2  C1  UNL d   1      -0.343   2.746  -0.745  0.00  0.00     0.062 A 
ATOM      3  C2  UNL d   1      -0.002   1.418  -0.983  0.00  0.00     0.162 A 
ATOM      4  C3  UNL d   1      -0.359   0.426  -0.069  0.00  0.00    -0.034 A 
ATOM      5  C4  UNL d   1      -1.059   0.783   1.085  0.00  0.00     0.162 A 
ATOM      6  C5  UNL d   1      -1.398   2.112   1.317  0.00  0.00     0.062 A 
ATOM      7  F   UNL d   1      -2.071   2.446   2.428  0.00  0.00    -0.097 F 
ATOM      8  F1  UNL d   1      -1.418  -0.146   1.984  0.00  0.00    -0.096 F 
ATOM      9  I   UNL d   1       0.149  -1.562  -0.420  0.00  0.00    -0.060 I 
ATOM     10  F2  UNL d   1       0.672   1.111  -2.101  0.00  0.00    -0.096 F 
ATOM     11  F3  UNL d   1       0.004   3.693  -1.629  0.00  0.00    -0.097 F 
ATOM     12  F4  UNL d   1      -1.367   4.373   0.629  0.00  0.00    -0.092 F 
ENDROOT
TORSDOF 0
ENDMDL
