MODEL 1
REMARK minimizedAffinity 1.42796695
REMARK minimizedRMSD -1
REMARK  0 active torsions:
REMARK  status: ('A' for Active; 'I' for Inactive)
ROOT
ATOM      1  C   UNL d   1       1.886  -1.426  -1.268  0.00  0.00     0.172 C 
ATOM      2  N   UNL d   1       2.218  -0.034  -1.078  0.00  0.00    -0.070 N 
ATOM      3  C1  UNL d   1       3.123   0.455  -0.174  0.00  0.00    -0.004 A 
ATOM      4  C2  UNL d   1       3.152   1.827  -0.304  0.00  0.00    -0.047 A 
ATOM      5  C3  UNL d   1       2.232   2.174  -1.322  0.00  0.00    -0.047 A 
ATOM      6  C4  UNL d   1       1.668   1.004  -1.783  0.00  0.00    -0.004 A 
ENDROOT
TORSDOF 0
ENDMDL
