MODEL 1
REMARK minimizedAffinity 3.87249303
REMARK minimizedRMSD -1
REMARK  0 active torsions:
REMARK  status: ('A' for Active; 'I' for Inactive)
ROOT
ATOM      1  C   UNL d   1       1.563  -0.938  -0.252  0.00  0.00     0.172 C 
ATOM      2  N   UNL d   1       1.019  -1.001   1.084  0.00  0.00    -0.070 N 
ATOM      3  C1  UNL d   1      -0.302  -0.856   1.416  0.00  0.00    -0.004 A 
ATOM      4  C2  UNL d   1      -0.409  -0.982   2.784  0.00  0.00    -0.047 A 
ATOM      5  C3  UNL d   1       0.892  -1.211   3.292  0.00  0.00    -0.047 A 
ATOM      6  C4  UNL d   1       1.756  -1.218   2.218  0.00  0.00    -0.004 A 
ENDROOT
TORSDOF 0
ENDMDL
