MODEL 1
REMARK minimizedAffinity 2.50836658
REMARK minimizedRMSD -1
REMARK  0 active torsions:
REMARK  status: ('A' for Active; 'I' for Inactive)
ROOT
ATOM      1  C   UNL d   1      -4.496   3.443  -5.250  0.00  0.00     0.172 C 
ATOM      2  N   UNL d   1      -4.134   2.045  -5.281  0.00  0.00    -0.070 N 
ATOM      3  C1  UNL d   1      -3.101   1.504  -5.999  0.00  0.00    -0.004 A 
ATOM      4  C2  UNL d   1      -3.088   0.147  -5.762  0.00  0.00    -0.047 A 
ATOM      5  C3  UNL d   1      -4.150  -0.138  -4.872  0.00  0.00    -0.047 A 
ATOM      6  C4  UNL d   1      -4.781   1.055  -4.591  0.00  0.00    -0.004 A 
ENDROOT
TORSDOF 0
ENDMDL
