MODEL 1
REMARK minimizedAffinity 0.454914808
REMARK minimizedRMSD -1
REMARK  0 active torsions:
REMARK  status: ('A' for Active; 'I' for Inactive)
ROOT
ATOM      1  C   UNL d   1       0.748  -0.983   2.718  0.00  0.00     0.172 C 
ATOM      2  N   UNL d   1       1.696  -1.562   1.795  0.00  0.00    -0.070 N 
ATOM      3  C1  UNL d   1       1.877  -1.181   0.492  0.00  0.00    -0.004 A 
ATOM      4  C2  UNL d   1       2.869  -1.972  -0.045  0.00  0.00    -0.047 A 
ATOM      5  C3  UNL d   1       3.299  -2.860   0.970  0.00  0.00    -0.047 A 
ATOM      6  C4  UNL d   1       2.556  -2.584   2.098  0.00  0.00    -0.004 A 
ENDROOT
TORSDOF 0
ENDMDL
