MODEL 1
REMARK minimizedAffinity 3.62328529
REMARK minimizedRMSD -1
REMARK  0 active torsions:
REMARK  status: ('A' for Active; 'I' for Inactive)
ROOT
ATOM      1  C   UNL d   1       2.309  -1.567   1.468  0.00  0.00     0.172 C 
ATOM      2  N   UNL d   1       1.226  -0.934   2.182  0.00  0.00    -0.070 N 
ATOM      3  C1  UNL d   1      -0.086  -0.912   1.789  0.00  0.00    -0.004 A 
ATOM      4  C2  UNL d   1      -0.799  -0.212   2.737  0.00  0.00    -0.047 A 
ATOM      5  C3  UNL d   1       0.115   0.202   3.735  0.00  0.00    -0.047 A 
ATOM      6  C4  UNL d   1       1.361  -0.258   3.367  0.00  0.00    -0.004 A 
ENDROOT
TORSDOF 0
ENDMDL
