MODEL 1
REMARK minimizedAffinity 4.51965094
REMARK minimizedRMSD -1
REMARK  0 active torsions:
REMARK  status: ('A' for Active; 'I' for Inactive)
ROOT
ATOM      1  C   UNL d   1       2.236  -1.681   0.343  0.00  0.00     0.172 C 
ATOM      2  N   UNL d   1       1.542  -1.202   1.516  0.00  0.00    -0.070 N 
ATOM      3  C1  UNL d   1       2.067  -1.121   2.777  0.00  0.00    -0.004 A 
ATOM      4  C2  UNL d   1       1.092  -0.616   3.610  0.00  0.00    -0.047 A 
ATOM      5  C3  UNL d   1      -0.060  -0.386   2.821  0.00  0.00    -0.047 A 
ATOM      6  C4  UNL d   1       0.246  -0.757   1.529  0.00  0.00    -0.004 A 
ENDROOT
TORSDOF 0
ENDMDL
