MODEL 1
REMARK minimizedAffinity 0.274136305
REMARK minimizedRMSD -1
REMARK  0 active torsions:
REMARK  status: ('A' for Active; 'I' for Inactive)
ROOT
ATOM      1  C   UNL d   1       2.227  -1.864   0.330  0.00  0.00     0.172 C 
ATOM      2  N   UNL d   1       1.144  -1.352   1.138  0.00  0.00    -0.070 N 
ATOM      3  C1  UNL d   1       1.148  -1.246   2.503  0.00  0.00    -0.004 A 
ATOM      4  C2  UNL d   1      -0.063  -0.714   2.889  0.00  0.00    -0.047 A 
ATOM      5  C3  UNL d   1      -0.821  -0.493   1.715  0.00  0.00    -0.047 A 
ATOM      6  C4  UNL d   1      -0.050  -0.897   0.645  0.00  0.00    -0.004 A 
ENDROOT
TORSDOF 0
ENDMDL
