MODEL 1
REMARK minimizedAffinity 8.95057869
REMARK minimizedRMSD -1
REMARK  1 active torsions:
REMARK  status: ('A' for Active; 'I' for Inactive)
REMARK    1  A    between atoms: C1_2  and  C2_3 
ROOT
ATOM      1  C2  UNL d   1       0.184  -2.315   1.627  0.00  0.00    -0.076 A 
ATOM      2  C3  UNL d   1      -1.133  -1.992   1.258  0.00  0.00     0.004 A 
ATOM      3  C4  UNL d   1      -1.853  -2.805   0.384  0.00  0.00    -0.003 A 
ATOM      4  C5  UNL d   1      -1.267  -3.955  -0.134  0.00  0.00     0.000 A 
ATOM      5  C6  UNL d   1       0.032  -4.300   0.235  0.00  0.00     0.000 A 
ATOM      6  C7  UNL d   1       0.766  -3.500   1.127  0.00  0.00    -0.073 A 
ATOM      7  C8  UNL d   1       2.166  -3.917   1.486  0.00  0.00     0.078 C 
ENDROOT
BRANCH   1   8
ATOM      8  C1  UNL d   1       0.926  -1.381   2.556  0.00  0.00     0.053 C 
ATOM      9  C   UNL d   1       1.792  -0.380   1.807  0.00  0.00     0.018 C 
ENDBRANCH   1   8
TORSDOF 1
ENDMDL
