MODEL 1
REMARK minimizedAffinity 7.54855442
REMARK minimizedRMSD -1
REMARK  1 active torsions:
REMARK  status: ('A' for Active; 'I' for Inactive)
REMARK    1  A    between atoms: C1_2  and  C2_3 
ROOT
ATOM      1  C2  UNL d   1       3.430  -4.045  -0.531  0.00  0.00    -0.076 A 
ATOM      2  C3  UNL d   1       4.827  -3.942  -0.406  0.00  0.00     0.004 A 
ATOM      3  C4  UNL d   1       5.674  -4.446  -1.392  0.00  0.00    -0.003 A 
ATOM      4  C5  UNL d   1       5.139  -5.060  -2.518  0.00  0.00     0.000 A 
ATOM      5  C6  UNL d   1       3.756  -5.155  -2.667  0.00  0.00     0.000 A 
ATOM      6  C7  UNL d   1       2.887  -4.638  -1.691  0.00  0.00    -0.073 A 
ATOM      7  C8  UNL d   1       1.403  -4.773  -1.900  0.00  0.00     0.078 C 
ENDROOT
BRANCH   1   8
ATOM      8  C1  UNL d   1       2.562  -3.504   0.582  0.00  0.00     0.053 C 
ATOM      9  C   UNL d   1       2.272  -4.545   1.653  0.00  0.00     0.018 C 
ENDBRANCH   1   8
TORSDOF 1
ENDMDL
