MODEL 1
REMARK minimizedAffinity 10.5409088
REMARK minimizedRMSD -1
REMARK  1 active torsions:
REMARK  status: ('A' for Active; 'I' for Inactive)
REMARK    1  A    between atoms: C1_2  and  C2_3 
ROOT
ATOM      1  C2  UNL d   1       1.976  -2.008   4.142  0.00  0.00    -0.076 A 
ATOM      2  C3  UNL d   1       1.463  -0.804   3.627  0.00  0.00     0.004 A 
ATOM      3  C4  UNL d   1       1.553  -0.510   2.268  0.00  0.00    -0.003 A 
ATOM      4  C5  UNL d   1       2.156  -1.414   1.401  0.00  0.00     0.000 A 
ATOM      5  C6  UNL d   1       2.654  -2.621   1.891  0.00  0.00     0.000 A 
ATOM      6  C7  UNL d   1       2.557  -2.941   3.257  0.00  0.00    -0.073 A 
ATOM      7  C8  UNL d   1       3.117  -4.253   3.732  0.00  0.00     0.078 C 
ENDROOT
BRANCH   1   8
ATOM      8  C1  UNL d   1       1.874  -2.261   5.629  0.00  0.00     0.053 C 
ATOM      9  C   UNL d   1       0.641  -3.071   5.999  0.00  0.00     0.018 C 
ENDBRANCH   1   8
TORSDOF 1
ENDMDL
