MODEL 1
REMARK minimizedAffinity 11.9608622
REMARK minimizedRMSD -1
REMARK  1 active torsions:
REMARK  status: ('A' for Active; 'I' for Inactive)
REMARK    1  A    between atoms: C1_2  and  C2_3 
ROOT
ATOM      1  C2  UNL d   1       1.777  -2.634   0.694  0.00  0.00    -0.076 A 
ATOM      2  C3  UNL d   1       2.761  -2.247  -0.232  0.00  0.00     0.004 A 
ATOM      3  C4  UNL d   1       2.786  -2.784  -1.518  0.00  0.00    -0.003 A 
ATOM      4  C5  UNL d   1       1.828  -3.716  -1.899  0.00  0.00     0.000 A 
ATOM      5  C6  UNL d   1       0.834  -4.098  -0.999  0.00  0.00     0.000 A 
ATOM      6  C7  UNL d   1       0.784  -3.554   0.296  0.00  0.00    -0.073 A 
ATOM      7  C8  UNL d   1      -0.306  -4.007   1.228  0.00  0.00     0.078 C 
ENDROOT
BRANCH   1   8
ATOM      8  C1  UNL d   1       1.816  -2.038   2.084  0.00  0.00     0.053 C 
ATOM      9  C   UNL d   1       1.803  -0.518   2.066  0.00  0.00     0.018 C 
ENDBRANCH   1   8
TORSDOF 1
ENDMDL
