MODEL 1
REMARK minimizedAffinity 17.3433304
REMARK minimizedRMSD -1
REMARK  1 active torsions:
REMARK  status: ('A' for Active; 'I' for Inactive)
REMARK    1  A    between atoms: C1_2  and  C2_3 
ROOT
ATOM      1  C2  UNL d   1       3.873  -4.000  -1.029  0.00  0.00    -0.076 A 
ATOM      2  C3  UNL d   1       3.261  -2.908  -0.390  0.00  0.00     0.004 A 
ATOM      3  C4  UNL d   1       4.001  -2.032   0.401  0.00  0.00    -0.003 A 
ATOM      4  C5  UNL d   1       5.368  -2.232   0.565  0.00  0.00     0.000 A 
ATOM      5  C6  UNL d   1       5.995  -3.299  -0.077  0.00  0.00     0.000 A 
ATOM      6  C7  UNL d   1       5.266  -4.183  -0.891  0.00  0.00    -0.073 A 
ATOM      7  C8  UNL d   1       5.993  -5.321  -1.554  0.00  0.00     0.078 C 
ENDROOT
BRANCH   1   8
ATOM      8  C1  UNL d   1       3.014  -4.933  -1.853  0.00  0.00     0.053 C 
ATOM      9  C   UNL d   1       1.551  -4.895  -1.438  0.00  0.00     0.018 C 
ENDBRANCH   1   8
TORSDOF 1
ENDMDL
