MODEL 1
REMARK minimizedAffinity 8.54611301
REMARK minimizedRMSD -1
REMARK  1 active torsions:
REMARK  status: ('A' for Active; 'I' for Inactive)
REMARK    1  A    between atoms: C1_2  and  C2_3 
ROOT
ATOM      1  C2  UNL d   1       1.544  -2.188   3.328  0.00  0.00    -0.076 A 
ATOM      2  C3  UNL d   1       1.130  -1.357   4.383  0.00  0.00     0.004 A 
ATOM      3  C4  UNL d   1       1.411  -1.685   5.708  0.00  0.00    -0.003 A 
ATOM      4  C5  UNL d   1       2.112  -2.850   6.000  0.00  0.00     0.000 A 
ATOM      5  C6  UNL d   1       2.547  -3.677   4.965  0.00  0.00     0.000 A 
ATOM      6  C7  UNL d   1       2.285  -3.352   3.622  0.00  0.00    -0.073 A 
ATOM      7  C8  UNL d   1       2.772  -4.284   2.546  0.00  0.00     0.078 C 
ENDROOT
BRANCH   1   8
ATOM      8  C1  UNL d   1       1.187  -1.794   1.913  0.00  0.00     0.053 C 
ATOM      9  C   UNL d   1       2.345  -1.135   1.181  0.00  0.00     0.018 C 
ENDBRANCH   1   8
TORSDOF 1
ENDMDL
