MODEL 1
REMARK minimizedAffinity 13.0190535
REMARK minimizedRMSD -1
REMARK  1 active torsions:
REMARK  status: ('A' for Active; 'I' for Inactive)
REMARK    1  A    between atoms: C1_2  and  C2_3 
ROOT
ATOM      1  C2  UNL d   1       1.367  -1.517   2.610  0.00  0.00    -0.076 A 
ATOM      2  C3  UNL d   1       1.342  -0.212   2.087  0.00  0.00     0.004 A 
ATOM      3  C4  UNL d   1       2.025   0.103   0.913  0.00  0.00    -0.003 A 
ATOM      4  C5  UNL d   1       2.742  -0.882   0.243  0.00  0.00     0.000 A 
ATOM      5  C6  UNL d   1       2.763  -2.186   0.738  0.00  0.00     0.000 A 
ATOM      6  C7  UNL d   1       2.067  -2.524   1.911  0.00  0.00    -0.073 A 
ATOM      7  C8  UNL d   1       2.128  -3.944   2.403  0.00  0.00     0.078 C 
ENDROOT
BRANCH   1   8
ATOM      8  C1  UNL d   1       0.630  -1.793   3.901  0.00  0.00     0.053 C 
ATOM      9  C   UNL d   1       1.526  -2.412   4.962  0.00  0.00     0.018 C 
ENDBRANCH   1   8
TORSDOF 1
ENDMDL
