MODEL 1
REMARK minimizedAffinity 1.03649151
REMARK minimizedRMSD -1
REMARK  1 active torsions:
REMARK  status: ('A' for Active; 'I' for Inactive)
REMARK    1  A    between atoms: C1_2  and  C2_3 
ROOT
ATOM      1  C2  UNL d   1      -3.945   2.723  -3.274  0.00  0.00    -0.076 A 
ATOM      2  C3  UNL d   1      -4.372   3.479  -2.169  0.00  0.00     0.004 A 
ATOM      3  C4  UNL d   1      -4.574   4.854  -2.276  0.00  0.00    -0.003 A 
ATOM      4  C5  UNL d   1      -4.354   5.495  -3.490  0.00  0.00     0.000 A 
ATOM      5  C6  UNL d   1      -3.948   4.757  -4.602  0.00  0.00     0.000 A 
ATOM      6  C7  UNL d   1      -3.755   3.368  -4.515  0.00  0.00    -0.073 A 
ATOM      7  C8  UNL d   1      -3.311   2.622  -5.744  0.00  0.00     0.078 C 
ENDROOT
BRANCH   1   8
ATOM      8  C1  UNL d   1      -3.716   1.239  -3.091  0.00  0.00     0.053 C 
ATOM      9  C   UNL d   1      -2.624   0.939  -2.076  0.00  0.00     0.018 C 
ENDBRANCH   1   8
TORSDOF 1
ENDMDL
