MODEL 1
REMARK minimizedAffinity 18.2997265
REMARK minimizedRMSD -1
REMARK  1 active torsions:
REMARK  status: ('A' for Active; 'I' for Inactive)
REMARK    1  A    between atoms: C1_2  and  C2_3 
ROOT
ATOM      1  C2  UNL d   1       1.340  -2.145   3.566  0.00  0.00    -0.076 A 
ATOM      2  C3  UNL d   1       1.022  -1.537   4.793  0.00  0.00     0.004 A 
ATOM      3  C4  UNL d   1       1.442  -2.094   6.000  0.00  0.00    -0.003 A 
ATOM      4  C5  UNL d   1       2.188  -3.267   5.999  0.00  0.00     0.000 A 
ATOM      5  C6  UNL d   1       2.528  -3.874   4.790  0.00  0.00     0.000 A 
ATOM      6  C7  UNL d   1       2.126  -3.317   3.564  0.00  0.00    -0.073 A 
ATOM      7  C8  UNL d   1       2.515  -4.017   2.291  0.00  0.00     0.078 C 
ENDROOT
BRANCH   1   8
ATOM      8  C1  UNL d   1       0.833  -1.510   2.291  0.00  0.00     0.053 C 
ATOM      9  C   UNL d   1       1.915  -0.731   1.558  0.00  0.00     0.018 C 
ENDBRANCH   1   8
TORSDOF 1
ENDMDL
