MODEL 1
REMARK minimizedAffinity -2.57783341
REMARK minimizedRMSD -1
REMARK  0 active torsions:
REMARK  status: ('A' for Active; 'I' for Inactive)
ROOT
ATOM      1  C   UNL d   1       1.098  -0.865  -1.084  0.00  0.00     0.023 A 
ATOM      2  C1  UNL d   1      -0.235  -0.461  -1.160  0.00  0.00     0.003 A 
ATOM      3  C2  UNL d   1      -0.858   0.106  -0.047  0.00  0.00     0.048 A 
ATOM      4  C3  UNL d   1      -0.142   0.268   1.139  0.00  0.00     0.023 A 
ATOM      5  C4  UNL d   1       1.192  -0.134   1.219  0.00  0.00     0.048 A 
ATOM      6  C5  UNL d   1       1.810  -0.702   0.104  0.00  0.00     0.003 A 
ATOM      7  I   UNL d   1      -1.068   1.113   2.797  0.00  0.00    -0.146 I 
ENDROOT
TORSDOF 0
ENDMDL
