MODEL 1
REMARK minimizedAffinity -2.41760373
REMARK minimizedRMSD -1
REMARK  0 active torsions:
REMARK  status: ('A' for Active; 'I' for Inactive)
ROOT
ATOM      1  C   UNL d   1      -0.977   0.714   2.450  0.00  0.00     0.023 A 
ATOM      2  C1  UNL d   1       0.381   0.598   2.154  0.00  0.00     0.003 A 
ATOM      3  C2  UNL d   1       0.791   0.304   0.852  0.00  0.00     0.048 A 
ATOM      4  C3  UNL d   1      -0.163   0.129  -0.150  0.00  0.00     0.023 A 
ATOM      5  C4  UNL d   1      -1.523   0.245   0.141  0.00  0.00     0.048 A 
ATOM      6  C5  UNL d   1      -1.928   0.538   1.445  0.00  0.00     0.003 A 
ATOM      7  I   UNL d   1       0.445  -0.309  -2.089  0.00  0.00    -0.146 I 
ENDROOT
TORSDOF 0
ENDMDL
