MODEL 1
REMARK minimizedAffinity 1.44561803
REMARK minimizedRMSD -1
REMARK  0 active torsions:
REMARK  status: ('A' for Active; 'I' for Inactive)
ROOT
ATOM      1  C   UNL d   1      -0.730   0.081   1.065  0.00  0.00     0.023 A 
ATOM      2  C1  UNL d   1      -1.689   0.049   0.053  0.00  0.00     0.003 A 
ATOM      3  C2  UNL d   1      -1.297  -0.116  -1.277  0.00  0.00     0.048 A 
ATOM      4  C3  UNL d   1       0.056  -0.250  -1.587  0.00  0.00     0.023 A 
ATOM      5  C4  UNL d   1       1.019  -0.220  -0.577  0.00  0.00     0.048 A 
ATOM      6  C5  UNL d   1       0.622  -0.053   0.751  0.00  0.00     0.003 A 
ATOM      7  I   UNL d   1       0.643  -0.497  -3.566  0.00  0.00    -0.146 I 
ENDROOT
TORSDOF 0
ENDMDL
