MODEL 1
REMARK minimizedAffinity -3.32680869
REMARK minimizedRMSD -1
REMARK  0 active torsions:
REMARK  status: ('A' for Active; 'I' for Inactive)
ROOT
ATOM      1  C   UNL d   1      -1.442   0.970   2.247  0.00  0.00     0.023 A 
ATOM      2  C1  UNL d   1      -2.180   0.461   1.178  0.00  0.00     0.003 A 
ATOM      3  C2  UNL d   1      -1.525  -0.018   0.041  0.00  0.00     0.048 A 
ATOM      4  C3  UNL d   1      -0.133   0.014  -0.020  0.00  0.00     0.023 A 
ATOM      5  C4  UNL d   1       0.610   0.522   1.048  0.00  0.00     0.048 A 
ATOM      6  C5  UNL d   1      -0.049   1.000   2.182  0.00  0.00     0.003 A 
ATOM      7  I   UNL d   1       0.844  -0.698  -1.711  0.00  0.00    -0.146 I 
ENDROOT
TORSDOF 0
ENDMDL
