MODEL 1
REMARK minimizedAffinity -2.38185692
REMARK minimizedRMSD -1
REMARK  0 active torsions:
REMARK  status: ('A' for Active; 'I' for Inactive)
ROOT
ATOM      1  C   UNL d   1      -1.123   0.351   2.873  0.00  0.00     0.023 A 
ATOM      2  C1  UNL d   1       0.213   0.596   2.552  0.00  0.00     0.003 A 
ATOM      3  C2  UNL d   1       0.632   0.548   1.221  0.00  0.00     0.048 A 
ATOM      4  C3  UNL d   1      -0.289   0.256   0.216  0.00  0.00     0.023 A 
ATOM      5  C4  UNL d   1      -1.626   0.012   0.532  0.00  0.00     0.048 A 
ATOM      6  C5  UNL d   1      -2.041   0.059   1.865  0.00  0.00     0.003 A 
ATOM      7  I   UNL d   1       0.333   0.185  -1.766  0.00  0.00    -0.146 I 
ENDROOT
TORSDOF 0
ENDMDL
