MODEL 1
REMARK minimizedAffinity -1.70259953
REMARK minimizedRMSD -1
REMARK  0 active torsions:
REMARK  status: ('A' for Active; 'I' for Inactive)
ROOT
ATOM      1  C   UNL d   1      -1.387   0.836   2.672  0.00  0.00     0.023 A 
ATOM      2  C1  UNL d   1      -2.165   0.408   1.596  0.00  0.00     0.003 A 
ATOM      3  C2  UNL d   1      -1.555   0.018   0.402  0.00  0.00     0.048 A 
ATOM      4  C3  UNL d   1      -0.165   0.059   0.291  0.00  0.00     0.023 A 
ATOM      5  C4  UNL d   1       0.617   0.486   1.365  0.00  0.00     0.048 A 
ATOM      6  C5  UNL d   1       0.002   0.875   2.557  0.00  0.00     0.003 A 
ATOM      7  I   UNL d   1       0.746  -0.520  -1.485  0.00  0.00    -0.146 I 
ENDROOT
TORSDOF 0
ENDMDL
