MODEL 1
REMARK minimizedAffinity -3.13859367
REMARK minimizedRMSD -1
REMARK  0 active torsions:
REMARK  status: ('A' for Active; 'I' for Inactive)
ROOT
ATOM      1  C   UNL d   1      -1.322   1.107   2.587  0.00  0.00     0.023 A 
ATOM      2  C1  UNL d   1      -0.054   1.488   2.146  0.00  0.00     0.003 A 
ATOM      3  C2  UNL d   1       0.425   1.032   0.916  0.00  0.00     0.048 A 
ATOM      4  C3  UNL d   1      -0.369   0.197   0.132  0.00  0.00     0.023 A 
ATOM      5  C4  UNL d   1      -1.639  -0.186   0.569  0.00  0.00     0.048 A 
ATOM      6  C5  UNL d   1      -2.113   0.271   1.799  0.00  0.00     0.003 A 
ATOM      7  I   UNL d   1       0.341  -0.483  -1.699  0.00  0.00    -0.146 I 
ENDROOT
TORSDOF 0
ENDMDL
