MODEL 1
REMARK minimizedAffinity -3.70890522
REMARK minimizedRMSD -1
REMARK  0 active torsions:
REMARK  status: ('A' for Active; 'I' for Inactive)
ROOT
ATOM      1  C   UNL d   1      -1.197   1.344   2.512  0.00  0.00     0.023 A 
ATOM      2  C1  UNL d   1       0.165   1.450   2.232  0.00  0.00     0.003 A 
ATOM      3  C2  UNL d   1       0.682   0.908   1.053  0.00  0.00     0.048 A 
ATOM      4  C3  UNL d   1      -0.170   0.261   0.158  0.00  0.00     0.023 A 
ATOM      5  C4  UNL d   1      -1.534   0.153   0.434  0.00  0.00     0.048 A 
ATOM      6  C5  UNL d   1      -2.046   0.696   1.614  0.00  0.00     0.003 A 
ATOM      7  I   UNL d   1       0.596  -0.546  -1.597  0.00  0.00    -0.146 I 
ENDROOT
TORSDOF 0
ENDMDL
