MODEL 1
REMARK minimizedAffinity 7.70511293
REMARK minimizedRMSD -1
REMARK  0 active torsions:
REMARK  status: ('A' for Active; 'I' for Inactive)
ROOT
ATOM      1  C   UNL d   1       2.070   0.082  -1.880  0.00  0.00     0.077 C 
ATOM      2  C1  UNL d   1       2.040  -0.921  -0.766  0.00  0.00    -0.074 A 
ATOM      3  C2  UNL d   1       1.123  -0.802   0.284  0.00  0.00    -0.005 A 
ATOM      4  C3  UNL d   1       1.101  -1.749   1.309  0.00  0.00     0.006 A 
ATOM      5  C4  UNL d   1       1.993  -2.821   1.294  0.00  0.00    -0.005 A 
ATOM      6  C5  UNL d   1       2.916  -2.957   0.252  0.00  0.00    -0.074 A 
ATOM      7  C6  UNL d   1       3.876  -4.109   0.216  0.00  0.00     0.077 C 
ATOM      8  C7  UNL d   1       2.928  -2.006  -0.778  0.00  0.00    -0.001 A 
ENDROOT
TORSDOF 0
ENDMDL
