MODEL 1
REMARK minimizedAffinity 4.73540163
REMARK minimizedRMSD -1
REMARK  0 active torsions:
REMARK  status: ('A' for Active; 'I' for Inactive)
ROOT
ATOM      1  C   UNL d   1       0.627  -1.448   2.291  0.00  0.00     0.077 C 
ATOM      2  C1  UNL d   1       1.875  -2.279   2.247  0.00  0.00    -0.074 A 
ATOM      3  C2  UNL d   1       2.247  -2.955   1.080  0.00  0.00    -0.005 A 
ATOM      4  C3  UNL d   1       3.415  -3.717   1.051  0.00  0.00     0.006 A 
ATOM      5  C4  UNL d   1       4.221  -3.811   2.186  0.00  0.00    -0.005 A 
ATOM      6  C5  UNL d   1       3.865  -3.142   3.361  0.00  0.00    -0.074 A 
ATOM      7  C6  UNL d   1       4.725  -3.224   4.587  0.00  0.00     0.077 C 
ATOM      8  C7  UNL d   1       2.694  -2.373   3.381  0.00  0.00    -0.001 A 
ENDROOT
TORSDOF 0
ENDMDL
