MODEL 1
REMARK minimizedAffinity -1.00918901
REMARK minimizedRMSD -1
REMARK  0 active torsions:
REMARK  status: ('A' for Active; 'I' for Inactive)
ROOT
ATOM      1  C   UNL d   1       4.470  -3.344   4.619  0.00  0.00     0.077 C 
ATOM      2  C1  UNL d   1       3.785  -3.412   3.286  0.00  0.00    -0.074 A 
ATOM      3  C2  UNL d   1       4.202  -4.322   2.309  0.00  0.00    -0.005 A 
ATOM      4  C3  UNL d   1       3.549  -4.380   1.078  0.00  0.00     0.006 A 
ATOM      5  C4  UNL d   1       2.474  -3.531   0.812  0.00  0.00    -0.005 A 
ATOM      6  C5  UNL d   1       2.042  -2.616   1.777  0.00  0.00    -0.074 A 
ATOM      7  C6  UNL d   1       0.882  -1.704   1.511  0.00  0.00     0.077 C 
ATOM      8  C7  UNL d   1       2.699  -2.569   3.015  0.00  0.00    -0.001 A 
ENDROOT
TORSDOF 0
ENDMDL
