MODEL 1
REMARK minimizedAffinity 7.9704771
REMARK minimizedRMSD -1
REMARK  0 active torsions:
REMARK  status: ('A' for Active; 'I' for Inactive)
ROOT
ATOM      1  C   UNL d   1      -2.315   3.055  -2.983  0.00  0.00     0.077 C 
ATOM      2  C1  UNL d   1      -3.526   3.009  -3.867  0.00  0.00    -0.074 A 
ATOM      3  C2  UNL d   1      -4.206   4.181  -4.216  0.00  0.00    -0.005 A 
ATOM      4  C3  UNL d   1      -5.325   4.124  -5.047  0.00  0.00     0.006 A 
ATOM      5  C4  UNL d   1      -5.775   2.897  -5.536  0.00  0.00    -0.005 A 
ATOM      6  C5  UNL d   1      -5.107   1.715  -5.199  0.00  0.00    -0.074 A 
ATOM      7  C6  UNL d   1      -5.571   0.389  -5.725  0.00  0.00     0.077 C 
ATOM      8  C7  UNL d   1      -3.979   1.781  -4.369  0.00  0.00    -0.001 A 
ENDROOT
TORSDOF 0
ENDMDL
