MODEL 1
REMARK minimizedAffinity -1.4260658
REMARK minimizedRMSD -1
REMARK  0 active torsions:
REMARK  status: ('A' for Active; 'I' for Inactive)
ROOT
ATOM      1  C   UNL d   1       0.530  -2.047   2.389  0.00  0.00     0.077 C 
ATOM      2  C1  UNL d   1       1.597  -2.215   1.348  0.00  0.00    -0.074 A 
ATOM      3  C2  UNL d   1       2.323  -3.406   1.249  0.00  0.00    -0.005 A 
ATOM      4  C3  UNL d   1       3.306  -3.551   0.270  0.00  0.00     0.006 A 
ATOM      5  C4  UNL d   1       3.572  -2.508  -0.619  0.00  0.00    -0.005 A 
ATOM      6  C5  UNL d   1       2.855  -1.310  -0.535  0.00  0.00    -0.074 A 
ATOM      7  C6  UNL d   1       3.122  -0.183  -1.488  0.00  0.00     0.077 C 
ATOM      8  C7  UNL d   1       1.864  -1.174   0.447  0.00  0.00    -0.001 A 
ENDROOT
TORSDOF 0
ENDMDL
