MODEL 1
REMARK minimizedAffinity 13.8906412
REMARK minimizedRMSD -1
REMARK  0 active torsions:
REMARK  status: ('A' for Active; 'I' for Inactive)
ROOT
ATOM      1  C   UNL d   1      -0.060  -0.668   3.340  0.00  0.00     0.077 C 
ATOM      2  C1  UNL d   1       0.851  -1.015   2.201  0.00  0.00    -0.074 A 
ATOM      3  C2  UNL d   1       1.233  -2.339   1.964  0.00  0.00    -0.005 A 
ATOM      4  C3  UNL d   1       2.073  -2.648   0.894  0.00  0.00     0.006 A 
ATOM      5  C4  UNL d   1       2.539  -1.637   0.052  0.00  0.00    -0.005 A 
ATOM      6  C5  UNL d   1       2.166  -0.308   0.272  0.00  0.00    -0.074 A 
ATOM      7  C6  UNL d   1       2.649   0.789  -0.629  0.00  0.00     0.077 C 
ATOM      8  C7  UNL d   1       1.316  -0.006   1.345  0.00  0.00    -0.001 A 
ENDROOT
TORSDOF 0
ENDMDL
