MODEL 1
REMARK minimizedAffinity 3.56486368
REMARK minimizedRMSD -1
REMARK  0 active torsions:
REMARK  status: ('A' for Active; 'I' for Inactive)
ROOT
ATOM      1  C   UNL d   1       5.220  -3.196   4.758  0.00  0.00     0.077 C 
ATOM      2  C1  UNL d   1       4.793  -3.346   3.328  0.00  0.00    -0.074 A 
ATOM      3  C2  UNL d   1       5.571  -4.069   2.418  0.00  0.00    -0.005 A 
ATOM      4  C3  UNL d   1       5.157  -4.208   1.094  0.00  0.00     0.006 A 
ATOM      5  C4  UNL d   1       3.963  -3.627   0.666  0.00  0.00    -0.005 A 
ATOM      6  C5  UNL d   1       3.171  -2.901   1.562  0.00  0.00    -0.074 A 
ATOM      7  C6  UNL d   1       1.880  -2.279   1.121  0.00  0.00     0.077 C 
ATOM      8  C7  UNL d   1       3.591  -2.772   2.893  0.00  0.00    -0.001 A 
ENDROOT
TORSDOF 0
ENDMDL
