MODEL 1
REMARK minimizedAffinity 4.65662527
REMARK minimizedRMSD -1
REMARK  0 active torsions:
REMARK  status: ('A' for Active; 'I' for Inactive)
ROOT
ATOM      1  C   UNL d   1       3.998  -3.286  -0.104  0.00  0.00     0.077 C 
ATOM      2  C1  UNL d   1       3.826  -1.835  -0.444  0.00  0.00    -0.074 A 
ATOM      3  C2  UNL d   1       4.877  -0.928  -0.277  0.00  0.00    -0.005 A 
ATOM      4  C3  UNL d   1       4.705   0.416  -0.608  0.00  0.00     0.006 A 
ATOM      5  C4  UNL d   1       3.483   0.866  -1.107  0.00  0.00    -0.005 A 
ATOM      6  C5  UNL d   1       2.421  -0.027  -1.282  0.00  0.00    -0.074 A 
ATOM      7  C6  UNL d   1       1.103   0.438  -1.828  0.00  0.00     0.077 C 
ATOM      8  C7  UNL d   1       2.603  -1.377  -0.955  0.00  0.00    -0.001 A 
ENDROOT
TORSDOF 0
ENDMDL
