MODEL 1
REMARK minimizedAffinity -0.118109465
REMARK minimizedRMSD -1
REMARK  0 active torsions:
REMARK  status: ('A' for Active; 'I' for Inactive)
ROOT
ATOM      1  C   UNL d   1      -1.164  -3.678   4.023  0.00  0.00     0.077 C 
ATOM      2  C1  UNL d   1      -0.290  -2.911   3.075  0.00  0.00    -0.074 A 
ATOM      3  C2  UNL d   1       0.924  -3.442   2.628  0.00  0.00    -0.005 A 
ATOM      4  C3  UNL d   1       1.722  -2.721   1.739  0.00  0.00     0.006 A 
ATOM      5  C4  UNL d   1       1.314  -1.465   1.289  0.00  0.00    -0.005 A 
ATOM      6  C5  UNL d   1       0.102  -0.919   1.724  0.00  0.00    -0.074 A 
ATOM      7  C6  UNL d   1      -0.355   0.426   1.243  0.00  0.00     0.077 C 
ATOM      8  C7  UNL d   1      -0.697  -1.652   2.612  0.00  0.00    -0.001 A 
ENDROOT
TORSDOF 0
ENDMDL
