MODEL 1
REMARK minimizedAffinity -1.79474151
REMARK minimizedRMSD -1
REMARK  0 active torsions:
REMARK  status: ('A' for Active; 'I' for Inactive)
ROOT
ATOM      1  C   UNL d   1      -0.684  -0.699   2.580  0.00  0.00     0.077 C 
ATOM      2  C1  UNL d   1       0.418  -1.154   1.670  0.00  0.00    -0.074 A 
ATOM      3  C2  UNL d   1       0.809  -0.381   0.572  0.00  0.00    -0.005 A 
ATOM      4  C3  UNL d   1       1.843  -0.813  -0.259  0.00  0.00     0.006 A 
ATOM      5  C4  UNL d   1       2.494  -2.019  -0.002  0.00  0.00    -0.005 A 
ATOM      6  C5  UNL d   1       2.118  -2.805   1.092  0.00  0.00    -0.074 A 
ATOM      7  C6  UNL d   1       2.814  -4.100   1.389  0.00  0.00     0.077 C 
ATOM      8  C7  UNL d   1       1.083  -2.361   1.927  0.00  0.00    -0.001 A 
ENDROOT
TORSDOF 0
ENDMDL
