MODEL 1
REMARK minimizedAffinity 7.0473094
REMARK minimizedRMSD -1
REMARK  0 active torsions:
REMARK  status: ('A' for Active; 'I' for Inactive)
ROOT
ATOM      1  C   UNL d   1       0.660  -2.189   2.805  0.00  0.00     0.077 C 
ATOM      2  C1  UNL d   1      -0.179  -1.162   2.103  0.00  0.00    -0.074 A 
ATOM      3  C2  UNL d   1       0.177  -0.688   0.837  0.00  0.00    -0.005 A 
ATOM      4  C3  UNL d   1      -0.618   0.260   0.192  0.00  0.00     0.006 A 
ATOM      5  C4  UNL d   1      -1.774   0.742   0.806  0.00  0.00    -0.005 A 
ATOM      6  C5  UNL d   1      -2.147   0.278   2.072  0.00  0.00    -0.074 A 
ATOM      7  C6  UNL d   1      -3.392   0.778   2.742  0.00  0.00     0.077 C 
ATOM      8  C7  UNL d   1      -1.346  -0.680   2.710  0.00  0.00    -0.001 A 
ENDROOT
TORSDOF 0
ENDMDL
