MODEL 1
REMARK minimizedAffinity 1.39192128
REMARK minimizedRMSD -1
REMARK  0 active torsions:
REMARK  status: ('A' for Active; 'I' for Inactive)
ROOT
ATOM      1  C1  BNZ d   1      -1.029   2.544   2.882  0.00  0.00     0.000 A 
ATOM      2  C2  BNZ d   1      -0.301   1.602   3.558  0.00  0.00     0.000 A 
ATOM      3  C3  BNZ d   1       0.526   0.743   2.889  0.00  0.00     0.000 A 
ATOM      4  C4  BNZ d   1       0.592   0.800   1.543  0.00  0.00     0.000 A 
ATOM      5  C5  BNZ d   1      -0.143   1.738   0.846  0.00  0.00     0.000 A 
ATOM      6  C6  BNZ d   1      -0.944   2.627   1.526  0.00  0.00     0.000 A 
ENDROOT
TORSDOF 0
ENDMDL
