MODEL 1
REMARK minimizedAffinity 3.90372396
REMARK minimizedRMSD -1
REMARK  0 active torsions:
REMARK  status: ('A' for Active; 'I' for Inactive)
ROOT
ATOM      1  C1  BNZ d   1      -0.180   3.262   3.310  0.00  0.00     0.000 A 
ATOM      2  C2  BNZ d   1       0.377   2.140   3.864  0.00  0.00     0.000 A 
ATOM      3  C3  BNZ d   1       0.150   0.906   3.323  0.00  0.00     0.000 A 
ATOM      4  C4  BNZ d   1      -0.665   0.790   2.255  0.00  0.00     0.000 A 
ATOM      5  C5  BNZ d   1      -1.242   1.910   1.691  0.00  0.00     0.000 A 
ATOM      6  C6  BNZ d   1      -0.979   3.155   2.214  0.00  0.00     0.000 A 
ENDROOT
TORSDOF 0
ENDMDL
