MODEL 1
REMARK minimizedAffinity -0.736616611
REMARK minimizedRMSD -1
REMARK  0 active torsions:
REMARK  status: ('A' for Active; 'I' for Inactive)
ROOT
ATOM      1  C1  BNZ d   1      -0.548   1.368   1.607  0.00  0.00     0.000 A 
ATOM      2  C2  BNZ d   1      -0.084   1.372   0.319  0.00  0.00     0.000 A 
ATOM      3  C3  BNZ d   1       1.253   1.484   0.056  0.00  0.00     0.000 A 
ATOM      4  C4  BNZ d   1       2.119   1.633   1.080  0.00  0.00     0.000 A 
ATOM      5  C5  BNZ d   1       1.665   1.641   2.384  0.00  0.00     0.000 A 
ATOM      6  C6  BNZ d   1       0.323   1.488   2.645  0.00  0.00     0.000 A 
ENDROOT
TORSDOF 0
ENDMDL
