MODEL 1
REMARK minimizedAffinity 0.118570566
REMARK minimizedRMSD -1
REMARK  0 active torsions:
REMARK  status: ('A' for Active; 'I' for Inactive)
ROOT
ATOM      1  C1  BNZ d   1       3.264   1.917   0.587  0.00  0.00     0.000 A 
ATOM      2  C2  BNZ d   1       2.566   0.757   0.383  0.00  0.00     0.000 A 
ATOM      3  C3  BNZ d   1       3.105  -0.265  -0.348  0.00  0.00     0.000 A 
ATOM      4  C4  BNZ d   1       4.322  -0.110  -0.907  0.00  0.00     0.000 A 
ATOM      5  C5  BNZ d   1       5.035   1.057  -0.718  0.00  0.00     0.000 A 
ATOM      6  C6  BNZ d   1       4.505   2.069   0.050  0.00  0.00     0.000 A 
ENDROOT
TORSDOF 0
ENDMDL
