MODEL 1
REMARK minimizedAffinity 6.3120079
REMARK minimizedRMSD -1
REMARK  0 active torsions:
REMARK  status: ('A' for Active; 'I' for Inactive)
ROOT
ATOM      1  C1  BNZ d   1       2.839   0.594  -0.267  0.00  0.00     0.000 A 
ATOM      2  C2  BNZ d   1       2.661   1.789   0.378  0.00  0.00     0.000 A 
ATOM      3  C3  BNZ d   1       3.715   2.631   0.596  0.00  0.00     0.000 A 
ATOM      4  C4  BNZ d   1       4.951   2.261   0.205  0.00  0.00     0.000 A 
ATOM      5  C5  BNZ d   1       5.149   1.055  -0.438  0.00  0.00     0.000 A 
ATOM      6  C6  BNZ d   1       4.080   0.227  -0.690  0.00  0.00     0.000 A 
ENDROOT
TORSDOF 0
ENDMDL
