MODEL 1
REMARK minimizedAffinity 2.03599405
REMARK minimizedRMSD -1
REMARK  0 active torsions:
REMARK  status: ('A' for Active; 'I' for Inactive)
ROOT
ATOM      1  C1  BNZ d   1       3.448  -0.547  -0.267  0.00  0.00     0.000 A 
ATOM      2  C2  BNZ d   1       3.107  -1.873  -0.298  0.00  0.00     0.000 A 
ATOM      3  C3  BNZ d   1       1.879  -2.269  -0.749  0.00  0.00     0.000 A 
ATOM      4  C4  BNZ d   1       0.980  -1.338  -1.130  0.00  0.00     0.000 A 
ATOM      5  C5  BNZ d   1       1.306   0.003  -1.096  0.00  0.00     0.000 A 
ATOM      6  C6  BNZ d   1       2.557   0.396  -0.678  0.00  0.00     0.000 A 
ENDROOT
TORSDOF 0
ENDMDL
