MODEL 1
REMARK minimizedAffinity 5.5310564
REMARK minimizedRMSD -1
REMARK  0 active torsions:
REMARK  status: ('A' for Active; 'I' for Inactive)
ROOT
ATOM      1  C1  BNZ d   1       3.298   0.700  -1.003  0.00  0.00     0.000 A 
ATOM      2  C2  BNZ d   1       4.332   1.596  -0.946  0.00  0.00     0.000 A 
ATOM      3  C3  BNZ d   1       5.513   1.266  -0.342  0.00  0.00     0.000 A 
ATOM      4  C4  BNZ d   1       5.645   0.056   0.239  0.00  0.00     0.000 A 
ATOM      5  C5  BNZ d   1       4.609  -0.855   0.198  0.00  0.00     0.000 A 
ATOM      6  C6  BNZ d   1       3.435  -0.534  -0.445  0.00  0.00     0.000 A 
ENDROOT
TORSDOF 0
ENDMDL
