MODEL 1
REMARK minimizedAffinity 3.36179399
REMARK minimizedRMSD -1
REMARK  0 active torsions:
REMARK  status: ('A' for Active; 'I' for Inactive)
ROOT
ATOM      1  C1  BNZ d   1       2.746  -2.291  -1.667  0.00  0.00     0.000 A 
ATOM      2  C2  BNZ d   1       3.513  -1.260  -2.140  0.00  0.00     0.000 A 
ATOM      3  C3  BNZ d   1       3.592  -0.077  -1.461  0.00  0.00     0.000 A 
ATOM      4  C4  BNZ d   1       2.874   0.088  -0.331  0.00  0.00     0.000 A 
ATOM      5  C5  BNZ d   1       2.088  -0.938   0.154  0.00  0.00     0.000 A 
ATOM      6  C6  BNZ d   1       2.042  -2.142  -0.512  0.00  0.00     0.000 A 
ENDROOT
TORSDOF 0
ENDMDL
