MODEL 1
REMARK minimizedAffinity 5.63416004
REMARK minimizedRMSD -1
REMARK  0 active torsions:
REMARK  status: ('A' for Active; 'I' for Inactive)
ROOT
ATOM      1  C2' OXE d   1      -5.338   4.871  -2.302  0.00  0.00     0.078 C 
ATOM      2  C1' OXE d   1      -4.472   3.918  -4.796  0.00  0.00     0.078 C 
ATOM      3  C1  OXE d   1      -4.051   3.153  -3.566  0.00  0.00    -0.078 A 
ATOM      4  C2  OXE d   1      -4.441   3.653  -2.347  0.00  0.00    -0.078 A 
ATOM      5  C3  OXE d   1      -4.126   2.956  -1.184  0.00  0.00     0.003 A 
ATOM      6  C4  OXE d   1      -3.287   1.836  -1.234  0.00  0.00    -0.002 A 
ATOM      7  C5  OXE d   1      -2.847   1.333  -2.462  0.00  0.00    -0.002 A 
ATOM      8  C6  OXE d   1      -3.254   1.954  -3.638  0.00  0.00     0.003 A 
ENDROOT
TORSDOF 0
ENDMDL
