MODEL 1
REMARK minimizedAffinity 4.7227087
REMARK minimizedRMSD -1
REMARK  0 active torsions:
REMARK  status: ('A' for Active; 'I' for Inactive)
ROOT
ATOM      1  C2' OXE d   1       2.090  -1.355   4.035  0.00  0.00     0.078 C 
ATOM      2  C1' OXE d   1       3.026  -3.735   2.877  0.00  0.00     0.078 C 
ATOM      3  C1  OXE d   1       2.166  -2.831   2.030  0.00  0.00    -0.078 A 
ATOM      4  C2  OXE d   1       1.674  -1.691   2.619  0.00  0.00    -0.078 A 
ATOM      5  C3  OXE d   1       0.921  -0.795   1.866  0.00  0.00     0.003 A 
ATOM      6  C4  OXE d   1       0.532  -1.118   0.560  0.00  0.00    -0.002 A 
ATOM      7  C5  OXE d   1       0.990  -2.293  -0.046  0.00  0.00    -0.002 A 
ATOM      8  C6  OXE d   1       1.840  -3.137   0.659  0.00  0.00     0.003 A 
ENDROOT
TORSDOF 0
ENDMDL
