MODEL 1
REMARK minimizedAffinity 9.06124973
REMARK minimizedRMSD -1
REMARK  0 active torsions:
REMARK  status: ('A' for Active; 'I' for Inactive)
ROOT
ATOM      1  C2' OXE d   1      -1.730   0.037   1.524  0.00  0.00     0.078 C 
ATOM      2  C1' OXE d   1       0.839  -0.843   2.238  0.00  0.00     0.078 C 
ATOM      3  C1  OXE d   1       0.322  -1.216   0.871  0.00  0.00    -0.078 A 
ATOM      4  C2  OXE d   1      -0.954  -0.821   0.548  0.00  0.00    -0.078 A 
ATOM      5  C3  OXE d   1      -1.459  -1.091  -0.721  0.00  0.00     0.003 A 
ATOM      6  C4  OXE d   1      -0.739  -1.894  -1.614  0.00  0.00    -0.002 A 
ATOM      7  C5  OXE d   1       0.547  -2.340  -1.290  0.00  0.00    -0.002 A 
ATOM      8  C6  OXE d   1       1.107  -1.975  -0.071  0.00  0.00     0.003 A 
ENDROOT
TORSDOF 0
ENDMDL
