MODEL 1
REMARK minimizedAffinity 10.110652
REMARK minimizedRMSD -1
REMARK  0 active torsions:
REMARK  status: ('A' for Active; 'I' for Inactive)
ROOT
ATOM      1  C2' OXE d   1       0.700  -1.593  -0.807  0.00  0.00     0.078 C 
ATOM      2  C1' OXE d   1      -1.083  -0.830   1.223  0.00  0.00     0.078 C 
ATOM      3  C1  OXE d   1       0.392  -0.804   1.536  0.00  0.00    -0.078 A 
ATOM      4  C2  OXE d   1       1.255  -1.224   0.552  0.00  0.00    -0.078 A 
ATOM      5  C3  OXE d   1       2.629  -1.168   0.770  0.00  0.00     0.003 A 
ATOM      6  C4  OXE d   1       3.133  -0.835   2.032  0.00  0.00    -0.002 A 
ATOM      7  C5  OXE d   1       2.270  -0.442   3.061  0.00  0.00    -0.002 A 
ATOM      8  C6  OXE d   1       0.903  -0.380   2.817  0.00  0.00     0.003 A 
ENDROOT
TORSDOF 0
ENDMDL
