MODEL 1
REMARK minimizedAffinity 7.93741512
REMARK minimizedRMSD -1
REMARK  0 active torsions:
REMARK  status: ('A' for Active; 'I' for Inactive)
ROOT
ATOM      1  C2' OXE d   1       4.557   0.189   0.910  0.00  0.00     0.078 C 
ATOM      2  C1' OXE d   1       5.523  -1.662   2.786  0.00  0.00     0.078 C 
ATOM      3  C1  OXE d   1       4.040  -1.391   2.766  0.00  0.00    -0.078 A 
ATOM      4  C2  OXE d   1       3.582  -0.449   1.877  0.00  0.00    -0.078 A 
ATOM      5  C3  OXE d   1       2.216  -0.200   1.779  0.00  0.00     0.003 A 
ATOM      6  C4  OXE d   1       1.322  -0.786   2.683  0.00  0.00    -0.002 A 
ATOM      7  C5  OXE d   1       1.773  -1.719   3.623  0.00  0.00    -0.002 A 
ATOM      8  C6  OXE d   1       3.120  -2.063   3.650  0.00  0.00     0.003 A 
ENDROOT
TORSDOF 0
ENDMDL
