MODEL 1
REMARK minimizedAffinity 12.7344751
REMARK minimizedRMSD -1
REMARK  0 active torsions:
REMARK  status: ('A' for Active; 'I' for Inactive)
ROOT
ATOM      1  C2' OXE d   1       3.364   0.500   1.850  0.00  0.00     0.078 C 
ATOM      2  C1' OXE d   1       0.786  -0.564   1.526  0.00  0.00     0.078 C 
ATOM      3  C1  OXE d   1       1.767  -1.340   2.370  0.00  0.00    -0.078 A 
ATOM      4  C2  OXE d   1       3.040  -0.835   2.485  0.00  0.00    -0.078 A 
ATOM      5  C3  OXE d   1       3.968  -1.482   3.296  0.00  0.00     0.003 A 
ATOM      6  C4  OXE d   1       3.663  -2.722   3.871  0.00  0.00    -0.002 A 
ATOM      7  C5  OXE d   1       2.385  -3.273   3.734  0.00  0.00    -0.002 A 
ATOM      8  C6  OXE d   1       1.414  -2.576   3.024  0.00  0.00     0.003 A 
ENDROOT
TORSDOF 0
ENDMDL
