MODEL 1
REMARK minimizedAffinity 9.37374973
REMARK minimizedRMSD -1
REMARK  0 active torsions:
REMARK  status: ('A' for Active; 'I' for Inactive)
ROOT
ATOM      1  C2' OXE d   1       5.117  -2.633   4.843  0.00  0.00     0.078 C 
ATOM      2  C1' OXE d   1       2.717  -4.077   5.032  0.00  0.00     0.078 C 
ATOM      3  C1  OXE d   1       2.686  -2.751   4.313  0.00  0.00    -0.078 A 
ATOM      4  C2  OXE d   1       3.854  -2.030   4.266  0.00  0.00    -0.078 A 
ATOM      5  C3  OXE d   1       3.893  -0.826   3.568  0.00  0.00     0.003 A 
ATOM      6  C4  OXE d   1       2.719  -0.271   3.046  0.00  0.00    -0.002 A 
ATOM      7  C5  OXE d   1       1.510  -0.971   3.118  0.00  0.00    -0.002 A 
ATOM      8  C6  OXE d   1       1.485  -2.229   3.709  0.00  0.00     0.003 A 
ENDROOT
TORSDOF 0
ENDMDL
