MODEL 1
REMARK minimizedAffinity 8.59839821
REMARK minimizedRMSD -1
REMARK  0 active torsions:
REMARK  status: ('A' for Active; 'I' for Inactive)
ROOT
ATOM      1  C2' OXE d   1      -5.961  -0.431  -5.754  0.00  0.00     0.078 C 
ATOM      2  C1' OXE d   1      -5.851   2.364  -5.986  0.00  0.00     0.078 C 
ATOM      3  C1  OXE d   1      -5.884   1.774  -4.598  0.00  0.00    -0.078 A 
ATOM      4  C2  OXE d   1      -5.985   0.408  -4.495  0.00  0.00    -0.078 A 
ATOM      5  C3  OXE d   1      -5.965  -0.192  -3.238  0.00  0.00     0.003 A 
ATOM      6  C4  OXE d   1      -5.997   0.592  -2.078  0.00  0.00    -0.002 A 
ATOM      7  C5  OXE d   1      -5.935   1.987  -2.162  0.00  0.00    -0.002 A 
ATOM      8  C6  OXE d   1      -5.835   2.591  -3.411  0.00  0.00     0.003 A 
ENDROOT
TORSDOF 0
ENDMDL
