MODEL 1
REMARK minimizedAffinity 10.378356
REMARK minimizedRMSD -1
REMARK  0 active torsions:
REMARK  status: ('A' for Active; 'I' for Inactive)
ROOT
ATOM      1  C2' OXE d   1       1.888  -3.516   5.320  0.00  0.00     0.078 C 
ATOM      2  C1' OXE d   1       2.657  -4.304   2.738  0.00  0.00     0.078 C 
ATOM      3  C1  OXE d   1       2.416  -2.836   2.983  0.00  0.00    -0.078 A 
ATOM      4  C2  OXE d   1       1.994  -2.465   4.237  0.00  0.00    -0.078 A 
ATOM      5  C3  OXE d   1       1.810  -1.117   4.532  0.00  0.00     0.003 A 
ATOM      6  C4  OXE d   1       1.900  -0.152   3.522  0.00  0.00    -0.002 A 
ATOM      7  C5  OXE d   1       2.290  -0.513   2.227  0.00  0.00    -0.002 A 
ATOM      8  C6  OXE d   1       2.592  -1.842   1.953  0.00  0.00     0.003 A 
ENDROOT
TORSDOF 0
ENDMDL
