MODEL 1
REMARK minimizedAffinity 1.47500551
REMARK minimizedRMSD -1
REMARK  0 active torsions:
REMARK  status: ('A' for Active; 'I' for Inactive)
ROOT
ATOM      1  C2' OXE d   1      -5.280  -2.755  -2.969  0.00  0.00     0.078 C 
ATOM      2  C1' OXE d   1      -2.773  -1.936  -2.009  0.00  0.00     0.078 C 
ATOM      3  C1  OXE d   1      -3.398  -1.131  -3.120  0.00  0.00    -0.078 A 
ATOM      4  C2  OXE d   1      -4.603  -1.566  -3.616  0.00  0.00    -0.078 A 
ATOM      5  C3  OXE d   1      -5.249  -0.828  -4.603  0.00  0.00     0.003 A 
ATOM      6  C4  OXE d   1      -4.612   0.265  -5.203  0.00  0.00    -0.002 A 
ATOM      7  C5  OXE d   1      -3.366   0.701  -4.741  0.00  0.00    -0.002 A 
ATOM      8  C6  OXE d   1      -2.766   0.041  -3.674  0.00  0.00     0.003 A 
ENDROOT
TORSDOF 0
ENDMDL
