MODEL 1
REMARK minimizedAffinity 6.85207939
REMARK minimizedRMSD -1
REMARK  0 active torsions:
REMARK  status: ('A' for Active; 'I' for Inactive)
ROOT
ATOM      1  C2' OXE d   1       0.819  -1.815   1.968  0.00  0.00     0.078 C 
ATOM      2  C1' OXE d   1       0.701  -0.079   4.170  0.00  0.00     0.078 C 
ATOM      3  C1  OXE d   1      -0.519  -0.181   3.289  0.00  0.00    -0.078 A 
ATOM      4  C2  OXE d   1      -0.436  -0.997   2.187  0.00  0.00    -0.078 A 
ATOM      5  C3  OXE d   1      -1.550  -1.170   1.371  0.00  0.00     0.003 A 
ATOM      6  C4  OXE d   1      -2.703  -0.403   1.575  0.00  0.00    -0.002 A 
ATOM      7  C5  OXE d   1      -2.795   0.464   2.668  0.00  0.00    -0.002 A 
ATOM      8  C6  OXE d   1      -1.730   0.555   3.557  0.00  0.00     0.003 A 
ENDROOT
TORSDOF 0
ENDMDL
