MODEL 1
REMARK minimizedAffinity 4.30629921
REMARK minimizedRMSD -1
REMARK  0 active torsions:
REMARK  status: ('A' for Active; 'I' for Inactive)
ROOT
ATOM      1  C2' OXE d   1      -5.099   1.339  -5.261  0.00  0.00     0.078 C 
ATOM      2  C1' OXE d   1      -3.158   1.975  -3.335  0.00  0.00     0.078 C 
ATOM      3  C1  OXE d   1      -3.671   0.557  -3.376  0.00  0.00    -0.078 A 
ATOM      4  C2  OXE d   1      -4.654   0.266  -4.291  0.00  0.00    -0.078 A 
ATOM      5  C3  OXE d   1      -5.123  -1.039  -4.408  0.00  0.00     0.003 A 
ATOM      6  C4  OXE d   1      -4.713  -2.023  -3.501  0.00  0.00    -0.002 A 
ATOM      7  C5  OXE d   1      -3.742  -1.739  -2.535  0.00  0.00    -0.002 A 
ATOM      8  C6  OXE d   1      -3.181  -0.468  -2.487  0.00  0.00     0.003 A 
ENDROOT
TORSDOF 0
ENDMDL
