MODEL 1
REMARK minimizedAffinity 1.68750429
REMARK minimizedRMSD -1
REMARK  0 active torsions:
REMARK  status: ('A' for Active; 'I' for Inactive)
ROOT
ATOM      1  C2' OXE d   1       1.537   2.872  -3.251  0.00  0.00     0.078 C 
ATOM      2  C1' OXE d   1       2.503   2.878  -0.615  0.00  0.00     0.078 C 
ATOM      3  C1  OXE d   1       2.254   1.543  -1.270  0.00  0.00    -0.078 A 
ATOM      4  C2  OXE d   1       1.737   1.549  -2.543  0.00  0.00    -0.078 A 
ATOM      5  C3  OXE d   1       1.539   0.346  -3.213  0.00  0.00     0.003 A 
ATOM      6  C4  OXE d   1       1.717  -0.874  -2.548  0.00  0.00    -0.002 A 
ATOM      7  C5  OXE d   1       2.205  -0.903  -1.237  0.00  0.00    -0.002 A 
ATOM      8  C6  OXE d   1       2.518   0.293  -0.600  0.00  0.00     0.003 A 
ENDROOT
TORSDOF 0
ENDMDL
