MODEL 1
REMARK minimizedAffinity -3.45257664
REMARK minimizedRMSD -1
REMARK  0 active torsions:
REMARK  status: ('A' for Active; 'I' for Inactive)
ROOT
ATOM      1  C2' OXE d   1       3.247   2.001  -2.476  0.00  0.00     0.078 C 
ATOM      2  C1' OXE d   1       2.970   2.201   0.310  0.00  0.00     0.078 C 
ATOM      3  C1  OXE d   1       2.545   0.912  -0.348  0.00  0.00    -0.078 A 
ATOM      4  C2  OXE d   1       2.640   0.840  -1.717  0.00  0.00    -0.078 A 
ATOM      5  C3  OXE d   1       2.314  -0.345  -2.369  0.00  0.00     0.003 A 
ATOM      6  C4  OXE d   1       1.744  -1.411  -1.660  0.00  0.00    -0.002 A 
ATOM      7  C5  OXE d   1       1.601  -1.343  -0.270  0.00  0.00    -0.002 A 
ATOM      8  C6  OXE d   1       2.035  -0.207   0.405  0.00  0.00     0.003 A 
ENDROOT
TORSDOF 0
ENDMDL
