MODEL 1
REMARK minimizedAffinity 11.9471035
REMARK minimizedRMSD -1
REMARK  0 active torsions:
REMARK  status: ('A' for Active; 'I' for Inactive)
ROOT
ATOM      1  C2' OXE d   1       2.052  -1.056   0.823  0.00  0.00     0.078 C 
ATOM      2  C1' OXE d   1       2.711   1.650   1.170  0.00  0.00     0.078 C 
ATOM      3  C1  OXE d   1       2.515   1.149  -0.239  0.00  0.00    -0.078 A 
ATOM      4  C2  OXE d   1       2.239  -0.187  -0.402  0.00  0.00    -0.078 A 
ATOM      5  C3  OXE d   1       1.994  -0.690  -1.677  0.00  0.00     0.003 A 
ATOM      6  C4  OXE d   1       2.179   0.119  -2.805  0.00  0.00    -0.002 A 
ATOM      7  C5  OXE d   1       2.500   1.473  -2.663  0.00  0.00    -0.002 A 
ATOM      8  C6  OXE d   1       2.629   2.013  -1.388  0.00  0.00     0.003 A 
ENDROOT
TORSDOF 0
ENDMDL
