MODEL 1
REMARK minimizedAffinity 3.66112161
REMARK minimizedRMSD -1
REMARK  0 active torsions:
REMARK  status: ('A' for Active; 'I' for Inactive)
ROOT
ATOM      1  C2' OXE d   1       2.339   1.756  -1.931  0.00  0.00     0.078 C 
ATOM      2  C1' OXE d   1       0.374  -0.243  -1.774  0.00  0.00     0.078 C 
ATOM      3  C1  OXE d   1      -0.047   1.121  -2.262  0.00  0.00    -0.078 A 
ATOM      4  C2  OXE d   1       0.912   2.106  -2.291  0.00  0.00    -0.078 A 
ATOM      5  C3  OXE d   1       0.589   3.367  -2.785  0.00  0.00     0.003 A 
ATOM      6  C4  OXE d   1      -0.736   3.685  -3.106  0.00  0.00    -0.002 A 
ATOM      7  C5  OXE d   1      -1.735   2.708  -3.045  0.00  0.00    -0.002 A 
ATOM      8  C6  OXE d   1      -1.400   1.412  -2.667  0.00  0.00     0.003 A 
ENDROOT
TORSDOF 0
ENDMDL
