MODEL 1
REMARK minimizedAffinity -3.70072436
REMARK minimizedRMSD -1
REMARK  0 active torsions:
REMARK  status: ('A' for Active; 'I' for Inactive)
ROOT
ATOM      1  C1  BNZ d   1       1.620  -0.854   1.884  0.00  0.00     0.000 A 
ATOM      2  C2  BNZ d   1       2.871  -0.599   1.390  0.00  0.00     0.000 A 
ATOM      3  C3  BNZ d   1       3.977  -0.729   2.183  0.00  0.00     0.000 A 
ATOM      4  C4  BNZ d   1       3.827  -1.073   3.478  0.00  0.00     0.000 A 
ATOM      5  C5  BNZ d   1       2.571  -1.324   3.994  0.00  0.00     0.000 A 
ATOM      6  C6  BNZ d   1       1.464  -1.230   3.182  0.00  0.00     0.000 A 
ENDROOT
TORSDOF 0
ENDMDL
