MODEL 1
REMARK minimizedAffinity -3.70782328
REMARK minimizedRMSD -1
REMARK  0 active torsions:
REMARK  status: ('A' for Active; 'I' for Inactive)
ROOT
ATOM      1  C1  BNZ d   1      -4.933   1.950  -1.901  0.00  0.00     0.000 A 
ATOM      2  C2  BNZ d   1      -4.886   1.028  -0.890  0.00  0.00     0.000 A 
ATOM      3  C3  BNZ d   1      -3.771   0.261  -0.694  0.00  0.00     0.000 A 
ATOM      4  C4  BNZ d   1      -2.723   0.388  -1.533  0.00  0.00     0.000 A 
ATOM      5  C5  BNZ d   1      -2.759   1.307  -2.563  0.00  0.00     0.000 A 
ATOM      6  C6  BNZ d   1      -3.868   2.105  -2.733  0.00  0.00     0.000 A 
ENDROOT
TORSDOF 0
ENDMDL
