MODEL 1
REMARK minimizedAffinity -3.95142937
REMARK minimizedRMSD -1
REMARK  0 active torsions:
REMARK  status: ('A' for Active; 'I' for Inactive)
ROOT
ATOM      1  C1  BNZ d   1       4.184  -0.614   3.029  0.00  0.00     0.000 A 
ATOM      2  C2  BNZ d   1       3.821  -1.173   4.225  0.00  0.00     0.000 A 
ATOM      3  C3  BNZ d   1       2.600  -1.770   4.377  0.00  0.00     0.000 A 
ATOM      4  C4  BNZ d   1       1.731  -1.771   3.346  0.00  0.00     0.000 A 
ATOM      5  C5  BNZ d   1       2.078  -1.203   2.137  0.00  0.00     0.000 A 
ATOM      6  C6  BNZ d   1       3.323  -0.638   1.976  0.00  0.00     0.000 A 
ENDROOT
TORSDOF 0
ENDMDL
