MODEL 1
REMARK minimizedAffinity -2.07962751
REMARK minimizedRMSD -1
REMARK  0 active torsions:
REMARK  status: ('A' for Active; 'I' for Inactive)
ROOT
ATOM      1  C1  BNZ d   1       4.381  -0.473   2.500  0.00  0.00     0.000 A 
ATOM      2  C2  BNZ d   1       3.498  -0.505   1.453  0.00  0.00     0.000 A 
ATOM      3  C3  BNZ d   1       2.213  -0.932   1.634  0.00  0.00     0.000 A 
ATOM      4  C4  BNZ d   1       1.823  -1.365   2.851  0.00  0.00     0.000 A 
ATOM      5  C5  BNZ d   1       2.703  -1.348   3.914  0.00  0.00     0.000 A 
ATOM      6  C6  BNZ d   1       3.985  -0.880   3.737  0.00  0.00     0.000 A 
ENDROOT
TORSDOF 0
ENDMDL
