MODEL 1
REMARK minimizedAffinity -2.17751646
REMARK minimizedRMSD -1
REMARK  0 active torsions:
REMARK  status: ('A' for Active; 'I' for Inactive)
ROOT
ATOM      1  C1  BNZ d   1       0.403  -1.584   0.459  0.00  0.00     0.000 A 
ATOM      2  C2  BNZ d   1       0.803  -2.739   1.076  0.00  0.00     0.000 A 
ATOM      3  C3  BNZ d   1       1.806  -2.725   2.005  0.00  0.00     0.000 A 
ATOM      4  C4  BNZ d   1       2.433  -1.565   2.287  0.00  0.00     0.000 A 
ATOM      5  C5  BNZ d   1       2.047  -0.394   1.666  0.00  0.00     0.000 A 
ATOM      6  C6  BNZ d   1       1.011  -0.405   0.760  0.00  0.00     0.000 A 
ENDROOT
TORSDOF 0
ENDMDL
