MODEL 1
REMARK minimizedAffinity -3.50964952
REMARK minimizedRMSD -1
REMARK  0 active torsions:
REMARK  status: ('A' for Active; 'I' for Inactive)
ROOT
ATOM      1  C1  BNZ d   1      -4.046  -0.052  -2.101  0.00  0.00     0.000 A 
ATOM      2  C2  BNZ d   1      -3.686  -0.965  -1.146  0.00  0.00     0.000 A 
ATOM      3  C3  BNZ d   1      -4.444  -1.137  -0.022  0.00  0.00     0.000 A 
ATOM      4  C4  BNZ d   1      -5.537  -0.369   0.165  0.00  0.00     0.000 A 
ATOM      5  C5  BNZ d   1      -5.908   0.562  -0.785  0.00  0.00     0.000 A 
ATOM      6  C6  BNZ d   1      -5.164   0.705  -1.934  0.00  0.00     0.000 A 
ENDROOT
TORSDOF 0
ENDMDL
