MODEL 1
REMARK minimizedAffinity 0.832713664
REMARK minimizedRMSD -1
REMARK  0 active torsions:
REMARK  status: ('A' for Active; 'I' for Inactive)
ROOT
ATOM      1  C1  BNZ d   1       1.172  -4.982  -3.846  0.00  0.00     0.000 A 
ATOM      2  C2  BNZ d   1      -0.197  -5.029  -3.865  0.00  0.00     0.000 A 
ATOM      3  C3  BNZ d   1      -0.864  -5.557  -4.935  0.00  0.00     0.000 A 
ATOM      4  C4  BNZ d   1      -0.165  -6.000  -6.000  0.00  0.00     0.000 A 
ATOM      5  C5  BNZ d   1       1.215  -5.951  -6.000  0.00  0.00     0.000 A 
ATOM      6  C6  BNZ d   1       1.885  -5.455  -4.905  0.00  0.00     0.000 A 
ENDROOT
TORSDOF 0
ENDMDL
