MODEL 1
REMARK minimizedAffinity 0.726199985
REMARK minimizedRMSD -1
REMARK  0 active torsions:
REMARK  status: ('A' for Active; 'I' for Inactive)
ROOT
ATOM      1  C1  BNZ d   1       3.141   3.753   0.301  0.00  0.00     0.000 A 
ATOM      2  C2  BNZ d   1       1.880   3.371  -0.072  0.00  0.00     0.000 A 
ATOM      3  C3  BNZ d   1       0.790   4.113   0.287  0.00  0.00     0.000 A 
ATOM      4  C4  BNZ d   1       0.957   5.212   1.050  0.00  0.00     0.000 A 
ATOM      5  C5  BNZ d   1       2.222   5.605   1.442  0.00  0.00     0.000 A 
ATOM      6  C6  BNZ d   1       3.321   4.877   1.046  0.00  0.00     0.000 A 
ENDROOT
TORSDOF 0
ENDMDL
