MODEL 1
REMARK minimizedAffinity 1.77845085
REMARK minimizedRMSD -1
REMARK  0 active torsions:
REMARK  status: ('A' for Active; 'I' for Inactive)
ROOT
ATOM      1  C1  BNZ d   1      -1.361   1.164  -2.842  0.00  0.00     0.000 A 
ATOM      2  C2  BNZ d   1      -0.323   1.896  -3.355  0.00  0.00     0.000 A 
ATOM      3  C3  BNZ d   1      -0.498   3.204  -3.709  0.00  0.00     0.000 A 
ATOM      4  C4  BNZ d   1      -1.717   3.767  -3.588  0.00  0.00     0.000 A 
ATOM      5  C5  BNZ d   1      -2.776   3.040  -3.081  0.00  0.00     0.000 A 
ATOM      6  C6  BNZ d   1      -2.587   1.734  -2.689  0.00  0.00     0.000 A 
ENDROOT
TORSDOF 0
ENDMDL
