MODEL 1
REMARK minimizedAffinity 4.38516808
REMARK minimizedRMSD -1
REMARK  0 active torsions:
REMARK  status: ('A' for Active; 'I' for Inactive)
ROOT
ATOM      1  C1  BNZ d   1       4.646  -0.751   1.844  0.00  0.00     0.000 A 
ATOM      2  C2  BNZ d   1       5.422  -0.802   2.971  0.00  0.00     0.000 A 
ATOM      3  C3  BNZ d   1       4.893  -1.193   4.169  0.00  0.00     0.000 A 
ATOM      4  C4  BNZ d   1       3.580  -1.493   4.247  0.00  0.00     0.000 A 
ATOM      5  C5  BNZ d   1       2.782  -1.437   3.122  0.00  0.00     0.000 A 
ATOM      6  C6  BNZ d   1       3.327  -1.081   1.910  0.00  0.00     0.000 A 
ENDROOT
TORSDOF 0
ENDMDL
