MODEL 1
REMARK minimizedAffinity 1.37810826
REMARK minimizedRMSD -1
REMARK  0 active torsions:
REMARK  status: ('A' for Active; 'I' for Inactive)
ROOT
ATOM      1  C1  BNZ d   1      -0.510  -2.083   0.753  0.00  0.00     0.000 A 
ATOM      2  C2  BNZ d   1      -0.117  -0.796   1.008  0.00  0.00     0.000 A 
ATOM      3  C3  BNZ d   1       0.881  -0.212   0.279  0.00  0.00     0.000 A 
ATOM      4  C4  BNZ d   1       1.510  -0.927  -0.676  0.00  0.00     0.000 A 
ATOM      5  C5  BNZ d   1       1.132  -2.228  -0.938  0.00  0.00     0.000 A 
ATOM      6  C6  BNZ d   1       0.101  -2.800  -0.228  0.00  0.00     0.000 A 
ENDROOT
TORSDOF 0
ENDMDL
