MODEL 1
REMARK minimizedAffinity 3.46132088
REMARK minimizedRMSD -1
REMARK  0 active torsions:
REMARK  status: ('A' for Active; 'I' for Inactive)
ROOT
ATOM      1  C1  BNZ d   1       3.757  -1.372   3.769  0.00  0.00     0.000 A 
ATOM      2  C2  BNZ d   1       2.636  -1.547   3.003  0.00  0.00     0.000 A 
ATOM      3  C3  BNZ d   1       2.634  -1.211   1.677  0.00  0.00     0.000 A 
ATOM      4  C4  BNZ d   1       3.739  -0.666   1.130  0.00  0.00     0.000 A 
ATOM      5  C5  BNZ d   1       4.875  -0.475   1.892  0.00  0.00     0.000 A 
ATOM      6  C6  BNZ d   1       4.886  -0.850   3.216  0.00  0.00     0.000 A 
ENDROOT
TORSDOF 0
ENDMDL
