MODEL 1
REMARK minimizedAffinity 4.51218939
REMARK minimizedRMSD -1
REMARK  0 active torsions:
REMARK  status: ('A' for Active; 'I' for Inactive)
ROOT
ATOM      1  C1  BNZ d   1       3.281  -0.769   0.397  0.00  0.00     0.000 A 
ATOM      2  C2  BNZ d   1       2.547  -0.087  -0.536  0.00  0.00     0.000 A 
ATOM      3  C3  BNZ d   1       1.248   0.258  -0.290  0.00  0.00     0.000 A 
ATOM      4  C4  BNZ d   1       0.672  -0.114   0.871  0.00  0.00     0.000 A 
ATOM      5  C5  BNZ d   1       1.395  -0.811   1.818  0.00  0.00     0.000 A 
ATOM      6  C6  BNZ d   1       2.714  -1.122   1.583  0.00  0.00     0.000 A 
ENDROOT
TORSDOF 0
ENDMDL
