MODEL 1
REMARK minimizedAffinity 0.487456411
REMARK minimizedRMSD -1
REMARK  0 active torsions:
REMARK  status: ('A' for Active; 'I' for Inactive)
ROOT
ATOM      1  C1  BNZ d   1      -0.271  -5.483  -5.026  0.00  0.00     0.000 A 
ATOM      2  C2  BNZ d   1       0.258  -4.651  -4.075  0.00  0.00     0.000 A 
ATOM      3  C3  BNZ d   1       1.584  -4.320  -4.095  0.00  0.00     0.000 A 
ATOM      4  C4  BNZ d   1       2.387  -4.851  -5.040  0.00  0.00     0.000 A 
ATOM      5  C5  BNZ d   1       1.870  -5.699  -6.000  0.00  0.00     0.000 A 
ATOM      6  C6  BNZ d   1       0.527  -5.999  -6.000  0.00  0.00     0.000 A 
ENDROOT
TORSDOF 0
ENDMDL
