MODEL 1
REMARK minimizedAffinity 0.149610713
REMARK minimizedRMSD -1
REMARK  0 active torsions:
REMARK  status: ('A' for Active; 'I' for Inactive)
ROOT
ATOM      1  C   UNL d   1      -2.832   0.194   4.492  0.00  0.00     0.077 C 
ATOM      2  C1  UNL d   1      -2.932   0.140   2.997  0.00  0.00    -0.074 A 
ATOM      3  C2  UNL d   1      -3.469  -0.978   2.352  0.00  0.00    -0.005 A 
ATOM      4  C3  UNL d   1      -3.564  -1.010   0.961  0.00  0.00     0.006 A 
ATOM      5  C4  UNL d   1      -3.123   0.075   0.202  0.00  0.00    -0.005 A 
ATOM      6  C5  UNL d   1      -2.584   1.202   0.829  0.00  0.00    -0.074 A 
ATOM      7  C6  UNL d   1      -2.114   2.380   0.028  0.00  0.00     0.077 C 
ATOM      8  C7  UNL d   1      -2.498   1.229   2.228  0.00  0.00    -0.001 A 
ENDROOT
TORSDOF 0
ENDMDL
