MODEL 1
REMARK minimizedAffinity 0.250163734
REMARK minimizedRMSD -1
REMARK  0 active torsions:
REMARK  status: ('A' for Active; 'I' for Inactive)
ROOT
ATOM      1  C   UNL d   1      -2.150  -0.235   2.834  0.00  0.00     0.077 C 
ATOM      2  C1  UNL d   1      -2.665   0.468   1.613  0.00  0.00    -0.074 A 
ATOM      3  C2  UNL d   1      -3.290  -0.243   0.584  0.00  0.00    -0.005 A 
ATOM      4  C3  UNL d   1      -3.773   0.425  -0.541  0.00  0.00     0.006 A 
ATOM      5  C4  UNL d   1      -3.635   1.810  -0.648  0.00  0.00    -0.005 A 
ATOM      6  C5  UNL d   1      -3.013   2.538   0.371  0.00  0.00    -0.074 A 
ATOM      7  C6  UNL d   1      -2.866   4.027   0.276  0.00  0.00     0.077 C 
ATOM      8  C7  UNL d   1      -2.537   1.860   1.502  0.00  0.00    -0.001 A 
ENDROOT
TORSDOF 0
ENDMDL
