MODEL 1
REMARK minimizedAffinity -2.77852273
REMARK minimizedRMSD -1
REMARK  0 active torsions:
REMARK  status: ('A' for Active; 'I' for Inactive)
ROOT
ATOM      1  C   UNL d   1      -1.843  -2.609   0.750  0.00  0.00     0.077 C 
ATOM      2  C1  UNL d   1      -2.146  -1.312   1.440  0.00  0.00    -0.074 A 
ATOM      3  C2  UNL d   1      -2.401  -1.272   2.815  0.00  0.00    -0.005 A 
ATOM      4  C3  UNL d   1      -2.673  -0.057   3.444  0.00  0.00     0.006 A 
ATOM      5  C4  UNL d   1      -2.691   1.127   2.707  0.00  0.00    -0.005 A 
ATOM      6  C5  UNL d   1      -2.436   1.107   1.332  0.00  0.00    -0.074 A 
ATOM      7  C6  UNL d   1      -2.442   2.372   0.527  0.00  0.00     0.077 C 
ATOM      8  C7  UNL d   1      -2.158  -0.117   0.708  0.00  0.00    -0.001 A 
ENDROOT
TORSDOF 0
ENDMDL
