MODEL 1
REMARK minimizedAffinity -4.49098253
REMARK minimizedRMSD -1
REMARK  0 active torsions:
REMARK  status: ('A' for Active; 'I' for Inactive)
ROOT
ATOM      1  C   UNL d   1      -3.017   0.369   4.455  0.00  0.00     0.077 C 
ATOM      2  C1  UNL d   1      -3.160   0.402   2.963  0.00  0.00    -0.074 A 
ATOM      3  C2  UNL d   1      -4.072  -0.434   2.310  0.00  0.00    -0.005 A 
ATOM      4  C3  UNL d   1      -4.200  -0.386   0.921  0.00  0.00     0.006 A 
ATOM      5  C4  UNL d   1      -3.420   0.497   0.174  0.00  0.00    -0.005 A 
ATOM      6  C5  UNL d   1      -2.503   1.341   0.809  0.00  0.00    -0.074 A 
ATOM      7  C6  UNL d   1      -1.664   2.302   0.022  0.00  0.00     0.077 C 
ATOM      8  C7  UNL d   1      -2.385   1.291   2.205  0.00  0.00    -0.001 A 
ENDROOT
TORSDOF 0
ENDMDL
