MODEL 1
REMARK minimizedAffinity -2.23785853
REMARK minimizedRMSD -1
REMARK  0 active torsions:
REMARK  status: ('A' for Active; 'I' for Inactive)
ROOT
ATOM      1  C   UNL d   1       2.590  -1.892   1.182  0.00  0.00     0.077 C 
ATOM      2  C1  UNL d   1       1.437  -2.783   0.828  0.00  0.00    -0.074 A 
ATOM      3  C2  UNL d   1       0.619  -2.498  -0.270  0.00  0.00    -0.005 A 
ATOM      4  C3  UNL d   1      -0.444  -3.342  -0.593  0.00  0.00     0.006 A 
ATOM      5  C4  UNL d   1      -0.700  -4.476   0.178  0.00  0.00    -0.005 A 
ATOM      6  C5  UNL d   1       0.107  -4.778   1.280  0.00  0.00    -0.074 A 
ATOM      7  C6  UNL d   1      -0.148  -5.998   2.113  0.00  0.00     0.077 C 
ATOM      8  C7  UNL d   1       1.178  -3.929   1.593  0.00  0.00    -0.001 A 
ENDROOT
TORSDOF 0
ENDMDL
