MODEL 1
REMARK minimizedAffinity 5.04588079
REMARK minimizedRMSD -1
REMARK  0 active torsions:
REMARK  status: ('A' for Active; 'I' for Inactive)
ROOT
ATOM      1  C   UNL d   1       6.000   0.252   4.875  0.00  0.00     0.077 C 
ATOM      2  C1  UNL d   1       5.493   1.543   4.302  0.00  0.00    -0.074 A 
ATOM      3  C2  UNL d   1       4.548   1.549   3.270  0.00  0.00    -0.005 A 
ATOM      4  C3  UNL d   1       4.079   2.757   2.754  0.00  0.00     0.006 A 
ATOM      5  C4  UNL d   1       4.549   3.968   3.263  0.00  0.00    -0.005 A 
ATOM      6  C5  UNL d   1       5.492   3.982   4.295  0.00  0.00    -0.074 A 
ATOM      7  C6  UNL d   1       6.000   5.275   4.861  0.00  0.00     0.077 C 
ATOM      8  C7  UNL d   1       5.954   2.764   4.814  0.00  0.00    -0.001 A 
ENDROOT
TORSDOF 0
ENDMDL
