MODEL 1
REMARK minimizedAffinity 4.90326214
REMARK minimizedRMSD -1
REMARK  0 active torsions:
REMARK  status: ('A' for Active; 'I' for Inactive)
ROOT
ATOM      1  C   UNL d   1       4.489   2.595   2.196  0.00  0.00     0.077 C 
ATOM      2  C1  UNL d   1       5.024   1.870   3.395  0.00  0.00    -0.074 A 
ATOM      3  C2  UNL d   1       5.498   2.571   4.508  0.00  0.00    -0.005 A 
ATOM      4  C3  UNL d   1       5.983   1.883   5.619  0.00  0.00     0.006 A 
ATOM      5  C4  UNL d   1       6.000   0.487   5.629  0.00  0.00    -0.005 A 
ATOM      6  C5  UNL d   1       5.529  -0.231   4.526  0.00  0.00    -0.074 A 
ATOM      7  C6  UNL d   1       5.531  -1.731   4.524  0.00  0.00     0.077 C 
ATOM      8  C7  UNL d   1       5.037   0.468   3.416  0.00  0.00    -0.001 A 
ENDROOT
TORSDOF 0
ENDMDL
