MODEL 1
REMARK minimizedAffinity 0.818136454
REMARK minimizedRMSD -1
REMARK  0 active torsions:
REMARK  status: ('A' for Active; 'I' for Inactive)
ROOT
ATOM      1  C   UNL d   1       5.250   3.391   2.270  0.00  0.00     0.077 C 
ATOM      2  C1  UNL d   1       5.316   2.050   2.938  0.00  0.00    -0.074 A 
ATOM      3  C2  UNL d   1       5.955   1.892   4.172  0.00  0.00    -0.005 A 
ATOM      4  C3  UNL d   1       6.000   0.640   4.786  0.00  0.00     0.006 A 
ATOM      5  C4  UNL d   1       5.407  -0.465   4.174  0.00  0.00    -0.005 A 
ATOM      6  C5  UNL d   1       4.763  -0.326   2.940  0.00  0.00    -0.074 A 
ATOM      7  C6  UNL d   1       4.113  -1.501   2.272  0.00  0.00     0.077 C 
ATOM      8  C7  UNL d   1       4.716   0.936   2.333  0.00  0.00    -0.001 A 
ENDROOT
TORSDOF 0
ENDMDL
