MODEL 1
REMARK minimizedAffinity 0.199840263
REMARK minimizedRMSD -1
REMARK  0 active torsions:
REMARK  status: ('A' for Active; 'I' for Inactive)
ROOT
ATOM      1  C   UNL d   1      -2.168  -0.001   3.034  0.00  0.00     0.077 C 
ATOM      2  C1  UNL d   1      -2.694   0.723   1.830  0.00  0.00    -0.074 A 
ATOM      3  C2  UNL d   1      -3.231   0.020   0.746  0.00  0.00    -0.005 A 
ATOM      4  C3  UNL d   1      -3.725   0.708  -0.362  0.00  0.00     0.006 A 
ATOM      5  C4  UNL d   1      -3.688   2.102  -0.398  0.00  0.00    -0.005 A 
ATOM      6  C5  UNL d   1      -3.157   2.822   0.677  0.00  0.00    -0.074 A 
ATOM      7  C6  UNL d   1      -3.119   4.321   0.658  0.00  0.00     0.077 C 
ATOM      8  C7  UNL d   1      -2.668   2.124   1.790  0.00  0.00    -0.001 A 
ENDROOT
TORSDOF 0
ENDMDL
