MODEL 1
REMARK minimizedAffinity 1.91835809
REMARK minimizedRMSD -1
REMARK  0 active torsions:
REMARK  status: ('A' for Active; 'I' for Inactive)
ROOT
ATOM      1  C   UNL d   1       4.120   2.294   2.622  0.00  0.00     0.077 C 
ATOM      2  C1  UNL d   1       4.613   1.411   3.729  0.00  0.00    -0.074 A 
ATOM      3  C2  UNL d   1       5.557   1.874   4.651  0.00  0.00    -0.005 A 
ATOM      4  C3  UNL d   1       5.999   1.044   5.682  0.00  0.00     0.006 A 
ATOM      5  C4  UNL d   1       5.502  -0.254   5.801  0.00  0.00    -0.005 A 
ATOM      6  C5  UNL d   1       4.556  -0.734   4.889  0.00  0.00    -0.074 A 
ATOM      7  C6  UNL d   1       4.004  -2.123   5.009  0.00  0.00     0.077 C 
ATOM      8  C7  UNL d   1       4.112   0.108   3.860  0.00  0.00    -0.001 A 
ENDROOT
TORSDOF 0
ENDMDL
