MODEL 1
REMARK minimizedAffinity 12.2782049
REMARK minimizedRMSD -1
REMARK  0 active torsions:
REMARK  status: ('A' for Active; 'I' for Inactive)
ROOT
ATOM      1  C   UNL d   1       3.369   1.893   1.078  0.00  0.00     0.077 C 
ATOM      2  C1  UNL d   1       4.281   1.907   2.269  0.00  0.00    -0.074 A 
ATOM      3  C2  UNL d   1       4.733   0.714   2.843  0.00  0.00    -0.005 A 
ATOM      4  C3  UNL d   1       5.588   0.743   3.944  0.00  0.00     0.006 A 
ATOM      5  C4  UNL d   1       6.000   1.963   4.482  0.00  0.00    -0.005 A 
ATOM      6  C5  UNL d   1       5.559   3.166   3.921  0.00  0.00    -0.074 A 
ATOM      7  C6  UNL d   1       6.000   4.486   4.481  0.00  0.00     0.077 C 
ATOM      8  C7  UNL d   1       4.705   3.128   2.810  0.00  0.00    -0.001 A 
ENDROOT
TORSDOF 0
ENDMDL
