MODEL 1
REMARK minimizedAffinity -1.1724602
REMARK minimizedRMSD -1
REMARK  0 active torsions:
REMARK  status: ('A' for Active; 'I' for Inactive)
ROOT
ATOM      1  C   UNL d   1       6.000   0.282   5.644  0.00  0.00     0.077 C 
ATOM      2  C1  UNL d   1       4.931  -0.096   4.662  0.00  0.00    -0.074 A 
ATOM      3  C2  UNL d   1       4.235  -1.302   4.786  0.00  0.00    -0.005 A 
ATOM      4  C3  UNL d   1       3.236  -1.636   3.871  0.00  0.00     0.006 A 
ATOM      5  C4  UNL d   1       2.925  -0.768   2.824  0.00  0.00    -0.005 A 
ATOM      6  C5  UNL d   1       3.610   0.444   2.684  0.00  0.00    -0.074 A 
ATOM      7  C6  UNL d   1       3.280   1.392   1.570  0.00  0.00     0.077 C 
ATOM      8  C7  UNL d   1       4.606   0.775   3.612  0.00  0.00    -0.001 A 
ENDROOT
TORSDOF 0
ENDMDL
