MODEL 1
REMARK minimizedAffinity 1.1804893
REMARK minimizedRMSD -1
REMARK  0 active torsions:
REMARK  status: ('A' for Active; 'I' for Inactive)
ROOT
ATOM      1  C   UNL d   1       6.000   1.135   5.679  0.00  0.00     0.077 C 
ATOM      2  C1  UNL d   1       5.091   0.930   4.503  0.00  0.00    -0.074 A 
ATOM      3  C2  UNL d   1       4.604  -0.342   4.184  0.00  0.00    -0.005 A 
ATOM      4  C3  UNL d   1       3.753  -0.515   3.093  0.00  0.00     0.006 A 
ATOM      5  C4  UNL d   1       3.380   0.579   2.311  0.00  0.00    -0.005 A 
ATOM      6  C5  UNL d   1       3.857   1.859   2.616  0.00  0.00    -0.074 A 
ATOM      7  C6  UNL d   1       3.458   3.047   1.792  0.00  0.00     0.077 C 
ATOM      8  C7  UNL d   1       4.706   2.026   3.718  0.00  0.00    -0.001 A 
ENDROOT
TORSDOF 0
ENDMDL
