MODEL 1
REMARK minimizedAffinity -1.44499612
REMARK minimizedRMSD -1
REMARK  0 active torsions:
REMARK  status: ('A' for Active; 'I' for Inactive)
ROOT
ATOM      1  C   UNL d   1       5.995   0.377   5.694  0.00  0.00     0.077 C 
ATOM      2  C1  UNL d   1       5.115   0.387   4.479  0.00  0.00    -0.074 A 
ATOM      3  C2  UNL d   1       4.996   1.533   3.687  0.00  0.00    -0.005 A 
ATOM      4  C3  UNL d   1       4.182   1.525   2.555  0.00  0.00     0.006 A 
ATOM      5  C4  UNL d   1       3.480   0.371   2.203  0.00  0.00    -0.005 A 
ATOM      6  C5  UNL d   1       3.587  -0.785   2.982  0.00  0.00    -0.074 A 
ATOM      7  C6  UNL d   1       2.847  -2.036   2.613  0.00  0.00     0.077 C 
ATOM      8  C7  UNL d   1       4.413  -0.771   4.115  0.00  0.00    -0.001 A 
ENDROOT
TORSDOF 0
ENDMDL
