MODEL 1
REMARK minimizedAffinity 1.49487996
REMARK minimizedRMSD -1
REMARK  0 active torsions:
REMARK  status: ('A' for Active; 'I' for Inactive)
ROOT
ATOM      1  C   UNL d   1      -2.615   3.093  -0.293  0.00  0.00     0.077 C 
ATOM      2  C1  UNL d   1      -3.000   1.853   0.459  0.00  0.00    -0.074 A 
ATOM      3  C2  UNL d   1      -3.497   0.731  -0.211  0.00  0.00    -0.005 A 
ATOM      4  C3  UNL d   1      -3.842  -0.418   0.501  0.00  0.00     0.006 A 
ATOM      5  C4  UNL d   1      -3.694  -0.456   1.888  0.00  0.00    -0.005 A 
ATOM      6  C5  UNL d   1      -3.197   0.656   2.575  0.00  0.00    -0.074 A 
ATOM      7  C6  UNL d   1      -3.022   0.628   4.064  0.00  0.00     0.077 C 
ATOM      8  C7  UNL d   1      -2.846   1.804   1.852  0.00  0.00    -0.001 A 
ENDROOT
TORSDOF 0
ENDMDL
