MODEL 1
REMARK minimizedAffinity -1.79384744
REMARK minimizedRMSD -1
REMARK  0 active torsions:
REMARK  status: ('A' for Active; 'I' for Inactive)
ROOT
ATOM      1  C   UNL d   1      -2.843  -0.785   3.119  0.00  0.00     0.077 C 
ATOM      2  C1  UNL d   1      -3.156  -0.005   1.876  0.00  0.00    -0.074 A 
ATOM      3  C2  UNL d   1      -3.740  -0.624   0.767  0.00  0.00    -0.005 A 
ATOM      4  C3  UNL d   1      -4.034   0.116  -0.378  0.00  0.00     0.006 A 
ATOM      5  C4  UNL d   1      -3.748   1.481  -0.425  0.00  0.00    -0.005 A 
ATOM      6  C5  UNL d   1      -3.165   2.118   0.675  0.00  0.00    -0.074 A 
ATOM      7  C6  UNL d   1      -2.859   3.586   0.645  0.00  0.00     0.077 C 
ATOM      8  C7  UNL d   1      -2.879   1.368   1.825  0.00  0.00    -0.001 A 
ENDROOT
TORSDOF 0
ENDMDL
