MODEL 1
REMARK minimizedAffinity 0.434547812
REMARK minimizedRMSD -1
REMARK  0 active torsions:
REMARK  status: ('A' for Active; 'I' for Inactive)
ROOT
ATOM      1  C   UNL d   1       0.890  -1.872  -3.131  0.00  0.00     0.077 C 
ATOM      2  C1  UNL d   1       0.728  -2.524  -1.790  0.00  0.00    -0.074 A 
ATOM      3  C2  UNL d   1       1.723  -3.359  -1.271  0.00  0.00    -0.005 A 
ATOM      4  C3  UNL d   1       1.563  -3.951  -0.019  0.00  0.00     0.006 A 
ATOM      5  C4  UNL d   1       0.408  -3.714   0.727  0.00  0.00    -0.005 A 
ATOM      6  C5  UNL d   1      -0.598  -2.882   0.226  0.00  0.00    -0.074 A 
ATOM      7  C6  UNL d   1      -1.841  -2.609   1.019  0.00  0.00     0.077 C 
ATOM      8  C7  UNL d   1      -0.426  -2.285  -1.031  0.00  0.00    -0.001 A 
ENDROOT
TORSDOF 0
ENDMDL
