MODEL 1
REMARK minimizedAffinity -1.36002874
REMARK minimizedRMSD -1
REMARK  1 active torsions:
REMARK  status: ('A' for Active; 'I' for Inactive)
REMARK    1  A    between atoms: C3_4  and  O_7 
ROOT
ATOM      1  C   UNL d   1      -3.416   0.577  -0.479  0.00  0.00    -0.033 A 
ATOM      2  C1  UNL d   1      -3.081  -0.778  -0.525  0.00  0.00     0.039 A 
ATOM      3  C2  UNL d   1      -1.790  -1.191  -0.188  0.00  0.00    -0.080 A 
ATOM      4  C3  UNL d   1      -0.847  -0.242   0.194  0.00  0.00     0.150 A 
ATOM      5  C4  UNL d   1      -1.175   1.109   0.245  0.00  0.00    -0.007 A 
ATOM      6  C5  UNL d   1      -2.464   1.520  -0.093  0.00  0.00     0.039 A 
ENDROOT
BRANCH   4   7
ATOM      7  O   UNL d   1       0.427  -0.597   0.527  0.00  0.00    -0.526 OA
ATOM      8  H5  UNL d   1       0.517  -1.558   0.418  0.00  0.00     0.418 HD
ENDBRANCH   4   7
TORSDOF 1
ENDMDL
