MODEL 1
REMARK minimizedAffinity -4.50809097
REMARK minimizedRMSD -1
REMARK  1 active torsions:
REMARK  status: ('A' for Active; 'I' for Inactive)
REMARK    1  A    between atoms: C3_4  and  O_7 
ROOT
ATOM      1  C   UNL d   1      -1.338   0.347   0.218  0.00  0.00    -0.033 A 
ATOM      2  C1  UNL d   1      -1.399   0.374   1.613  0.00  0.00     0.039 A 
ATOM      3  C2  UNL d   1      -0.292  -0.012   2.370  0.00  0.00    -0.080 A 
ATOM      4  C3  UNL d   1       0.870  -0.421   1.722  0.00  0.00     0.150 A 
ATOM      5  C4  UNL d   1       0.940  -0.447   0.333  0.00  0.00    -0.007 A 
ATOM      6  C5  UNL d   1      -0.167  -0.062  -0.422  0.00  0.00     0.039 A 
ENDROOT
BRANCH   4   7
ATOM      7  O   UNL d   1       1.975  -0.811   2.419  0.00  0.00    -0.526 OA
ATOM      8  H5  UNL d   1       1.771  -0.769   3.368  0.00  0.00     0.418 HD
ENDBRANCH   4   7
TORSDOF 1
ENDMDL
