MODEL 1
REMARK minimizedAffinity -3.96561575
REMARK minimizedRMSD -1
REMARK  1 active torsions:
REMARK  status: ('A' for Active; 'I' for Inactive)
REMARK    1  A    between atoms: C3_4  and  O_7 
ROOT
ATOM      1  C   UNL d   1       0.112  -0.417  -0.275  0.00  0.00    -0.033 A 
ATOM      2  C1  UNL d   1      -1.249  -0.155  -0.107  0.00  0.00     0.039 A 
ATOM      3  C2  UNL d   1      -1.681   0.657   0.944  0.00  0.00    -0.080 A 
ATOM      4  C3  UNL d   1      -0.742   1.201   1.817  0.00  0.00     0.150 A 
ATOM      5  C4  UNL d   1       0.616   0.947   1.652  0.00  0.00    -0.007 A 
ATOM      6  C5  UNL d   1       1.044   0.135   0.603  0.00  0.00     0.039 A 
ENDROOT
BRANCH   4   7
ATOM      7  O   UNL d   1      -1.116   1.996   2.859  0.00  0.00    -0.526 OA
ATOM      8  H5  UNL d   1      -2.085   2.060   2.866  0.00  0.00     0.418 HD
ENDBRANCH   4   7
TORSDOF 1
ENDMDL
