MODEL 1
REMARK minimizedAffinity -4.61037111
REMARK minimizedRMSD -1
REMARK  1 active torsions:
REMARK  status: ('A' for Active; 'I' for Inactive)
REMARK    1  A    between atoms: C3_4  and  O_7 
ROOT
ATOM      1  C   UNL d   1       0.791  -0.366  -0.137  0.00  0.00    -0.033 A 
ATOM      2  C1  UNL d   1      -0.582  -0.321  -0.387  0.00  0.00     0.039 A 
ATOM      3  C2  UNL d   1      -1.458   0.126   0.603  0.00  0.00    -0.080 A 
ATOM      4  C3  UNL d   1      -0.950   0.525   1.836  0.00  0.00     0.150 A 
ATOM      5  C4  UNL d   1       0.417   0.486   2.091  0.00  0.00    -0.007 A 
ATOM      6  C5  UNL d   1       1.291   0.039   1.101  0.00  0.00     0.039 A 
ENDROOT
BRANCH   4   7
ATOM      7  O   UNL d   1      -1.768   0.964   2.836  0.00  0.00    -0.526 OA
ATOM      8  H5  UNL d   1      -2.687   0.910   2.527  0.00  0.00     0.418 HD
ENDBRANCH   4   7
TORSDOF 1
ENDMDL
