MODEL 1
REMARK minimizedAffinity -5.46533823
REMARK minimizedRMSD -1
REMARK  1 active torsions:
REMARK  status: ('A' for Active; 'I' for Inactive)
REMARK    1  A    between atoms: C3_4  and  O_7 
ROOT
ATOM      1  C   UNL d   1       0.928   0.236   3.175  0.00  0.00    -0.033 A 
ATOM      2  C1  UNL d   1       1.377  -0.216   1.933  0.00  0.00     0.039 A 
ATOM      3  C2  UNL d   1       0.537  -0.150   0.819  0.00  0.00    -0.080 A 
ATOM      4  C3  UNL d   1      -0.746   0.371   0.961  0.00  0.00     0.150 A 
ATOM      5  C4  UNL d   1      -1.198   0.828   2.195  0.00  0.00    -0.007 A 
ATOM      6  C5  UNL d   1      -0.358   0.760   3.306  0.00  0.00     0.039 A 
ENDROOT
BRANCH   4   7
ATOM      7  O   UNL d   1      -1.603   0.452  -0.096  0.00  0.00    -0.526 OA
ATOM      8  H5  UNL d   1      -1.165   0.074  -0.877  0.00  0.00     0.418 HD
ENDBRANCH   4   7
TORSDOF 1
ENDMDL
