MODEL 1
REMARK minimizedAffinity -5.53732729
REMARK minimizedRMSD -1
REMARK  1 active torsions:
REMARK  status: ('A' for Active; 'I' for Inactive)
REMARK    1  A    between atoms: C3_4  and  O_7 
ROOT
ATOM      1  C   UNL d   1      -0.122   1.083   3.681  0.00  0.00    -0.033 A 
ATOM      2  C1  UNL d   1       1.158   0.581   3.441  0.00  0.00     0.039 A 
ATOM      3  C2  UNL d   1       1.485   0.069   2.183  0.00  0.00    -0.080 A 
ATOM      4  C3  UNL d   1       0.524   0.066   1.176  0.00  0.00     0.150 A 
ATOM      5  C4  UNL d   1      -0.753   0.568   1.407  0.00  0.00    -0.007 A 
ATOM      6  C5  UNL d   1      -1.077   1.078   2.663  0.00  0.00     0.039 A 
ENDROOT
BRANCH   4   7
ATOM      7  O   UNL d   1       0.795  -0.428  -0.065  0.00  0.00    -0.526 OA
ATOM      8  H5  UNL d   1       1.705  -0.767  -0.070  0.00  0.00     0.418 HD
ENDBRANCH   4   7
TORSDOF 1
ENDMDL
