MODEL 1
REMARK minimizedAffinity -3.65094805
REMARK minimizedRMSD -1
REMARK  1 active torsions:
REMARK  status: ('A' for Active; 'I' for Inactive)
REMARK    1  A    between atoms: C3_4  and  O_7 
ROOT
ATOM      1  C   UNL d   1       0.474   0.643  -4.564  0.00  0.00    -0.033 A 
ATOM      2  C1  UNL d   1       1.632   0.781  -3.795  0.00  0.00     0.039 A 
ATOM      3  C2  UNL d   1       1.734   0.135  -2.562  0.00  0.00    -0.080 A 
ATOM      4  C3  UNL d   1       0.674  -0.646  -2.109  0.00  0.00     0.150 A 
ATOM      5  C4  UNL d   1      -0.481  -0.791  -2.871  0.00  0.00    -0.007 A 
ATOM      6  C5  UNL d   1      -0.581  -0.144  -4.102  0.00  0.00     0.039 A 
ENDROOT
BRANCH   4   7
ATOM      7  O   UNL d   1       0.726  -1.292  -0.910  0.00  0.00    -0.526 OA
ATOM      8  H5  UNL d   1       1.571  -1.077  -0.481  0.00  0.00     0.418 HD
ENDBRANCH   4   7
TORSDOF 1
ENDMDL
