MODEL 1
REMARK minimizedAffinity -1.77274919
REMARK minimizedRMSD -1
REMARK  1 active torsions:
REMARK  status: ('A' for Active; 'I' for Inactive)
REMARK    1  A    between atoms: C3_4  and  O_7 
ROOT
ATOM      1  C   UNL d   1       0.546  -0.992  -0.782  0.00  0.00    -0.033 A 
ATOM      2  C1  UNL d   1       1.486  -1.182  -1.797  0.00  0.00     0.039 A 
ATOM      3  C2  UNL d   1       1.451  -0.383  -2.941  0.00  0.00    -0.080 A 
ATOM      4  C3  UNL d   1       0.474   0.602  -3.057  0.00  0.00     0.150 A 
ATOM      5  C4  UNL d   1      -0.462   0.800  -2.048  0.00  0.00    -0.007 A 
ATOM      6  C5  UNL d   1      -0.427   0.000  -0.906  0.00  0.00     0.039 A 
ENDROOT
BRANCH   4   7
ATOM      7  O   UNL d   1       0.397   1.404  -4.157  0.00  0.00    -0.526 OA
ATOM      8  H5  UNL d   1       1.089   1.134  -4.784  0.00  0.00     0.418 HD
ENDBRANCH   4   7
TORSDOF 1
ENDMDL
