MODEL 1
REMARK minimizedAffinity -4.62198687
REMARK minimizedRMSD -1
REMARK  1 active torsions:
REMARK  status: ('A' for Active; 'I' for Inactive)
REMARK    1  A    between atoms: C3_4  and  O_7 
ROOT
ATOM      1  C   UNL d   1      -1.798  -0.264   0.728  0.00  0.00    -0.033 A 
ATOM      2  C1  UNL d   1      -1.598   0.275   2.001  0.00  0.00     0.039 A 
ATOM      3  C2  UNL d   1      -0.303   0.418   2.504  0.00  0.00    -0.080 A 
ATOM      4  C3  UNL d   1       0.781   0.020   1.725  0.00  0.00     0.150 A 
ATOM      5  C4  UNL d   1       0.588  -0.513   0.455  0.00  0.00    -0.007 A 
ATOM      6  C5  UNL d   1      -0.705  -0.656  -0.045  0.00  0.00     0.039 A 
ENDROOT
BRANCH   4   7
ATOM      7  O   UNL d   1       2.062   0.136   2.176  0.00  0.00    -0.526 OA
ATOM      8  H5  UNL d   1       2.040   0.493   3.079  0.00  0.00     0.418 HD
ENDBRANCH   4   7
TORSDOF 1
ENDMDL
