MODEL 1
REMARK minimizedAffinity -5.45208263
REMARK minimizedRMSD -1
REMARK  1 active torsions:
REMARK  status: ('A' for Active; 'I' for Inactive)
REMARK    1  A    between atoms: C3_4  and  O_7 
ROOT
ATOM      1  C   UNL d   1      -1.039   1.320   2.003  0.00  0.00    -0.033 A 
ATOM      2  C1  UNL d   1      -1.740   0.526   1.094  0.00  0.00     0.039 A 
ATOM      3  C2  UNL d   1      -1.063  -0.431   0.334  0.00  0.00    -0.080 A 
ATOM      4  C3  UNL d   1       0.311  -0.583   0.493  0.00  0.00     0.150 A 
ATOM      5  C4  UNL d   1       1.015   0.203   1.400  0.00  0.00    -0.007 A 
ATOM      6  C5  UNL d   1       0.338   1.158   2.157  0.00  0.00     0.039 A 
ENDROOT
BRANCH   4   7
ATOM      7  O   UNL d   1       1.015  -1.499  -0.230  0.00  0.00    -0.526 OA
ATOM      8  H5  UNL d   1       0.403  -1.949  -0.836  0.00  0.00     0.418 HD
ENDBRANCH   4   7
TORSDOF 1
ENDMDL
