MODEL 1
REMARK minimizedAffinity -5.62204456
REMARK minimizedRMSD -1
REMARK  1 active torsions:
REMARK  status: ('A' for Active; 'I' for Inactive)
REMARK    1  A    between atoms: C3_4  and  O_7 
ROOT
ATOM      1  C   UNL d   1       0.986  -0.649   0.051  0.00  0.00    -0.033 A 
ATOM      2  C1  UNL d   1      -0.390  -0.489  -0.121  0.00  0.00     0.039 A 
ATOM      3  C2  UNL d   1      -1.144   0.178   0.847  0.00  0.00    -0.080 A 
ATOM      4  C3  UNL d   1      -0.510   0.681   1.980  0.00  0.00     0.150 A 
ATOM      5  C4  UNL d   1       0.862   0.529   2.156  0.00  0.00    -0.007 A 
ATOM      6  C5  UNL d   1       1.612  -0.138   1.189  0.00  0.00     0.039 A 
ENDROOT
BRANCH   4   7
ATOM      7  O   UNL d   1      -1.204   1.335   2.954  0.00  0.00    -0.526 OA
ATOM      8  H5  UNL d   1      -2.145   1.339   2.711  0.00  0.00     0.418 HD
ENDBRANCH   4   7
TORSDOF 1
ENDMDL
