MODEL 1
REMARK minimizedAffinity -5.05496645
REMARK minimizedRMSD -1
REMARK  1 active torsions:
REMARK  status: ('A' for Active; 'I' for Inactive)
REMARK    1  A    between atoms: C1_2  and  C2_3 
ROOT
ATOM      1  C2  UNL d   1      -0.555   1.080   0.855  0.00  0.00    -0.077 A 
ATOM      2  C3  UNL d   1       0.281   0.243   1.607  0.00  0.00     0.002 A 
ATOM      3  C4  UNL d   1       0.986  -0.791   0.989  0.00  0.00     0.002 A 
ATOM      4  C5  UNL d   1       0.867  -0.995  -0.384  0.00  0.00    -0.004 A 
ATOM      5  C6  UNL d   1       0.037  -0.169  -1.141  0.00  0.00     0.002 A 
ATOM      6  C7  UNL d   1      -0.670   0.864  -0.524  0.00  0.00     0.002 A 
ENDROOT
BRANCH   1   7
ATOM      7  C1  UNL d   1      -1.278   2.226   1.512  0.00  0.00     0.055 C 
ATOM      8  C   UNL d   1      -1.103   3.516   0.723  0.00  0.00     0.019 C 
ENDBRANCH   1   7
TORSDOF 1
ENDMDL
