MODEL 1
REMARK minimizedAffinity -2.03504825
REMARK minimizedRMSD -1
REMARK  1 active torsions:
REMARK  status: ('A' for Active; 'I' for Inactive)
REMARK    1  A    between atoms: C1_2  and  C2_3 
ROOT
ATOM      1  C2  UNL d   1       0.084  -1.582  -0.791  0.00  0.00    -0.077 A 
ATOM      2  C3  UNL d   1       1.036  -2.603  -0.661  0.00  0.00     0.002 A 
ATOM      3  C4  UNL d   1       0.683  -3.932  -0.905  0.00  0.00     0.002 A 
ATOM      4  C5  UNL d   1      -0.618  -4.251  -1.285  0.00  0.00    -0.004 A 
ATOM      5  C6  UNL d   1      -1.572  -3.242  -1.416  0.00  0.00     0.002 A 
ATOM      6  C7  UNL d   1      -1.222  -1.914  -1.171  0.00  0.00     0.002 A 
ENDROOT
BRANCH   1   7
ATOM      7  C1  UNL d   1       0.475  -0.143  -0.576  0.00  0.00     0.055 C 
ATOM      8  C   UNL d   1       0.487   0.212   0.904  0.00  0.00     0.019 C 
ENDBRANCH   1   7
TORSDOF 1
ENDMDL
