MODEL 1
REMARK minimizedAffinity -4.00396729
REMARK minimizedRMSD -1
REMARK  1 active torsions:
REMARK  status: ('A' for Active; 'I' for Inactive)
REMARK    1  A    between atoms: C1_2  and  C2_3 
ROOT
ATOM      1  C2  UNL d   1       0.030  -1.378  -0.863  0.00  0.00    -0.077 A 
ATOM      2  C3  UNL d   1      -1.063  -1.333  -1.740  0.00  0.00     0.002 A 
ATOM      3  C4  UNL d   1      -1.638  -2.514  -2.213  0.00  0.00     0.002 A 
ATOM      4  C5  UNL d   1      -1.129  -3.748  -1.813  0.00  0.00    -0.004 A 
ATOM      5  C6  UNL d   1      -0.040  -3.803  -0.944  0.00  0.00     0.002 A 
ATOM      6  C7  UNL d   1       0.536  -2.624  -0.470  0.00  0.00     0.002 A 
ENDROOT
BRANCH   1   7
ATOM      7  C1  UNL d   1       0.619  -0.106  -0.312  0.00  0.00     0.055 C 
ATOM      8  C   UNL d   1       0.807  -0.191   1.196  0.00  0.00     0.019 C 
ENDBRANCH   1   7
TORSDOF 1
ENDMDL
