MODEL 1
REMARK minimizedAffinity -2.49211669
REMARK minimizedRMSD -1
REMARK  1 active torsions:
REMARK  status: ('A' for Active; 'I' for Inactive)
REMARK    1  A    between atoms: C1_2  and  C2_3 
ROOT
ATOM      1  C2  UNL d   1      -0.295   1.579   0.201  0.00  0.00    -0.077 A 
ATOM      2  C3  UNL d   1       0.485   0.465   0.542  0.00  0.00     0.002 A 
ATOM      3  C4  UNL d   1       0.924  -0.419  -0.446  0.00  0.00     0.002 A 
ATOM      4  C5  UNL d   1       0.591  -0.196  -1.781  0.00  0.00    -0.004 A 
ATOM      5  C6  UNL d   1      -0.187   0.908  -2.129  0.00  0.00     0.002 A 
ATOM      6  C7  UNL d   1      -0.627   1.792  -1.143  0.00  0.00     0.002 A 
ENDROOT
BRANCH   1   7
ATOM      7  C1  UNL d   1      -0.728   2.560   1.259  0.00  0.00     0.055 C 
ATOM      8  C   UNL d   1      -0.901   3.957   0.681  0.00  0.00     0.019 C 
ENDBRANCH   1   7
TORSDOF 1
ENDMDL
