MODEL 1
REMARK minimizedAffinity -2.29022145
REMARK minimizedRMSD -1
REMARK  1 active torsions:
REMARK  status: ('A' for Active; 'I' for Inactive)
REMARK    1  A    between atoms: C1_2  and  C2_3 
ROOT
ATOM      1  C2  UNL d   1      -0.002  -2.226  -0.881  0.00  0.00    -0.077 A 
ATOM      2  C3  UNL d   1       0.620  -3.457  -0.627  0.00  0.00     0.002 A 
ATOM      3  C4  UNL d   1       0.075  -4.640  -1.129  0.00  0.00     0.002 A 
ATOM      4  C5  UNL d   1      -1.091  -4.604  -1.891  0.00  0.00    -0.004 A 
ATOM      5  C6  UNL d   1      -1.717  -3.386  -2.148  0.00  0.00     0.002 A 
ATOM      6  C7  UNL d   1      -1.175  -2.202  -1.646  0.00  0.00     0.002 A 
ENDROOT
BRANCH   1   7
ATOM      7  C1  UNL d   1       0.611  -0.944  -0.382  0.00  0.00     0.055 C 
ATOM      8  C   UNL d   1       0.153   0.248  -1.211  0.00  0.00     0.019 C 
ENDBRANCH   1   7
TORSDOF 1
ENDMDL
