MODEL 1
REMARK minimizedAffinity 4.56194353
REMARK minimizedRMSD -1
REMARK  0 active torsions:
REMARK  status: ('A' for Active; 'I' for Inactive)
ROOT
ATOM      1  C   UNL d   1       1.266  -0.626   0.846  0.00  0.00     0.020 A 
ATOM      2  C1  UNL d   1       1.102  -1.971   0.519  0.00  0.00     0.020 A 
ATOM      3  C2  UNL d   1       1.946  -2.570  -0.418  0.00  0.00     0.034 A 
ATOM      4  C3  UNL d   1       2.959  -1.823  -1.032  0.00  0.00     0.017 A 
ATOM      5  C4  UNL d   1       3.123  -0.473  -0.703  0.00  0.00     0.017 A 
ATOM      6  C5  UNL d   1       2.275   0.122   0.237  0.00  0.00     0.034 A 
ATOM      7 Cl   UNL d   1       4.350   0.513  -1.417  0.00  0.00    -0.070 Cl
ATOM      8 Cl1  UNL d   1       3.966  -2.628  -2.182  0.00  0.00    -0.070 Cl
ENDROOT
TORSDOF 0
ENDMDL
