MODEL 1
REMARK minimizedAffinity 6.49805832
REMARK minimizedRMSD -1
REMARK  0 active torsions:
REMARK  status: ('A' for Active; 'I' for Inactive)
ROOT
ATOM      1  C   UNL d   1       3.842   0.108  -1.079  0.00  0.00     0.020 A 
ATOM      2  C1  UNL d   1       2.979   0.001   0.012  0.00  0.00     0.020 A 
ATOM      3  C2  UNL d   1       2.134  -1.105   0.128  0.00  0.00     0.034 A 
ATOM      4  C3  UNL d   1       2.149  -2.107  -0.849  0.00  0.00     0.017 A 
ATOM      5  C4  UNL d   1       3.015  -1.999  -1.943  0.00  0.00     0.017 A 
ATOM      6  C5  UNL d   1       3.859  -0.889  -2.054  0.00  0.00     0.034 A 
ATOM      7 Cl   UNL d   1       3.091  -3.196  -3.187  0.00  0.00    -0.070 Cl
ATOM      8 Cl1  UNL d   1       1.078  -3.447  -0.642  0.00  0.00    -0.070 Cl
ENDROOT
TORSDOF 0
ENDMDL
