MODEL 1
REMARK minimizedAffinity 9.49878025
REMARK minimizedRMSD -1
REMARK  0 active torsions:
REMARK  status: ('A' for Active; 'I' for Inactive)
ROOT
ATOM      1  C   UNL d   1      -2.115   0.491  -3.166  0.00  0.00     0.020 A 
ATOM      2  C1  UNL d   1      -2.352   1.791  -3.614  0.00  0.00     0.020 A 
ATOM      3  C2  UNL d   1      -3.381   2.547  -3.050  0.00  0.00     0.034 A 
ATOM      4  C3  UNL d   1      -4.178   2.005  -2.035  0.00  0.00     0.017 A 
ATOM      5  C4  UNL d   1      -3.940   0.701  -1.586  0.00  0.00     0.017 A 
ATOM      6  C5  UNL d   1      -2.908  -0.052  -2.154  0.00  0.00     0.034 A 
ATOM      7 Cl   UNL d   1      -4.882  -0.036  -0.338  0.00  0.00    -0.070 Cl
ATOM      8 Cl1  UNL d   1      -5.433   2.998  -1.383  0.00  0.00    -0.070 Cl
ENDROOT
TORSDOF 0
ENDMDL
