MODEL 1
REMARK minimizedAffinity 5.62464142
REMARK minimizedRMSD -1
REMARK  0 active torsions:
REMARK  status: ('A' for Active; 'I' for Inactive)
ROOT
ATOM      1  C   UNL d   1      -3.147   3.162  -0.048  0.00  0.00     0.020 A 
ATOM      2  C1  UNL d   1      -4.060   2.478  -0.849  0.00  0.00     0.020 A 
ATOM      3  C2  UNL d   1      -3.661   1.331  -1.539  0.00  0.00     0.034 A 
ATOM      4  C3  UNL d   1      -2.346   0.864  -1.428  0.00  0.00     0.017 A 
ATOM      5  C4  UNL d   1      -1.431   1.551  -0.623  0.00  0.00     0.017 A 
ATOM      6  C5  UNL d   1      -1.835   2.699   0.065  0.00  0.00     0.034 A 
ATOM      7 Cl   UNL d   1       0.209   1.036  -0.436  0.00  0.00    -0.070 Cl
ATOM      8 Cl1  UNL d   1      -1.923  -0.561  -2.308  0.00  0.00    -0.070 Cl
ENDROOT
TORSDOF 0
ENDMDL
