MODEL 1
REMARK minimizedAffinity 8.67263889
REMARK minimizedRMSD -1
REMARK  0 active torsions:
REMARK  status: ('A' for Active; 'I' for Inactive)
ROOT
ATOM      1  C   UNL d   1      -0.636   0.803   3.334  0.00  0.00     0.020 A 
ATOM      2  C1  UNL d   1       0.654   0.304   3.510  0.00  0.00     0.020 A 
ATOM      3  C2  UNL d   1       1.504   0.163   2.411  0.00  0.00     0.034 A 
ATOM      4  C3  UNL d   1       1.065   0.521   1.131  0.00  0.00     0.017 A 
ATOM      5  C4  UNL d   1      -0.230   1.022   0.955  0.00  0.00     0.017 A 
ATOM      6  C5  UNL d   1      -1.077   1.161   2.059  0.00  0.00     0.034 A 
ATOM      7 Cl   UNL d   1      -0.842   1.485  -0.593  0.00  0.00    -0.070 Cl
ATOM      8 Cl1  UNL d   1       2.170   0.320  -0.182  0.00  0.00    -0.070 Cl
ENDROOT
TORSDOF 0
ENDMDL
