MODEL 1
REMARK minimizedAffinity 3.07412958
REMARK minimizedRMSD -1
REMARK  0 active torsions:
REMARK  status: ('A' for Active; 'I' for Inactive)
ROOT
ATOM      1  C   UNL d   1       3.461  -1.090   0.272  0.00  0.00     0.020 A 
ATOM      2  C1  UNL d   1       3.115   0.165  -0.227  0.00  0.00     0.020 A 
ATOM      3  C2  UNL d   1       2.170   0.947   0.441  0.00  0.00     0.034 A 
ATOM      4  C3  UNL d   1       1.567   0.473   1.612  0.00  0.00     0.017 A 
ATOM      5  C4  UNL d   1       1.914  -0.787   2.112  0.00  0.00     0.017 A 
ATOM      6  C5  UNL d   1       2.862  -1.564   1.440  0.00  0.00     0.034 A 
ATOM      7 Cl   UNL d   1       1.213  -1.438   3.552  0.00  0.00    -0.070 Cl
ATOM      8 Cl1  UNL d   1       0.406   1.493   2.386  0.00  0.00    -0.070 Cl
ENDROOT
TORSDOF 0
ENDMDL
