MODEL 1
REMARK minimizedAffinity 3.55277753
REMARK minimizedRMSD -1
REMARK  0 active torsions:
REMARK  status: ('A' for Active; 'I' for Inactive)
ROOT
ATOM      1  C   UNL d   1       3.563   0.777  -0.974  0.00  0.00     0.020 A 
ATOM      2  C1  UNL d   1       2.461   0.598  -0.138  0.00  0.00     0.020 A 
ATOM      3  C2  UNL d   1       1.760  -0.609  -0.156  0.00  0.00     0.034 A 
ATOM      4  C3  UNL d   1       2.159  -1.643  -1.011  0.00  0.00     0.017 A 
ATOM      5  C4  UNL d   1       3.265  -1.462  -1.850  0.00  0.00     0.017 A 
ATOM      6  C5  UNL d   1       3.964  -0.251  -1.828  0.00  0.00     0.034 A 
ATOM      7 Cl   UNL d   1       3.818  -2.691  -2.932  0.00  0.00    -0.070 Cl
ATOM      8 Cl1  UNL d   1       1.246  -3.109  -0.980  0.00  0.00    -0.070 Cl
ENDROOT
TORSDOF 0
ENDMDL
