MODEL 1
REMARK minimizedAffinity 3.92450571
REMARK minimizedRMSD -1
REMARK  0 active torsions:
REMARK  status: ('A' for Active; 'I' for Inactive)
ROOT
ATOM      1  C   UNL d   1       3.010   0.693   0.162  0.00  0.00     0.020 A 
ATOM      2  C1  UNL d   1       4.106   0.589  -0.694  0.00  0.00     0.020 A 
ATOM      3  C2  UNL d   1       4.303  -0.577  -1.438  0.00  0.00     0.034 A 
ATOM      4  C3  UNL d   1       3.403  -1.643  -1.326  0.00  0.00     0.017 A 
ATOM      5  C4  UNL d   1       2.303  -1.538  -0.467  0.00  0.00     0.017 A 
ATOM      6  C5  UNL d   1       2.111  -0.368   0.275  0.00  0.00     0.034 A 
ATOM      7 Cl   UNL d   1       1.150  -2.811  -0.276  0.00  0.00    -0.070 Cl
ATOM      8 Cl1  UNL d   1       3.708  -3.055  -2.276  0.00  0.00    -0.070 Cl
ENDROOT
TORSDOF 0
ENDMDL
