MODEL 1
REMARK minimizedAffinity 14.8421211
REMARK minimizedRMSD -1
REMARK  1 active torsions:
REMARK  status: ('A' for Active; 'I' for Inactive)
REMARK    1  A    between atoms: C1_2  and  C2_3 
ROOT
ATOM      1  C2  UNL d   1       2.665  -3.402   4.214  0.00  0.00    -0.076 A 
ATOM      2  C3  UNL d   1       1.480  -4.145   4.364  0.00  0.00     0.004 A 
ATOM      3  C4  UNL d   1       1.421  -5.233   5.233  0.00  0.00    -0.003 A 
ATOM      4  C5  UNL d   1       2.545  -5.596   5.967  0.00  0.00     0.000 A 
ATOM      5  C6  UNL d   1       3.723  -4.860   5.844  0.00  0.00     0.000 A 
ATOM      6  C7  UNL d   1       3.795  -3.750   4.984  0.00  0.00    -0.073 A 
ATOM      7  C8  UNL d   1       5.093  -2.996   4.886  0.00  0.00     0.078 C 
ENDROOT
BRANCH   1   8
ATOM      8  C1  UNL d   1       2.678  -2.249   3.236  0.00  0.00     0.053 C 
ATOM      9  C   UNL d   1       1.281  -1.855   2.781  0.00  0.00     0.018 C 
ENDBRANCH   1   8
TORSDOF 1
ENDMDL
