MODEL 1
REMARK minimizedAffinity -0.530773222
REMARK minimizedRMSD -1
REMARK  1 active torsions:
REMARK  status: ('A' for Active; 'I' for Inactive)
REMARK    1  A    between atoms: C1_2  and  C2_3 
ROOT
ATOM      1  C2  UNL d   1       1.466   0.405   1.906  0.00  0.00    -0.076 A 
ATOM      2  C3  UNL d   1       0.882  -0.837   1.604  0.00  0.00     0.004 A 
ATOM      3  C4  UNL d   1       0.873  -1.872   2.538  0.00  0.00    -0.003 A 
ATOM      4  C5  UNL d   1       1.448  -1.680   3.790  0.00  0.00     0.000 A 
ATOM      5  C6  UNL d   1       2.016  -0.448   4.113  0.00  0.00     0.000 A 
ATOM      6  C7  UNL d   1       2.018   0.610   3.188  0.00  0.00    -0.073 A 
ATOM      7  C8  UNL d   1       2.650   1.916   3.587  0.00  0.00     0.078 C 
ENDROOT
BRANCH   1   8
ATOM      8  C1  UNL d   1       1.469   1.481   0.843  0.00  0.00     0.053 C 
ATOM      9  C   UNL d   1       0.083   2.053   0.588  0.00  0.00     0.018 C 
ENDBRANCH   1   8
TORSDOF 1
ENDMDL
