MODEL 1
REMARK minimizedAffinity 6.1165309
REMARK minimizedRMSD -1
REMARK  1 active torsions:
REMARK  status: ('A' for Active; 'I' for Inactive)
REMARK    1  A    between atoms: C1_2  and  C2_3 
ROOT
ATOM      1  C2  UNL d   1      -0.777  -1.408   0.378  0.00  0.00    -0.076 A 
ATOM      2  C3  UNL d   1      -1.219  -1.549  -0.949  0.00  0.00     0.004 A 
ATOM      3  C4  UNL d   1      -1.063  -2.754  -1.632  0.00  0.00    -0.003 A 
ATOM      4  C5  UNL d   1      -0.463  -3.837  -0.999  0.00  0.00     0.000 A 
ATOM      5  C6  UNL d   1      -0.035  -3.720   0.322  0.00  0.00     0.000 A 
ATOM      6  C7  UNL d   1      -0.199  -2.518   1.031  0.00  0.00    -0.073 A 
ATOM      7  C8  UNL d   1       0.287  -2.445   2.453  0.00  0.00     0.078 C 
ENDROOT
BRANCH   1   8
ATOM      8  C1  UNL d   1      -0.948  -0.069   1.060  0.00  0.00     0.053 C 
ATOM      9  C   UNL d   1      -0.798   1.098   0.097  0.00  0.00     0.018 C 
ENDBRANCH   1   8
TORSDOF 1
ENDMDL
