MODEL 1
REMARK minimizedAffinity -0.13432084
REMARK minimizedRMSD -1
REMARK  1 active torsions:
REMARK  status: ('A' for Active; 'I' for Inactive)
REMARK    1  A    between atoms: C1_2  and  C2_3 
ROOT
ATOM      1  C2  UNL d   1       2.102   0.497   2.356  0.00  0.00    -0.076 A 
ATOM      2  C3  UNL d   1       1.790  -0.869   2.244  0.00  0.00     0.004 A 
ATOM      3  C4  UNL d   1       1.485  -1.631   3.371  0.00  0.00    -0.003 A 
ATOM      4  C5  UNL d   1       1.486  -1.038   4.629  0.00  0.00     0.000 A 
ATOM      5  C6  UNL d   1       1.776   0.320   4.757  0.00  0.00     0.000 A 
ATOM      6  C7  UNL d   1       2.070   1.105   3.629  0.00  0.00    -0.073 A 
ATOM      7  C8  UNL d   1       2.381   2.564   3.826  0.00  0.00     0.078 C 
ENDROOT
BRANCH   1   8
ATOM      8  C1  UNL d   1       2.451   1.265   1.102  0.00  0.00     0.053 C 
ATOM      9  C   UNL d   1       1.265   1.416   0.162  0.00  0.00     0.018 C 
ENDBRANCH   1   8
TORSDOF 1
ENDMDL
