MODEL 1
REMARK minimizedAffinity 4.58509827
REMARK minimizedRMSD -1
REMARK  1 active torsions:
REMARK  status: ('A' for Active; 'I' for Inactive)
REMARK    1  A    between atoms: C1_2  and  C2_3 
ROOT
ATOM      1  C2  UNL d   1       0.427   0.153   0.849  0.00  0.00    -0.076 A 
ATOM      2  C3  UNL d   1       1.826   0.132   0.987  0.00  0.00     0.004 A 
ATOM      3  C4  UNL d   1       2.594   1.251   0.673  0.00  0.00    -0.003 A 
ATOM      4  C5  UNL d   1       1.976   2.410   0.216  0.00  0.00     0.000 A 
ATOM      5  C6  UNL d   1       0.588   2.455   0.091  0.00  0.00     0.000 A 
ATOM      6  C7  UNL d   1      -0.203   1.340   0.419  0.00  0.00    -0.073 A 
ATOM      7  C8  UNL d   1      -1.695   1.442   0.259  0.00  0.00     0.078 C 
ENDROOT
BRANCH   1   8
ATOM      8  C1  UNL d   1      -0.352  -1.100   1.180  0.00  0.00     0.053 C 
ATOM      9  C   UNL d   1       0.473  -2.111   1.961  0.00  0.00     0.018 C 
ENDBRANCH   1   8
TORSDOF 1
ENDMDL
