MODEL 1
REMARK minimizedAffinity 2.17534518
REMARK minimizedRMSD -1
REMARK  1 active torsions:
REMARK  status: ('A' for Active; 'I' for Inactive)
REMARK    1  A    between atoms: C1_2  and  C2_3 
ROOT
ATOM      1  C2  UNL d   1       0.781  -3.218  -0.316  0.00  0.00    -0.076 A 
ATOM      2  C3  UNL d   1       0.906  -2.164   0.606  0.00  0.00     0.004 A 
ATOM      3  C4  UNL d   1      -0.179  -1.342   0.906  0.00  0.00    -0.003 A 
ATOM      4  C5  UNL d   1      -1.406  -1.560   0.290  0.00  0.00     0.000 A 
ATOM      5  C6  UNL d   1      -1.552  -2.612  -0.614  0.00  0.00     0.000 A 
ATOM      6  C7  UNL d   1      -0.473  -3.460  -0.916  0.00  0.00    -0.073 A 
ATOM      7  C8  UNL d   1      -0.685  -4.575  -1.903  0.00  0.00     0.078 C 
ENDROOT
BRANCH   1   8
ATOM      8  C1  UNL d   1       1.999  -4.060  -0.622  0.00  0.00     0.053 C 
ATOM      9  C   UNL d   1       2.343  -5.020   0.507  0.00  0.00     0.018 C 
ENDBRANCH   1   8
TORSDOF 1
ENDMDL
