MODEL 1
REMARK minimizedAffinity -1.16322243
REMARK minimizedRMSD -1
REMARK  1 active torsions:
REMARK  status: ('A' for Active; 'I' for Inactive)
REMARK    1  A    between atoms: C1_2  and  C2_3 
ROOT
ATOM      1  C2  UNL d   1       2.603   0.556   2.703  0.00  0.00    -0.076 A 
ATOM      2  C3  UNL d   1       2.225  -0.794   2.798  0.00  0.00     0.004 A 
ATOM      3  C4  UNL d   1       2.164  -1.437   4.033  0.00  0.00    -0.003 A 
ATOM      4  C5  UNL d   1       2.480  -0.740   5.194  0.00  0.00     0.000 A 
ATOM      5  C6  UNL d   1       2.840   0.605   5.121  0.00  0.00     0.000 A 
ATOM      6  C7  UNL d   1       2.890   1.273   3.885  0.00  0.00    -0.073 A 
ATOM      7  C8  UNL d   1       3.291   2.723   3.863  0.00  0.00     0.078 C 
ENDROOT
BRANCH   1   8
ATOM      8  C1  UNL d   1       2.677   1.193   1.334  0.00  0.00     0.053 C 
ATOM      9  C   UNL d   1       1.308   1.359   0.693  0.00  0.00     0.018 C 
ENDBRANCH   1   8
TORSDOF 1
ENDMDL
