MODEL 1
REMARK minimizedAffinity 7.28421688
REMARK minimizedRMSD -1
REMARK  1 active torsions:
REMARK  status: ('A' for Active; 'I' for Inactive)
REMARK    1  A    between atoms: N_2  and  C1_3 
ROOT
ATOM      1  C1  UNL d   1       3.595  -1.900   0.064  0.00  0.00     0.143 A 
ATOM      2  C2  UNL d   1       2.707  -1.187   0.877  0.00  0.00    -0.057 A 
ATOM      3  C3  UNL d   1       1.444  -1.700   1.197  0.00  0.00     0.033 A 
ATOM      4  C4  UNL d   1       1.034  -2.926   0.684  0.00  0.00    -0.042 A 
ATOM      5  C5  UNL d   1       1.891  -3.641  -0.146  0.00  0.00     0.033 A 
ATOM      6  C6  UNL d   1       3.153  -3.127  -0.457  0.00  0.00    -0.057 A 
ENDROOT
BRANCH   1   7
ATOM      7  N   UNL d   1       4.825  -1.400  -0.370  0.00  0.00    -0.732 N 
ATOM      8  C   UNL d   1       6.000  -2.246  -0.389  0.00  0.00     0.284 C 
ATOM      9  H3  UNL d   1       4.734  -0.798  -1.185  0.00  0.00     0.395 HD
ENDBRANCH   1   7
TORSDOF 1
ENDMDL
