MODEL 1
REMARK minimizedAffinity 9.80421448
REMARK minimizedRMSD -1
REMARK  1 active torsions:
REMARK  status: ('A' for Active; 'I' for Inactive)
REMARK    1  A    between atoms: N_2  and  C1_3 
ROOT
ATOM      1  C1  UNL d   1      -1.790   1.724  -2.762  0.00  0.00     0.143 A 
ATOM      2  C2  UNL d   1      -3.122   1.882  -2.363  0.00  0.00    -0.057 A 
ATOM      3  C3  UNL d   1      -3.796   0.873  -1.665  0.00  0.00     0.033 A 
ATOM      4  C4  UNL d   1      -3.156  -0.329  -1.379  0.00  0.00    -0.042 A 
ATOM      5  C5  UNL d   1      -1.841  -0.518  -1.788  0.00  0.00     0.033 A 
ATOM      6  C6  UNL d   1      -1.171   0.497  -2.478  0.00  0.00    -0.057 A 
ENDROOT
BRANCH   1   7
ATOM      7  N   UNL d   1      -1.097   2.652  -3.544  0.00  0.00    -0.732 N 
ATOM      8  C   UNL d   1       0.185   3.166  -3.114  0.00  0.00     0.284 C 
ATOM      9  H3  UNL d   1      -1.147   2.437  -4.537  0.00  0.00     0.395 HD
ENDBRANCH   1   7
TORSDOF 1
ENDMDL
