MODEL 1
REMARK minimizedAffinity 7.02731609
REMARK minimizedRMSD -1
REMARK  1 active torsions:
REMARK  status: ('A' for Active; 'I' for Inactive)
REMARK    1  A    between atoms: N_2  and  C1_3 
ROOT
ATOM      1  C1  UNL d   1       3.602   4.724  -5.734  0.00  0.00     0.143 A 
ATOM      2  C2  UNL d   1       2.838   3.615  -5.358  0.00  0.00    -0.057 A 
ATOM      3  C3  UNL d   1       1.441   3.683  -5.294  0.00  0.00     0.033 A 
ATOM      4  C4  UNL d   1       0.783   4.875  -5.579  0.00  0.00    -0.042 A 
ATOM      5  C5  UNL d   1       1.524   5.998  -5.931  0.00  0.00     0.033 A 
ATOM      6  C6  UNL d   1       2.919   5.921  -5.999  0.00  0.00    -0.057 A 
ENDROOT
BRANCH   1   7
ATOM      7  N   UNL d   1       4.999   4.747  -5.721  0.00  0.00    -0.732 N 
ATOM      8  C   UNL d   1       5.717   5.999  -5.835  0.00  0.00     0.284 C 
ATOM      9  H3  UNL d   1       5.392   4.104  -5.037  0.00  0.00     0.395 HD
ENDBRANCH   1   7
TORSDOF 1
ENDMDL
