MODEL 1
REMARK minimizedAffinity 11.9779139
REMARK minimizedRMSD -1
REMARK  1 active torsions:
REMARK  status: ('A' for Active; 'I' for Inactive)
REMARK    1  A    between atoms: N_2  and  C1_3 
ROOT
ATOM      1  C1  UNL d   1       1.793  -2.661   0.349  0.00  0.00     0.143 A 
ATOM      2  C2  UNL d   1       0.976  -1.643  -0.155  0.00  0.00    -0.057 A 
ATOM      3  C3  UNL d   1       0.801  -0.441   0.540  0.00  0.00     0.033 A 
ATOM      4  C4  UNL d   1       1.419  -0.246   1.771  0.00  0.00    -0.042 A 
ATOM      5  C5  UNL d   1       2.216  -1.254   2.303  0.00  0.00     0.033 A 
ATOM      6  C6  UNL d   1       2.392  -2.450   1.600  0.00  0.00    -0.057 A 
ENDROOT
BRANCH   1   7
ATOM      7  N   UNL d   1       1.928  -3.917  -0.248  0.00  0.00    -0.732 N 
ATOM      8  C   UNL d   1       1.820  -5.124   0.543  0.00  0.00     0.284 C 
ATOM      9  H3  UNL d   1       1.465  -3.969  -1.152  0.00  0.00     0.395 HD
ENDBRANCH   1   7
TORSDOF 1
ENDMDL
