MODEL 1
REMARK minimizedAffinity 1.4263109
REMARK minimizedRMSD -1
REMARK  1 active torsions:
REMARK  status: ('A' for Active; 'I' for Inactive)
REMARK    1  A    between atoms: N_2  and  C1_3 
ROOT
ATOM      1  C1  UNL d   1      -3.630   3.563  -5.061  0.00  0.00     0.143 A 
ATOM      2  C2  UNL d   1      -4.916   3.531  -5.612  0.00  0.00    -0.057 A 
ATOM      3  C3  UNL d   1      -5.652   4.706  -5.807  0.00  0.00     0.033 A 
ATOM      4  C4  UNL d   1      -5.124   5.936  -5.426  0.00  0.00    -0.042 A 
ATOM      5  C5  UNL d   1      -3.858   5.989  -4.854  0.00  0.00     0.033 A 
ATOM      6  C6  UNL d   1      -3.126   4.813  -4.668  0.00  0.00    -0.057 A 
ENDROOT
BRANCH   1   7
ATOM      7  N   UNL d   1      -2.888   2.421  -4.751  0.00  0.00    -0.732 N 
ATOM      8  C   UNL d   1      -2.213   2.304  -3.476  0.00  0.00     0.284 C 
ATOM      9  H3  UNL d   1      -3.344   1.566  -5.060  0.00  0.00     0.395 HD
ENDBRANCH   1   7
TORSDOF 1
ENDMDL
