MODEL 1
REMARK minimizedAffinity 7.82166624
REMARK minimizedRMSD -1
REMARK  1 active torsions:
REMARK  status: ('A' for Active; 'I' for Inactive)
REMARK    1  A    between atoms: N_2  and  C1_3 
ROOT
ATOM      1  C1  UNL d   1       0.829  -2.273   1.428  0.00  0.00     0.143 A 
ATOM      2  C2  UNL d   1       2.032  -1.667   1.806  0.00  0.00    -0.057 A 
ATOM      3  C3  UNL d   1       3.246  -2.032   1.212  0.00  0.00     0.033 A 
ATOM      4  C4  UNL d   1       3.282  -3.032   0.246  0.00  0.00    -0.042 A 
ATOM      5  C5  UNL d   1       2.102  -3.666  -0.127  0.00  0.00     0.033 A 
ATOM      6  C6  UNL d   1       0.892  -3.293   0.466  0.00  0.00    -0.057 A 
ENDROOT
BRANCH   1   7
ATOM      7  N   UNL d   1      -0.396  -2.024   2.052  0.00  0.00    -0.732 N 
ATOM      8  C   UNL d   1      -1.534  -2.886   1.811  0.00  0.00     0.284 C 
ATOM      9  H3  UNL d   1      -0.288  -1.740   3.023  0.00  0.00     0.395 HD
ENDBRANCH   1   7
TORSDOF 1
ENDMDL
