MODEL 1
REMARK minimizedAffinity 4.68239164
REMARK minimizedRMSD -1
REMARK  1 active torsions:
REMARK  status: ('A' for Active; 'I' for Inactive)
REMARK    1  A    between atoms: N_2  and  C1_3 
ROOT
ATOM      1  C1  UNL d   1      -0.626   2.190  -3.946  0.00  0.00     0.143 A 
ATOM      2  C2  UNL d   1      -1.444   2.042  -2.820  0.00  0.00    -0.057 A 
ATOM      3  C3  UNL d   1      -2.833   1.915  -2.944  0.00  0.00     0.033 A 
ATOM      4  C4  UNL d   1      -3.433   1.963  -4.198  0.00  0.00    -0.042 A 
ATOM      5  C5  UNL d   1      -2.642   2.134  -5.329  0.00  0.00     0.033 A 
ATOM      6  C6  UNL d   1      -1.255   2.253  -5.199  0.00  0.00    -0.057 A 
ENDROOT
BRANCH   1   7
ATOM      7  N   UNL d   1       0.751   2.419  -3.882  0.00  0.00    -0.732 N 
ATOM      8  C   UNL d   1       1.317   3.650  -4.391  0.00  0.00     0.284 C 
ATOM      9  H3  UNL d   1       1.156   2.108  -3.002  0.00  0.00     0.395 HD
ENDBRANCH   1   7
TORSDOF 1
ENDMDL
