MODEL 1
REMARK minimizedAffinity -3.74364424
REMARK minimizedRMSD -1
REMARK  0 active torsions:
REMARK  status: ('A' for Active; 'I' for Inactive)
ROOT
ATOM      1  C   UNL d   1       5.917  -1.724  -1.004  0.00  0.00     0.078 C 
ATOM      2  C1  UNL d   1       4.497  -1.352  -1.311  0.00  0.00    -0.077 A 
ATOM      3  C2  UNL d   1       4.200  -0.266  -2.143  0.00  0.00    -0.001 A 
ATOM      4  C3  UNL d   1       2.873   0.074  -2.412  0.00  0.00     0.003 A 
ATOM      5  C4  UNL d   1       1.833  -0.666  -1.852  0.00  0.00    -0.005 A 
ATOM      6  C5  UNL d   1       2.120  -1.748  -1.022  0.00  0.00     0.003 A 
ATOM      7  C6  UNL d   1       3.446  -2.089  -0.752  0.00  0.00    -0.001 A 
ENDROOT
TORSDOF 0
ENDMDL
