MODEL 1
REMARK minimizedAffinity 4.27966642
REMARK minimizedRMSD -1
REMARK  0 active torsions:
REMARK  status: ('A' for Active; 'I' for Inactive)
ROOT
ATOM      1  C   UNL d   1       1.393   4.098   0.678  0.00  0.00     0.078 C 
ATOM      2  C1  UNL d   1       1.749   2.906  -0.159  0.00  0.00    -0.077 A 
ATOM      3  C2  UNL d   1       1.619   2.939  -1.553  0.00  0.00    -0.001 A 
ATOM      4  C3  UNL d   1       1.945   1.819  -2.320  0.00  0.00     0.003 A 
ATOM      5  C4  UNL d   1       2.402   0.657  -1.701  0.00  0.00    -0.005 A 
ATOM      6  C5  UNL d   1       2.532   0.614  -0.315  0.00  0.00     0.003 A 
ATOM      7  C6  UNL d   1       2.207   1.733   0.453  0.00  0.00    -0.001 A 
ENDROOT
TORSDOF 0
ENDMDL
