MODEL 1
REMARK minimizedAffinity 2.87917805
REMARK minimizedRMSD -1
REMARK  0 active torsions:
REMARK  status: ('A' for Active; 'I' for Inactive)
ROOT
ATOM      1  C   UNL d   1      -2.636   1.462  -5.828  0.00  0.00     0.078 C 
ATOM      2  C1  UNL d   1      -3.108   2.884  -5.881  0.00  0.00    -0.077 A 
ATOM      3  C2  UNL d   1      -4.475   3.189  -5.915  0.00  0.00    -0.001 A 
ATOM      4  C3  UNL d   1      -4.900   4.518  -5.974  0.00  0.00     0.003 A 
ATOM      5  C4  UNL d   1      -3.965   5.551  -6.000  0.00  0.00    -0.005 A 
ATOM      6  C5  UNL d   1      -2.604   5.257  -5.968  0.00  0.00     0.003 A 
ATOM      7  C6  UNL d   1      -2.177   3.929  -5.909  0.00  0.00    -0.001 A 
ENDROOT
TORSDOF 0
ENDMDL
