MODEL 1
REMARK minimizedAffinity 11.3563871
REMARK minimizedRMSD -1
REMARK  0 active torsions:
REMARK  status: ('A' for Active; 'I' for Inactive)
ROOT
ATOM      1  C   UNL d   1      -0.793  -4.311  -3.059  0.00  0.00     0.078 C 
ATOM      2  C1  UNL d   1      -0.052  -3.203  -2.371  0.00  0.00    -0.077 A 
ATOM      3  C2  UNL d   1      -0.234  -2.954  -1.005  0.00  0.00    -0.001 A 
ATOM      4  C3  UNL d   1       0.455  -1.914  -0.380  0.00  0.00     0.003 A 
ATOM      5  C4  UNL d   1       1.330  -1.114  -1.112  0.00  0.00    -0.005 A 
ATOM      6  C5  UNL d   1       1.516  -1.353  -2.472  0.00  0.00     0.003 A 
ATOM      7  C6  UNL d   1       0.828  -2.393  -3.100  0.00  0.00    -0.001 A 
ENDROOT
TORSDOF 0
ENDMDL
