MODEL 1
REMARK minimizedAffinity 8.58274841
REMARK minimizedRMSD -1
REMARK  0 active torsions:
REMARK  status: ('A' for Active; 'I' for Inactive)
ROOT
ATOM      1  C   UNL d   1      -5.336  -1.455   3.650  0.00  0.00     0.078 C 
ATOM      2  C1  UNL d   1      -4.523  -0.305   4.165  0.00  0.00    -0.077 A 
ATOM      3  C2  UNL d   1      -4.130   0.738   3.317  0.00  0.00    -0.001 A 
ATOM      4  C3  UNL d   1      -3.366   1.797   3.808  0.00  0.00     0.003 A 
ATOM      5  C4  UNL d   1      -2.987   1.824   5.149  0.00  0.00    -0.005 A 
ATOM      6  C5  UNL d   1      -3.371   0.790   6.000  0.00  0.00     0.003 A 
ATOM      7  C6  UNL d   1      -4.135  -0.271   5.511  0.00  0.00    -0.001 A 
ENDROOT
TORSDOF 0
ENDMDL
