MODEL 1
REMARK minimizedAffinity 16.5644913
REMARK minimizedRMSD -1
REMARK  0 active torsions:
REMARK  status: ('A' for Active; 'I' for Inactive)
ROOT
ATOM      1  C   UNL d   1      -0.172   0.690   2.569  0.00  0.00     0.078 C 
ATOM      2  C1  UNL d   1      -1.150   1.124   3.619  0.00  0.00    -0.077 A 
ATOM      3  C2  UNL d   1      -0.775   1.198   4.967  0.00  0.00    -0.001 A 
ATOM      4  C3  UNL d   1      -1.698   1.594   5.935  0.00  0.00     0.003 A 
ATOM      5  C4  UNL d   1      -3.003   1.919   5.567  0.00  0.00    -0.005 A 
ATOM      6  C5  UNL d   1      -3.385   1.846   4.230  0.00  0.00     0.003 A 
ATOM      7  C6  UNL d   1      -2.463   1.450   3.259  0.00  0.00    -0.001 A 
ENDROOT
TORSDOF 0
ENDMDL
