MODEL 1
REMARK minimizedAffinity 6.36442375
REMARK minimizedRMSD -1
REMARK  0 active torsions:
REMARK  status: ('A' for Active; 'I' for Inactive)
ROOT
ATOM      1  C   UNL d   1      -1.855  -3.386  -2.649  0.00  0.00     0.078 C 
ATOM      2  C1  UNL d   1      -1.418  -2.963  -1.278  0.00  0.00    -0.077 A 
ATOM      3  C2  UNL d   1      -0.476  -1.941  -1.105  0.00  0.00    -0.001 A 
ATOM      4  C3  UNL d   1      -0.071  -1.564   0.177  0.00  0.00     0.003 A 
ATOM      5  C4  UNL d   1      -0.601  -2.205   1.295  0.00  0.00    -0.005 A 
ATOM      6  C5  UNL d   1      -1.536  -3.225   1.132  0.00  0.00     0.003 A 
ATOM      7  C6  UNL d   1      -1.943  -3.603  -0.149  0.00  0.00    -0.001 A 
ENDROOT
TORSDOF 0
ENDMDL
