MODEL 1
REMARK minimizedAffinity 12.6731443
REMARK minimizedRMSD -1
REMARK  0 active torsions:
REMARK  status: ('A' for Active; 'I' for Inactive)
ROOT
ATOM      1  C   UNL d   1       1.817   3.594  -1.039  0.00  0.00     0.078 C 
ATOM      2  C1  UNL d   1       2.002   2.151  -1.400  0.00  0.00    -0.077 A 
ATOM      3  C2  UNL d   1       1.277   1.571  -2.449  0.00  0.00    -0.001 A 
ATOM      4  C3  UNL d   1       1.452   0.223  -2.768  0.00  0.00     0.003 A 
ATOM      5  C4  UNL d   1       2.351  -0.556  -2.042  0.00  0.00    -0.005 A 
ATOM      6  C5  UNL d   1       3.075   0.011  -0.996  0.00  0.00     0.003 A 
ATOM      7  C6  UNL d   1       2.901   1.359  -0.675  0.00  0.00    -0.001 A 
ENDROOT
TORSDOF 0
ENDMDL
