MODEL 1
REMARK minimizedAffinity 7.11515856
REMARK minimizedRMSD -1
REMARK  0 active torsions:
REMARK  status: ('A' for Active; 'I' for Inactive)
ROOT
ATOM      1  C   UNL d   1       2.236   1.501   2.352  0.00  0.00     0.078 C 
ATOM      2  C1  UNL d   1       1.495   1.760   3.629  0.00  0.00    -0.077 A 
ATOM      3  C2  UNL d   1       1.865   1.124   4.820  0.00  0.00    -0.001 A 
ATOM      4  C3  UNL d   1       1.160   1.367   6.000  0.00  0.00     0.003 A 
ATOM      5  C4  UNL d   1       0.079   2.246   6.000  0.00  0.00    -0.005 A 
ATOM      6  C5  UNL d   1      -0.299   2.883   4.819  0.00  0.00     0.003 A 
ATOM      7  C6  UNL d   1       0.405   2.641   3.639  0.00  0.00    -0.001 A 
ENDROOT
TORSDOF 0
ENDMDL
