MODEL 1
REMARK minimizedAffinity 15.5853662
REMARK minimizedRMSD -1
REMARK  0 active torsions:
REMARK  status: ('A' for Active; 'I' for Inactive)
ROOT
ATOM      1  C   UNL d   1       0.270  -1.873  -0.148  0.00  0.00     0.078 C 
ATOM      2  C1  UNL d   1       1.173  -0.823  -0.723  0.00  0.00    -0.077 A 
ATOM      3  C2  UNL d   1       0.778  -0.059  -1.828  0.00  0.00    -0.001 A 
ATOM      4  C3  UNL d   1       1.633   0.909  -2.359  0.00  0.00     0.003 A 
ATOM      5  C4  UNL d   1       2.888   1.120  -1.793  0.00  0.00    -0.005 A 
ATOM      6  C5  UNL d   1       3.291   0.363  -0.695  0.00  0.00     0.003 A 
ATOM      7  C6  UNL d   1       2.438  -0.605  -0.162  0.00  0.00    -0.001 A 
ENDROOT
TORSDOF 0
ENDMDL
