MODEL 1
REMARK minimizedAffinity 2.18243384
REMARK minimizedRMSD -1
REMARK  0 active torsions:
REMARK  status: ('A' for Active; 'I' for Inactive)
ROOT
ATOM      1  C   UNL d   1      -1.144  -3.487  -2.414  0.00  0.00     0.078 C 
ATOM      2  C1  UNL d   1      -0.926  -3.039  -1.000  0.00  0.00    -0.077 A 
ATOM      3  C2  UNL d   1      -0.128  -1.926  -0.711  0.00  0.00    -0.001 A 
ATOM      4  C3  UNL d   1       0.075  -1.526   0.611  0.00  0.00     0.003 A 
ATOM      5  C4  UNL d   1      -0.517  -2.235   1.655  0.00  0.00    -0.005 A 
ATOM      6  C5  UNL d   1      -1.311  -3.345   1.377  0.00  0.00     0.003 A 
ATOM      7  C6  UNL d   1      -1.515  -3.747   0.056  0.00  0.00    -0.001 A 
ENDROOT
TORSDOF 0
ENDMDL
