MODEL 1
REMARK minimizedAffinity -3.62065816
REMARK minimizedRMSD -1
REMARK  0 active torsions:
REMARK  status: ('A' for Active; 'I' for Inactive)
ROOT
ATOM      1  C   UNL d   1      -1.603  -0.004   1.782  0.00  0.00     0.078 C 
ATOM      2  C1  UNL d   1      -0.526  -0.173   0.752  0.00  0.00    -0.077 A 
ATOM      3  C2  UNL d   1       0.108  -1.409   0.568  0.00  0.00    -0.001 A 
ATOM      4  C3  UNL d   1       1.116  -1.549  -0.387  0.00  0.00     0.003 A 
ATOM      5  C4  UNL d   1       1.500  -0.458  -1.165  0.00  0.00    -0.005 A 
ATOM      6  C5  UNL d   1       0.878   0.775  -0.986  0.00  0.00     0.003 A 
ATOM      7  C6  UNL d   1      -0.131   0.918  -0.032  0.00  0.00    -0.001 A 
ENDROOT
TORSDOF 0
ENDMDL
