MODEL 1
REMARK minimizedAffinity -4.63643169
REMARK minimizedRMSD -1
REMARK  0 active torsions:
REMARK  status: ('A' for Active; 'I' for Inactive)
ROOT
ATOM      1  C   UNL d   1       1.874   2.272  -0.770  0.00  0.00     0.078 C 
ATOM      2  C1  UNL d   1       1.366   0.931  -1.207  0.00  0.00    -0.077 A 
ATOM      3  C2  UNL d   1       1.643   0.436  -2.487  0.00  0.00    -0.001 A 
ATOM      4  C3  UNL d   1       1.155  -0.811  -2.883  0.00  0.00     0.003 A 
ATOM      5  C4  UNL d   1       0.386  -1.572  -2.005  0.00  0.00    -0.005 A 
ATOM      6  C5  UNL d   1       0.103  -1.087  -0.730  0.00  0.00     0.003 A 
ATOM      7  C6  UNL d   1       0.590   0.159  -0.332  0.00  0.00    -0.001 A 
ENDROOT
TORSDOF 0
ENDMDL
