MODEL 1
REMARK minimizedAffinity -2.23403931
REMARK minimizedRMSD -1
REMARK  0 active torsions:
REMARK  status: ('A' for Active; 'I' for Inactive)
ROOT
ATOM      1  C   UNL d   1       0.551   1.664   0.898  0.00  0.00     0.078 C 
ATOM      2  C1  UNL d   1       0.453   0.351   0.179  0.00  0.00    -0.077 A 
ATOM      3  C2  UNL d   1      -0.110  -0.770   0.800  0.00  0.00    -0.001 A 
ATOM      4  C3  UNL d   1      -0.185  -1.989   0.123  0.00  0.00     0.003 A 
ATOM      5  C4  UNL d   1       0.301  -2.097  -1.178  0.00  0.00    -0.005 A 
ATOM      6  C5  UNL d   1       0.866  -0.987  -1.803  0.00  0.00     0.003 A 
ATOM      7  C6  UNL d   1       0.942   0.232  -1.128  0.00  0.00    -0.001 A 
ENDROOT
TORSDOF 0
ENDMDL
