MODEL 1
REMARK minimizedAffinity -4.31371498
REMARK minimizedRMSD -1
REMARK  0 active torsions:
REMARK  status: ('A' for Active; 'I' for Inactive)
ROOT
ATOM      1  C   UNL d   1       1.911  -0.802  -0.431  0.00  0.00     0.078 C 
ATOM      2  C1  UNL d   1       0.636  -0.426   0.263  0.00  0.00    -0.077 A 
ATOM      3  C2  UNL d   1      -0.510  -1.222   0.148  0.00  0.00    -0.001 A 
ATOM      4  C3  UNL d   1      -1.693  -0.855   0.791  0.00  0.00     0.003 A 
ATOM      5  C4  UNL d   1      -1.742   0.310   1.554  0.00  0.00    -0.005 A 
ATOM      6  C5  UNL d   1      -0.607   1.110   1.673  0.00  0.00     0.003 A 
ATOM      7  C6  UNL d   1       0.577   0.744   1.030  0.00  0.00    -0.001 A 
ENDROOT
TORSDOF 0
ENDMDL
