MODEL 1
REMARK minimizedAffinity -3.90604663
REMARK minimizedRMSD -1
REMARK  0 active torsions:
REMARK  status: ('A' for Active; 'I' for Inactive)
ROOT
ATOM      1  C   UNL d   1       1.127  -3.768  -1.561  0.00  0.00     0.078 C 
ATOM      2  C1  UNL d   1       1.532  -2.466  -2.186  0.00  0.00    -0.077 A 
ATOM      3  C2  UNL d   1       2.264  -2.435  -3.379  0.00  0.00    -0.001 A 
ATOM      4  C3  UNL d   1       2.643  -1.216  -3.944  0.00  0.00     0.003 A 
ATOM      5  C4  UNL d   1       2.296  -0.019  -3.321  0.00  0.00    -0.005 A 
ATOM      6  C5  UNL d   1       1.570  -0.039  -2.132  0.00  0.00     0.003 A 
ATOM      7  C6  UNL d   1       1.190  -1.257  -1.566  0.00  0.00    -0.001 A 
ENDROOT
TORSDOF 0
ENDMDL
