MODEL 1
REMARK minimizedAffinity -6.08286333
REMARK minimizedRMSD -1
REMARK  0 active torsions:
REMARK  status: ('A' for Active; 'I' for Inactive)
ROOT
ATOM      1  C   UNL d   1      -0.352  -0.465   0.518  0.00  0.00     0.078 C 
ATOM      2  C1  UNL d   1       0.479  -0.798  -0.685  0.00  0.00    -0.077 A 
ATOM      3  C2  UNL d   1       0.865  -2.118  -0.952  0.00  0.00    -0.001 A 
ATOM      4  C3  UNL d   1       1.647  -2.412  -2.070  0.00  0.00     0.003 A 
ATOM      5  C4  UNL d   1       2.050  -1.392  -2.930  0.00  0.00    -0.005 A 
ATOM      6  C5  UNL d   1       1.673  -0.076  -2.671  0.00  0.00     0.003 A 
ATOM      7  C6  UNL d   1       0.891   0.220  -1.553  0.00  0.00    -0.001 A 
ENDROOT
TORSDOF 0
ENDMDL
