MODEL 1
REMARK minimizedAffinity -5.43359709
REMARK minimizedRMSD -1
REMARK  1 active torsions:
REMARK  status: ('A' for Active; 'I' for Inactive)
REMARK    1  A    between atoms: C1_2  and  C2_3 
ROOT
ATOM      1  C2  UNL d   1      -0.214  -0.527   0.173  0.00  0.00    -0.073 A 
ATOM      2  C3  UNL d   1      -1.414  -0.391   0.880  0.00  0.00    -0.002 A 
ATOM      3  C4  UNL d   1      -1.954   0.874   1.116  0.00  0.00     0.004 A 
ATOM      4  C5  UNL d   1      -1.305   2.014   0.642  0.00  0.00    -0.004 A 
ATOM      5  C6  UNL d   1      -0.111   1.898  -0.078  0.00  0.00    -0.075 A 
ATOM      6  C7  UNL d   1       0.601   3.115  -0.592  0.00  0.00     0.076 C 
ATOM      7  C8  UNL d   1       0.426   0.624  -0.308  0.00  0.00     0.001 A 
ENDROOT
BRANCH   1   8
ATOM      8  C1  UNL d   1       0.369  -1.891  -0.090  0.00  0.00     0.053 C 
ATOM      9  C   UNL d   1      -0.194  -2.518  -1.355  0.00  0.00     0.018 C 
ENDBRANCH   1   8
TORSDOF 1
ENDMDL
