MODEL 1
REMARK minimizedAffinity -3.5698278
REMARK minimizedRMSD -1
REMARK  1 active torsions:
REMARK  status: ('A' for Active; 'I' for Inactive)
REMARK    1  A    between atoms: C1_2  and  C2_3 
ROOT
ATOM      1  C2  UNL d   1      -0.189  -0.002   0.029  0.00  0.00    -0.073 A 
ATOM      2  C3  UNL d   1      -1.574   0.077   0.216  0.00  0.00    -0.002 A 
ATOM      3  C4  UNL d   1      -2.206   1.320   0.281  0.00  0.00     0.004 A 
ATOM      4  C5  UNL d   1      -1.463   2.493   0.153  0.00  0.00    -0.004 A 
ATOM      5  C6  UNL d   1      -0.080   2.434  -0.046  0.00  0.00    -0.075 A 
ATOM      6  C7  UNL d   1       0.734   3.688  -0.183  0.00  0.00     0.076 C 
ATOM      7  C8  UNL d   1       0.548   1.183  -0.107  0.00  0.00     0.001 A 
ENDROOT
BRANCH   1   8
ATOM      8  C1  UNL d   1       0.498  -1.341  -0.048  0.00  0.00     0.053 C 
ATOM      9  C   UNL d   1      -0.356  -2.379  -0.759  0.00  0.00     0.018 C 
ENDBRANCH   1   8
TORSDOF 1
ENDMDL
