MODEL 1
REMARK minimizedAffinity -4.01920652
REMARK minimizedRMSD -1
REMARK  1 active torsions:
REMARK  status: ('A' for Active; 'I' for Inactive)
REMARK    1  A    between atoms: C1_2  and  C2_3 
ROOT
ATOM      1  C2  UNL d   1      -0.123  -0.088  -0.345  0.00  0.00    -0.073 A 
ATOM      2  C3  UNL d   1      -1.304  -0.120   0.404  0.00  0.00    -0.002 A 
ATOM      3  C4  UNL d   1      -1.819   1.053   0.958  0.00  0.00     0.004 A 
ATOM      4  C5  UNL d   1      -1.165   2.268   0.761  0.00  0.00    -0.004 A 
ATOM      5  C6  UNL d   1       0.011   2.322   0.005  0.00  0.00    -0.075 A 
ATOM      6  C7  UNL d   1       0.728   3.622  -0.214  0.00  0.00     0.076 C 
ATOM      7  C8  UNL d   1       0.524   1.140  -0.545  0.00  0.00     0.001 A 
ENDROOT
BRANCH   1   8
ATOM      8  C1  UNL d   1       0.435  -1.351  -0.950  0.00  0.00     0.053 C 
ATOM      9  C   UNL d   1      -0.664  -2.310  -1.381  0.00  0.00     0.018 C 
ENDBRANCH   1   8
TORSDOF 1
ENDMDL
