MODEL 1
REMARK minimizedAffinity -5.44872189
REMARK minimizedRMSD -1
REMARK  1 active torsions:
REMARK  status: ('A' for Active; 'I' for Inactive)
REMARK    1  A    between atoms: C1_2  and  C2_3 
ROOT
ATOM      1  C2  UNL d   1       0.737   1.107  -0.346  0.00  0.00    -0.073 A 
ATOM      2  C3  UNL d   1       2.075   1.008   0.051  0.00  0.00    -0.002 A 
ATOM      3  C4  UNL d   1       2.629  -0.235   0.360  0.00  0.00     0.004 A 
ATOM      4  C5  UNL d   1       1.855  -1.391   0.267  0.00  0.00    -0.004 A 
ATOM      5  C6  UNL d   1       0.519  -1.315  -0.140  0.00  0.00    -0.075 A 
ATOM      6  C7  UNL d   1      -0.328  -2.549  -0.243  0.00  0.00     0.076 C 
ATOM      7  C8  UNL d   1      -0.031  -0.063  -0.445  0.00  0.00     0.001 A 
ENDROOT
BRANCH   1   8
ATOM      8  C1  UNL d   1       0.135   2.446  -0.686  0.00  0.00     0.053 C 
ATOM      9  C   UNL d   1      -0.093   3.299   0.551  0.00  0.00     0.018 C 
ENDBRANCH   1   8
TORSDOF 1
ENDMDL
