MODEL 1
REMARK minimizedAffinity -4.63093662
REMARK minimizedRMSD -1
REMARK  1 active torsions:
REMARK  status: ('A' for Active; 'I' for Inactive)
REMARK    1  A    between atoms: C1_2  and  C2_3 
ROOT
ATOM      1  C2  UNL d   1      -0.391  -2.061  -0.638  0.00  0.00    -0.073 A 
ATOM      2  C3  UNL d   1       0.183  -2.440  -1.856  0.00  0.00    -0.002 A 
ATOM      3  C4  UNL d   1      -0.465  -3.355  -2.687  0.00  0.00     0.004 A 
ATOM      4  C5  UNL d   1      -1.696  -3.895  -2.311  0.00  0.00    -0.004 A 
ATOM      5  C6  UNL d   1      -2.291  -3.519  -1.102  0.00  0.00    -0.075 A 
ATOM      6  C7  UNL d   1      -3.613  -4.092  -0.683  0.00  0.00     0.076 C 
ATOM      7  C8  UNL d   1      -1.632  -2.602  -0.273  0.00  0.00     0.001 A 
ENDROOT
BRANCH   1   8
ATOM      8  C1  UNL d   1       0.303  -1.068   0.259  0.00  0.00     0.053 C 
ATOM      9  C   UNL d   1      -0.083   0.365  -0.071  0.00  0.00     0.018 C 
ENDBRANCH   1   8
TORSDOF 1
ENDMDL
