MODEL 1
REMARK minimizedAffinity -3.99816561
REMARK minimizedRMSD -1
REMARK  1 active torsions:
REMARK  status: ('A' for Active; 'I' for Inactive)
REMARK    1  A    between atoms: C1_2  and  C2_3 
ROOT
ATOM      1  C2  UNL d   1      -0.269   0.667   0.089  0.00  0.00    -0.073 A 
ATOM      2  C3  UNL d   1       1.042   0.657   0.579  0.00  0.00    -0.002 A 
ATOM      3  C4  UNL d   1       1.798  -0.515   0.544  0.00  0.00     0.004 A 
ATOM      4  C5  UNL d   1       1.256  -1.685   0.014  0.00  0.00    -0.004 A 
ATOM      5  C6  UNL d   1      -0.048  -1.693  -0.491  0.00  0.00    -0.075 A 
ATOM      6  C7  UNL d   1      -0.647  -2.944  -1.063  0.00  0.00     0.076 C 
ATOM      7  C8  UNL d   1      -0.803  -0.513  -0.450  0.00  0.00     0.001 A 
ENDROOT
BRANCH   1   8
ATOM      8  C1  UNL d   1      -1.088   1.931   0.119  0.00  0.00     0.053 C 
ATOM      9  C   UNL d   1      -0.216   3.173   0.223  0.00  0.00     0.018 C 
ENDBRANCH   1   8
TORSDOF 1
ENDMDL
