MODEL 1
REMARK minimizedAffinity -4.13704634
REMARK minimizedRMSD -1
REMARK  1 active torsions:
REMARK  status: ('A' for Active; 'I' for Inactive)
REMARK    1  A    between atoms: C1_2  and  C2_3 
ROOT
ATOM      1  C2  UNL d   1      -0.169  -0.207   0.219  0.00  0.00    -0.073 A 
ATOM      2  C3  UNL d   1      -1.485  -0.076   0.677  0.00  0.00    -0.002 A 
ATOM      3  C4  UNL d   1      -2.090   1.181   0.733  0.00  0.00     0.004 A 
ATOM      4  C5  UNL d   1      -1.389   2.316   0.327  0.00  0.00    -0.004 A 
ATOM      5  C6  UNL d   1      -0.077   2.204  -0.145  0.00  0.00    -0.075 A 
ATOM      6  C7  UNL d   1       0.692   3.416  -0.584  0.00  0.00     0.076 C 
ATOM      7  C8  UNL d   1       0.524   0.939  -0.196  0.00  0.00     0.001 A 
ENDROOT
BRANCH   1   8
ATOM      8  C1  UNL d   1       0.486  -1.562   0.150  0.00  0.00     0.053 C 
ATOM      9  C   UNL d   1      -0.050  -2.397  -1.002  0.00  0.00     0.018 C 
ENDBRANCH   1   8
TORSDOF 1
ENDMDL
