MODEL 1
REMARK minimizedAffinity 7.84825039
REMARK minimizedRMSD -1
REMARK  1 active torsions:
REMARK  status: ('A' for Active; 'I' for Inactive)
REMARK    1  A    between atoms: C1_2  and  C2_3 
ROOT
ATOM      1  C2  UNL d   1      -1.055  -1.879  -0.110  0.00  0.00    -0.073 A 
ATOM      2  C3  UNL d   1      -1.883  -0.784   0.161  0.00  0.00    -0.002 A 
ATOM      3  C4  UNL d   1      -1.329   0.459   0.471  0.00  0.00     0.004 A 
ATOM      4  C5  UNL d   1       0.056   0.622   0.506  0.00  0.00    -0.004 A 
ATOM      5  C6  UNL d   1       0.900  -0.457   0.225  0.00  0.00    -0.075 A 
ATOM      6  C7  UNL d   1       2.392  -0.300   0.260  0.00  0.00     0.076 C 
ATOM      7  C8  UNL d   1       0.336  -1.703  -0.082  0.00  0.00     0.001 A 
ENDROOT
BRANCH   1   8
ATOM      8  C1  UNL d   1      -1.648  -3.221  -0.452  0.00  0.00     0.053 C 
ATOM      9  C   UNL d   1      -1.798  -3.413  -1.953  0.00  0.00     0.018 C 
ENDBRANCH   1   8
TORSDOF 1
ENDMDL
