MODEL 1
REMARK minimizedAffinity 0.612567544
REMARK minimizedRMSD -1
REMARK  1 active torsions:
REMARK  status: ('A' for Active; 'I' for Inactive)
REMARK    1  A    between atoms: C1_2  and  C2_3 
ROOT
ATOM      1  C2  UNL d   1       0.435  -1.574  -0.842  0.00  0.00    -0.073 A 
ATOM      2  C3  UNL d   1       1.129  -1.584  -2.057  0.00  0.00    -0.002 A 
ATOM      3  C4  UNL d   1       0.773  -2.481  -3.065  0.00  0.00     0.004 A 
ATOM      4  C5  UNL d   1      -0.285  -3.370  -2.872  0.00  0.00    -0.004 A 
ATOM      5  C6  UNL d   1      -0.998  -3.367  -1.670  0.00  0.00    -0.075 A 
ATOM      6  C7  UNL d   1      -2.137  -4.318  -1.446  0.00  0.00     0.076 C 
ATOM      7  C8  UNL d   1      -0.633  -2.465  -0.661  0.00  0.00     0.001 A 
ENDROOT
BRANCH   1   8
ATOM      8  C1  UNL d   1       0.812  -0.603   0.247  0.00  0.00     0.053 C 
ATOM      9  C   UNL d   1       1.636   0.559  -0.286  0.00  0.00     0.018 C 
ENDBRANCH   1   8
TORSDOF 1
ENDMDL
