MODEL 1
REMARK minimizedAffinity -3.92937446
REMARK minimizedRMSD -1
REMARK  1 active torsions:
REMARK  status: ('A' for Active; 'I' for Inactive)
REMARK    1  A    between atoms: N_2  and  C1_3 
ROOT
ATOM      1  C1  UNL d   1       0.815   2.099   0.077  0.00  0.00     0.143 A 
ATOM      2  C2  UNL d   1       0.101   3.285  -0.121  0.00  0.00    -0.057 A 
ATOM      3  C3  UNL d   1       0.732   4.533  -0.048  0.00  0.00     0.033 A 
ATOM      4  C4  UNL d   1       2.087   4.618   0.255  0.00  0.00    -0.042 A 
ATOM      5  C5  UNL d   1       2.811   3.452   0.481  0.00  0.00     0.033 A 
ATOM      6  C6  UNL d   1       2.177   2.209   0.400  0.00  0.00    -0.057 A 
ENDROOT
BRANCH   1   7
ATOM      7  N   UNL d   1       0.225   0.833   0.115  0.00  0.00    -0.732 N 
ATOM      8  C   UNL d   1       1.036  -0.353   0.288  0.00  0.00     0.284 C 
ATOM      9  H3  UNL d   1      -0.642   0.824   0.646  0.00  0.00     0.395 HD
ENDBRANCH   1   7
TORSDOF 1
ENDMDL
