MODEL 1
REMARK minimizedAffinity -0.661000371
REMARK minimizedRMSD -1
REMARK  1 active torsions:
REMARK  status: ('A' for Active; 'I' for Inactive)
REMARK    1  A    between atoms: N_2  and  C1_3 
ROOT
ATOM      1  C1  UNL d   1       1.960   1.747   0.885  0.00  0.00     0.143 A 
ATOM      2  C2  UNL d   1       1.296   2.578  -0.023  0.00  0.00    -0.057 A 
ATOM      3  C3  UNL d   1       0.335   3.501   0.406  0.00  0.00     0.033 A 
ATOM      4  C4  UNL d   1      -0.000   3.590   1.753  0.00  0.00    -0.042 A 
ATOM      5  C5  UNL d   1       0.630   2.757   2.671  0.00  0.00     0.033 A 
ATOM      6  C6  UNL d   1       1.593   1.841   2.236  0.00  0.00    -0.057 A 
ENDROOT
BRANCH   1   7
ATOM      7  N   UNL d   1       2.854   0.741   0.509  0.00  0.00    -0.732 N 
ATOM      8  C   UNL d   1       2.481  -0.242  -0.486  0.00  0.00     0.284 C 
ATOM      9  H3  UNL d   1       3.808   1.083   0.419  0.00  0.00     0.395 HD
ENDBRANCH   1   7
TORSDOF 1
ENDMDL
