MODEL 1
REMARK minimizedAffinity 1.90655315
REMARK minimizedRMSD -1
REMARK  1 active torsions:
REMARK  status: ('A' for Active; 'I' for Inactive)
REMARK    1  A    between atoms: N_2  and  C1_3 
ROOT
ATOM      1  C1  UNL d   1      -1.770   2.516   0.466  0.00  0.00     0.143 A 
ATOM      2  C2  UNL d   1      -1.388   1.203   0.762  0.00  0.00    -0.057 A 
ATOM      3  C3  UNL d   1      -0.076   0.897   1.143  0.00  0.00     0.033 A 
ATOM      4  C4  UNL d   1       0.888   1.897   1.206  0.00  0.00    -0.042 A 
ATOM      5  C5  UNL d   1       0.537   3.206   0.892  0.00  0.00     0.033 A 
ATOM      6  C6  UNL d   1      -0.776   3.506   0.519  0.00  0.00    -0.057 A 
ENDROOT
BRANCH   1   7
ATOM      7  N   UNL d   1      -3.033   2.869  -0.013  0.00  0.00    -0.732 N 
ATOM      8  C   UNL d   1      -4.094   1.887  -0.090  0.00  0.00     0.284 C 
ATOM      9  H3  UNL d   1      -3.335   3.781   0.322  0.00  0.00     0.395 HD
ENDBRANCH   1   7
TORSDOF 1
ENDMDL
