MODEL 1
REMARK minimizedAffinity -0.263700992
REMARK minimizedRMSD -1
REMARK  1 active torsions:
REMARK  status: ('A' for Active; 'I' for Inactive)
REMARK    1  A    between atoms: N_2  and  C1_3 
ROOT
ATOM      1  C1  UNL d   1      -0.656  -3.432   2.003  0.00  0.00     0.143 A 
ATOM      2  C2  UNL d   1      -0.597  -4.011   3.276  0.00  0.00    -0.057 A 
ATOM      3  C3  UNL d   1      -1.286  -5.195   3.567  0.00  0.00     0.033 A 
ATOM      4  C4  UNL d   1      -2.071  -5.807   2.595  0.00  0.00    -0.042 A 
ATOM      5  C5  UNL d   1      -2.164  -5.235   1.331  0.00  0.00     0.033 A 
ATOM      6  C6  UNL d   1      -1.469  -4.057   1.045  0.00  0.00    -0.057 A 
ENDROOT
BRANCH   1   7
ATOM      7  N   UNL d   1      -0.074  -2.204   1.680  0.00  0.00    -0.732 N 
ATOM      8  C   UNL d   1       0.897  -2.106   0.612  0.00  0.00     0.284 C 
ATOM      9  H3  UNL d   1      -0.744  -1.438   1.704  0.00  0.00     0.395 HD
ENDBRANCH   1   7
TORSDOF 1
ENDMDL
