MODEL 1
REMARK minimizedAffinity -2.13668036
REMARK minimizedRMSD -1
REMARK  1 active torsions:
REMARK  status: ('A' for Active; 'I' for Inactive)
REMARK    1  A    between atoms: N_2  and  C1_3 
ROOT
ATOM      1  C1  UNL d   1       1.169   2.275   0.381  0.00  0.00     0.143 A 
ATOM      2  C2  UNL d   1       0.581   1.061   0.752  0.00  0.00    -0.057 A 
ATOM      3  C3  UNL d   1      -0.809   0.894   0.742  0.00  0.00     0.033 A 
ATOM      4  C4  UNL d   1      -1.640   1.951   0.388  0.00  0.00    -0.042 A 
ATOM      5  C5  UNL d   1      -1.079   3.175   0.040  0.00  0.00     0.033 A 
ATOM      6  C6  UNL d   1       0.310   3.334   0.045  0.00  0.00    -0.057 A 
ENDROOT
BRANCH   1   7
ATOM      7  N   UNL d   1       2.539   2.534   0.465  0.00  0.00    -0.732 N 
ATOM      8  C   UNL d   1       3.424   1.611   1.143  0.00  0.00     0.284 C 
ATOM      9  H3  UNL d   1       2.917   2.911  -0.401  0.00  0.00     0.395 HD
ENDBRANCH   1   7
TORSDOF 1
ENDMDL
