MODEL 1
REMARK minimizedAffinity 6.06428146
REMARK minimizedRMSD -1
REMARK  1 active torsions:
REMARK  status: ('A' for Active; 'I' for Inactive)
REMARK    1  A    between atoms: N_2  and  C1_3 
ROOT
ATOM      1  C1  UNL d   1       2.149  -0.059  -0.398  0.00  0.00     0.143 A 
ATOM      2  C2  UNL d   1       1.695  -1.358  -0.650  0.00  0.00    -0.057 A 
ATOM      3  C3  UNL d   1       1.470  -1.808  -1.957  0.00  0.00     0.033 A 
ATOM      4  C4  UNL d   1       1.668  -0.954  -3.037  0.00  0.00    -0.042 A 
ATOM      5  C5  UNL d   1       2.095   0.349  -2.809  0.00  0.00     0.033 A 
ATOM      6  C6  UNL d   1       2.324   0.791  -1.502  0.00  0.00    -0.057 A 
ENDROOT
BRANCH   1   7
ATOM      7  N   UNL d   1       2.296   0.479   0.882  0.00  0.00    -0.732 N 
ATOM      8  C   UNL d   1       1.376   1.482   1.371  0.00  0.00     0.284 C 
ATOM      9  H3  UNL d   1       2.549  -0.225   1.572  0.00  0.00     0.395 HD
ENDBRANCH   1   7
TORSDOF 1
ENDMDL
