MODEL 1
REMARK minimizedAffinity 5.33932161
REMARK minimizedRMSD -1
REMARK  1 active torsions:
REMARK  status: ('A' for Active; 'I' for Inactive)
REMARK    1  A    between atoms: N_2  and  C1_3 
ROOT
ATOM      1  C1  UNL d   1       1.358   1.107  -0.729  0.00  0.00     0.143 A 
ATOM      2  C2  UNL d   1       1.143   1.186  -2.109  0.00  0.00    -0.057 A 
ATOM      3  C3  UNL d   1       1.383   0.090  -2.946  0.00  0.00     0.033 A 
ATOM      4  C4  UNL d   1       1.873  -1.101  -2.419  0.00  0.00    -0.042 A 
ATOM      5  C5  UNL d   1       2.118  -1.194  -1.053  0.00  0.00     0.033 A 
ATOM      6  C6  UNL d   1       1.869  -0.098  -0.222  0.00  0.00    -0.057 A 
ENDROOT
BRANCH   1   7
ATOM      7  N   UNL d   1       1.231   2.192   0.141  0.00  0.00    -0.732 N 
ATOM      8  C   UNL d   1      -0.023   2.907   0.251  0.00  0.00     0.284 C 
ATOM      9  H3  UNL d   1       1.698   2.033   1.031  0.00  0.00     0.395 HD
ENDBRANCH   1   7
TORSDOF 1
ENDMDL
