MODEL 1
REMARK minimizedAffinity -0.206556842
REMARK minimizedRMSD -1
REMARK  1 active torsions:
REMARK  status: ('A' for Active; 'I' for Inactive)
REMARK    1  A    between atoms: N_2  and  C1_3 
ROOT
ATOM      1  C1  UNL d   1       1.107   2.423   0.737  0.00  0.00     0.143 A 
ATOM      2  C2  UNL d   1       0.338   3.517   0.324  0.00  0.00    -0.057 A 
ATOM      3  C3  UNL d   1      -1.060   3.453   0.297  0.00  0.00     0.033 A 
ATOM      4  C4  UNL d   1      -1.716   2.280   0.656  0.00  0.00    -0.042 A 
ATOM      5  C5  UNL d   1      -0.972   1.172   1.046  0.00  0.00     0.033 A 
ATOM      6  C6  UNL d   1       0.424   1.244   1.078  0.00  0.00    -0.057 A 
ENDROOT
BRANCH   1   7
ATOM      7  N   UNL d   1       2.503   2.391   0.692  0.00  0.00    -0.732 N 
ATOM      8  C   UNL d   1       3.210   1.130   0.633  0.00  0.00     0.284 C 
ATOM      9  H3  UNL d   1       2.888   3.113   0.086  0.00  0.00     0.395 HD
ENDBRANCH   1   7
TORSDOF 1
ENDMDL
