MODEL 1
REMARK minimizedAffinity 3.66258574
REMARK minimizedRMSD -1
REMARK  1 active torsions:
REMARK  status: ('A' for Active; 'I' for Inactive)
REMARK    1  A    between atoms: N_2  and  C1_3 
ROOT
ATOM      1  C1  UNL d   1       0.500   1.836   0.646  0.00  0.00     0.143 A 
ATOM      2  C2  UNL d   1      -0.013   3.107   0.365  0.00  0.00    -0.057 A 
ATOM      3  C3  UNL d   1      -1.372   3.396   0.541  0.00  0.00     0.033 A 
ATOM      4  C4  UNL d   1      -2.249   2.408   0.974  0.00  0.00    -0.042 A 
ATOM      5  C5  UNL d   1      -1.766   1.131   1.235  0.00  0.00     0.033 A 
ATOM      6  C6  UNL d   1      -0.407   0.850   1.065  0.00  0.00    -0.057 A 
ENDROOT
BRANCH   1   7
ATOM      7  N   UNL d   1       1.822   1.458   0.398  0.00  0.00    -0.732 N 
ATOM      8  C   UNL d   1       2.146   0.090   0.055  0.00  0.00     0.284 C 
ATOM      9  H3  UNL d   1       2.330   2.154  -0.143  0.00  0.00     0.395 HD
ENDBRANCH   1   7
TORSDOF 1
ENDMDL
