MODEL 1
REMARK minimizedAffinity 3.7824316
REMARK minimizedRMSD -1
REMARK  1 active torsions:
REMARK  status: ('A' for Active; 'I' for Inactive)
REMARK    1  A    between atoms: N_2  and  C1_3 
ROOT
ATOM      1  C1  UNL d   1       0.732   1.509   0.949  0.00  0.00     0.143 A 
ATOM      2  C2  UNL d   1       2.057   1.948   0.850  0.00  0.00    -0.057 A 
ATOM      3  C3  UNL d   1       3.097   1.057   0.555  0.00  0.00     0.033 A 
ATOM      4  C4  UNL d   1       2.832  -0.297   0.381  0.00  0.00    -0.042 A 
ATOM      5  C5  UNL d   1       1.527  -0.760   0.499  0.00  0.00     0.033 A 
ATOM      6  C6  UNL d   1       0.492   0.135   0.787  0.00  0.00    -0.057 A 
ENDROOT
BRANCH   1   7
ATOM      7  N   UNL d   1      -0.331   2.327   1.337  0.00  0.00    -0.732 N 
ATOM      8  C   UNL d   1      -1.330   2.743   0.376  0.00  0.00     0.284 C 
ATOM      9  H3  UNL d   1      -0.711   2.067   2.244  0.00  0.00     0.395 HD
ENDBRANCH   1   7
TORSDOF 1
ENDMDL
