MODEL 1
REMARK minimizedAffinity 11.193429
REMARK minimizedRMSD -1
REMARK  1 active torsions:
REMARK  status: ('A' for Active; 'I' for Inactive)
REMARK    1  A    between atoms: N_2  and  C1_3 
ROOT
ATOM      1  C1  UNL d   1       1.047   2.603   0.962  0.00  0.00     0.143 A 
ATOM      2  C2  UNL d   1       0.101   3.158   0.093  0.00  0.00    -0.057 A 
ATOM      3  C3  UNL d   1      -1.211   3.408   0.512  0.00  0.00     0.033 A 
ATOM      4  C4  UNL d   1      -1.610   3.080   1.803  0.00  0.00    -0.042 A 
ATOM      5  C5  UNL d   1      -0.694   2.505   2.677  0.00  0.00     0.033 A 
ATOM      6  C6  UNL d   1       0.617   2.264   2.255  0.00  0.00    -0.057 A 
ENDROOT
BRANCH   1   7
ATOM      7  N   UNL d   1       2.339   2.240   0.577  0.00  0.00    -0.732 N 
ATOM      8  C   UNL d   1       2.639   0.876   0.199  0.00  0.00     0.284 C 
ATOM      9  H3  UNL d   1       2.780   2.941  -0.014  0.00  0.00     0.395 HD
ENDBRANCH   1   7
TORSDOF 1
ENDMDL
