MODEL 1
REMARK minimizedAffinity 4.89640188
REMARK minimizedRMSD -1
REMARK  1 active torsions:
REMARK  status: ('A' for Active; 'I' for Inactive)
REMARK    1  A    between atoms: N_2  and  C1_3 
ROOT
ATOM      1  C1  UNL d   1       1.145   0.114   0.713  0.00  0.00     0.143 A 
ATOM      2  C2  UNL d   1       1.544   1.415   0.391  0.00  0.00    -0.057 A 
ATOM      3  C3  UNL d   1       0.747   2.520   0.713  0.00  0.00     0.033 A 
ATOM      4  C4  UNL d   1      -0.482   2.339   1.339  0.00  0.00    -0.042 A 
ATOM      5  C5  UNL d   1      -0.911   1.052   1.646  0.00  0.00     0.033 A 
ATOM      6  C6  UNL d   1      -0.106  -0.046   1.328  0.00  0.00    -0.057 A 
ENDROOT
BRANCH   1   7
ATOM      7  N   UNL d   1       1.848  -1.032   0.332  0.00  0.00    -0.732 N 
ATOM      8  C   UNL d   1       1.753  -1.539  -1.020  0.00  0.00     0.284 C 
ATOM      9  H3  UNL d   1       2.788  -1.058   0.720  0.00  0.00     0.395 HD
ENDBRANCH   1   7
TORSDOF 1
ENDMDL
