MODEL 1
REMARK minimizedAffinity -4.93577051
REMARK minimizedRMSD -1
REMARK  2 active torsions:
REMARK  status: ('A' for Active; 'I' for Inactive)
REMARK    1  A    between atoms: C1_2  and  C2_3 
REMARK    2  A    between atoms: C2_3  and  C3_4 
ROOT
ATOM      1  C3  UNL d   1      -1.040   1.349   1.897  0.00  0.00    -0.075 A 
ATOM      2  C4  UNL d   1      -1.947   0.282   1.977  0.00  0.00     0.002 A 
ATOM      3  C5  UNL d   1      -3.112   0.398   2.736  0.00  0.00     0.002 A 
ATOM      4  C6  UNL d   1      -3.381   1.576   3.430  0.00  0.00    -0.004 A 
ATOM      5  C7  UNL d   1      -2.479   2.636   3.370  0.00  0.00     0.002 A 
ATOM      6  C8  UNL d   1      -1.314   2.524   2.609  0.00  0.00     0.002 A 
ENDROOT
BRANCH   1   7
ATOM      7  C2  UNL d   1       0.208   1.241   1.054  0.00  0.00     0.056 C 
BRANCH   7   8
ATOM      8  C1  UNL d   1       1.164   0.128   1.496  0.00  0.00     0.007 C 
ATOM      9  C   UNL d   1       0.575  -0.778   2.569  0.00  0.00     0.009 C 
ENDBRANCH   7   8
ENDBRANCH   1   7
TORSDOF 2
ENDMDL
