MODEL 1
REMARK minimizedAffinity 0.141846314
REMARK minimizedRMSD -1
REMARK  2 active torsions:
REMARK  status: ('A' for Active; 'I' for Inactive)
REMARK    1  A    between atoms: C1_2  and  C2_3 
REMARK    2  A    between atoms: C2_3  and  C3_4 
ROOT
ATOM      1  C3  UNL d   1      -3.278   1.394   2.871  0.00  0.00    -0.075 A 
ATOM      2  C4  UNL d   1      -2.894   0.073   2.597  0.00  0.00     0.002 A 
ATOM      3  C5  UNL d   1      -1.750  -0.191   1.843  0.00  0.00     0.002 A 
ATOM      4  C6  UNL d   1      -0.984   0.860   1.344  0.00  0.00    -0.004 A 
ATOM      5  C7  UNL d   1      -1.365   2.176   1.596  0.00  0.00     0.002 A 
ATOM      6  C8  UNL d   1      -2.506   2.443   2.354  0.00  0.00     0.002 A 
ENDROOT
BRANCH   1   7
ATOM      7  C2  UNL d   1      -4.498   1.685   3.712  0.00  0.00     0.056 C 
BRANCH   7   8
ATOM      8  C1  UNL d   1      -4.190   1.934   5.192  0.00  0.00     0.007 C 
ATOM      9  C   UNL d   1      -5.352   2.564   5.949  0.00  0.00     0.009 C 
ENDBRANCH   7   8
ENDBRANCH   1   7
TORSDOF 2
ENDMDL
