MODEL 1
REMARK minimizedAffinity -1.37393868
REMARK minimizedRMSD -1
REMARK  2 active torsions:
REMARK  status: ('A' for Active; 'I' for Inactive)
REMARK    1  A    between atoms: C1_2  and  C2_3 
REMARK    2  A    between atoms: C2_3  and  C3_4 
ROOT
ATOM      1  C3  UNL d   1      -2.879   1.344   2.859  0.00  0.00    -0.075 A 
ATOM      2  C4  UNL d   1      -2.341   0.220   2.214  0.00  0.00     0.002 A 
ATOM      3  C5  UNL d   1      -1.180   0.331   1.449  0.00  0.00     0.002 A 
ATOM      4  C6  UNL d   1      -0.549   1.565   1.309  0.00  0.00    -0.004 A 
ATOM      5  C7  UNL d   1      -1.084   2.691   1.932  0.00  0.00     0.002 A 
ATOM      6  C8  UNL d   1      -2.243   2.582   2.702  0.00  0.00     0.002 A 
ENDROOT
BRANCH   1   7
ATOM      7  C2  UNL d   1      -4.118   1.225   3.713  0.00  0.00     0.056 C 
BRANCH   7   8
ATOM      8  C1  UNL d   1      -4.140   2.174   4.916  0.00  0.00     0.007 C 
ATOM      9  C   UNL d   1      -5.131   1.754   5.994  0.00  0.00     0.009 C 
ENDBRANCH   7   8
ENDBRANCH   1   7
TORSDOF 2
ENDMDL
