MODEL 1
REMARK minimizedAffinity -0.922911584
REMARK minimizedRMSD -1
REMARK  2 active torsions:
REMARK  status: ('A' for Active; 'I' for Inactive)
REMARK    1  A    between atoms: C1_2  and  C2_3 
REMARK    2  A    between atoms: C2_3  and  C3_4 
ROOT
ATOM      1  C3  UNL d   1      -1.934   1.513   2.630  0.00  0.00    -0.075 A 
ATOM      2  C4  UNL d   1      -1.961   0.121   2.463  0.00  0.00     0.002 A 
ATOM      3  C5  UNL d   1      -0.965  -0.524   1.730  0.00  0.00     0.002 A 
ATOM      4  C6  UNL d   1       0.063   0.214   1.146  0.00  0.00    -0.004 A 
ATOM      5  C7  UNL d   1       0.091   1.599   1.292  0.00  0.00     0.002 A 
ATOM      6  C8  UNL d   1      -0.902   2.247   2.029  0.00  0.00     0.002 A 
ENDROOT
BRANCH   1   7
ATOM      7  C2  UNL d   1      -2.993   2.214   3.447  0.00  0.00     0.056 C 
BRANCH   7   8
ATOM      8  C1  UNL d   1      -3.951   1.264   4.172  0.00  0.00     0.007 C 
ATOM      9  C   UNL d   1      -4.860   1.973   5.168  0.00  0.00     0.009 C 
ENDBRANCH   7   8
ENDBRANCH   1   7
TORSDOF 2
ENDMDL
