MODEL 1
REMARK minimizedAffinity -4.44243908
REMARK minimizedRMSD -1
REMARK  2 active torsions:
REMARK  status: ('A' for Active; 'I' for Inactive)
REMARK    1  A    between atoms: C1_2  and  C2_3 
REMARK    2  A    between atoms: C2_3  and  C3_4 
ROOT
ATOM      1  C3  UNL d   1      -1.502   1.424   2.215  0.00  0.00    -0.075 A 
ATOM      2  C4  UNL d   1      -1.667   0.034   2.296  0.00  0.00     0.002 A 
ATOM      3  C5  UNL d   1      -0.747  -0.825   1.694  0.00  0.00     0.002 A 
ATOM      4  C6  UNL d   1       0.342  -0.307   0.997  0.00  0.00    -0.004 A 
ATOM      5  C7  UNL d   1       0.507   1.073   0.897  0.00  0.00     0.002 A 
ATOM      6  C8  UNL d   1      -0.410   1.935   1.501  0.00  0.00     0.002 A 
ENDROOT
BRANCH   1   7
ATOM      7  C2  UNL d   1      -2.478   2.359   2.889  0.00  0.00     0.056 C 
BRANCH   7   8
ATOM      8  C1  UNL d   1      -3.537   1.648   3.738  0.00  0.00     0.007 C 
ATOM      9  C   UNL d   1      -4.524   2.606   4.392  0.00  0.00     0.009 C 
ENDBRANCH   7   8
ENDBRANCH   1   7
TORSDOF 2
ENDMDL
