MODEL 1
REMARK minimizedAffinity -2.53644133
REMARK minimizedRMSD -1
REMARK  2 active torsions:
REMARK  status: ('A' for Active; 'I' for Inactive)
REMARK    1  A    between atoms: C1_2  and  C2_3 
REMARK    2  A    between atoms: C2_3  and  C3_4 
ROOT
ATOM      1  C3  UNL d   1      -1.090  -0.113   1.636  0.00  0.00    -0.075 A 
ATOM      2  C4  UNL d   1       0.176  -0.124   1.032  0.00  0.00     0.002 A 
ATOM      3  C5  UNL d   1       0.899   1.060   0.882  0.00  0.00     0.002 A 
ATOM      4  C6  UNL d   1       0.364   2.267   1.325  0.00  0.00    -0.004 A 
ATOM      5  C7  UNL d   1      -0.899   2.292   1.912  0.00  0.00     0.002 A 
ATOM      6  C8  UNL d   1      -1.623   1.109   2.067  0.00  0.00     0.002 A 
ENDROOT
BRANCH   1   7
ATOM      7  C2  UNL d   1      -1.865  -1.395   1.828  0.00  0.00     0.056 C 
BRANCH   7   8
ATOM      8  C1  UNL d   1      -2.854  -1.356   2.998  0.00  0.00     0.007 C 
ATOM      9  C   UNL d   1      -2.609  -2.452   4.027  0.00  0.00     0.009 C 
ENDBRANCH   7   8
ENDBRANCH   1   7
TORSDOF 2
ENDMDL
