MODEL 1
REMARK minimizedAffinity -2.93502116
REMARK minimizedRMSD -1
REMARK  2 active torsions:
REMARK  status: ('A' for Active; 'I' for Inactive)
REMARK    1  A    between atoms: C1_2  and  C2_3 
REMARK    2  A    between atoms: C2_3  and  C3_4 
ROOT
ATOM      1  C3  UNL d   1      -1.629   2.199   2.104  0.00  0.00    -0.075 A 
ATOM      2  C4  UNL d   1      -1.721   0.819   1.870  0.00  0.00     0.002 A 
ATOM      3  C5  UNL d   1      -0.806   0.181   1.031  0.00  0.00     0.002 A 
ATOM      4  C6  UNL d   1       0.202   0.913   0.409  0.00  0.00    -0.004 A 
ATOM      5  C7  UNL d   1       0.293   2.287   0.622  0.00  0.00     0.002 A 
ATOM      6  C8  UNL d   1      -0.618   2.928   1.463  0.00  0.00     0.002 A 
ENDROOT
BRANCH   1   7
ATOM      7  C2  UNL d   1      -2.598   2.891   3.033  0.00  0.00     0.056 C 
BRANCH   7   8
ATOM      8  C1  UNL d   1      -3.658   1.962   3.634  0.00  0.00     0.007 C 
ATOM      9  C   UNL d   1      -4.383   2.570   4.826  0.00  0.00     0.009 C 
ENDBRANCH   7   8
ENDBRANCH   1   7
TORSDOF 2
ENDMDL
