MODEL 1
REMARK minimizedAffinity -4.73016596
REMARK minimizedRMSD -1
REMARK  2 active torsions:
REMARK  status: ('A' for Active; 'I' for Inactive)
REMARK    1  A    between atoms: C1_2  and  C2_3 
REMARK    2  A    between atoms: C2_3  and  C3_4 
ROOT
ATOM      1  C3  UNL d   1      -1.956   1.009   2.156  0.00  0.00    -0.075 A 
ATOM      2  C4  UNL d   1      -1.345   0.001   1.396  0.00  0.00     0.002 A 
ATOM      3  C5  UNL d   1      -0.047   0.168   0.912  0.00  0.00     0.002 A 
ATOM      4  C6  UNL d   1       0.651   1.346   1.171  0.00  0.00    -0.004 A 
ATOM      5  C7  UNL d   1       0.047   2.360   1.911  0.00  0.00     0.002 A 
ATOM      6  C8  UNL d   1      -1.250   2.195   2.400  0.00  0.00     0.002 A 
ENDROOT
BRANCH   1   7
ATOM      7  C2  UNL d   1      -3.349   0.823   2.708  0.00  0.00     0.056 C 
BRANCH   7   8
ATOM      8  C1  UNL d   1      -3.651   1.679   3.943  0.00  0.00     0.007 C 
ATOM      9  C   UNL d   1      -5.049   1.454   4.503  0.00  0.00     0.009 C 
ENDBRANCH   7   8
ENDBRANCH   1   7
TORSDOF 2
ENDMDL
