MODEL 1
REMARK minimizedAffinity -0.470776767
REMARK minimizedRMSD -1
REMARK  2 active torsions:
REMARK  status: ('A' for Active; 'I' for Inactive)
REMARK    1  A    between atoms: C1_2  and  C2_3 
REMARK    2  A    between atoms: C2_3  and  C3_4 
ROOT
ATOM      1  C3  UNL d   1      -1.811   1.593   2.757  0.00  0.00    -0.075 A 
ATOM      2  C4  UNL d   1      -1.653   0.201   2.825  0.00  0.00     0.002 A 
ATOM      3  C5  UNL d   1      -0.788  -0.457   1.950  0.00  0.00     0.002 A 
ATOM      4  C6  UNL d   1      -0.078   0.265   0.993  0.00  0.00    -0.004 A 
ATOM      5  C7  UNL d   1      -0.239   1.646   0.906  0.00  0.00     0.002 A 
ATOM      6  C8  UNL d   1      -1.101   2.308   1.783  0.00  0.00     0.002 A 
ENDROOT
BRANCH   1   7
ATOM      7  C2  UNL d   1      -2.723   2.315   3.720  0.00  0.00     0.056 C 
BRANCH   7   8
ATOM      8  C1  UNL d   1      -3.934   1.490   4.169  0.00  0.00     0.007 C 
ATOM      9  C   UNL d   1      -4.988   2.316   4.894  0.00  0.00     0.009 C 
ENDBRANCH   7   8
ENDBRANCH   1   7
TORSDOF 2
ENDMDL
