MODEL 1
REMARK minimizedAffinity -2.64900804
REMARK minimizedRMSD -1
REMARK  2 active torsions:
REMARK  status: ('A' for Active; 'I' for Inactive)
REMARK    1  A    between atoms: C1_2  and  C2_3 
REMARK    2  A    between atoms: C2_3  and  C3_4 
ROOT
ATOM      1  C3  UNL d   1      -1.588   1.697   2.363  0.00  0.00    -0.075 A 
ATOM      2  C4  UNL d   1      -1.741   0.337   2.058  0.00  0.00     0.002 A 
ATOM      3  C5  UNL d   1      -0.717  -0.365   1.421  0.00  0.00     0.002 A 
ATOM      4  C6  UNL d   1       0.465   0.284   1.072  0.00  0.00    -0.004 A 
ATOM      5  C7  UNL d   1       0.621   1.639   1.354  0.00  0.00     0.002 A 
ATOM      6  C8  UNL d   1      -0.400   2.343   1.996  0.00  0.00     0.002 A 
ENDROOT
BRANCH   1   7
ATOM      7  C2  UNL d   1      -2.680   2.456   3.079  0.00  0.00     0.056 C 
BRANCH   7   8
ATOM      8  C1  UNL d   1      -3.755   1.560   3.703  0.00  0.00     0.007 C 
ATOM      9  C   UNL d   1      -4.563   2.259   4.788  0.00  0.00     0.009 C 
ENDBRANCH   7   8
ENDBRANCH   1   7
TORSDOF 2
ENDMDL
