MODEL 1
REMARK minimizedAffinity -3.51741886
REMARK minimizedRMSD -1
REMARK  2 active torsions:
REMARK  status: ('A' for Active; 'I' for Inactive)
REMARK    1  A    between atoms: C1_2  and  C2_3 
REMARK    2  A    between atoms: C2_3  and  C3_4 
ROOT
ATOM      1  C3  UNL d   1      -1.632   1.598   2.176  0.00  0.00    -0.075 A 
ATOM      2  C4  UNL d   1      -1.790   0.207   2.103  0.00  0.00     0.002 A 
ATOM      3  C5  UNL d   1      -0.933  -0.564   1.317  0.00  0.00     0.002 A 
ATOM      4  C6  UNL d   1       0.086   0.046   0.589  0.00  0.00    -0.004 A 
ATOM      5  C7  UNL d   1       0.243   1.430   0.641  0.00  0.00     0.002 A 
ATOM      6  C8  UNL d   1      -0.611   2.202   1.430  0.00  0.00     0.002 A 
ENDROOT
BRANCH   1   7
ATOM      7  C2  UNL d   1      -2.538   2.434   3.047  0.00  0.00     0.056 C 
BRANCH   7   8
ATOM      8  C1  UNL d   1      -3.813   1.712   3.495  0.00  0.00     0.007 C 
ATOM      9  C   UNL d   1      -4.497   2.380   4.680  0.00  0.00     0.009 C 
ENDBRANCH   7   8
ENDBRANCH   1   7
TORSDOF 2
ENDMDL
