MODEL 1
REMARK minimizedAffinity 4.61245632
REMARK minimizedRMSD -1
REMARK  2 active torsions:
REMARK  status: ('A' for Active; 'I' for Inactive)
REMARK    1  A    between atoms: C1_2  and  C2_3 
REMARK    2  A    between atoms: C2_3  and  C3_4 
ROOT
ATOM      1  C3  UNL d   1       0.099   2.612   1.054  0.00  0.00    -0.075 A 
ATOM      2  C4  UNL d   1      -0.873   3.556   1.417  0.00  0.00     0.002 A 
ATOM      3  C5  UNL d   1      -1.992   3.172   2.157  0.00  0.00     0.002 A 
ATOM      4  C6  UNL d   1      -2.158   1.842   2.535  0.00  0.00    -0.004 A 
ATOM      5  C7  UNL d   1      -1.208   0.892   2.166  0.00  0.00     0.002 A 
ATOM      6  C8  UNL d   1      -0.085   1.274   1.429  0.00  0.00     0.002 A 
ENDROOT
BRANCH   1   7
ATOM      7  C2  UNL d   1       1.326   3.026   0.279  0.00  0.00     0.056 C 
BRANCH   7   8
ATOM      8  C1  UNL d   1       1.759   4.475   0.524  0.00  0.00     0.007 C 
ATOM      9  C   UNL d   1       3.261   4.627   0.727  0.00  0.00     0.009 C 
ENDBRANCH   7   8
ENDBRANCH   1   7
TORSDOF 2
ENDMDL
