MODEL 1
REMARK minimizedAffinity 0.179490566
REMARK minimizedRMSD -1
REMARK  2 active torsions:
REMARK  status: ('A' for Active; 'I' for Inactive)
REMARK    1  A    between atoms: C1_2  and  C2_3 
REMARK    2  A    between atoms: C2_3  and  C3_4 
ROOT
ATOM      1  C3  UNL d   1      -1.052   1.401   2.560  0.00  0.00    -0.075 A 
ATOM      2  C4  UNL d   1       0.223   1.797   2.131  0.00  0.00     0.002 A 
ATOM      3  C5  UNL d   1       0.920   1.039   1.189  0.00  0.00     0.002 A 
ATOM      4  C6  UNL d   1       0.358  -0.126   0.673  0.00  0.00    -0.004 A 
ATOM      5  C7  UNL d   1      -0.901  -0.538   1.105  0.00  0.00     0.002 A 
ATOM      6  C8  UNL d   1      -1.603   0.220   2.044  0.00  0.00     0.002 A 
ENDROOT
BRANCH   1   7
ATOM      7  C2  UNL d   1      -1.824   2.232   3.557  0.00  0.00     0.056 C 
BRANCH   7   8
ATOM      8  C1  UNL d   1      -3.269   1.767   3.770  0.00  0.00     0.007 C 
ATOM      9  C   UNL d   1      -3.988   2.530   4.874  0.00  0.00     0.009 C 
ENDBRANCH   7   8
ENDBRANCH   1   7
TORSDOF 2
ENDMDL
