MODEL 1
REMARK minimizedAffinity -3.06141496
REMARK minimizedRMSD -1
REMARK  0 active torsions:
REMARK  status: ('A' for Active; 'I' for Inactive)
ROOT
ATOM      1  C2' OXE d   1       0.309  -1.710   1.307  0.00  0.00     0.078 C 
ATOM      2  C1' OXE d   1       3.049  -1.578   1.906  0.00  0.00     0.078 C 
ATOM      3  C1  OXE d   1       2.398  -0.352   1.316  0.00  0.00    -0.078 A 
ATOM      4  C2  OXE d   1       1.068  -0.441   0.982  0.00  0.00    -0.078 A 
ATOM      5  C3  OXE d   1       0.405   0.678   0.485  0.00  0.00     0.003 A 
ATOM      6  C4  OXE d   1       1.116   1.844   0.178  0.00  0.00    -0.002 A 
ATOM      7  C5  OXE d   1       2.480   1.943   0.473  0.00  0.00    -0.002 A 
ATOM      8  C6  OXE d   1       3.125   0.871   1.080  0.00  0.00     0.003 A 
ENDROOT
TORSDOF 0
ENDMDL
