MODEL 1
REMARK minimizedAffinity 2.12914181
REMARK minimizedRMSD -1
REMARK  0 active torsions:
REMARK  status: ('A' for Active; 'I' for Inactive)
ROOT
ATOM      1  C2' OXE d   1       2.271   5.750  -2.274  0.00  0.00     0.078 C 
ATOM      2  C1' OXE d   1       4.699   5.820  -0.867  0.00  0.00     0.078 C 
ATOM      3  C1  OXE d   1       4.757   5.881  -2.373  0.00  0.00    -0.078 A 
ATOM      4  C2  OXE d   1       3.566   5.799  -3.055  0.00  0.00    -0.078 A 
ATOM      5  C3  OXE d   1       3.559   5.905  -4.443  0.00  0.00     0.003 A 
ATOM      6  C4  OXE d   1       4.762   5.941  -5.158  0.00  0.00    -0.002 A 
ATOM      7  C5  OXE d   1       5.987   5.985  -4.485  0.00  0.00    -0.002 A 
ATOM      8  C6  OXE d   1       6.000   5.999  -3.094  0.00  0.00     0.003 A 
ENDROOT
TORSDOF 0
ENDMDL
