MODEL 1
REMARK minimizedAffinity 8.59763908
REMARK minimizedRMSD -1
REMARK  0 active torsions:
REMARK  status: ('A' for Active; 'I' for Inactive)
ROOT
ATOM      1  C2' OXE d   1       1.930  -1.762   3.520  0.00  0.00     0.078 C 
ATOM      2  C1' OXE d   1       0.101  -1.629   1.394  0.00  0.00     0.078 C 
ATOM      3  C1  OXE d   1       1.109  -0.515   1.526  0.00  0.00    -0.078 A 
ATOM      4  C2  OXE d   1       1.970  -0.564   2.596  0.00  0.00    -0.078 A 
ATOM      5  C3  OXE d   1       2.955   0.410   2.734  0.00  0.00     0.003 A 
ATOM      6  C4  OXE d   1       2.978   1.520   1.881  0.00  0.00    -0.002 A 
ATOM      7  C5  OXE d   1       2.085   1.610   0.808  0.00  0.00    -0.002 A 
ATOM      8  C6  OXE d   1       1.174   0.582   0.592  0.00  0.00     0.003 A 
ENDROOT
TORSDOF 0
ENDMDL
