MODEL 1
REMARK minimizedAffinity -0.616556704
REMARK minimizedRMSD -1
REMARK  0 active torsions:
REMARK  status: ('A' for Active; 'I' for Inactive)
ROOT
ATOM      1  C2' OXE d   1      -0.222  -1.520   1.251  0.00  0.00     0.078 C 
ATOM      2  C1' OXE d   1       1.737  -1.521   3.262  0.00  0.00     0.078 C 
ATOM      3  C1  OXE d   1       1.848  -0.484   2.172  0.00  0.00    -0.078 A 
ATOM      4  C2  OXE d   1       0.912  -0.521   1.167  0.00  0.00    -0.078 A 
ATOM      5  C3  OXE d   1       0.937   0.447   0.167  0.00  0.00     0.003 A 
ATOM      6  C4  OXE d   1       1.994   1.361   0.091  0.00  0.00    -0.002 A 
ATOM      7  C5  OXE d   1       2.980   1.390   1.083  0.00  0.00    -0.002 A 
ATOM      8  C6  OXE d   1       2.898   0.504   2.151  0.00  0.00     0.003 A 
ENDROOT
TORSDOF 0
ENDMDL
