MODEL 1
REMARK minimizedAffinity 0.126161814
REMARK minimizedRMSD -1
REMARK  0 active torsions:
REMARK  status: ('A' for Active; 'I' for Inactive)
ROOT
ATOM      1  C2' OXE d   1       1.502   0.700   1.231  0.00  0.00     0.078 C 
ATOM      2  C1' OXE d   1      -0.803   2.300   1.141  0.00  0.00     0.078 C 
ATOM      3  C1  OXE d   1       0.412   2.772   0.382  0.00  0.00    -0.078 A 
ATOM      4  C2  OXE d   1       1.550   2.007   0.470  0.00  0.00    -0.078 A 
ATOM      5  C3  OXE d   1       2.681   2.368  -0.256  0.00  0.00     0.003 A 
ATOM      6  C4  OXE d   1       2.720   3.583  -0.950  0.00  0.00    -0.002 A 
ATOM      7  C5  OXE d   1       1.585   4.398  -1.019  0.00  0.00    -0.002 A 
ATOM      8  C6  OXE d   1       0.412   3.987  -0.395  0.00  0.00     0.003 A 
ENDROOT
TORSDOF 0
ENDMDL
