MODEL 1
REMARK minimizedAffinity 8.03332615
REMARK minimizedRMSD -1
REMARK  0 active torsions:
REMARK  status: ('A' for Active; 'I' for Inactive)
ROOT
ATOM      1  C2' OXE d   1       3.095   0.849   1.485  0.00  0.00     0.078 C 
ATOM      2  C1' OXE d   1       1.230   2.615   0.352  0.00  0.00     0.078 C 
ATOM      3  C1  OXE d   1       0.760   1.226   0.703  0.00  0.00    -0.078 A 
ATOM      4  C2  OXE d   1       1.690   0.354   1.214  0.00  0.00    -0.078 A 
ATOM      5  C3  OXE d   1       1.297  -0.923   1.606  0.00  0.00     0.003 A 
ATOM      6  C4  OXE d   1      -0.002  -1.376   1.343  0.00  0.00    -0.002 A 
ATOM      7  C5  OXE d   1      -0.955  -0.516   0.786  0.00  0.00    -0.002 A 
ATOM      8  C6  OXE d   1      -0.602   0.798   0.501  0.00  0.00     0.003 A 
ENDROOT
TORSDOF 0
ENDMDL
