MODEL 1
REMARK minimizedAffinity -5.21328878
REMARK minimizedRMSD -1
REMARK  0 active torsions:
REMARK  status: ('A' for Active; 'I' for Inactive)
ROOT
ATOM      1  C   UNL d   1       2.167  -1.259  -0.957  0.00  0.00     0.078 C 
ATOM      2  C1  UNL d   1       1.211  -0.494  -0.092  0.00  0.00    -0.077 A 
ATOM      3  C2  UNL d   1       0.059  -1.102   0.422  0.00  0.00    -0.001 A 
ATOM      4  C3  UNL d   1      -0.828  -0.376   1.218  0.00  0.00     0.003 A 
ATOM      5  C4  UNL d   1      -0.573   0.963   1.507  0.00  0.00    -0.005 A 
ATOM      6  C5  UNL d   1       0.570   1.578   0.998  0.00  0.00     0.003 A 
ATOM      7  C6  UNL d   1       1.458   0.852   0.202  0.00  0.00    -0.001 A 
ENDROOT
TORSDOF 0
ENDMDL
