MODEL 1
REMARK minimizedAffinity -4.42691326
REMARK minimizedRMSD -1
REMARK  0 active torsions:
REMARK  status: ('A' for Active; 'I' for Inactive)
ROOT
ATOM      1  C   UNL d   1      -1.012  -1.077  -0.740  0.00  0.00     0.078 C 
ATOM      2  C1  UNL d   1      -0.329  -0.084   0.152  0.00  0.00    -0.077 A 
ATOM      3  C2  UNL d   1      -0.671   0.023   1.506  0.00  0.00    -0.001 A 
ATOM      4  C3  UNL d   1      -0.033   0.958   2.323  0.00  0.00     0.003 A 
ATOM      5  C4  UNL d   1       0.949   1.794   1.795  0.00  0.00    -0.005 A 
ATOM      6  C5  UNL d   1       1.294   1.696   0.449  0.00  0.00     0.003 A 
ATOM      7  C6  UNL d   1       0.658   0.762  -0.370  0.00  0.00    -0.001 A 
ENDROOT
TORSDOF 0
ENDMDL
