MODEL 1
REMARK minimizedAffinity -3.27196765
REMARK minimizedRMSD -1
REMARK  0 active torsions:
REMARK  status: ('A' for Active; 'I' for Inactive)
ROOT
ATOM      1  C   UNL d   1      -1.514   0.008   0.660  0.00  0.00     0.078 C 
ATOM      2  C1  UNL d   1      -0.094  -0.044   0.184  0.00  0.00    -0.077 A 
ATOM      3  C2  UNL d   1       0.456  -1.230  -0.319  0.00  0.00    -0.001 A 
ATOM      4  C3  UNL d   1       1.783  -1.266  -0.750  0.00  0.00     0.003 A 
ATOM      5  C4  UNL d   1       2.572  -0.120  -0.682  0.00  0.00    -0.005 A 
ATOM      6  C5  UNL d   1       2.035   1.064  -0.181  0.00  0.00     0.003 A 
ATOM      7  C6  UNL d   1       0.708   1.102   0.251  0.00  0.00    -0.001 A 
ENDROOT
TORSDOF 0
ENDMDL
