MODEL 1
REMARK minimizedAffinity -3.84366012
REMARK minimizedRMSD -1
REMARK  0 active torsions:
REMARK  status: ('A' for Active; 'I' for Inactive)
ROOT
ATOM      1  C   UNL d   1      -1.555  -0.134   1.738  0.00  0.00     0.078 C 
ATOM      2  C1  UNL d   1      -0.384   0.670   1.257  0.00  0.00    -0.077 A 
ATOM      3  C2  UNL d   1       0.053   1.799   1.960  0.00  0.00    -0.001 A 
ATOM      4  C3  UNL d   1       1.138   2.544   1.495  0.00  0.00     0.003 A 
ATOM      5  C4  UNL d   1       1.794   2.169   0.325  0.00  0.00    -0.005 A 
ATOM      6  C5  UNL d   1       1.365   1.048  -0.383  0.00  0.00     0.003 A 
ATOM      7  C6  UNL d   1       0.280   0.302   0.080  0.00  0.00    -0.001 A 
ENDROOT
TORSDOF 0
ENDMDL
