MODEL 1
REMARK minimizedAffinity -5.57957649
REMARK minimizedRMSD -1
REMARK  0 active torsions:
REMARK  status: ('A' for Active; 'I' for Inactive)
ROOT
ATOM      1  C   UNL d   1       1.465   2.641   1.185  0.00  0.00     0.078 C 
ATOM      2  C1  UNL d   1       0.820   1.355   0.762  0.00  0.00    -0.077 A 
ATOM      3  C2  UNL d   1       1.371   0.576  -0.263  0.00  0.00    -0.001 A 
ATOM      4  C3  UNL d   1       0.755  -0.614  -0.653  0.00  0.00     0.003 A 
ATOM      5  C4  UNL d   1      -0.417  -1.034  -0.026  0.00  0.00    -0.005 A 
ATOM      6  C5  UNL d   1      -0.973  -0.264   0.993  0.00  0.00     0.003 A 
ATOM      7  C6  UNL d   1      -0.358   0.926   1.385  0.00  0.00    -0.001 A 
ENDROOT
TORSDOF 0
ENDMDL
