MODEL 1
REMARK minimizedAffinity -4.03108263
REMARK minimizedRMSD -1
REMARK  0 active torsions:
REMARK  status: ('A' for Active; 'I' for Inactive)
ROOT
ATOM      1  C   UNL d   1       1.066   3.141   1.122  0.00  0.00     0.078 C 
ATOM      2  C1  UNL d   1       0.485   1.812   0.744  0.00  0.00    -0.077 A 
ATOM      3  C2  UNL d   1      -0.652   1.311   1.390  0.00  0.00    -0.001 A 
ATOM      4  C3  UNL d   1      -1.176   0.067   1.034  0.00  0.00     0.003 A 
ATOM      5  C4  UNL d   1      -0.570  -0.686   0.031  0.00  0.00    -0.005 A 
ATOM      6  C5  UNL d   1       0.563  -0.197  -0.617  0.00  0.00     0.003 A 
ATOM      7  C6  UNL d   1       1.089   1.046  -0.262  0.00  0.00    -0.001 A 
ENDROOT
TORSDOF 0
ENDMDL
