MODEL 1
REMARK minimizedAffinity -3.20253325
REMARK minimizedRMSD -1
REMARK  0 active torsions:
REMARK  status: ('A' for Active; 'I' for Inactive)
ROOT
ATOM      1  C   UNL d   1       0.747   2.556   1.237  0.00  0.00     0.078 C 
ATOM      2  C1  UNL d   1       0.849   1.259   0.491  0.00  0.00    -0.077 A 
ATOM      3  C2  UNL d   1      -0.253   0.401   0.381  0.00  0.00    -0.001 A 
ATOM      4  C3  UNL d   1      -0.140  -0.807  -0.308  0.00  0.00     0.003 A 
ATOM      5  C4  UNL d   1       1.072  -1.170  -0.891  0.00  0.00    -0.005 A 
ATOM      6  C5  UNL d   1       2.174  -0.325  -0.785  0.00  0.00     0.003 A 
ATOM      7  C6  UNL d   1       2.064   0.884  -0.097  0.00  0.00    -0.001 A 
ENDROOT
TORSDOF 0
ENDMDL
