MODEL 1
REMARK minimizedAffinity -5.48212624
REMARK minimizedRMSD -1
REMARK  0 active torsions:
REMARK  status: ('A' for Active; 'I' for Inactive)
ROOT
ATOM      1  C   UNL d   1      -0.648  -1.022  -0.818  0.00  0.00     0.078 C 
ATOM      2  C1  UNL d   1      -0.258   0.193  -0.030  0.00  0.00    -0.077 A 
ATOM      3  C2  UNL d   1      -0.843   0.464   1.213  0.00  0.00    -0.001 A 
ATOM      4  C3  UNL d   1      -0.477   1.604   1.932  0.00  0.00     0.003 A 
ATOM      5  C4  UNL d   1       0.474   2.481   1.415  0.00  0.00    -0.005 A 
ATOM      6  C5  UNL d   1       1.060   2.220   0.177  0.00  0.00     0.003 A 
ATOM      7  C6  UNL d   1       0.695   1.082  -0.542  0.00  0.00    -0.001 A 
ENDROOT
TORSDOF 0
ENDMDL
