MODEL 1
REMARK minimizedAffinity -5.03406668
REMARK minimizedRMSD -1
REMARK  0 active torsions:
REMARK  status: ('A' for Active; 'I' for Inactive)
ROOT
ATOM      1  C   UNL d   1      -1.099  -1.280  -0.829  0.00  0.00     0.078 C 
ATOM      2  C1  UNL d   1      -0.476  -0.161  -0.050  0.00  0.00    -0.077 A 
ATOM      3  C2  UNL d   1      -1.189   0.500   0.958  0.00  0.00    -0.001 A 
ATOM      4  C3  UNL d   1      -0.599   1.547   1.668  0.00  0.00     0.003 A 
ATOM      5  C4  UNL d   1       0.705   1.943   1.378  0.00  0.00    -0.005 A 
ATOM      6  C5  UNL d   1       1.421   1.292   0.376  0.00  0.00     0.003 A 
ATOM      7  C6  UNL d   1       0.834   0.245  -0.336  0.00  0.00    -0.001 A 
ENDROOT
TORSDOF 0
ENDMDL
