MODEL 1
REMARK minimizedAffinity -5.55848074
REMARK minimizedRMSD -1
REMARK  0 active torsions:
REMARK  status: ('A' for Active; 'I' for Inactive)
ROOT
ATOM      1  C   UNL d   1       2.894   0.790  -0.715  0.00  0.00     0.078 C 
ATOM      2  C1  UNL d   1       1.593   0.904   0.022  0.00  0.00    -0.077 A 
ATOM      3  C2  UNL d   1       1.375   1.935   0.944  0.00  0.00    -0.001 A 
ATOM      4  C3  UNL d   1       0.162   2.024   1.630  0.00  0.00     0.003 A 
ATOM      5  C4  UNL d   1      -0.840   1.083   1.403  0.00  0.00    -0.005 A 
ATOM      6  C5  UNL d   1      -0.631   0.052   0.490  0.00  0.00     0.003 A 
ATOM      7  C6  UNL d   1       0.581  -0.038  -0.198  0.00  0.00    -0.001 A 
ENDROOT
TORSDOF 0
ENDMDL
