MODEL 1
REMARK minimizedAffinity -4.48497343
REMARK minimizedRMSD -1
REMARK  0 active torsions:
REMARK  status: ('A' for Active; 'I' for Inactive)
ROOT
ATOM      1  C   UNL d   1       1.646   2.927   1.153  0.00  0.00     0.078 C 
ATOM      2  C1  UNL d   1       0.895   1.691   0.761  0.00  0.00    -0.077 A 
ATOM      3  C2  UNL d   1       1.571   0.532   0.359  0.00  0.00    -0.001 A 
ATOM      4  C3  UNL d   1       0.858  -0.609  -0.013  0.00  0.00     0.003 A 
ATOM      5  C4  UNL d   1      -0.535  -0.602   0.012  0.00  0.00    -0.005 A 
ATOM      6  C5  UNL d   1      -1.217   0.546   0.408  0.00  0.00     0.003 A 
ATOM      7  C6  UNL d   1      -0.506   1.688   0.781  0.00  0.00    -0.001 A 
ENDROOT
TORSDOF 0
ENDMDL
