MODEL 1
REMARK minimizedAffinity -5.99553585
REMARK minimizedRMSD -1
REMARK  0 active torsions:
REMARK  status: ('A' for Active; 'I' for Inactive)
ROOT
ATOM      1  C   UNL d   1      -1.052   1.159   1.308  0.00  0.00     0.078 C 
ATOM      2  C1  UNL d   1       0.384   1.497   1.040  0.00  0.00    -0.077 A 
ATOM      3  C2  UNL d   1       1.140   0.757   0.122  0.00  0.00    -0.001 A 
ATOM      4  C3  UNL d   1       2.479   1.077  -0.111  0.00  0.00     0.003 A 
ATOM      5  C4  UNL d   1       3.073   2.137   0.571  0.00  0.00    -0.005 A 
ATOM      6  C5  UNL d   1       2.330   2.877   1.488  0.00  0.00     0.003 A 
ATOM      7  C6  UNL d   1       0.991   2.559   1.722  0.00  0.00    -0.001 A 
ENDROOT
TORSDOF 0
ENDMDL
