MODEL 1
REMARK minimizedAffinity 8.99862766
REMARK minimizedRMSD -1
REMARK  0 active torsions:
REMARK  status: ('A' for Active; 'I' for Inactive)
ROOT
ATOM      1  C2' OXE d   1       1.960  -0.215  -0.955  0.00  0.00     0.078 C 
ATOM      2  C1' OXE d   1       0.662  -1.165   1.345  0.00  0.00     0.078 C 
ATOM      3  C1  OXE d   1       1.776  -2.004   0.769  0.00  0.00    -0.078 A 
ATOM      4  C2  OXE d   1       2.374  -1.554  -0.384  0.00  0.00    -0.078 A 
ATOM      5  C3  OXE d   1       3.443  -2.261  -0.927  0.00  0.00     0.003 A 
ATOM      6  C4  OXE d   1       3.812  -3.504  -0.398  0.00  0.00    -0.002 A 
ATOM      7  C5  OXE d   1       3.189  -3.999   0.753  0.00  0.00    -0.002 A 
ATOM      8  C6  OXE d   1       2.200  -3.243   1.372  0.00  0.00     0.003 A 
ENDROOT
TORSDOF 0
ENDMDL
