MODEL 1
REMARK minimizedAffinity 8.00725555
REMARK minimizedRMSD -1
REMARK  0 active torsions:
REMARK  status: ('A' for Active; 'I' for Inactive)
ROOT
ATOM      1  C2' OXE d   1       3.296  -3.458   2.150  0.00  0.00     0.078 C 
ATOM      2  C1' OXE d   1       4.113  -6.000   3.016  0.00  0.00     0.078 C 
ATOM      3  C1  OXE d   1       4.366  -4.830   3.933  0.00  0.00    -0.078 A 
ATOM      4  C2  OXE d   1       4.005  -3.583   3.481  0.00  0.00    -0.078 A 
ATOM      5  C3  OXE d   1       4.166  -2.476   4.310  0.00  0.00     0.003 A 
ATOM      6  C4  OXE d   1       4.831  -2.599   5.536  0.00  0.00    -0.002 A 
ATOM      7  C5  OXE d   1       5.243  -3.854   5.997  0.00  0.00    -0.002 A 
ATOM      8  C6  OXE d   1       4.980  -4.983   5.229  0.00  0.00     0.003 A 
ENDROOT
TORSDOF 0
ENDMDL
