MODEL 1
REMARK minimizedAffinity 6.34731627
REMARK minimizedRMSD -1
REMARK  0 active torsions:
REMARK  status: ('A' for Active; 'I' for Inactive)
ROOT
ATOM      1  C2' OXE d   1       4.421  -3.068   4.187  0.00  0.00     0.078 C 
ATOM      2  C1' OXE d   1       4.437  -4.285   1.657  0.00  0.00     0.078 C 
ATOM      3  C1  OXE d   1       3.329  -3.308   1.961  0.00  0.00    -0.078 A 
ATOM      4  C2  OXE d   1       3.302  -2.753   3.218  0.00  0.00    -0.078 A 
ATOM      5  C3  OXE d   1       2.333  -1.805   3.532  0.00  0.00     0.003 A 
ATOM      6  C4  OXE d   1       1.296  -1.527   2.634  0.00  0.00    -0.002 A 
ATOM      7  C5  OXE d   1       1.282  -2.111   1.363  0.00  0.00    -0.002 A 
ATOM      8  C6  OXE d   1       2.312  -2.970   0.996  0.00  0.00     0.003 A 
ENDROOT
TORSDOF 0
ENDMDL
