MODEL 1
REMARK minimizedAffinity 2.93184757
REMARK minimizedRMSD -1
REMARK  0 active torsions:
REMARK  status: ('A' for Active; 'I' for Inactive)
ROOT
ATOM      1  C2' OXE d   1       5.652  -1.596   0.245  0.00  0.00     0.078 C 
ATOM      2  C1' OXE d   1       3.213  -2.955  -0.041  0.00  0.00     0.078 C 
ATOM      3  C1  OXE d   1       3.250  -1.493  -0.407  0.00  0.00    -0.078 A 
ATOM      4  C2  OXE d   1       4.436  -0.824  -0.219  0.00  0.00    -0.078 A 
ATOM      5  C3  OXE d   1       4.541   0.513  -0.592  0.00  0.00     0.003 A 
ATOM      6  C4  OXE d   1       3.409   1.222  -1.012  0.00  0.00    -0.002 A 
ATOM      7  C5  OXE d   1       2.181   0.570  -1.172  0.00  0.00    -0.002 A 
ATOM      8  C6  OXE d   1       2.096  -0.794  -0.915  0.00  0.00     0.003 A 
ENDROOT
TORSDOF 0
ENDMDL
