MODEL 1
REMARK minimizedAffinity -1.05586541
REMARK minimizedRMSD -1
REMARK  0 active torsions:
REMARK  status: ('A' for Active; 'I' for Inactive)
ROOT
ATOM      1  C2' OXE d   1       3.334  -0.329  -0.858  0.00  0.00     0.078 C 
ATOM      2  C1' OXE d   1       5.750  -1.695  -0.439  0.00  0.00     0.078 C 
ATOM      3  C1  OXE d   1       4.483  -2.333   0.074  0.00  0.00    -0.078 A 
ATOM      4  C2  OXE d   1       3.311  -1.635  -0.095  0.00  0.00    -0.078 A 
ATOM      5  C3  OXE d   1       2.106  -2.203   0.311  0.00  0.00     0.003 A 
ATOM      6  C4  OXE d   1       2.095  -3.407   1.025  0.00  0.00    -0.002 A 
ATOM      7  C5  OXE d   1       3.282  -4.115   1.242  0.00  0.00    -0.002 A 
ATOM      8  C6  OXE d   1       4.476  -3.614   0.736  0.00  0.00     0.003 A 
ENDROOT
TORSDOF 0
ENDMDL
