MODEL 1
REMARK minimizedAffinity 7.84832668
REMARK minimizedRMSD -1
REMARK  0 active torsions:
REMARK  status: ('A' for Active; 'I' for Inactive)
ROOT
ATOM      1  C2' OXE d   1      -4.167   5.452  -4.472  0.00  0.00     0.078 C 
ATOM      2  C1' OXE d   1      -2.552   3.335  -3.584  0.00  0.00     0.078 C 
ATOM      3  C1  OXE d   1      -3.746   2.997  -4.442  0.00  0.00    -0.078 A 
ATOM      4  C2  OXE d   1      -4.557   4.035  -4.833  0.00  0.00    -0.078 A 
ATOM      5  C3  OXE d   1      -5.640   3.785  -5.671  0.00  0.00     0.003 A 
ATOM      6  C4  OXE d   1      -6.000   2.471  -5.992  0.00  0.00    -0.002 A 
ATOM      7  C5  OXE d   1      -5.210   1.396  -5.571  0.00  0.00    -0.002 A 
ATOM      8  C6  OXE d   1      -4.058   1.644  -4.833  0.00  0.00     0.003 A 
ENDROOT
TORSDOF 0
ENDMDL
