MODEL 1
REMARK minimizedAffinity 14.7597628
REMARK minimizedRMSD -1
REMARK  0 active torsions:
REMARK  status: ('A' for Active; 'I' for Inactive)
ROOT
ATOM      1  C2' OXE d   1       2.744   0.473  -0.498  0.00  0.00     0.078 C 
ATOM      2  C1' OXE d   1       2.574  -2.286  -0.008  0.00  0.00     0.078 C 
ATOM      3  C1  OXE d   1       1.885  -1.356   0.959  0.00  0.00    -0.078 A 
ATOM      4  C2  OXE d   1       2.013  -0.006   0.738  0.00  0.00    -0.078 A 
ATOM      5  C3  OXE d   1       1.352   0.894   1.569  0.00  0.00     0.003 A 
ATOM      6  C4  OXE d   1       0.687   0.444   2.715  0.00  0.00    -0.002 A 
ATOM      7  C5  OXE d   1       0.579  -0.925   2.981  0.00  0.00    -0.002 A 
ATOM      8  C6  OXE d   1       1.135  -1.838   2.092  0.00  0.00     0.003 A 
ENDROOT
TORSDOF 0
ENDMDL
