MODEL 1
REMARK minimizedAffinity -0.330145836
REMARK minimizedRMSD -1
REMARK  0 active torsions:
REMARK  status: ('A' for Active; 'I' for Inactive)
ROOT
ATOM      1  C2' OXE d   1       1.700  -1.354  -0.086  0.00  0.00     0.078 C 
ATOM      2  C1' OXE d   1      -0.273  -0.365   1.648  0.00  0.00     0.078 C 
ATOM      3  C1  OXE d   1       0.251  -1.757   1.900  0.00  0.00    -0.078 A 
ATOM      4  C2  OXE d   1       1.183  -2.250   1.018  0.00  0.00    -0.078 A 
ATOM      5  C3  OXE d   1       1.739  -3.507   1.235  0.00  0.00     0.003 A 
ATOM      6  C4  OXE d   1       1.247  -4.334   2.253  0.00  0.00    -0.002 A 
ATOM      7  C5  OXE d   1       0.270  -3.866   3.138  0.00  0.00    -0.002 A 
ATOM      8  C6  OXE d   1      -0.207  -2.567   3.001  0.00  0.00     0.003 A 
ENDROOT
TORSDOF 0
ENDMDL
