MODEL 1
REMARK minimizedAffinity -0.390810192
REMARK minimizedRMSD -1
REMARK  0 active torsions:
REMARK  status: ('A' for Active; 'I' for Inactive)
ROOT
ATOM      1  C2' OXE d   1       2.086  -0.958  -0.671  0.00  0.00     0.078 C 
ATOM      2  C1' OXE d   1       2.302  -3.060   1.177  0.00  0.00     0.078 C 
ATOM      3  C1  OXE d   1       1.201  -2.050   1.386  0.00  0.00    -0.078 A 
ATOM      4  C2  OXE d   1       1.131  -0.999   0.503  0.00  0.00    -0.078 A 
ATOM      5  C3  OXE d   1       0.101  -0.070   0.618  0.00  0.00     0.003 A 
ATOM      6  C4  OXE d   1      -0.771  -0.110   1.712  0.00  0.00    -0.002 A 
ATOM      7  C5  OXE d   1      -0.693  -1.150   2.645  0.00  0.00    -0.002 A 
ATOM      8  C6  OXE d   1       0.258  -2.150   2.473  0.00  0.00     0.003 A 
ENDROOT
TORSDOF 0
ENDMDL
