MODEL 1
REMARK minimizedAffinity 0.0153144011
REMARK minimizedRMSD -1
REMARK  0 active torsions:
REMARK  status: ('A' for Active; 'I' for Inactive)
ROOT
ATOM      1  C2' OXE d   1       1.861  -0.753   0.323  0.00  0.00     0.078 C 
ATOM      2  C1' OXE d   1      -0.539   0.229   1.397  0.00  0.00     0.078 C 
ATOM      3  C1  OXE d   1      -0.025  -1.092   1.914  0.00  0.00    -0.078 A 
ATOM      4  C2  OXE d   1       1.126  -1.587   1.349  0.00  0.00    -0.078 A 
ATOM      5  C3  OXE d   1       1.672  -2.774   1.828  0.00  0.00     0.003 A 
ATOM      6  C4  OXE d   1       0.980  -3.544   2.770  0.00  0.00    -0.002 A 
ATOM      7  C5  OXE d   1      -0.214  -3.078   3.329  0.00  0.00    -0.002 A 
ATOM      8  C6  OXE d   1      -0.707  -1.836   2.944  0.00  0.00     0.003 A 
ENDROOT
TORSDOF 0
ENDMDL
