MODEL 1
REMARK minimizedAffinity 1.69960356
REMARK minimizedRMSD -1
REMARK  0 active torsions:
REMARK  status: ('A' for Active; 'I' for Inactive)
ROOT
ATOM      1  C2' OXE d   1      -0.713   0.336   0.815  0.00  0.00     0.078 C 
ATOM      2  C1' OXE d   1       1.476  -0.744  -0.570  0.00  0.00     0.078 C 
ATOM      3  C1  OXE d   1       1.002  -1.465   0.667  0.00  0.00    -0.078 A 
ATOM      4  C2  OXE d   1      -0.041  -0.904   1.365  0.00  0.00    -0.078 A 
ATOM      5  C3  OXE d   1      -0.553  -1.557   2.482  0.00  0.00     0.003 A 
ATOM      6  C4  OXE d   1       0.081  -2.697   2.990  0.00  0.00    -0.002 A 
ATOM      7  C5  OXE d   1       1.169  -3.263   2.317  0.00  0.00    -0.002 A 
ATOM      8  C6  OXE d   1       1.614  -2.685   1.133  0.00  0.00     0.003 A 
ENDROOT
TORSDOF 0
ENDMDL
