MODEL 1
REMARK minimizedAffinity 7.03524351
REMARK minimizedRMSD -1
REMARK  0 active torsions:
REMARK  status: ('A' for Active; 'I' for Inactive)
ROOT
ATOM      1  C2' OXE d   1       1.238  -0.629   0.198  0.00  0.00     0.078 C 
ATOM      2  C1' OXE d   1       0.744  -1.845   2.680  0.00  0.00     0.078 C 
ATOM      3  C1  OXE d   1      -0.338  -0.970   2.098  0.00  0.00    -0.078 A 
ATOM      4  C2  OXE d   1      -0.069  -0.342   0.905  0.00  0.00    -0.078 A 
ATOM      5  C3  OXE d   1      -1.053   0.433   0.298  0.00  0.00     0.003 A 
ATOM      6  C4  OXE d   1      -2.255   0.702   0.963  0.00  0.00    -0.002 A 
ATOM      7  C5  OXE d   1      -2.533   0.104   2.197  0.00  0.00    -0.002 A 
ATOM      8  C6  OXE d   1      -1.604  -0.766   2.757  0.00  0.00     0.003 A 
ENDROOT
TORSDOF 0
ENDMDL
