MODEL 1
REMARK minimizedAffinity 2.20150471
REMARK minimizedRMSD -1
REMARK  0 active torsions:
REMARK  status: ('A' for Active; 'I' for Inactive)
ROOT
ATOM      1  C2' OXE d   1      -1.151  -3.386   3.985  0.00  0.00     0.078 C 
ATOM      2  C1' OXE d   1       0.982  -3.833   2.215  0.00  0.00     0.078 C 
ATOM      3  C1  OXE d   1       0.216  -2.541   2.082  0.00  0.00    -0.078 A 
ATOM      4  C2  OXE d   1      -0.856  -2.351   2.921  0.00  0.00    -0.078 A 
ATOM      5  C3  OXE d   1      -1.563  -1.153   2.876  0.00  0.00     0.003 A 
ATOM      6  C4  OXE d   1      -1.289  -0.205   1.883  0.00  0.00    -0.002 A 
ATOM      7  C5  OXE d   1      -0.228  -0.396   0.992  0.00  0.00    -0.002 A 
ATOM      8  C6  OXE d   1       0.560  -1.537   1.105  0.00  0.00     0.003 A 
ENDROOT
TORSDOF 0
ENDMDL
