MODEL 1
REMARK minimizedAffinity 9.00737953
REMARK minimizedRMSD -1
REMARK  0 active torsions:
REMARK  status: ('A' for Active; 'I' for Inactive)
ROOT
ATOM      1  C   UNL d   1       1.519  -4.934   1.819  0.00  0.00    -0.002 A 
ATOM      2  C1  UNL d   1       1.220  -5.630   2.981  0.00  0.00     0.010 A 
ATOM      3  C2  UNL d   1       2.232  -5.999   3.869  0.00  0.00     0.041 A 
ATOM      4  C3  UNL d   1       3.564  -5.652   3.566  0.00  0.00    -0.075 A 
ATOM      5  S   UNL d   1       4.967  -5.998   4.506  0.00  0.00     0.015 SA
ATOM      6  C4  UNL d   1       5.997  -5.229   3.386  0.00  0.00     0.022 A 
ATOM      7  C5  UNL d   1       5.304  -4.716   2.316  0.00  0.00     0.026 A 
ATOM      8  C6  UNL d   1       3.890  -4.951   2.402  0.00  0.00    -0.082 A 
ATOM      9  C7  UNL d   1       2.841  -4.592   1.522  0.00  0.00     0.045 A 
ENDROOT
TORSDOF 0
ENDMDL
