MODEL 1
REMARK minimizedAffinity 14.0056067
REMARK minimizedRMSD -1
REMARK  0 active torsions:
REMARK  status: ('A' for Active; 'I' for Inactive)
ROOT
ATOM      1  C   UNL d   1      -3.868   5.938   5.992  0.00  0.00    -0.002 A 
ATOM      2  C1  UNL d   1      -5.254   5.996   5.989  0.00  0.00     0.010 A 
ATOM      3  C2  UNL d   1      -5.988   5.403   4.959  0.00  0.00     0.041 A 
ATOM      4  C3  UNL d   1      -5.297   4.743   3.924  0.00  0.00    -0.075 A 
ATOM      5  S   UNL d   1      -5.985   3.944   2.560  0.00  0.00     0.015 SA
ATOM      6  C4  UNL d   1      -4.455   3.506   1.950  0.00  0.00     0.022 A 
ATOM      7  C5  UNL d   1      -3.433   3.951   2.754  0.00  0.00     0.026 A 
ATOM      8  C6  UNL d   1      -3.901   4.670   3.906  0.00  0.00    -0.082 A 
ATOM      9  C7  UNL d   1      -3.187   5.282   4.963  0.00  0.00     0.045 A 
ENDROOT
TORSDOF 0
ENDMDL
