MODEL 1
REMARK minimizedAffinity 17.6565628
REMARK minimizedRMSD -1
REMARK  0 active torsions:
REMARK  status: ('A' for Active; 'I' for Inactive)
ROOT
ATOM      1  C   UNL d   1      -5.880   5.993   4.327  0.00  0.00    -0.002 A 
ATOM      2  C1  UNL d   1      -5.526   5.560   5.597  0.00  0.00     0.010 A 
ATOM      3  C2  UNL d   1      -5.286   4.207   5.845  0.00  0.00     0.041 A 
ATOM      4  C3  UNL d   1      -5.407   3.288   4.784  0.00  0.00    -0.075 A 
ATOM      5  S   UNL d   1      -5.161   1.583   4.852  0.00  0.00     0.015 SA
ATOM      6  C4  UNL d   1      -5.519   1.389   3.197  0.00  0.00     0.022 A 
ATOM      7  C5  UNL d   1      -5.822   2.586   2.592  0.00  0.00     0.026 A 
ATOM      8  C6  UNL d   1      -5.762   3.700   3.496  0.00  0.00    -0.082 A 
ATOM      9  C7  UNL d   1      -6.000   5.078   3.277  0.00  0.00     0.045 A 
ENDROOT
TORSDOF 0
ENDMDL
