MODEL 1
REMARK minimizedAffinity 8.51434612
REMARK minimizedRMSD -1
REMARK  0 active torsions:
REMARK  status: ('A' for Active; 'I' for Inactive)
ROOT
ATOM      1  C   UNL d   1      -0.192  -1.321   3.460  0.00  0.00    -0.002 A 
ATOM      2  C1  UNL d   1       0.980  -0.585   3.360  0.00  0.00     0.010 A 
ATOM      3  C2  UNL d   1       0.947   0.754   2.966  0.00  0.00     0.041 A 
ATOM      4  C3  UNL d   1      -0.297   1.348   2.673  0.00  0.00    -0.075 A 
ATOM      5  S   UNL d   1      -0.581   2.973   2.173  0.00  0.00     0.015 SA
ATOM      6  C4  UNL d   1      -2.266   2.729   2.081  0.00  0.00     0.022 A 
ATOM      7  C5  UNL d   1      -2.620   1.445   2.420  0.00  0.00     0.026 A 
ATOM      8  C6  UNL d   1      -1.491   0.628   2.768  0.00  0.00    -0.082 A 
ATOM      9  C7  UNL d   1      -1.424  -0.728   3.169  0.00  0.00     0.045 A 
ENDROOT
TORSDOF 0
ENDMDL
