MODEL 1
REMARK minimizedAffinity 8.00449848
REMARK minimizedRMSD -1
REMARK  0 active torsions:
REMARK  status: ('A' for Active; 'I' for Inactive)
ROOT
ATOM      1  C   UNL d   1       4.424   0.338   1.181  0.00  0.00    -0.002 A 
ATOM      2  C1  UNL d   1       3.984   1.080   0.094  0.00  0.00     0.010 A 
ATOM      3  C2  UNL d   1       2.662   1.522   0.024  0.00  0.00     0.041 A 
ATOM      4  C3  UNL d   1       1.781   1.204   1.077  0.00  0.00    -0.075 A 
ATOM      5  S   UNL d   1       0.117   1.639   1.207  0.00  0.00     0.015 SA
ATOM      6  C4  UNL d   1      -0.048   0.851   2.709  0.00  0.00     0.022 A 
ATOM      7  C5  UNL d   1       1.127   0.264   3.116  0.00  0.00     0.026 A 
ATOM      8  C6  UNL d   1       2.201   0.459   2.182  0.00  0.00    -0.082 A 
ATOM      9  C7  UNL d   1       3.547   0.024   2.223  0.00  0.00     0.045 A 
ENDROOT
TORSDOF 0
ENDMDL
