MODEL 1
REMARK minimizedAffinity 8.72335625
REMARK minimizedRMSD -1
REMARK  0 active torsions:
REMARK  status: ('A' for Active; 'I' for Inactive)
ROOT
ATOM      1  C   UNL d   1      -5.110  -2.623  -4.857  0.00  0.00    -0.002 A 
ATOM      2  C1  UNL d   1      -4.747  -3.736  -5.603  0.00  0.00     0.010 A 
ATOM      3  C2  UNL d   1      -3.422  -3.924  -5.999  0.00  0.00     0.041 A 
ATOM      4  C3  UNL d   1      -2.457  -2.966  -5.628  0.00  0.00    -0.075 A 
ATOM      5  S   UNL d   1      -0.774  -2.989  -6.000  0.00  0.00     0.015 SA
ATOM      6  C4  UNL d   1      -0.496  -1.523  -5.176  0.00  0.00     0.022 A 
ATOM      7  C5  UNL d   1      -1.649  -1.015  -4.626  0.00  0.00     0.026 A 
ATOM      8  C6  UNL d   1      -2.798  -1.838  -4.876  0.00  0.00    -0.082 A 
ATOM      9  C7  UNL d   1      -4.150  -1.676  -4.490  0.00  0.00     0.045 A 
ENDROOT
TORSDOF 0
ENDMDL
