MODEL 1
REMARK minimizedAffinity 17.8656902
REMARK minimizedRMSD -1
REMARK  0 active torsions:
REMARK  status: ('A' for Active; 'I' for Inactive)
ROOT
ATOM      1  C   UNL d   1      -4.982   3.600   2.982  0.00  0.00    -0.002 A 
ATOM      2  C1  UNL d   1      -5.938   2.819   2.347  0.00  0.00     0.010 A 
ATOM      3  C2  UNL d   1      -5.590   1.593   1.777  0.00  0.00     0.041 A 
ATOM      4  C3  UNL d   1      -4.252   1.160   1.857  0.00  0.00    -0.075 A 
ATOM      5  S   UNL d   1      -3.595  -0.306   1.232  0.00  0.00     0.015 SA
ATOM      6  C4  UNL d   1      -2.030   0.068   1.793  0.00  0.00     0.022 A 
ATOM      7  C5  UNL d   1      -1.991   1.279   2.444  0.00  0.00     0.026 A 
ATOM      8  C6  UNL d   1      -3.271   1.928   2.492  0.00  0.00    -0.082 A 
ATOM      9  C7  UNL d   1      -3.656   3.166   3.059  0.00  0.00     0.045 A 
ENDROOT
TORSDOF 0
ENDMDL
