MODEL 1
REMARK minimizedAffinity 17.5848675
REMARK minimizedRMSD -1
REMARK  0 active torsions:
REMARK  status: ('A' for Active; 'I' for Inactive)
ROOT
ATOM      1  C   UNL d   1      -3.041   1.340   2.081  0.00  0.00    -0.002 A 
ATOM      2  C1  UNL d   1      -2.144   0.609   1.314  0.00  0.00     0.010 A 
ATOM      3  C2  UNL d   1      -2.519  -0.616   0.759  0.00  0.00     0.041 A 
ATOM      4  C3  UNL d   1      -3.823  -1.098   0.987  0.00  0.00    -0.075 A 
ATOM      5  S   UNL d   1      -4.503  -2.572   0.407  0.00  0.00     0.015 SA
ATOM      6  C4  UNL d   1      -6.000  -2.265   1.162  0.00  0.00     0.022 A 
ATOM      7  C5  UNL d   1      -5.998  -1.072   1.845  0.00  0.00     0.026 A 
ATOM      8  C6  UNL d   1      -4.744  -0.379   1.755  0.00  0.00    -0.082 A 
ATOM      9  C7  UNL d   1      -4.333   0.859   2.305  0.00  0.00     0.045 A 
ENDROOT
TORSDOF 0
ENDMDL
