MODEL 1
REMARK minimizedAffinity 24.268589
REMARK minimizedRMSD -1
REMARK  0 active torsions:
REMARK  status: ('A' for Active; 'I' for Inactive)
ROOT
ATOM      1  C   UNL d   1      -3.033   0.784   2.643  0.00  0.00    -0.002 A 
ATOM      2  C1  UNL d   1      -4.033   0.174   1.900  0.00  0.00     0.010 A 
ATOM      3  C2  UNL d   1      -4.781  -0.874   2.439  0.00  0.00     0.041 A 
ATOM      4  C3  UNL d   1      -4.504  -1.303   3.753  0.00  0.00    -0.075 A 
ATOM      5  S   UNL d   1      -5.291  -2.567   4.621  0.00  0.00     0.015 SA
ATOM      6  C4  UNL d   1      -4.318  -2.328   5.999  0.00  0.00     0.022 A 
ATOM      7  C5  UNL d   1      -3.410  -1.312   5.819  0.00  0.00     0.026 A 
ATOM      8  C6  UNL d   1      -3.502  -0.704   4.521  0.00  0.00    -0.082 A 
ATOM      9  C7  UNL d   1      -2.761   0.356   3.945  0.00  0.00     0.045 A 
ENDROOT
TORSDOF 0
ENDMDL
