MODEL 1
REMARK minimizedAffinity 24.9264317
REMARK minimizedRMSD -1
REMARK  0 active torsions:
REMARK  status: ('A' for Active; 'I' for Inactive)
ROOT
ATOM      1  C   UNL d   1      -2.737  -3.063  -0.107  0.00  0.00    -0.002 A 
ATOM      2  C1  UNL d   1      -1.400  -3.283   0.193  0.00  0.00     0.010 A 
ATOM      3  C2  UNL d   1      -0.671  -2.341   0.922  0.00  0.00     0.041 A 
ATOM      4  C3  UNL d   1      -1.316  -1.163   1.349  0.00  0.00    -0.075 A 
ATOM      5  S   UNL d   1      -0.623   0.130   2.255  0.00  0.00     0.015 SA
ATOM      6  C4  UNL d   1      -2.086   1.005   2.265  0.00  0.00     0.022 A 
ATOM      7  C5  UNL d   1      -3.088   0.341   1.598  0.00  0.00     0.026 A 
ATOM      8  C6  UNL d   1      -2.661  -0.920   1.060  0.00  0.00    -0.082 A 
ATOM      9  C7  UNL d   1      -3.372  -1.894   0.318  0.00  0.00     0.045 A 
ENDROOT
TORSDOF 0
ENDMDL
