MODEL 1
REMARK minimizedAffinity 20.2219105
REMARK minimizedRMSD -1
REMARK  0 active torsions:
REMARK  status: ('A' for Active; 'I' for Inactive)
ROOT
ATOM      1  C   UNL d   1      -5.896  -1.893   1.905  0.00  0.00    -0.002 A 
ATOM      2  C1  UNL d   1      -5.999  -3.141   2.502  0.00  0.00     0.010 A 
ATOM      3  C2  UNL d   1      -5.464  -3.367   3.772  0.00  0.00     0.041 A 
ATOM      4  C3  UNL d   1      -4.819  -2.307   4.438  0.00  0.00    -0.075 A 
ATOM      5  S   UNL d   1      -4.090  -2.351   6.000  0.00  0.00     0.015 SA
ATOM      6  C4  UNL d   1      -3.626  -0.713   5.912  0.00  0.00     0.022 A 
ATOM      7  C5  UNL d   1      -4.010  -0.132   4.726  0.00  0.00     0.026 A 
ATOM      8  C6  UNL d   1      -4.705  -1.040   3.858  0.00  0.00    -0.082 A 
ATOM      9  C7  UNL d   1      -5.256  -0.843   2.569  0.00  0.00     0.045 A 
ENDROOT
TORSDOF 0
ENDMDL
