MODEL 1
REMARK minimizedAffinity 0.543381274
REMARK minimizedRMSD -1
REMARK  1 active torsions:
REMARK  status: ('A' for Active; 'I' for Inactive)
REMARK    1  A    between atoms: C1_2  and  C2_3 
ROOT
ATOM      1  C2  UNL d   1       0.227   0.181   0.310  0.00  0.00    -0.076 A 
ATOM      2  C3  UNL d   1       1.422   0.151  -0.431  0.00  0.00     0.004 A 
ATOM      3  C4  UNL d   1       2.437  -0.751  -0.118  0.00  0.00    -0.003 A 
ATOM      4  C5  UNL d   1       2.275  -1.638   0.940  0.00  0.00     0.000 A 
ATOM      5  C6  UNL d   1       1.090  -1.634   1.675  0.00  0.00     0.000 A 
ATOM      6  C7  UNL d   1       0.050  -0.743   1.363  0.00  0.00    -0.073 A 
ATOM      7  C8  UNL d   1      -1.205  -0.778   2.192  0.00  0.00     0.078 C 
ENDROOT
BRANCH   1   8
ATOM      8  C1  UNL d   1      -0.828   1.199  -0.057  0.00  0.00     0.053 C 
ATOM      9  C   UNL d   1      -0.749   1.618  -1.517  0.00  0.00     0.018 C 
ENDBRANCH   1   8
TORSDOF 1
ENDMDL
