MODEL 1
REMARK minimizedAffinity -3.96755648
REMARK minimizedRMSD -1
REMARK  1 active torsions:
REMARK  status: ('A' for Active; 'I' for Inactive)
REMARK    1  A    between atoms: C1_2  and  C2_3 
ROOT
ATOM      1  C2  UNL d   1      -0.951   1.685  -1.547  0.00  0.00    -0.076 A 
ATOM      2  C3  UNL d   1       0.153   2.263  -2.197  0.00  0.00     0.004 A 
ATOM      3  C4  UNL d   1       0.111   2.555  -3.560  0.00  0.00    -0.003 A 
ATOM      4  C5  UNL d   1      -1.036   2.274  -4.293  0.00  0.00     0.000 A 
ATOM      5  C6  UNL d   1      -2.147   1.717  -3.661  0.00  0.00     0.000 A 
ATOM      6  C7  UNL d   1      -2.127   1.432  -2.285  0.00  0.00    -0.073 A 
ATOM      7  C8  UNL d   1      -3.351   0.826  -1.655  0.00  0.00     0.078 C 
ENDROOT
BRANCH   1   8
ATOM      8  C1  UNL d   1      -0.837   1.365  -0.073  0.00  0.00     0.053 C 
ATOM      9  C   UNL d   1       0.223   0.314   0.215  0.00  0.00     0.018 C 
ENDBRANCH   1   8
TORSDOF 1
ENDMDL
