MODEL 1
REMARK minimizedAffinity -3.40953445
REMARK minimizedRMSD -1
REMARK  1 active torsions:
REMARK  status: ('A' for Active; 'I' for Inactive)
REMARK    1  A    between atoms: C1_2  and  C2_3 
ROOT
ATOM      1  C2  UNL d   1      -0.312   0.607   0.008  0.00  0.00    -0.076 A 
ATOM      2  C3  UNL d   1       0.830   0.719  -0.803  0.00  0.00     0.004 A 
ATOM      3  C4  UNL d   1       1.954  -0.073  -0.574  0.00  0.00    -0.003 A 
ATOM      4  C5  UNL d   1       1.954  -0.990   0.471  0.00  0.00     0.000 A 
ATOM      5  C6  UNL d   1       0.823  -1.128   1.275  0.00  0.00     0.000 A 
ATOM      6  C7  UNL d   1      -0.325  -0.349   1.047  0.00  0.00    -0.073 A 
ATOM      7  C8  UNL d   1      -1.514  -0.535   1.948  0.00  0.00     0.078 C 
ENDROOT
BRANCH   1   8
ATOM      8  C1  UNL d   1      -1.491   1.511  -0.272  0.00  0.00     0.053 C 
ATOM      9  C   UNL d   1      -1.920   1.475  -1.731  0.00  0.00     0.018 C 
ENDBRANCH   1   8
TORSDOF 1
ENDMDL
