MODEL 1
REMARK minimizedAffinity -2.93672061
REMARK minimizedRMSD -1
REMARK  1 active torsions:
REMARK  status: ('A' for Active; 'I' for Inactive)
REMARK    1  A    between atoms: C1_2  and  C2_3 
ROOT
ATOM      1  C2  UNL d   1       0.274  -0.518   0.999  0.00  0.00    -0.076 A 
ATOM      2  C3  UNL d   1       1.410  -1.280   1.323  0.00  0.00     0.004 A 
ATOM      3  C4  UNL d   1       2.575  -1.190   0.564  0.00  0.00    -0.003 A 
ATOM      4  C5  UNL d   1       2.624  -0.336  -0.532  0.00  0.00     0.000 A 
ATOM      5  C6  UNL d   1       1.513   0.441  -0.858  0.00  0.00     0.000 A 
ATOM      6  C7  UNL d   1       0.335   0.374  -0.093  0.00  0.00    -0.073 A 
ATOM      7  C8  UNL d   1      -0.835   1.230  -0.494  0.00  0.00     0.078 C 
ENDROOT
BRANCH   1   8
ATOM      8  C1  UNL d   1      -0.971  -0.677   1.842  0.00  0.00     0.053 C 
ATOM      9  C   UNL d   1      -0.684  -1.328   3.187  0.00  0.00     0.018 C 
ENDBRANCH   1   8
TORSDOF 1
ENDMDL
