MODEL 1
REMARK minimizedAffinity -2.97836375
REMARK minimizedRMSD -1
REMARK  1 active torsions:
REMARK  status: ('A' for Active; 'I' for Inactive)
REMARK    1  A    between atoms: C1_2  and  C2_3 
ROOT
ATOM      1  C2  UNL d   1      -0.196  -0.066   0.006  0.00  0.00    -0.076 A 
ATOM      2  C3  UNL d   1       0.855  -0.387  -0.871  0.00  0.00     0.004 A 
ATOM      3  C4  UNL d   1       1.957  -1.120  -0.433  0.00  0.00    -0.003 A 
ATOM      4  C5  UNL d   1       2.025  -1.545   0.889  0.00  0.00     0.000 A 
ATOM      5  C6  UNL d   1       0.983  -1.251   1.769  0.00  0.00     0.000 A 
ATOM      6  C7  UNL d   1      -0.142  -0.527   1.339  0.00  0.00    -0.073 A 
ATOM      7  C8  UNL d   1      -1.233  -0.232   2.331  0.00  0.00     0.078 C 
ENDROOT
BRANCH   1   8
ATOM      8  C1  UNL d   1      -1.352   0.754  -0.519  0.00  0.00     0.053 C 
ATOM      9  C   UNL d   1      -1.383   0.812  -2.039  0.00  0.00     0.018 C 
ENDBRANCH   1   8
TORSDOF 1
ENDMDL
