MODEL 1
REMARK minimizedAffinity -3.32125616
REMARK minimizedRMSD -1
REMARK  1 active torsions:
REMARK  status: ('A' for Active; 'I' for Inactive)
REMARK    1  A    between atoms: C1_2  and  C2_3 
ROOT
ATOM      1  C2  UNL d   1       0.298   0.315  -0.200  0.00  0.00    -0.076 A 
ATOM      2  C3  UNL d   1      -0.402  -0.593   0.615  0.00  0.00     0.004 A 
ATOM      3  C4  UNL d   1       0.230  -1.718   1.142  0.00  0.00    -0.003 A 
ATOM      4  C5  UNL d   1       1.571  -1.955   0.862  0.00  0.00     0.000 A 
ATOM      5  C6  UNL d   1       2.285  -1.056   0.070  0.00  0.00     0.000 A 
ATOM      6  C7  UNL d   1       1.668   0.092  -0.455  0.00  0.00    -0.073 A 
ATOM      7  C8  UNL d   1       2.484   1.025  -1.308  0.00  0.00     0.078 C 
ENDROOT
BRANCH   1   8
ATOM      8  C1  UNL d   1      -0.447   1.503  -0.765  0.00  0.00     0.053 C 
ATOM      9  C   UNL d   1      -1.449   1.107  -1.838  0.00  0.00     0.018 C 
ENDBRANCH   1   8
TORSDOF 1
ENDMDL
