MODEL 1
REMARK minimizedAffinity -3.88096881
REMARK minimizedRMSD -1
REMARK  1 active torsions:
REMARK  status: ('A' for Active; 'I' for Inactive)
REMARK    1  A    between atoms: C1_2  and  C2_3 
ROOT
ATOM      1  C2  UNL d   1      -0.184  -0.759   0.640  0.00  0.00    -0.076 A 
ATOM      2  C3  UNL d   1       0.719  -1.580   1.338  0.00  0.00     0.004 A 
ATOM      3  C4  UNL d   1       2.086  -1.534   1.068  0.00  0.00    -0.003 A 
ATOM      4  C5  UNL d   1       2.572  -0.666   0.097  0.00  0.00     0.000 A 
ATOM      5  C6  UNL d   1       1.692   0.168  -0.593  0.00  0.00     0.000 A 
ATOM      6  C7  UNL d   1       0.313   0.146  -0.321  0.00  0.00    -0.073 A 
ATOM      7  C8  UNL d   1      -0.590   1.063  -1.099  0.00  0.00     0.078 C 
ENDROOT
BRANCH   1   8
ATOM      8  C1  UNL d   1      -1.658  -0.872   0.957  0.00  0.00     0.053 C 
ATOM      9  C   UNL d   1      -2.046  -0.102   2.210  0.00  0.00     0.018 C 
ENDBRANCH   1   8
TORSDOF 1
ENDMDL
