MODEL 1
REMARK minimizedAffinity 0.353286177
REMARK minimizedRMSD -1
REMARK  1 active torsions:
REMARK  status: ('A' for Active; 'I' for Inactive)
REMARK    1  A    between atoms: C1_2  and  C2_3 
ROOT
ATOM      1  C2  UNL d   1       0.027   0.507   0.209  0.00  0.00    -0.076 A 
ATOM      2  C3  UNL d   1       1.165   0.098   0.924  0.00  0.00     0.004 A 
ATOM      3  C4  UNL d   1       2.387  -0.094   0.281  0.00  0.00    -0.003 A 
ATOM      4  C5  UNL d   1       2.490   0.122  -1.089  0.00  0.00     0.000 A 
ATOM      5  C6  UNL d   1       1.375   0.546  -1.812  0.00  0.00     0.000 A 
ATOM      6  C7  UNL d   1       0.140   0.759  -1.175  0.00  0.00    -0.073 A 
ATOM      7  C8  UNL d   1      -1.031   1.211  -2.005  0.00  0.00     0.078 C 
ENDROOT
BRANCH   1   8
ATOM      8  C1  UNL d   1      -1.277   0.673   0.955  0.00  0.00     0.053 C 
ATOM      9  C   UNL d   1      -1.549  -0.476   1.914  0.00  0.00     0.018 C 
ENDBRANCH   1   8
TORSDOF 1
ENDMDL
