MODEL 1
REMARK minimizedAffinity -4.0401082
REMARK minimizedRMSD -1
REMARK  1 active torsions:
REMARK  status: ('A' for Active; 'I' for Inactive)
REMARK    1  A    between atoms: C1_2  and  C2_3 
ROOT
ATOM      1  C2  UNL d   1       0.654  -0.829   1.024  0.00  0.00    -0.076 A 
ATOM      2  C3  UNL d   1       0.930   0.122   0.027  0.00  0.00     0.004 A 
ATOM      3  C4  UNL d   1      -0.021   1.074  -0.339  0.00  0.00    -0.003 A 
ATOM      4  C5  UNL d   1      -1.262   1.089   0.286  0.00  0.00     0.000 A 
ATOM      5  C6  UNL d   1      -1.547   0.164   1.290  0.00  0.00     0.000 A 
ATOM      6  C7  UNL d   1      -0.594  -0.792   1.683  0.00  0.00    -0.073 A 
ATOM      7  C8  UNL d   1      -0.956  -1.770   2.766  0.00  0.00     0.078 C 
ENDROOT
BRANCH   1   8
ATOM      8  C1  UNL d   1       1.714  -1.854   1.360  0.00  0.00     0.053 C 
ATOM      9  C   UNL d   1       2.747  -2.008   0.255  0.00  0.00     0.018 C 
ENDBRANCH   1   8
TORSDOF 1
ENDMDL
