MODEL 1
REMARK minimizedAffinity 1.57326615
REMARK minimizedRMSD -1
REMARK  1 active torsions:
REMARK  status: ('A' for Active; 'I' for Inactive)
REMARK    1  A    between atoms: C1_2  and  C2_3 
ROOT
ATOM      1  C2  UNL d   1       2.271   0.938  -0.959  0.00  0.00    -0.076 A 
ATOM      2  C3  UNL d   1       2.845   1.907  -1.800  0.00  0.00     0.004 A 
ATOM      3  C4  UNL d   1       4.017   2.569  -1.437  0.00  0.00    -0.003 A 
ATOM      4  C5  UNL d   1       4.634   2.271  -0.228  0.00  0.00     0.000 A 
ATOM      5  C6  UNL d   1       4.089   1.300   0.611  0.00  0.00     0.000 A 
ATOM      6  C7  UNL d   1       2.917   0.612   0.253  0.00  0.00    -0.073 A 
ATOM      7  C8  UNL d   1       2.369  -0.422   1.198  0.00  0.00     0.078 C 
ENDROOT
BRANCH   1   8
ATOM      8  C1  UNL d   1       0.984   0.273  -1.393  0.00  0.00     0.053 C 
ATOM      9  C   UNL d   1      -0.246   1.084  -1.018  0.00  0.00     0.018 C 
ENDBRANCH   1   8
TORSDOF 1
ENDMDL
