MODEL 1
REMARK minimizedAffinity 1.46109939
REMARK minimizedRMSD -1
REMARK  1 active torsions:
REMARK  status: ('A' for Active; 'I' for Inactive)
REMARK    1  A    between atoms: C1_2  and  C2_3 
ROOT
ATOM      1  C2  UNL d   1       0.830  -0.666   0.932  0.00  0.00    -0.076 A 
ATOM      2  C3  UNL d   1       1.897  -1.534   1.225  0.00  0.00     0.004 A 
ATOM      3  C4  UNL d   1       2.956  -1.695   0.334  0.00  0.00    -0.003 A 
ATOM      4  C5  UNL d   1       2.967  -0.990  -0.865  0.00  0.00     0.000 A 
ATOM      5  C6  UNL d   1       1.926  -0.111  -1.164  0.00  0.00     0.000 A 
ATOM      6  C7  UNL d   1       0.859   0.075  -0.269  0.00  0.00    -0.073 A 
ATOM      7  C8  UNL d   1      -0.241   1.030  -0.645  0.00  0.00     0.078 C 
ENDROOT
BRANCH   1   8
ATOM      8  C1  UNL d   1      -0.305  -0.553   1.925  0.00  0.00     0.053 C 
ATOM      9  C   UNL d   1      -0.026  -1.305   3.217  0.00  0.00     0.018 C 
ENDBRANCH   1   8
TORSDOF 1
ENDMDL
