MODEL 1
REMARK minimizedAffinity -0.490038514
REMARK minimizedRMSD -1
REMARK  1 active torsions:
REMARK  status: ('A' for Active; 'I' for Inactive)
REMARK    1  A    between atoms: C1_2  and  C2_3 
ROOT
ATOM      1  C2  UNL d   1      -0.751   1.134  -0.994  0.00  0.00    -0.076 A 
ATOM      2  C3  UNL d   1      -1.467  -0.070  -0.872  0.00  0.00     0.004 A 
ATOM      3  C4  UNL d   1      -2.500  -0.384  -1.754  0.00  0.00    -0.003 A 
ATOM      4  C5  UNL d   1      -2.833   0.501  -2.773  0.00  0.00     0.000 A 
ATOM      5  C6  UNL d   1      -2.122   1.692  -2.920  0.00  0.00     0.000 A 
ATOM      6  C7  UNL d   1      -1.068   2.016  -2.050  0.00  0.00    -0.073 A 
ATOM      7  C8  UNL d   1      -0.339   3.316  -2.251  0.00  0.00     0.078 C 
ENDROOT
BRANCH   1   8
ATOM      8  C1  UNL d   1       0.341   1.432   0.008  0.00  0.00     0.053 C 
ATOM      9  C   UNL d   1       1.594   0.605  -0.232  0.00  0.00     0.018 C 
ENDBRANCH   1   8
TORSDOF 1
ENDMDL
