MODEL 1
REMARK minimizedAffinity 0.990937471
REMARK minimizedRMSD -1
REMARK  0 active torsions:
REMARK  status: ('A' for Active; 'I' for Inactive)
ROOT
ATOM      1  C   UNL d   1       2.384  -0.017   0.829  0.00  0.00     0.124 A 
ATOM      2  C1  UNL d   1       1.768   1.169   0.455  0.00  0.00     0.062 A 
ATOM      3  C2  UNL d   1       0.681   1.150  -0.415  0.00  0.00     0.162 A 
ATOM      4  C3  UNL d   1       0.202  -0.061  -0.915  0.00  0.00    -0.034 A 
ATOM      5  C4  UNL d   1       0.827  -1.250  -0.535  0.00  0.00     0.162 A 
ATOM      6  C5  UNL d   1       1.913  -1.225   0.334  0.00  0.00     0.062 A 
ATOM      7  F   UNL d   1       2.507  -2.372   0.695  0.00  0.00    -0.097 F 
ATOM      8  F1  UNL d   1       0.392  -2.431  -0.997  0.00  0.00    -0.096 F 
ATOM      9  I   UNL d   1      -1.423  -0.094  -2.216  0.00  0.00    -0.060 I 
ATOM     10  F2  UNL d   1       0.105   2.311  -0.759  0.00  0.00    -0.096 F 
ATOM     11  F3  UNL d   1       2.221   2.338   0.931  0.00  0.00    -0.097 F 
ATOM     12  F4  UNL d   1       3.430   0.005   1.665  0.00  0.00    -0.092 F 
ENDROOT
TORSDOF 0
ENDMDL
