MODEL 1
REMARK minimizedAffinity 4.49869919
REMARK minimizedRMSD -1
REMARK  0 active torsions:
REMARK  status: ('A' for Active; 'I' for Inactive)
ROOT
ATOM      1  C   UNL d   1      -4.114   0.573   0.390  0.00  0.00     0.124 A 
ATOM      2  C1  UNL d   1      -3.379   0.245  -0.741  0.00  0.00     0.062 A 
ATOM      3  C2  UNL d   1      -1.988   0.209  -0.686  0.00  0.00     0.162 A 
ATOM      4  C3  UNL d   1      -1.323   0.500   0.505  0.00  0.00    -0.034 A 
ATOM      5  C4  UNL d   1      -2.069   0.830   1.638  0.00  0.00     0.162 A 
ATOM      6  C5  UNL d   1      -3.458   0.865   1.578  0.00  0.00     0.062 A 
ATOM      7  F   UNL d   1      -4.167   1.183   2.671  0.00  0.00    -0.097 F 
ATOM      8  F1  UNL d   1      -1.462   1.116   2.799  0.00  0.00    -0.096 F 
ATOM      9  I   UNL d   1       0.756   0.447   0.591  0.00  0.00    -0.060 I 
ATOM     10  F2  UNL d   1      -1.304  -0.112  -1.794  0.00  0.00    -0.096 F 
ATOM     11  F3  UNL d   1      -4.009  -0.037  -1.890  0.00  0.00    -0.097 F 
ATOM     12  F4  UNL d   1      -5.451   0.609   0.334  0.00  0.00    -0.092 F 
ENDROOT
TORSDOF 0
ENDMDL
