MODEL 1
REMARK minimizedAffinity 6.9873085
REMARK minimizedRMSD -1
REMARK  0 active torsions:
REMARK  status: ('A' for Active; 'I' for Inactive)
ROOT
ATOM      1  C   UNL d   1      -0.308  -0.485  -1.699  0.00  0.00     0.124 A 
ATOM      2  C1  UNL d   1      -1.664  -0.387  -1.978  0.00  0.00     0.062 A 
ATOM      3  C2  UNL d   1      -2.543   0.097  -1.013  0.00  0.00     0.162 A 
ATOM      4  C3  UNL d   1      -2.069   0.488   0.239  0.00  0.00    -0.034 A 
ATOM      5  C4  UNL d   1      -0.704   0.386   0.512  0.00  0.00     0.162 A 
ATOM      6  C5  UNL d   1       0.171  -0.099  -0.455  0.00  0.00     0.062 A 
ATOM      7  F   UNL d   1       1.481  -0.193  -0.185  0.00  0.00    -0.097 F 
ATOM      8  F1  UNL d   1      -0.214   0.753   1.705  0.00  0.00    -0.096 F 
ATOM      9  I   UNL d   1      -3.380   1.213   1.683  0.00  0.00    -0.060 I 
ATOM     10  F2  UNL d   1      -3.849   0.181  -1.310  0.00  0.00    -0.096 F 
ATOM     11  F3  UNL d   1      -2.129  -0.761  -3.178  0.00  0.00    -0.097 F 
ATOM     12  F4  UNL d   1       0.536  -0.953  -2.628  0.00  0.00    -0.092 F 
ENDROOT
TORSDOF 0
ENDMDL
