MODEL 1
REMARK minimizedAffinity 1.50977325
REMARK minimizedRMSD -1
REMARK  0 active torsions:
REMARK  status: ('A' for Active; 'I' for Inactive)
ROOT
ATOM      1  C   UNL d   1      -4.543   0.675   1.125  0.00  0.00     0.124 A 
ATOM      2  C1  UNL d   1      -3.307   1.299   1.228  0.00  0.00     0.062 A 
ATOM      3  C2  UNL d   1      -2.334   1.090   0.254  0.00  0.00     0.162 A 
ATOM      4  C3  UNL d   1      -2.594   0.253  -0.831  0.00  0.00    -0.034 A 
ATOM      5  C4  UNL d   1      -3.838  -0.372  -0.926  0.00  0.00     0.162 A 
ATOM      6  C5  UNL d   1      -4.807  -0.160   0.049  0.00  0.00     0.062 A 
ATOM      7  F   UNL d   1      -6.000  -0.764  -0.051  0.00  0.00    -0.097 F 
ATOM      8  F1  UNL d   1      -4.121  -1.183  -1.957  0.00  0.00    -0.096 F 
ATOM      9  I   UNL d   1      -1.142  -0.063  -2.289  0.00  0.00    -0.060 I 
ATOM     10  F2  UNL d   1      -1.149   1.706   0.379  0.00  0.00    -0.096 F 
ATOM     11  F3  UNL d   1      -3.049   2.106   2.267  0.00  0.00    -0.097 F 
ATOM     12  F4  UNL d   1      -5.476   0.877   2.064  0.00  0.00    -0.092 F 
ENDROOT
TORSDOF 0
ENDMDL
