MODEL 1
REMARK minimizedAffinity 4.2152853
REMARK minimizedRMSD -1
REMARK  0 active torsions:
REMARK  status: ('A' for Active; 'I' for Inactive)
ROOT
ATOM      1  C   UNL d   1      -4.814   1.019   1.969  0.00  0.00     0.124 A 
ATOM      2  C1  UNL d   1      -4.776   0.521   0.674  0.00  0.00     0.062 A 
ATOM      3  C2  UNL d   1      -3.564   0.144   0.104  0.00  0.00     0.162 A 
ATOM      4  C3  UNL d   1      -2.378   0.262   0.830  0.00  0.00    -0.034 A 
ATOM      5  C4  UNL d   1      -2.424   0.764   2.132  0.00  0.00     0.162 A 
ATOM      6  C5  UNL d   1      -3.639   1.140   2.696  0.00  0.00     0.062 A 
ATOM      7  F   UNL d   1      -3.674   1.621   3.948  0.00  0.00    -0.097 F 
ATOM      8  F1  UNL d   1      -1.304   0.891   2.858  0.00  0.00    -0.096 F 
ATOM      9  I   UNL d   1      -0.563  -0.302  -0.018  0.00  0.00    -0.060 I 
ATOM     10  F2  UNL d   1      -3.557  -0.335  -1.149  0.00  0.00    -0.096 F 
ATOM     11  F3  UNL d   1      -5.911   0.404  -0.032  0.00  0.00    -0.097 F 
ATOM     12  F4  UNL d   1      -5.982   1.383   2.514  0.00  0.00    -0.092 F 
ENDROOT
TORSDOF 0
ENDMDL
