MODEL 1
REMARK minimizedAffinity 9.8410387
REMARK minimizedRMSD -1
REMARK  0 active torsions:
REMARK  status: ('A' for Active; 'I' for Inactive)
ROOT
ATOM      1  C   UNL d   1      -0.762   0.634  -1.488  0.00  0.00     0.124 A 
ATOM      2  C1  UNL d   1      -1.301   0.909  -2.737  0.00  0.00     0.062 A 
ATOM      3  C2  UNL d   1      -1.553  -0.125  -3.634  0.00  0.00     0.162 A 
ATOM      4  C3  UNL d   1      -1.266  -1.445  -3.286  0.00  0.00    -0.034 A 
ATOM      5  C4  UNL d   1      -0.723  -1.714  -2.028  0.00  0.00     0.162 A 
ATOM      6  C5  UNL d   1      -0.473  -0.677  -1.135  0.00  0.00     0.062 A 
ATOM      7  F   UNL d   1       0.048  -0.945   0.071  0.00  0.00    -0.097 F 
ATOM      8  F1  UNL d   1      -0.435  -2.971  -1.660  0.00  0.00    -0.096 F 
ATOM      9  I   UNL d   1      -1.640  -2.993  -4.624  0.00  0.00    -0.060 I 
ATOM     10  F2  UNL d   1      -2.074   0.170  -4.834  0.00  0.00    -0.096 F 
ATOM     11  F3  UNL d   1      -1.580   2.175  -3.081  0.00  0.00    -0.097 F 
ATOM     12  F4  UNL d   1      -0.520   1.631  -0.627  0.00  0.00    -0.092 F 
ENDROOT
TORSDOF 0
ENDMDL
