MODEL 1
REMARK minimizedAffinity 4.37743998
REMARK minimizedRMSD -1
REMARK  0 active torsions:
REMARK  status: ('A' for Active; 'I' for Inactive)
ROOT
ATOM      1  C   UNL d   1      -1.651   0.062  -4.143  0.00  0.00     0.124 A 
ATOM      2  C1  UNL d   1      -1.370  -1.173  -3.574  0.00  0.00     0.062 A 
ATOM      3  C2  UNL d   1      -0.964  -1.256  -2.246  0.00  0.00     0.162 A 
ATOM      4  C3  UNL d   1      -0.836  -0.100  -1.475  0.00  0.00    -0.034 A 
ATOM      5  C4  UNL d   1      -1.119   1.138  -2.054  0.00  0.00     0.162 A 
ATOM      6  C5  UNL d   1      -1.525   1.216  -3.382  0.00  0.00     0.062 A 
ATOM      7  F   UNL d   1      -1.795   2.410  -3.929  0.00  0.00    -0.097 F 
ATOM      8  F1  UNL d   1      -1.007   2.269  -1.342  0.00  0.00    -0.096 F 
ATOM      9  I   UNL d   1      -0.229  -0.220   0.512  0.00  0.00    -0.060 I 
ATOM     10  F2  UNL d   1      -0.700  -2.462  -1.723  0.00  0.00    -0.096 F 
ATOM     11  F3  UNL d   1      -1.490  -2.289  -4.307  0.00  0.00    -0.097 F 
ATOM     12  F4  UNL d   1      -2.041   0.140  -5.421  0.00  0.00    -0.092 F 
ENDROOT
TORSDOF 0
ENDMDL
