MODEL 1
REMARK minimizedAffinity 3.32715774
REMARK minimizedRMSD -1
REMARK  0 active torsions:
REMARK  status: ('A' for Active; 'I' for Inactive)
ROOT
ATOM      1  C   UNL d   1       3.065  -1.203   0.125  0.00  0.00     0.124 A 
ATOM      2  C1  UNL d   1       2.209  -1.609  -0.889  0.00  0.00     0.062 A 
ATOM      3  C2  UNL d   1       0.882  -1.187  -0.897  0.00  0.00     0.162 A 
ATOM      4  C3  UNL d   1       0.404  -0.352   0.113  0.00  0.00    -0.034 A 
ATOM      5  C4  UNL d   1       1.271   0.052   1.130  0.00  0.00     0.162 A 
ATOM      6  C5  UNL d   1       2.595  -0.373   1.133  0.00  0.00     0.062 A 
ATOM      7  F   UNL d   1       3.421   0.021   2.113  0.00  0.00    -0.097 F 
ATOM      8  F1  UNL d   1       0.844   0.855   2.116  0.00  0.00    -0.096 F 
ATOM      9  I   UNL d   1      -1.578   0.282   0.105  0.00  0.00    -0.060 I 
ATOM     10  F2  UNL d   1       0.078  -1.595  -1.889  0.00  0.00    -0.096 F 
ATOM     11  F3  UNL d   1       2.660  -2.412  -1.864  0.00  0.00    -0.097 F 
ATOM     12  F4  UNL d   1       4.340  -1.612   0.130  0.00  0.00    -0.092 F 
ENDROOT
TORSDOF 0
ENDMDL
