MODEL 1
REMARK minimizedAffinity 1.56183338
REMARK minimizedRMSD -1
REMARK  0 active torsions:
REMARK  status: ('A' for Active; 'I' for Inactive)
ROOT
ATOM      1  C   UNL d   1       1.698   1.385   0.374  0.00  0.00     0.124 A 
ATOM      2  C1  UNL d   1       1.303   0.083   0.648  0.00  0.00     0.062 A 
ATOM      3  C2  UNL d   1      -0.030  -0.198   0.937  0.00  0.00     0.162 A 
ATOM      4  C3  UNL d   1      -0.977   0.826   0.954  0.00  0.00    -0.034 A 
ATOM      5  C4  UNL d   1      -0.571   2.133   0.679  0.00  0.00     0.162 A 
ATOM      6  C5  UNL d   1       0.762   2.408   0.390  0.00  0.00     0.062 A 
ATOM      7  F   UNL d   1       1.142   3.667   0.126  0.00  0.00    -0.097 F 
ATOM      8  F1  UNL d   1      -1.456   3.141   0.686  0.00  0.00    -0.096 F 
ATOM      9  I   UNL d   1      -2.970   0.411   1.386  0.00  0.00    -0.060 I 
ATOM     10  F2  UNL d   1      -0.384  -1.465   1.197  0.00  0.00    -0.096 F 
ATOM     11  F3  UNL d   1       2.206  -0.908   0.634  0.00  0.00    -0.097 F 
ATOM     12  F4  UNL d   1       2.981   1.652   0.097  0.00  0.00    -0.092 F 
ENDROOT
TORSDOF 0
ENDMDL
