MODEL 1
REMARK minimizedAffinity 8.41591644
REMARK minimizedRMSD -1
REMARK  0 active torsions:
REMARK  status: ('A' for Active; 'I' for Inactive)
ROOT
ATOM      1  C   UNL d   1       0.236   0.145   0.807  0.00  0.00     0.124 A 
ATOM      2  C1  UNL d   1       1.598   0.050   1.055  0.00  0.00     0.062 A 
ATOM      3  C2  UNL d   1       2.423  -0.645   0.176  0.00  0.00     0.162 A 
ATOM      4  C3  UNL d   1       1.888  -1.251  -0.962  0.00  0.00    -0.034 A 
ATOM      5  C4  UNL d   1       0.517  -1.152  -1.204  0.00  0.00     0.162 A 
ATOM      6  C5  UNL d   1      -0.303  -0.456  -0.322  0.00  0.00     0.062 A 
ATOM      7  F   UNL d   1      -1.619  -0.365  -0.564  0.00  0.00    -0.097 F 
ATOM      8  F1  UNL d   1      -0.030  -1.722  -2.288  0.00  0.00    -0.096 F 
ATOM      9  I   UNL d   1       3.119  -2.291  -2.279  0.00  0.00    -0.060 I 
ATOM     10  F2  UNL d   1       3.736  -0.721   0.441  0.00  0.00    -0.096 F 
ATOM     11  F3  UNL d   1       2.121   0.629   2.146  0.00  0.00    -0.097 F 
ATOM     12  F4  UNL d   1      -0.556   0.813   1.655  0.00  0.00    -0.092 F 
ENDROOT
TORSDOF 0
ENDMDL
