MODEL 1
REMARK minimizedAffinity 11.3551731
REMARK minimizedRMSD -1
REMARK  2 active torsions:
REMARK  status: ('A' for Active; 'I' for Inactive)
REMARK    1  A    between atoms: C2'_3  and  C1'_4 
REMARK    2  A    between atoms: C1'_4  and  C1_5 
ROOT
ATOM      1  C1  I4B d   1      -4.008  -0.754  -2.908  0.00  0.00    -0.075 A 
ATOM      2  C2  I4B d   1      -3.832  -0.932  -1.558  0.00  0.00     0.003 A 
ATOM      3  C3  I4B d   1      -3.241   0.090  -0.776  0.00  0.00     0.002 A 
ATOM      4  C4  I4B d   1      -2.796   1.244  -1.389  0.00  0.00    -0.004 A 
ATOM      5  C5  I4B d   1      -2.996   1.431  -2.753  0.00  0.00     0.002 A 
ATOM      6  C6  I4B d   1      -3.617   0.431  -3.516  0.00  0.00     0.003 A 
ENDROOT
BRANCH   1   7
ATOM      7  C1' I4B d   1      -4.606  -1.867  -3.709  0.00  0.00     0.060 C 
BRANCH   7   8
ATOM      8  C2' I4B d   1      -5.911  -1.370  -4.296  0.00  0.00    -0.013 C 
ATOM      9  C4' I4B d   1      -5.999   0.132  -4.236  0.00  0.00     0.013 C 
ATOM     10  C3' I4B d   1      -6.000  -1.862  -5.710  0.00  0.00     0.013 C 
ENDBRANCH   7   8
ENDBRANCH   1   7
TORSDOF 2
ENDMDL
