MODEL 1
REMARK minimizedAffinity 15.7638388
REMARK minimizedRMSD -1
REMARK  2 active torsions:
REMARK  status: ('A' for Active; 'I' for Inactive)
REMARK    1  A    between atoms: C2'_3  and  C1'_4 
REMARK    2  A    between atoms: C1'_4  and  C1_5 
ROOT
ATOM      1  C1  I4B d   1      -4.227   0.263  -2.519  0.00  0.00    -0.075 A 
ATOM      2  C2  I4B d   1      -5.081   0.682  -3.508  0.00  0.00     0.003 A 
ATOM      3  C3  I4B d   1      -5.998  -0.227  -4.089  0.00  0.00     0.002 A 
ATOM      4  C4  I4B d   1      -5.992  -1.547  -3.690  0.00  0.00    -0.004 A 
ATOM      5  C5  I4B d   1      -5.141  -1.965  -2.671  0.00  0.00     0.002 A 
ATOM      6  C6  I4B d   1      -4.261  -1.051  -2.073  0.00  0.00     0.003 A 
ENDROOT
BRANCH   1   7
ATOM      7  C1' I4B d   1      -3.248   1.241  -1.950  0.00  0.00     0.060 C 
BRANCH   7   8
ATOM      8  C2' I4B d   1      -2.454   1.829  -3.099  0.00  0.00    -0.013 C 
ATOM      9  C4' I4B d   1      -2.999   3.172  -3.508  0.00  0.00     0.013 C 
ATOM     10  C3' I4B d   1      -1.022   1.935  -2.665  0.00  0.00     0.013 C 
ENDBRANCH   7   8
ENDBRANCH   1   7
TORSDOF 2
ENDMDL
