MODEL 1
REMARK minimizedAffinity 12.1493893
REMARK minimizedRMSD -1
REMARK  2 active torsions:
REMARK  status: ('A' for Active; 'I' for Inactive)
REMARK    1  A    between atoms: C2'_3  and  C1'_4 
REMARK    2  A    between atoms: C1'_4  and  C1_5 
ROOT
ATOM      1  C1  I4B d   1       1.232  -2.533   0.859  0.00  0.00    -0.075 A 
ATOM      2  C2  I4B d   1       2.218  -1.827   1.503  0.00  0.00     0.003 A 
ATOM      3  C3  I4B d   1       1.888  -0.947   2.562  0.00  0.00     0.002 A 
ATOM      4  C4  I4B d   1       0.565  -0.767   2.909  0.00  0.00    -0.004 A 
ATOM      5  C5  I4B d   1      -0.431  -1.500   2.270  0.00  0.00     0.002 A 
ATOM      6  C6  I4B d   1      -0.094  -2.399   1.247  0.00  0.00     0.003 A 
ENDROOT
BRANCH   1   7
ATOM      7  C1' I4B d   1       1.612  -3.429  -0.277  0.00  0.00     0.060 C 
BRANCH   7   8
ATOM      8  C2' I4B d   1       1.971  -4.785   0.297  0.00  0.00    -0.013 C 
ATOM      9  C4' I4B d   1       0.736  -5.588   0.610  0.00  0.00     0.013 C 
ATOM     10  C3' I4B d   1       2.840  -5.494  -0.699  0.00  0.00     0.013 C 
ENDBRANCH   7   8
ENDBRANCH   1   7
TORSDOF 2
ENDMDL
