MODEL 1
REMARK minimizedAffinity 13.9923887
REMARK minimizedRMSD -1
REMARK  2 active torsions:
REMARK  status: ('A' for Active; 'I' for Inactive)
REMARK    1  A    between atoms: C2'_3  and  C1'_4 
REMARK    2  A    between atoms: C1'_4  and  C1_5 
ROOT
ATOM      1  C1  I4B d   1       1.675  -2.965   0.111  0.00  0.00    -0.075 A 
ATOM      2  C2  I4B d   1       0.340  -2.668   0.001  0.00  0.00     0.003 A 
ATOM      3  C3  I4B d   1      -0.261  -1.746   0.893  0.00  0.00     0.002 A 
ATOM      4  C4  I4B d   1       0.495  -1.187   1.903  0.00  0.00    -0.004 A 
ATOM      5  C5  I4B d   1       1.854  -1.473   1.999  0.00  0.00     0.002 A 
ATOM      6  C6  I4B d   1       2.451  -2.358   1.089  0.00  0.00     0.003 A 
ENDROOT
BRANCH   1   7
ATOM      7  C1' I4B d   1       2.269  -3.969  -0.827  0.00  0.00     0.060 C 
BRANCH   7   8
ATOM      8  C2' I4B d   1       2.660  -5.189  -0.018  0.00  0.00    -0.013 C 
ATOM      9  C4' I4B d   1       1.451  -6.000   0.365  0.00  0.00     0.013 C 
ATOM     10  C3' I4B d   1       3.619  -6.000  -0.838  0.00  0.00     0.013 C 
ENDBRANCH   7   8
ENDBRANCH   1   7
TORSDOF 2
ENDMDL
