MODEL 1
REMARK minimizedAffinity -3.47915816
REMARK minimizedRMSD -1
REMARK  0 active torsions:
REMARK  status: ('A' for Active; 'I' for Inactive)
ROOT
ATOM      1  C1  DEN d   1       1.192   1.961   1.616  0.00  0.00     0.130 A 
ATOM      2  C2  DEN d   1      -0.047   1.189   1.678  0.00  0.00    -0.031 A 
ATOM      3  C3  DEN d   1      -0.907   1.617   0.556  0.00  0.00     0.027 A 
ATOM      4  C4  DEN d   1      -0.442   3.385  -1.263  0.00  0.00     0.027 A 
ATOM      5  C5  DEN d   1       0.469   4.311  -1.722  0.00  0.00    -0.003 A 
ATOM      6  C6  DEN d   1       1.661   4.540  -1.086  0.00  0.00     0.001 A 
ATOM      7  C7  DEN d   1       1.993   3.802   0.019  0.00  0.00     0.017 A 
ATOM      8  C8  DEN d   1       1.076   2.873   0.492  0.00  0.00    -0.094 A 
ATOM      9  C9  DEN d   1      -0.118   2.647  -0.171  0.00  0.00    -0.072 A 
ENDROOT
TORSDOF 0
ENDMDL
