MODEL 1
REMARK minimizedAffinity -1.65171885
REMARK minimizedRMSD -1
REMARK  0 active torsions:
REMARK  status: ('A' for Active; 'I' for Inactive)
ROOT
ATOM      1  C1  DEN d   1       0.319   3.864  -2.247  0.00  0.00     0.130 A 
ATOM      2  C2  DEN d   1       0.649   5.209  -1.785  0.00  0.00    -0.031 A 
ATOM      3  C3  DEN d   1       0.797   5.163  -0.316  0.00  0.00     0.027 A 
ATOM      4  C4  DEN d   1       0.553   3.150   1.277  0.00  0.00     0.027 A 
ATOM      5  C5  DEN d   1       0.269   1.804   1.350  0.00  0.00    -0.003 A 
ATOM      6  C6  DEN d   1      -0.049   1.064   0.243  0.00  0.00     0.001 A 
ATOM      7  C7  DEN d   1      -0.046   1.656  -0.993  0.00  0.00     0.017 A 
ATOM      8  C8  DEN d   1       0.232   3.014  -1.074  0.00  0.00    -0.094 A 
ATOM      9  C9  DEN d   1       0.563   3.742   0.056  0.00  0.00    -0.072 A 
ENDROOT
TORSDOF 0
ENDMDL
