MODEL 1
REMARK minimizedAffinity 6.31333113
REMARK minimizedRMSD -1
REMARK  0 active torsions:
REMARK  status: ('A' for Active; 'I' for Inactive)
ROOT
ATOM      1  C1  DEN d   1      -0.767   3.745  -1.395  0.00  0.00     0.130 A 
ATOM      2  C2  DEN d   1       0.479   4.462  -1.650  0.00  0.00    -0.031 A 
ATOM      3  C3  DEN d   1       1.519   3.899  -0.766  0.00  0.00     0.027 A 
ATOM      4  C4  DEN d   1       1.323   1.993   0.961  0.00  0.00     0.027 A 
ATOM      5  C5  DEN d   1       0.462   1.088   1.540  0.00  0.00    -0.003 A 
ATOM      6  C6  DEN d   1      -0.866   1.027   1.209  0.00  0.00     0.001 A 
ATOM      7  C7  DEN d   1      -1.362   1.859   0.240  0.00  0.00     0.017 A 
ATOM      8  C8  DEN d   1      -0.501   2.780  -0.344  0.00  0.00    -0.094 A 
ATOM      9  C9  DEN d   1       0.840   2.817  -0.004  0.00  0.00    -0.072 A 
ENDROOT
TORSDOF 0
ENDMDL
