MODEL 1
REMARK minimizedAffinity 4.18037605
REMARK minimizedRMSD -1
REMARK  0 active torsions:
REMARK  status: ('A' for Active; 'I' for Inactive)
ROOT
ATOM      1  C1  DEN d   1      -0.363   3.856  -1.669  0.00  0.00     0.130 A 
ATOM      2  C2  DEN d   1       0.619   4.936  -1.631  0.00  0.00    -0.031 A 
ATOM      3  C3  DEN d   1       1.530   4.685  -0.497  0.00  0.00     0.027 A 
ATOM      4  C4  DEN d   1       1.520   2.737   1.193  0.00  0.00     0.027 A 
ATOM      5  C5  DEN d   1       0.871   1.583   1.572  0.00  0.00    -0.003 A 
ATOM      6  C6  DEN d   1      -0.246   1.128   0.924  0.00  0.00     0.001 A 
ATOM      7  C7  DEN d   1      -0.722   1.806  -0.167  0.00  0.00     0.017 A 
ATOM      8  C8  DEN d   1      -0.077   2.974  -0.551  0.00  0.00    -0.094 A 
ATOM      9  C9  DEN d   1       1.058   3.412   0.110  0.00  0.00    -0.072 A 
ENDROOT
TORSDOF 0
ENDMDL
