MODEL 1
REMARK minimizedAffinity 3.64313245
REMARK minimizedRMSD -1
REMARK  0 active torsions:
REMARK  status: ('A' for Active; 'I' for Inactive)
ROOT
ATOM      1  C1  DEN d   1      -1.242   4.699  -0.489  0.00  0.00     0.130 A 
ATOM      2  C2  DEN d   1      -0.330   5.208  -1.509  0.00  0.00    -0.031 A 
ATOM      3  C3  DEN d   1       0.759   4.226  -1.680  0.00  0.00     0.027 A 
ATOM      4  C4  DEN d   1       1.117   1.974  -0.474  0.00  0.00     0.027 A 
ATOM      5  C5  DEN d   1       0.613   1.120   0.482  0.00  0.00    -0.003 A 
ATOM      6  C6  DEN d   1      -0.516   1.412   1.199  0.00  0.00     0.001 A 
ATOM      7  C7  DEN d   1      -1.205   2.568   0.940  0.00  0.00     0.017 A 
ATOM      8  C8  DEN d   1      -0.699   3.437  -0.017  0.00  0.00    -0.094 A 
ATOM      9  C9  DEN d   1       0.438   3.118  -0.740  0.00  0.00    -0.072 A 
ENDROOT
TORSDOF 0
ENDMDL
