MODEL 1
REMARK minimizedAffinity 5.74581146
REMARK minimizedRMSD -1
REMARK  0 active torsions:
REMARK  status: ('A' for Active; 'I' for Inactive)
ROOT
ATOM      1  C1  DEN d   1       1.125   2.703  -0.475  0.00  0.00     0.130 A 
ATOM      2  C2  DEN d   1       0.208   3.100  -1.539  0.00  0.00    -0.031 A 
ATOM      3  C3  DEN d   1      -1.106   2.485  -1.262  0.00  0.00     0.027 A 
ATOM      4  C4  DEN d   1      -1.805   0.968   0.703  0.00  0.00     0.027 A 
ATOM      5  C5  DEN d   1      -1.368   0.345   1.851  0.00  0.00    -0.003 A 
ATOM      6  C6  DEN d   1      -0.071   0.435   2.282  0.00  0.00     0.001 A 
ATOM      7  C7  DEN d   1       0.824   1.203   1.584  0.00  0.00     0.017 A 
ATOM      8  C8  DEN d   1       0.392   1.828   0.422  0.00  0.00    -0.094 A 
ATOM      9  C9  DEN d   1      -0.926   1.735   0.010  0.00  0.00    -0.072 A 
ENDROOT
TORSDOF 0
ENDMDL
