MODEL 1
REMARK minimizedAffinity 0.00959971454
REMARK minimizedRMSD -1
REMARK  0 active torsions:
REMARK  status: ('A' for Active; 'I' for Inactive)
ROOT
ATOM      1  C1  DEN d   1      -0.133   3.694  -1.930  0.00  0.00     0.130 A 
ATOM      2  C2  DEN d   1       0.731   4.833  -1.632  0.00  0.00    -0.031 A 
ATOM      3  C3  DEN d   1       1.349   4.604  -0.311  0.00  0.00     0.027 A 
ATOM      4  C4  DEN d   1       1.057   2.606   1.293  0.00  0.00     0.027 A 
ATOM      5  C5  DEN d   1       0.416   1.401   1.480  0.00  0.00    -0.003 A 
ATOM      6  C6  DEN d   1      -0.471   0.896   0.567  0.00  0.00     0.001 A 
ATOM      7  C7  DEN d   1      -0.708   1.578  -0.597  0.00  0.00     0.017 A 
ATOM      8  C8  DEN d   1      -0.071   2.797  -0.790  0.00  0.00    -0.094 A 
ATOM      9  C9  DEN d   1       0.831   3.284   0.140  0.00  0.00    -0.072 A 
ENDROOT
TORSDOF 0
ENDMDL
