MODEL 1
REMARK minimizedAffinity -4.88626862
REMARK minimizedRMSD -1
REMARK  0 active torsions:
REMARK  status: ('A' for Active; 'I' for Inactive)
ROOT
ATOM      1  C   UNL d   1       2.295  -0.506   2.001  0.00  0.00     0.078 C 
ATOM      2  C1  UNL d   1       0.951  -0.350   1.356  0.00  0.00    -0.077 A 
ATOM      3  C2  UNL d   1      -0.160   0.073   2.096  0.00  0.00    -0.001 A 
ATOM      4  C3  UNL d   1      -1.408   0.204   1.484  0.00  0.00     0.003 A 
ATOM      5  C4  UNL d   1      -1.557  -0.088   0.130  0.00  0.00    -0.005 A 
ATOM      6  C5  UNL d   1      -0.458  -0.512  -0.615  0.00  0.00     0.003 A 
ATOM      7  C6  UNL d   1       0.790  -0.643  -0.005  0.00  0.00    -0.001 A 
ENDROOT
TORSDOF 0
ENDMDL
