MODEL 1
REMARK minimizedAffinity -4.16420937
REMARK minimizedRMSD -1
REMARK  0 active torsions:
REMARK  status: ('A' for Active; 'I' for Inactive)
ROOT
ATOM      1  C   UNL d   1       0.750  -0.749  -1.076  0.00  0.00     0.078 C 
ATOM      2  C1  UNL d   1       0.089  -0.059   0.079  0.00  0.00    -0.077 A 
ATOM      3  C2  UNL d   1       0.846   0.461   1.137  0.00  0.00    -0.001 A 
ATOM      4  C3  UNL d   1       0.217   1.092   2.211  0.00  0.00     0.003 A 
ATOM      5  C4  UNL d   1      -1.172   1.209   2.239  0.00  0.00    -0.005 A 
ATOM      6  C5  UNL d   1      -1.933   0.694   1.192  0.00  0.00     0.003 A 
ATOM      7  C6  UNL d   1      -1.306   0.062   0.117  0.00  0.00    -0.001 A 
ENDROOT
TORSDOF 0
ENDMDL
