MODEL 1
REMARK minimizedAffinity -5.22782278
REMARK minimizedRMSD -1
REMARK  0 active torsions:
REMARK  status: ('A' for Active; 'I' for Inactive)
ROOT
ATOM      1  C   UNL d   1      -1.335   0.882   2.630  0.00  0.00     0.078 C 
ATOM      2  C1  UNL d   1      -0.425   0.387   1.546  0.00  0.00    -0.077 A 
ATOM      3  C2  UNL d   1      -0.922   0.076   0.274  0.00  0.00    -0.001 A 
ATOM      4  C3  UNL d   1      -0.065  -0.392  -0.723  0.00  0.00     0.003 A 
ATOM      5  C4  UNL d   1       1.293  -0.555  -0.459  0.00  0.00    -0.005 A 
ATOM      6  C5  UNL d   1       1.796  -0.250   0.804  0.00  0.00     0.003 A 
ATOM      7  C6  UNL d   1       0.941   0.219   1.803  0.00  0.00    -0.001 A 
ENDROOT
TORSDOF 0
ENDMDL
