MODEL 1
REMARK minimizedAffinity -5.93183422
REMARK minimizedRMSD -1
REMARK  0 active torsions:
REMARK  status: ('A' for Active; 'I' for Inactive)
ROOT
ATOM      1  C   UNL d   1       0.257  -0.538  -0.772  0.00  0.00     0.078 C 
ATOM      2  C1  UNL d   1       0.133  -0.053   0.642  0.00  0.00    -0.077 A 
ATOM      3  C2  UNL d   1       1.147  -0.292   1.578  0.00  0.00    -0.001 A 
ATOM      4  C3  UNL d   1       1.014   0.157   2.892  0.00  0.00     0.003 A 
ATOM      5  C4  UNL d   1      -0.132   0.847   3.284  0.00  0.00    -0.005 A 
ATOM      6  C5  UNL d   1      -1.147   1.088   2.360  0.00  0.00     0.003 A 
ATOM      7  C6  UNL d   1      -1.016   0.639   1.045  0.00  0.00    -0.001 A 
ENDROOT
TORSDOF 0
ENDMDL
