MODEL 1
REMARK minimizedAffinity -0.638667881
REMARK minimizedRMSD -1
REMARK  0 active torsions:
REMARK  status: ('A' for Active; 'I' for Inactive)
ROOT
ATOM      1  C   UNL d   1       0.312  -1.426  -0.974  0.00  0.00     0.078 C 
ATOM      2  C1  UNL d   1       0.317  -0.656  -2.261  0.00  0.00    -0.077 A 
ATOM      3  C2  UNL d   1       1.428   0.107  -2.641  0.00  0.00    -0.001 A 
ATOM      4  C3  UNL d   1       1.416   0.826  -3.837  0.00  0.00     0.003 A 
ATOM      5  C4  UNL d   1       0.294   0.790  -4.663  0.00  0.00    -0.005 A 
ATOM      6  C5  UNL d   1      -0.817   0.035  -4.293  0.00  0.00     0.003 A 
ATOM      7  C6  UNL d   1      -0.806  -0.685  -3.097  0.00  0.00    -0.001 A 
ENDROOT
TORSDOF 0
ENDMDL
