MODEL 1
REMARK minimizedAffinity -3.90147591
REMARK minimizedRMSD -1
REMARK  0 active torsions:
REMARK  status: ('A' for Active; 'I' for Inactive)
ROOT
ATOM      1  C   UNL d   1      -1.567  -0.941  -4.821  0.00  0.00     0.078 C 
ATOM      2  C1  UNL d   1      -0.423  -0.547  -3.936  0.00  0.00    -0.077 A 
ATOM      3  C2  UNL d   1       0.614   0.263  -4.415  0.00  0.00    -0.001 A 
ATOM      4  C3  UNL d   1       1.678   0.613  -3.582  0.00  0.00     0.003 A 
ATOM      5  C4  UNL d   1       1.716   0.158  -2.266  0.00  0.00    -0.005 A 
ATOM      6  C5  UNL d   1       0.690  -0.650  -1.781  0.00  0.00     0.003 A 
ATOM      7  C6  UNL d   1      -0.375  -1.002  -2.612  0.00  0.00    -0.001 A 
ENDROOT
TORSDOF 0
ENDMDL
