MODEL 1
REMARK minimizedAffinity -2.36982131
REMARK minimizedRMSD -1
REMARK  0 active torsions:
REMARK  status: ('A' for Active; 'I' for Inactive)
ROOT
ATOM      1  C   UNL d   1      -1.562   0.120  -0.168  0.00  0.00     0.078 C 
ATOM      2  C1  UNL d   1      -0.493   0.013  -1.214  0.00  0.00    -0.077 A 
ATOM      3  C2  UNL d   1       0.554  -0.908  -1.085  0.00  0.00    -0.001 A 
ATOM      4  C3  UNL d   1       1.547  -0.989  -2.062  0.00  0.00     0.003 A 
ATOM      5  C4  UNL d   1       1.505  -0.152  -3.175  0.00  0.00    -0.005 A 
ATOM      6  C5  UNL d   1       0.468   0.770  -3.311  0.00  0.00     0.003 A 
ATOM      7  C6  UNL d   1      -0.526   0.852  -2.335  0.00  0.00    -0.001 A 
ENDROOT
TORSDOF 0
ENDMDL
