MODEL 1
REMARK minimizedAffinity -4.97674274
REMARK minimizedRMSD -1
REMARK  0 active torsions:
REMARK  status: ('A' for Active; 'I' for Inactive)
ROOT
ATOM      1  C   UNL d   1      -2.463  -0.712  -0.223  0.00  0.00     0.078 C 
ATOM      2  C1  UNL d   1      -1.242  -0.391   0.586  0.00  0.00    -0.077 A 
ATOM      3  C2  UNL d   1       0.037  -0.736   0.130  0.00  0.00    -0.001 A 
ATOM      4  C3  UNL d   1       1.164  -0.441   0.898  0.00  0.00     0.003 A 
ATOM      5  C4  UNL d   1       1.024   0.200   2.127  0.00  0.00    -0.005 A 
ATOM      6  C5  UNL d   1      -0.244   0.545   2.590  0.00  0.00     0.003 A 
ATOM      7  C6  UNL d   1      -1.372   0.251   1.824  0.00  0.00    -0.001 A 
ENDROOT
TORSDOF 0
ENDMDL
