MODEL 1
REMARK minimizedAffinity -5.73926258
REMARK minimizedRMSD -1
REMARK  0 active torsions:
REMARK  status: ('A' for Active; 'I' for Inactive)
ROOT
ATOM      1  C   UNL d   1       0.401  -0.784  -1.241  0.00  0.00     0.078 C 
ATOM      2  C1  UNL d   1      -0.087  -0.114   0.009  0.00  0.00    -0.077 A 
ATOM      3  C2  UNL d   1      -1.449  -0.100   0.335  0.00  0.00    -0.001 A 
ATOM      4  C3  UNL d   1      -1.889   0.537   1.497  0.00  0.00     0.003 A 
ATOM      5  C4  UNL d   1      -0.975   1.164   2.341  0.00  0.00    -0.005 A 
ATOM      6  C5  UNL d   1       0.381   1.157   2.023  0.00  0.00     0.003 A 
ATOM      7  C6  UNL d   1       0.824   0.521   0.862  0.00  0.00    -0.001 A 
ENDROOT
TORSDOF 0
ENDMDL
