MODEL 1
REMARK minimizedAffinity -5.16987324
REMARK minimizedRMSD -1
REMARK  0 active torsions:
REMARK  status: ('A' for Active; 'I' for Inactive)
ROOT
ATOM      1  C   UNL d   1      -0.569   1.411   2.751  0.00  0.00     0.078 C 
ATOM      2  C1  UNL d   1      -0.113   0.697   1.514  0.00  0.00    -0.077 A 
ATOM      3  C2  UNL d   1      -0.992   0.466   0.449  0.00  0.00    -0.001 A 
ATOM      4  C3  UNL d   1      -0.556  -0.208  -0.693  0.00  0.00     0.003 A 
ATOM      5  C4  UNL d   1       0.760  -0.659  -0.780  0.00  0.00    -0.005 A 
ATOM      6  C5  UNL d   1       1.641  -0.436   0.276  0.00  0.00     0.003 A 
ATOM      7  C6  UNL d   1       1.207   0.239   1.418  0.00  0.00    -0.001 A 
ENDROOT
TORSDOF 0
ENDMDL
