MODEL 1
REMARK minimizedAffinity 1.80417132
REMARK minimizedRMSD -1
REMARK  3 active torsions:
REMARK  status: ('A' for Active; 'I' for Inactive)
REMARK    1  A    between atoms: C3'_2  and  C2'_3 
REMARK    2  A    between atoms: C2'_3  and  C1'_4 
REMARK    3  A    between atoms: C1'_4  and  C1_5 
ROOT
ATOM      1  C1  N4B d   1       3.501  -2.129   2.244  0.00  0.00    -0.075 A 
ATOM      2  C2  N4B d   1       2.361  -1.316   2.065  0.00  0.00     0.002 A 
ATOM      3  C3  N4B d   1       1.629  -1.405   0.906  0.00  0.00     0.002 A 
ATOM      4  C4  N4B d   1       2.027  -2.283  -0.090  0.00  0.00    -0.004 A 
ATOM      5  C5  N4B d   1       3.115  -3.084   0.101  0.00  0.00     0.002 A 
ATOM      6  C6  N4B d   1       3.858  -3.007   1.262  0.00  0.00     0.002 A 
ENDROOT
BRANCH   1   7
ATOM      7  C1' N4B d   1       4.382  -2.005   3.457  0.00  0.00     0.057 C 
BRANCH   7   8
ATOM      8  C2' N4B d   1       4.584  -3.387   4.073  0.00  0.00     0.009 C 
BRANCH   8   9
ATOM      9  C3' N4B d   1       5.326  -3.316   5.396  0.00  0.00     0.004 C 
ATOM     10  C4' N4B d   1       5.577  -4.669   5.994  0.00  0.00     0.003 C 
ENDBRANCH   8   9
ENDBRANCH   7   8
ENDBRANCH   1   7
TORSDOF 3
ENDMDL
