MODEL 1
REMARK minimizedAffinity 0.474977314
REMARK minimizedRMSD -1
REMARK  3 active torsions:
REMARK  status: ('A' for Active; 'I' for Inactive)
REMARK    1  A    between atoms: C3'_2  and  C2'_3 
REMARK    2  A    between atoms: C2'_3  and  C1'_4 
REMARK    3  A    between atoms: C1'_4  and  C1_5 
ROOT
ATOM      1  C1  N4B d   1       3.966  -3.053   1.729  0.00  0.00    -0.075 A 
ATOM      2  C2  N4B d   1       4.806  -2.098   1.115  0.00  0.00     0.002 A 
ATOM      3  C3  N4B d   1       4.292  -1.233   0.180  0.00  0.00     0.002 A 
ATOM      4  C4  N4B d   1       2.952  -1.317  -0.170  0.00  0.00    -0.004 A 
ATOM      5  C5  N4B d   1       2.143  -2.225   0.447  0.00  0.00     0.002 A 
ATOM      6  C6  N4B d   1       2.645  -3.098   1.391  0.00  0.00     0.002 A 
ENDROOT
BRANCH   1   7
ATOM      7  C1' N4B d   1       4.501  -4.076   2.694  0.00  0.00     0.057 C 
BRANCH   7   8
ATOM      8  C2' N4B d   1       4.152  -3.652   4.117  0.00  0.00     0.009 C 
BRANCH   8   9
ATOM      9  C3' N4B d   1       4.852  -2.363   4.514  0.00  0.00     0.004 C 
ATOM     10  C4' N4B d   1       4.935  -2.181   6.000  0.00  0.00     0.003 C 
ENDBRANCH   8   9
ENDBRANCH   7   8
ENDBRANCH   1   7
TORSDOF 3
ENDMDL
