MODEL 1
REMARK minimizedAffinity -5.05968094
REMARK minimizedRMSD -1
REMARK  3 active torsions:
REMARK  status: ('A' for Active; 'I' for Inactive)
REMARK    1  A    between atoms: C3'_2  and  C2'_3 
REMARK    2  A    between atoms: C2'_3  and  C1'_4 
REMARK    3  A    between atoms: C1'_4  and  C1_5 
ROOT
ATOM      1  C1  N4B d   1       0.990  -2.014   1.264  0.00  0.00    -0.075 A 
ATOM      2  C2  N4B d   1       0.550  -1.210   0.189  0.00  0.00     0.002 A 
ATOM      3  C3  N4B d   1      -0.432  -0.271   0.391  0.00  0.00     0.002 A 
ATOM      4  C4  N4B d   1      -0.999  -0.131   1.649  0.00  0.00    -0.004 A 
ATOM      5  C5  N4B d   1      -0.551  -0.894   2.687  0.00  0.00     0.002 A 
ATOM      6  C6  N4B d   1       0.438  -1.839   2.500  0.00  0.00     0.002 A 
ENDROOT
BRANCH   1   7
ATOM      7  C1' N4B d   1       1.999  -3.113   1.073  0.00  0.00     0.057 C 
BRANCH   7   8
ATOM      8  C2' N4B d   1       2.829  -3.257   2.345  0.00  0.00     0.009 C 
BRANCH   8   9
ATOM      9  C3' N4B d   1       3.864  -4.363   2.226  0.00  0.00     0.004 C 
ATOM     10  C4' N4B d   1       4.268  -4.926   3.556  0.00  0.00     0.003 C 
ENDBRANCH   8   9
ENDBRANCH   7   8
ENDBRANCH   1   7
TORSDOF 3
ENDMDL
