MODEL 1
REMARK minimizedAffinity 6.46025133
REMARK minimizedRMSD -1
REMARK  3 active torsions:
REMARK  status: ('A' for Active; 'I' for Inactive)
REMARK    1  A    between atoms: C3'_2  and  C2'_3 
REMARK    2  A    between atoms: C2'_3  and  C1'_4 
REMARK    3  A    between atoms: C1'_4  and  C1_5 
ROOT
ATOM      1  C1  N4B d   1       1.054  -2.282   1.655  0.00  0.00    -0.075 A 
ATOM      2  C2  N4B d   1       0.029  -3.237   1.835  0.00  0.00     0.002 A 
ATOM      3  C3  N4B d   1      -1.023  -2.966   2.675  0.00  0.00     0.002 A 
ATOM      4  C4  N4B d   1      -1.061  -1.759   3.358  0.00  0.00    -0.004 A 
ATOM      5  C5  N4B d   1      -0.081  -0.832   3.159  0.00  0.00     0.002 A 
ATOM      6  C6  N4B d   1       0.980  -1.090   2.314  0.00  0.00     0.002 A 
ENDROOT
BRANCH   1   7
ATOM      7  C1' N4B d   1       2.267  -2.568   0.813  0.00  0.00     0.057 C 
BRANCH   7   8
ATOM      8  C2' N4B d   1       2.565  -4.064   0.856  0.00  0.00     0.009 C 
BRANCH   8   9
ATOM      9  C3' N4B d   1       4.004  -4.346   1.252  0.00  0.00     0.004 C 
ATOM     10  C4' N4B d   1       4.140  -4.767   2.685  0.00  0.00     0.003 C 
ENDBRANCH   8   9
ENDBRANCH   7   8
ENDBRANCH   1   7
TORSDOF 3
ENDMDL
