MODEL 1
REMARK minimizedAffinity 5.26034451
REMARK minimizedRMSD -1
REMARK  1 active torsions:
REMARK  status: ('A' for Active; 'I' for Inactive)
REMARK    1  A    between atoms: C1_2  and  C2_3 
ROOT
ATOM      1  C2  UNL d   1      -0.739   0.367   1.927  0.00  0.00    -0.073 A 
ATOM      2  C3  UNL d   1      -1.152   1.283   2.901  0.00  0.00    -0.002 A 
ATOM      3  C4  UNL d   1      -2.308   2.040   2.712  0.00  0.00     0.004 A 
ATOM      4  C5  UNL d   1      -3.066   1.885   1.551  0.00  0.00    -0.004 A 
ATOM      5  C6  UNL d   1      -2.676   0.967   0.571  0.00  0.00    -0.075 A 
ATOM      6  C7  UNL d   1      -3.479   0.790  -0.684  0.00  0.00     0.076 C 
ATOM      7  C8  UNL d   1      -1.512   0.212   0.768  0.00  0.00     0.001 A 
ENDROOT
BRANCH   1   8
ATOM      8  C1  UNL d   1       0.506  -0.458   2.131  0.00  0.00     0.053 C 
ATOM      9  C   UNL d   1       1.745   0.236   1.586  0.00  0.00     0.018 C 
ENDBRANCH   1   8
TORSDOF 1
ENDMDL
