MODEL 1
REMARK minimizedAffinity 9.17891979
REMARK minimizedRMSD -1
REMARK  1 active torsions:
REMARK  status: ('A' for Active; 'I' for Inactive)
REMARK    1  A    between atoms: C1_2  and  C2_3 
ROOT
ATOM      1  C2  UNL d   1       0.047  -0.413   1.285  0.00  0.00    -0.073 A 
ATOM      2  C3  UNL d   1      -0.143  -0.203   2.656  0.00  0.00    -0.002 A 
ATOM      3  C4  UNL d   1      -1.298   0.428   3.118  0.00  0.00     0.004 A 
ATOM      4  C5  UNL d   1      -2.277   0.848   2.218  0.00  0.00    -0.004 A 
ATOM      5  C6  UNL d   1      -2.111   0.636   0.846  0.00  0.00    -0.075 A 
ATOM      6  C7  UNL d   1      -3.154   1.084  -0.136  0.00  0.00     0.076 C 
ATOM      7  C8  UNL d   1      -0.947   0.004   0.388  0.00  0.00     0.001 A 
ENDROOT
BRANCH   1   8
ATOM      8  C1  UNL d   1       1.290  -1.100   0.781  0.00  0.00     0.053 C 
ATOM      9  C   UNL d   1       2.541  -0.605   1.490  0.00  0.00     0.018 C 
ENDBRANCH   1   8
TORSDOF 1
ENDMDL
