MODEL 1
REMARK minimizedAffinity 6.27758169
REMARK minimizedRMSD -1
REMARK  1 active torsions:
REMARK  status: ('A' for Active; 'I' for Inactive)
REMARK    1  A    between atoms: C1_2  and  C2_3 
ROOT
ATOM      1  C2  UNL d   1      -1.518   0.491   2.552  0.00  0.00    -0.073 A 
ATOM      2  C3  UNL d   1      -0.969   1.588   3.225  0.00  0.00    -0.002 A 
ATOM      3  C4  UNL d   1       0.364   1.947   3.017  0.00  0.00     0.004 A 
ATOM      4  C5  UNL d   1       1.157   1.218   2.131  0.00  0.00    -0.004 A 
ATOM      5  C6  UNL d   1       0.623   0.125   1.441  0.00  0.00    -0.075 A 
ATOM      6  C7  UNL d   1       1.464  -0.671   0.487  0.00  0.00     0.076 C 
ATOM      7  C8  UNL d   1      -0.715  -0.231   1.657  0.00  0.00     0.001 A 
ENDROOT
BRANCH   1   8
ATOM      8  C1  UNL d   1      -2.958   0.103   2.769  0.00  0.00     0.053 C 
ATOM      9  C   UNL d   1      -3.088  -1.199   3.543  0.00  0.00     0.018 C 
ENDBRANCH   1   8
TORSDOF 1
ENDMDL
