MODEL 1
REMARK minimizedAffinity 11.304183
REMARK minimizedRMSD -1
REMARK  1 active torsions:
REMARK  status: ('A' for Active; 'I' for Inactive)
REMARK    1  A    between atoms: C1_2  and  C2_3 
ROOT
ATOM      1  C2  UNL d   1      -3.212   1.234   0.734  0.00  0.00    -0.073 A 
ATOM      2  C3  UNL d   1      -2.529   1.776   1.829  0.00  0.00    -0.002 A 
ATOM      3  C4  UNL d   1      -1.529   1.042   2.469  0.00  0.00     0.004 A 
ATOM      4  C5  UNL d   1      -1.197  -0.235   2.017  0.00  0.00    -0.004 A 
ATOM      5  C6  UNL d   1      -1.860  -0.788   0.917  0.00  0.00    -0.075 A 
ATOM      6  C7  UNL d   1      -1.516  -2.162   0.420  0.00  0.00     0.076 C 
ATOM      7  C8  UNL d   1      -2.865  -0.047   0.281  0.00  0.00     0.001 A 
ENDROOT
BRANCH   1   8
ATOM      8  C1  UNL d   1      -4.288   2.025   0.036  0.00  0.00     0.053 C 
ATOM      9  C   UNL d   1      -5.031   1.190  -0.995  0.00  0.00     0.018 C 
ENDBRANCH   1   8
TORSDOF 1
ENDMDL
