MODEL 1
REMARK minimizedAffinity -2.76929665
REMARK minimizedRMSD -1
REMARK  0 active torsions:
REMARK  status: ('A' for Active; 'I' for Inactive)
ROOT
ATOM      1  C   UNL d   1       0.216   1.026   0.119  0.00  0.00     0.172 C 
ATOM      2  N   UNL d   1      -0.106  -0.266   0.678  0.00  0.00    -0.070 N 
ATOM      3  C1  UNL d   1       0.484  -1.453   0.336  0.00  0.00    -0.004 A 
ATOM      4  C2  UNL d   1      -0.099  -2.447   1.092  0.00  0.00    -0.047 A 
ATOM      5  C3  UNL d   1      -1.073  -1.836   1.916  0.00  0.00    -0.047 A 
ATOM      6  C4  UNL d   1      -1.057  -0.486   1.640  0.00  0.00    -0.004 A 
ENDROOT
TORSDOF 0
ENDMDL
