MODEL 1
REMARK minimizedAffinity -2.73304772
REMARK minimizedRMSD -1
REMARK  0 active torsions:
REMARK  status: ('A' for Active; 'I' for Inactive)
ROOT
ATOM      1  C   UNL d   1       0.588   1.045  -1.533  0.00  0.00     0.172 C 
ATOM      2  N   UNL d   1       0.229   0.063  -0.536  0.00  0.00    -0.070 N 
ATOM      3  C1  UNL d   1      -0.283   0.335   0.704  0.00  0.00    -0.004 A 
ATOM      4  C2  UNL d   1      -0.491  -0.866   1.347  0.00  0.00    -0.047 A 
ATOM      5  C3  UNL d   1      -0.089  -1.895   0.463  0.00  0.00    -0.047 A 
ATOM      6  C4  UNL d   1       0.352  -1.292  -0.696  0.00  0.00    -0.004 A 
ENDROOT
TORSDOF 0
ENDMDL
