MODEL 1
REMARK minimizedAffinity -4.07518244
REMARK minimizedRMSD -1
REMARK  0 active torsions:
REMARK  status: ('A' for Active; 'I' for Inactive)
ROOT
ATOM      1  C   UNL d   1      -0.019   1.050  -0.251  0.00  0.00     0.172 C 
ATOM      2  N   UNL d   1      -0.344  -0.292   0.172  0.00  0.00    -0.070 N 
ATOM      3  C1  UNL d   1      -1.603  -0.764   0.432  0.00  0.00    -0.004 A 
ATOM      4  C2  UNL d   1      -1.490  -2.086   0.806  0.00  0.00    -0.047 A 
ATOM      5  C3  UNL d   1      -0.115  -2.420   0.770  0.00  0.00    -0.047 A 
ATOM      6  C4  UNL d   1       0.571  -1.291   0.374  0.00  0.00    -0.004 A 
ENDROOT
TORSDOF 0
ENDMDL
