MODEL 1
REMARK minimizedAffinity -0.172343597
REMARK minimizedRMSD -1
REMARK  0 active torsions:
REMARK  status: ('A' for Active; 'I' for Inactive)
ROOT
ATOM      1  C   UNL d   1       0.751   0.894   0.053  0.00  0.00     0.172 C 
ATOM      2  N   UNL d   1       0.594  -0.456   0.540  0.00  0.00    -0.070 N 
ATOM      3  C1  UNL d   1       1.071  -1.586  -0.068  0.00  0.00    -0.004 A 
ATOM      4  C2  UNL d   1       0.714  -2.667   0.708  0.00  0.00    -0.047 A 
ATOM      5  C3  UNL d   1      -0.003  -2.170   1.822  0.00  0.00    -0.047 A 
ATOM      6  C4  UNL d   1      -0.063  -0.798   1.693  0.00  0.00    -0.004 A 
ENDROOT
TORSDOF 0
ENDMDL
