MODEL 1
REMARK minimizedAffinity -1.81023228
REMARK minimizedRMSD -1
REMARK  0 active torsions:
REMARK  status: ('A' for Active; 'I' for Inactive)
ROOT
ATOM      1  C   UNL d   1       0.431   1.056  -0.010  0.00  0.00     0.172 C 
ATOM      2  N   UNL d   1       0.252  -0.313   0.412  0.00  0.00    -0.070 N 
ATOM      3  C1  UNL d   1      -0.695  -0.759   1.296  0.00  0.00    -0.004 A 
ATOM      4  C2  UNL d   1      -0.537  -2.121   1.432  0.00  0.00    -0.047 A 
ATOM      5  C3  UNL d   1       0.543  -2.507   0.603  0.00  0.00    -0.047 A 
ATOM      6  C4  UNL d   1       1.013  -1.369  -0.017  0.00  0.00    -0.004 A 
ENDROOT
TORSDOF 0
ENDMDL
