MODEL 1
REMARK minimizedAffinity -2.08745646
REMARK minimizedRMSD -1
REMARK  0 active torsions:
REMARK  status: ('A' for Active; 'I' for Inactive)
ROOT
ATOM      1  C   UNL d   1       0.899   0.511  -0.448  0.00  0.00     0.172 C 
ATOM      2  N   UNL d   1       0.724   1.190  -1.710  0.00  0.00    -0.070 N 
ATOM      3  C1  UNL d   1      -0.173   2.194  -1.959  0.00  0.00    -0.004 A 
ATOM      4  C2  UNL d   1      -0.029   2.572  -3.276  0.00  0.00    -0.047 A 
ATOM      5  C3  UNL d   1       0.990   1.767  -3.839  0.00  0.00    -0.047 A 
ATOM      6  C4  UNL d   1       1.439   0.920  -2.847  0.00  0.00    -0.004 A 
ENDROOT
TORSDOF 0
ENDMDL
