MODEL 1
REMARK minimizedAffinity -3.74331188
REMARK minimizedRMSD -1
REMARK  0 active torsions:
REMARK  status: ('A' for Active; 'I' for Inactive)
ROOT
ATOM      1  C   UNL d   1      -2.727   0.377   2.096  0.00  0.00     0.172 C 
ATOM      2  N   UNL d   1      -1.680  -0.527   1.680  0.00  0.00    -0.070 N 
ATOM      3  C1  UNL d   1      -1.524  -1.818   2.107  0.00  0.00    -0.004 A 
ATOM      4  C2  UNL d   1      -0.413  -2.338   1.479  0.00  0.00    -0.047 A 
ATOM      5  C3  UNL d   1       0.117  -1.324   0.646  0.00  0.00    -0.047 A 
ATOM      6  C4  UNL d   1      -0.687  -0.213   0.790  0.00  0.00    -0.004 A 
ENDROOT
TORSDOF 0
ENDMDL
