MODEL 1
REMARK minimizedAffinity -1.49196219
REMARK minimizedRMSD -1
REMARK  0 active torsions:
REMARK  status: ('A' for Active; 'I' for Inactive)
ROOT
ATOM      1  C   UNL d   1       1.255  -1.187   0.126  0.00  0.00     0.172 C 
ATOM      2  N   UNL d   1       0.369  -0.067   0.339  0.00  0.00    -0.070 N 
ATOM      3  C1  UNL d   1       0.666   1.245   0.083  0.00  0.00    -0.004 A 
ATOM      4  C2  UNL d   1      -0.437   2.001   0.418  0.00  0.00    -0.047 A 
ATOM      5  C3  UNL d   1      -1.431   1.112   0.893  0.00  0.00    -0.047 A 
ATOM      6  C4  UNL d   1      -0.905  -0.161   0.833  0.00  0.00    -0.004 A 
ENDROOT
TORSDOF 0
ENDMDL
