MODEL 1
REMARK minimizedAffinity 0.506368399
REMARK minimizedRMSD -1
REMARK  0 active torsions:
REMARK  status: ('A' for Active; 'I' for Inactive)
ROOT
ATOM      1  C   UNL d   1      -5.009  -5.803  -5.926  0.00  0.00     0.172 C 
ATOM      2  N   UNL d   1      -3.668  -5.270  -5.865  0.00  0.00    -0.070 N 
ATOM      3  C1  UNL d   1      -2.527  -5.999  -5.664  0.00  0.00    -0.004 A 
ATOM      4  C2  UNL d   1      -1.461  -5.126  -5.672  0.00  0.00    -0.047 A 
ATOM      5  C3  UNL d   1      -1.980  -3.826  -5.884  0.00  0.00    -0.047 A 
ATOM      6  C4  UNL d   1      -3.349  -3.945  -6.000  0.00  0.00    -0.004 A 
ENDROOT
TORSDOF 0
ENDMDL
