MODEL 1
REMARK minimizedAffinity -1.46971309
REMARK minimizedRMSD -1
REMARK  0 active torsions:
REMARK  status: ('A' for Active; 'I' for Inactive)
ROOT
ATOM      1  C   UNL d   1       1.095   1.457  -0.913  0.00  0.00     0.172 C 
ATOM      2  N   UNL d   1       0.630   0.371  -0.081  0.00  0.00    -0.070 N 
ATOM      3  C1  UNL d   1       1.270  -0.826   0.101  0.00  0.00    -0.004 A 
ATOM      4  C2  UNL d   1       0.508  -1.585   0.962  0.00  0.00    -0.047 A 
ATOM      5  C3  UNL d   1      -0.630  -0.819   1.308  0.00  0.00    -0.047 A 
ATOM      6  C4  UNL d   1      -0.529   0.388   0.649  0.00  0.00    -0.004 A 
ENDROOT
TORSDOF 0
ENDMDL
