MODEL 1
REMARK minimizedAffinity -2.0026257
REMARK minimizedRMSD -1
REMARK  0 active torsions:
REMARK  status: ('A' for Active; 'I' for Inactive)
ROOT
ATOM      1  C   UNL d   1       0.615   1.262   0.149  0.00  0.00     0.172 C 
ATOM      2  N   UNL d   1       0.949   1.654  -1.200  0.00  0.00    -0.070 N 
ATOM      3  C1  UNL d   1       0.052   1.984  -2.181  0.00  0.00    -0.004 A 
ATOM      4  C2  UNL d   1       0.766   2.297  -3.317  0.00  0.00    -0.047 A 
ATOM      5  C3  UNL d   1       2.139   2.150  -3.009  0.00  0.00    -0.047 A 
ATOM      6  C4  UNL d   1       2.224   1.751  -1.692  0.00  0.00    -0.004 A 
ENDROOT
TORSDOF 0
ENDMDL
