MODEL 1
REMARK minimizedAffinity -3.04899216
REMARK minimizedRMSD -1
REMARK  0 active torsions:
REMARK  status: ('A' for Active; 'I' for Inactive)
ROOT
ATOM      1  C   UNL d   1       0.788   0.841  -0.548  0.00  0.00     0.172 C 
ATOM      2  N   UNL d   1       0.271  -0.386   0.013  0.00  0.00    -0.070 N 
ATOM      3  C1  UNL d   1       0.598  -1.651  -0.396  0.00  0.00    -0.004 A 
ATOM      4  C2  UNL d   1      -0.104  -2.542   0.387  0.00  0.00    -0.047 A 
ATOM      5  C3  UNL d   1      -0.880  -1.786   1.298  0.00  0.00    -0.047 A 
ATOM      6  C4  UNL d   1      -0.629  -0.454   1.044  0.00  0.00    -0.004 A 
ENDROOT
TORSDOF 0
ENDMDL
