MODEL 1
REMARK minimizedAffinity -3.07820582
REMARK minimizedRMSD -1
REMARK  0 active torsions:
REMARK  status: ('A' for Active; 'I' for Inactive)
ROOT
ATOM      1  C   UNL d   1       1.155   1.152  -3.596  0.00  0.00     0.172 C 
ATOM      2  N   UNL d   1       0.900   1.397  -2.196  0.00  0.00    -0.070 N 
ATOM      3  C1  UNL d   1       0.906   2.624  -1.587  0.00  0.00    -0.004 A 
ATOM      4  C2  UNL d   1       0.618   2.433  -0.253  0.00  0.00    -0.047 A 
ATOM      5  C3  UNL d   1       0.434   1.044  -0.053  0.00  0.00    -0.047 A 
ATOM      6  C4  UNL d   1       0.615   0.427  -1.273  0.00  0.00    -0.004 A 
ENDROOT
TORSDOF 0
ENDMDL
