MODEL 1
REMARK minimizedAffinity -2.56143737
REMARK minimizedRMSD -1
REMARK  0 active torsions:
REMARK  status: ('A' for Active; 'I' for Inactive)
ROOT
ATOM      1  C   UNL d   1       3.981   1.202  -3.631  0.00  0.00     0.172 C 
ATOM      2  N   UNL d   1       2.644   1.580  -3.238  0.00  0.00    -0.070 N 
ATOM      3  C1  UNL d   1       1.543   1.585  -4.053  0.00  0.00    -0.004 A 
ATOM      4  C2  UNL d   1       0.465   2.005  -3.304  0.00  0.00    -0.047 A 
ATOM      5  C3  UNL d   1       0.934   2.262  -1.994  0.00  0.00    -0.047 A 
ATOM      6  C4  UNL d   1       2.286   1.990  -1.981  0.00  0.00    -0.004 A 
ENDROOT
TORSDOF 0
ENDMDL
