MODEL 1
REMARK minimizedAffinity -2.63158154
REMARK minimizedRMSD -1
REMARK  0 active torsions:
REMARK  status: ('A' for Active; 'I' for Inactive)
ROOT
ATOM      1  C   UNL d   1      -0.598  -2.289   1.355  0.00  0.00     0.172 C 
ATOM      2  N   UNL d   1      -0.279  -0.968   0.868  0.00  0.00    -0.070 N 
ATOM      3  C1  UNL d   1      -1.043   0.155   1.046  0.00  0.00    -0.004 A 
ATOM      4  C2  UNL d   1      -0.396   1.207   0.434  0.00  0.00    -0.047 A 
ATOM      5  C3  UNL d   1       0.798   0.699  -0.131  0.00  0.00    -0.047 A 
ATOM      6  C4  UNL d   1       0.845  -0.650   0.152  0.00  0.00    -0.004 A 
ENDROOT
TORSDOF 0
ENDMDL
