MODEL 1
REMARK minimizedAffinity -1.97832394
REMARK minimizedRMSD -1
REMARK  0 active torsions:
REMARK  status: ('A' for Active; 'I' for Inactive)
ROOT
ATOM      1  C   UNL d   1       0.370   0.927  -0.110  0.00  0.00     0.172 C 
ATOM      2  N   UNL d   1       0.758   1.344  -1.437  0.00  0.00    -0.070 N 
ATOM      3  C1  UNL d   1      -0.098   1.623  -2.469  0.00  0.00    -0.004 A 
ATOM      4  C2  UNL d   1       0.661   1.983  -3.561  0.00  0.00    -0.047 A 
ATOM      5  C3  UNL d   1       2.020   1.918  -3.173  0.00  0.00    -0.047 A 
ATOM      6  C4  UNL d   1       2.051   1.519  -1.853  0.00  0.00    -0.004 A 
ENDROOT
TORSDOF 0
ENDMDL
