MODEL 1
REMARK minimizedAffinity -5.17433119
REMARK minimizedRMSD -1
REMARK  0 active torsions:
REMARK  status: ('A' for Active; 'I' for Inactive)
ROOT
ATOM      1  C   UNL d   1      -0.162  -2.577  -0.790  0.00  0.00     0.124 A 
ATOM      2  C1  UNL d   1      -0.232  -2.128   0.521  0.00  0.00     0.062 A 
ATOM      3  C2  UNL d   1      -0.259  -0.763   0.794  0.00  0.00     0.162 A 
ATOM      4  C3  UNL d   1      -0.216   0.163  -0.248  0.00  0.00    -0.034 A 
ATOM      5  C4  UNL d   1      -0.144  -0.296  -1.565  0.00  0.00     0.162 A 
ATOM      6  C5  UNL d   1      -0.117  -1.661  -1.832  0.00  0.00     0.062 A 
ATOM      7  F   UNL d   1      -0.049  -2.093  -3.099  0.00  0.00    -0.097 F 
ATOM      8  F1  UNL d   1      -0.101   0.567  -2.590  0.00  0.00    -0.096 F 
ATOM      9  I   UNL d   1      -0.256   2.205   0.154  0.00  0.00    -0.060 I 
ATOM     10  F2  UNL d   1      -0.328  -0.358   2.070  0.00  0.00    -0.096 F 
ATOM     11  F3  UNL d   1      -0.274  -3.011   1.530  0.00  0.00    -0.097 F 
ATOM     12  F4  UNL d   1      -0.135  -3.891  -1.049  0.00  0.00    -0.092 F 
ENDROOT
TORSDOF 0
ENDMDL
