MODEL 1
REMARK minimizedAffinity -3.81535959
REMARK minimizedRMSD -1
REMARK  0 active torsions:
REMARK  status: ('A' for Active; 'I' for Inactive)
ROOT
ATOM      1  C   UNL d   1      -0.701  -2.842  -0.310  0.00  0.00     0.124 A 
ATOM      2  C1  UNL d   1      -1.094  -2.062   0.768  0.00  0.00     0.062 A 
ATOM      3  C2  UNL d   1      -0.902  -0.683   0.742  0.00  0.00     0.162 A 
ATOM      4  C3  UNL d   1      -0.315  -0.076  -0.368  0.00  0.00    -0.034 A 
ATOM      5  C4  UNL d   1       0.078  -0.867  -1.449  0.00  0.00     0.162 A 
ATOM      6  C5  UNL d   1      -0.116  -2.244  -1.418  0.00  0.00     0.062 A 
ATOM      7  F   UNL d   1       0.264  -2.996  -2.461  0.00  0.00    -0.097 F 
ATOM      8  F1  UNL d   1       0.645  -0.315  -2.532  0.00  0.00    -0.096 F 
ATOM      9  I   UNL d   1      -0.026   1.985  -0.412  0.00  0.00    -0.060 I 
ATOM     10  F2  UNL d   1      -1.290   0.046   1.798  0.00  0.00    -0.096 F 
ATOM     11  F3  UNL d   1      -1.658  -2.637   1.840  0.00  0.00    -0.097 F 
ATOM     12  F4  UNL d   1      -0.886  -4.168  -0.282  0.00  0.00    -0.092 F 
ENDROOT
TORSDOF 0
ENDMDL
