MODEL 1
REMARK minimizedAffinity -2.40444446
REMARK minimizedRMSD -1
REMARK  0 active torsions:
REMARK  status: ('A' for Active; 'I' for Inactive)
ROOT
ATOM      1  C   UNL d   1       0.433  -1.258  -0.930  0.00  0.00     0.124 A 
ATOM      2  C1  UNL d   1       0.123   0.088  -0.788  0.00  0.00     0.062 A 
ATOM      3  C2  UNL d   1      -0.635   0.522   0.296  0.00  0.00     0.162 A 
ATOM      4  C3  UNL d   1      -1.087  -0.391   1.248  0.00  0.00    -0.034 A 
ATOM      5  C4  UNL d   1      -0.772  -1.743   1.099  0.00  0.00     0.162 A 
ATOM      6  C5  UNL d   1      -0.015  -2.172   0.014  0.00  0.00     0.062 A 
ATOM      7  F   UNL d   1       0.283  -3.472  -0.121  0.00  0.00    -0.097 F 
ATOM      8  F1  UNL d   1      -1.191  -2.647   1.997  0.00  0.00    -0.096 F 
ATOM      9  I   UNL d   1      -2.220   0.254   2.871  0.00  0.00    -0.060 I 
ATOM     10  F2  UNL d   1      -0.919   1.828   0.407  0.00  0.00    -0.096 F 
ATOM     11  F3  UNL d   1       0.553   0.973  -1.699  0.00  0.00    -0.097 F 
ATOM     12  F4  UNL d   1       1.161  -1.673  -1.974  0.00  0.00    -0.092 F 
ENDROOT
TORSDOF 0
ENDMDL
