MODEL 1
REMARK minimizedAffinity -2.08997345
REMARK minimizedRMSD -1
REMARK  0 active torsions:
REMARK  status: ('A' for Active; 'I' for Inactive)
ROOT
ATOM      1  C   UNL d   1      -0.312  -1.686  -0.463  0.00  0.00     0.124 A 
ATOM      2  C1  UNL d   1       0.154  -0.855  -1.473  0.00  0.00     0.062 A 
ATOM      3  C2  UNL d   1       0.388   0.493  -1.218  0.00  0.00     0.162 A 
ATOM      4  C3  UNL d   1       0.158   1.019   0.053  0.00  0.00    -0.034 A 
ATOM      5  C4  UNL d   1      -0.312   0.178   1.063  0.00  0.00     0.162 A 
ATOM      6  C5  UNL d   1      -0.544  -1.169   0.803  0.00  0.00     0.062 A 
ATOM      7  F   UNL d   1      -0.994  -1.970   1.780  0.00  0.00    -0.097 F 
ATOM      8  F1  UNL d   1      -0.544   0.651   2.297  0.00  0.00    -0.096 F 
ATOM      9  I   UNL d   1       0.507   3.035   0.439  0.00  0.00    -0.060 I 
ATOM     10  F2  UNL d   1       0.838   1.273  -2.212  0.00  0.00    -0.096 F 
ATOM     11  F3  UNL d   1       0.378  -1.352  -2.698  0.00  0.00    -0.097 F 
ATOM     12  F4  UNL d   1      -0.538  -2.982  -0.712  0.00  0.00    -0.092 F 
ENDROOT
TORSDOF 0
ENDMDL
