MODEL 1
REMARK minimizedAffinity 0.147003621
REMARK minimizedRMSD -1
REMARK  0 active torsions:
REMARK  status: ('A' for Active; 'I' for Inactive)
ROOT
ATOM      1  C   UNL d   1      -0.474  -2.289  -0.693  0.00  0.00     0.124 A 
ATOM      2  C1  UNL d   1      -0.728  -1.802   0.582  0.00  0.00     0.062 A 
ATOM      3  C2  UNL d   1      -0.530  -0.454   0.868  0.00  0.00     0.162 A 
ATOM      4  C3  UNL d   1      -0.077   0.417  -0.122  0.00  0.00    -0.034 A 
ATOM      5  C4  UNL d   1       0.177  -0.080  -1.402  0.00  0.00     0.162 A 
ATOM      6  C5  UNL d   1      -0.022  -1.428  -1.683  0.00  0.00     0.062 A 
ATOM      7  F   UNL d   1       0.224  -1.897  -2.915  0.00  0.00    -0.097 F 
ATOM      8  F1  UNL d   1       0.613   0.729  -2.378  0.00  0.00    -0.096 F 
ATOM      9  I   UNL d   1       0.219   2.433   0.302  0.00  0.00    -0.060 I 
ATOM     10  F2  UNL d   1      -0.784  -0.011   2.109  0.00  0.00    -0.096 F 
ATOM     11  F3  UNL d   1      -1.163  -2.631   1.541  0.00  0.00    -0.097 F 
ATOM     12  F4  UNL d   1      -0.664  -3.586  -0.965  0.00  0.00    -0.092 F 
ENDROOT
TORSDOF 0
ENDMDL
