MODEL 1
REMARK minimizedAffinity -0.415869981
REMARK minimizedRMSD -1
REMARK  0 active torsions:
REMARK  status: ('A' for Active; 'I' for Inactive)
ROOT
ATOM      1  C   UNL d   1      -0.593  -2.702  -0.003  0.00  0.00     0.124 A 
ATOM      2  C1  UNL d   1      -1.567  -1.870   0.530  0.00  0.00     0.062 A 
ATOM      3  C2  UNL d   1      -1.326  -0.505   0.661  0.00  0.00     0.162 A 
ATOM      4  C3  UNL d   1      -0.106   0.036   0.256  0.00  0.00    -0.034 A 
ATOM      5  C4  UNL d   1       0.870  -0.807  -0.278  0.00  0.00     0.162 A 
ATOM      6  C5  UNL d   1       0.624  -2.171  -0.407  0.00  0.00     0.062 A 
ATOM      7  F   UNL d   1       1.566  -2.974  -0.922  0.00  0.00    -0.097 F 
ATOM      8  F1  UNL d   1       2.054  -0.320  -0.677  0.00  0.00    -0.096 F 
ATOM      9  I   UNL d   1       0.258   2.076   0.450  0.00  0.00    -0.060 I 
ATOM     10  F2  UNL d   1      -2.285   0.276   1.179  0.00  0.00    -0.096 F 
ATOM     11  F3  UNL d   1      -2.743  -2.381   0.921  0.00  0.00    -0.097 F 
ATOM     12  F4  UNL d   1      -0.826  -4.015  -0.127  0.00  0.00    -0.092 F 
ENDROOT
TORSDOF 0
ENDMDL
