MODEL 1
REMARK minimizedAffinity 1.46686852
REMARK minimizedRMSD -1
REMARK  0 active torsions:
REMARK  status: ('A' for Active; 'I' for Inactive)
ROOT
ATOM      1  C   UNL d   1       1.457   4.110   1.085  0.00  0.00     0.124 A 
ATOM      2  C1  UNL d   1       1.359   3.724  -0.245  0.00  0.00     0.062 A 
ATOM      3  C2  UNL d   1       0.786   2.500  -0.578  0.00  0.00     0.162 A 
ATOM      4  C3  UNL d   1       0.305   1.653   0.420  0.00  0.00    -0.034 A 
ATOM      5  C4  UNL d   1       0.408   2.048   1.756  0.00  0.00     0.162 A 
ATOM      6  C5  UNL d   1       0.981   3.272   2.083  0.00  0.00     0.062 A 
ATOM      7  F   UNL d   1       1.075   3.643   3.369  0.00  0.00    -0.097 F 
ATOM      8  F1  UNL d   1      -0.045   1.258   2.741  0.00  0.00    -0.096 F 
ATOM      9  I   UNL d   1      -0.553  -0.178  -0.074  0.00  0.00    -0.060 I 
ATOM     10  F2  UNL d   1       0.704   2.153  -1.871  0.00  0.00    -0.096 F 
ATOM     11  F3  UNL d   1       1.818   4.532  -1.212  0.00  0.00    -0.097 F 
ATOM     12  F4  UNL d   1       2.009   5.288   1.403  0.00  0.00    -0.092 F 
ENDROOT
TORSDOF 0
ENDMDL
