MODEL 1
REMARK minimizedAffinity 1.75860715
REMARK minimizedRMSD -1
REMARK  0 active torsions:
REMARK  status: ('A' for Active; 'I' for Inactive)
ROOT
ATOM      1  C   UNL d   1      -0.319   1.126  -1.102  0.00  0.00     0.124 A 
ATOM      2  C1  UNL d   1       0.187   0.133  -1.930  0.00  0.00     0.062 A 
ATOM      3  C2  UNL d   1       0.382  -1.155  -1.440  0.00  0.00     0.162 A 
ATOM      4  C3  UNL d   1       0.071  -1.458  -0.115  0.00  0.00    -0.034 A 
ATOM      5  C4  UNL d   1      -0.436  -0.455   0.712  0.00  0.00     0.162 A 
ATOM      6  C5  UNL d   1      -0.630   0.831   0.218  0.00  0.00     0.062 A 
ATOM      7  F   UNL d   1      -1.118   1.789   1.019  0.00  0.00    -0.097 F 
ATOM      8  F1  UNL d   1      -0.746  -0.712   1.992  0.00  0.00    -0.096 F 
ATOM      9  I   UNL d   1       0.362  -3.383   0.622  0.00  0.00    -0.060 I 
ATOM     10  F2  UNL d   1       0.872  -2.094  -2.263  0.00  0.00    -0.096 F 
ATOM     11  F3  UNL d   1       0.489   0.415  -3.206  0.00  0.00    -0.097 F 
ATOM     12  F4  UNL d   1      -0.505   2.364  -1.576  0.00  0.00    -0.092 F 
ENDROOT
TORSDOF 0
ENDMDL
