MODEL 1
REMARK minimizedAffinity 0.126920775
REMARK minimizedRMSD -1
REMARK  0 active torsions:
REMARK  status: ('A' for Active; 'I' for Inactive)
ROOT
ATOM      1  C   UNL d   1      -0.920   0.394  -0.017  0.00  0.00     0.124 A 
ATOM      2  C1  UNL d   1      -0.298   0.082   1.184  0.00  0.00     0.062 A 
ATOM      3  C2  UNL d   1       0.695   0.913   1.695  0.00  0.00     0.162 A 
ATOM      4  C3  UNL d   1       1.072   2.066   1.005  0.00  0.00    -0.034 A 
ATOM      5  C4  UNL d   1       0.442   2.373  -0.202  0.00  0.00     0.162 A 
ATOM      6  C5  UNL d   1      -0.549   1.539  -0.709  0.00  0.00     0.062 A 
ATOM      7  F   UNL d   1      -1.149   1.842  -1.869  0.00  0.00    -0.097 F 
ATOM      8  F1  UNL d   1       0.780   3.473  -0.891  0.00  0.00    -0.096 F 
ATOM      9  I   UNL d   1       2.556   3.311   1.766  0.00  0.00    -0.060 I 
ATOM     10  F2  UNL d   1       1.279   0.587   2.857  0.00  0.00    -0.096 F 
ATOM     11  F3  UNL d   1      -0.653  -1.024   1.854  0.00  0.00    -0.097 F 
ATOM     12  F4  UNL d   1      -1.874  -0.408  -0.507  0.00  0.00    -0.092 F 
ENDROOT
TORSDOF 0
ENDMDL
