MODEL 1
REMARK minimizedAffinity 0.112385981
REMARK minimizedRMSD -1
REMARK  0 active torsions:
REMARK  status: ('A' for Active; 'I' for Inactive)
ROOT
ATOM      1  C   UNL d   1       0.609  -1.376  -0.541  0.00  0.00     0.124 A 
ATOM      2  C1  UNL d   1       0.171  -0.091  -0.833  0.00  0.00     0.062 A 
ATOM      3  C2  UNL d   1      -0.851   0.487  -0.085  0.00  0.00     0.162 A 
ATOM      4  C3  UNL d   1      -1.441  -0.218   0.963  0.00  0.00    -0.034 A 
ATOM      5  C4  UNL d   1      -0.996  -1.510   1.251  0.00  0.00     0.162 A 
ATOM      6  C5  UNL d   1       0.025  -2.083   0.500  0.00  0.00     0.062 A 
ATOM      7  F   UNL d   1       0.446  -3.324   0.784  0.00  0.00    -0.097 F 
ATOM      8  F1  UNL d   1      -1.542  -2.216   2.252  0.00  0.00    -0.096 F 
ATOM      9  I   UNL d   1      -2.969   0.643   2.084  0.00  0.00    -0.060 I 
ATOM     10  F2  UNL d   1      -1.254   1.730  -0.390  0.00  0.00    -0.096 F 
ATOM     11  F3  UNL d   1       0.733   0.594  -1.839  0.00  0.00    -0.097 F 
ATOM     12  F4  UNL d   1       1.591  -1.930  -1.263  0.00  0.00    -0.092 F 
ENDROOT
TORSDOF 0
ENDMDL
