MODEL 1
REMARK minimizedAffinity -2.54424763
REMARK minimizedRMSD -1
REMARK  0 active torsions:
REMARK  status: ('A' for Active; 'I' for Inactive)
ROOT
ATOM      1  C   UNL d   1      -0.358  -2.178   0.982  0.00  0.00     0.124 A 
ATOM      2  C1  UNL d   1       0.313  -2.345  -0.221  0.00  0.00     0.062 A 
ATOM      3  C2  UNL d   1       0.508  -1.259  -1.071  0.00  0.00     0.162 A 
ATOM      4  C3  UNL d   1       0.032   0.004  -0.720  0.00  0.00    -0.034 A 
ATOM      5  C4  UNL d   1      -0.644   0.164   0.492  0.00  0.00     0.162 A 
ATOM      6  C5  UNL d   1      -0.836  -0.924   1.337  0.00  0.00     0.062 A 
ATOM      7  F   UNL d   1      -1.486  -0.761   2.499  0.00  0.00    -0.097 F 
ATOM      8  F1  UNL d   1      -1.115   1.364   0.860  0.00  0.00    -0.096 F 
ATOM      9  I   UNL d   1       0.322   1.629  -1.987  0.00  0.00    -0.060 I 
ATOM     10  F2  UNL d   1       1.161  -1.450  -2.227  0.00  0.00    -0.096 F 
ATOM     11  F3  UNL d   1       0.775  -3.555  -0.567  0.00  0.00    -0.097 F 
ATOM     12  F4  UNL d   1      -0.546  -3.224   1.797  0.00  0.00    -0.092 F 
ENDROOT
TORSDOF 0
ENDMDL
