MODEL 1
REMARK minimizedAffinity -2.35532761
REMARK minimizedRMSD -1
REMARK  0 active torsions:
REMARK  status: ('A' for Active; 'I' for Inactive)
ROOT
ATOM      1  C   UNL d   1      -0.109  -3.431  -0.065  0.00  0.00     0.124 A 
ATOM      2  C1  UNL d   1      -0.698  -2.572   0.852  0.00  0.00     0.062 A 
ATOM      3  C2  UNL d   1      -0.573  -1.194   0.701  0.00  0.00     0.162 A 
ATOM      4  C3  UNL d   1       0.143  -0.666  -0.373  0.00  0.00    -0.034 A 
ATOM      5  C4  UNL d   1       0.734  -1.536  -1.291  0.00  0.00     0.162 A 
ATOM      6  C5  UNL d   1       0.607  -2.913  -1.135  0.00  0.00     0.062 A 
ATOM      7  F   UNL d   1       1.177  -3.741  -2.022  0.00  0.00    -0.097 F 
ATOM      8  F1  UNL d   1       1.430  -1.062  -2.335  0.00  0.00    -0.096 F 
ATOM      9  I   UNL d   1       0.332   1.394  -0.603  0.00  0.00    -0.060 I 
ATOM     10  F2  UNL d   1      -1.153  -0.387   1.602  0.00  0.00    -0.096 F 
ATOM     11  F3  UNL d   1      -1.389  -3.070   1.888  0.00  0.00    -0.097 F 
ATOM     12  F4  UNL d   1      -0.229  -4.757   0.084  0.00  0.00    -0.092 F 
ENDROOT
TORSDOF 0
ENDMDL
