MODEL 1
REMARK minimizedAffinity -4.22533512
REMARK minimizedRMSD -1
REMARK  0 active torsions:
REMARK  status: ('A' for Active; 'I' for Inactive)
ROOT
ATOM      1  C   UNL d   1       0.030  -3.047  -0.605  0.00  0.00     0.124 A 
ATOM      2  C1  UNL d   1      -0.195  -2.464   0.634  0.00  0.00     0.062 A 
ATOM      3  C2  UNL d   1      -0.220  -1.079   0.762  0.00  0.00     0.162 A 
ATOM      4  C3  UNL d   1      -0.021  -0.265  -0.354  0.00  0.00    -0.034 A 
ATOM      5  C4  UNL d   1       0.205  -0.859  -1.597  0.00  0.00     0.162 A 
ATOM      6  C5  UNL d   1       0.229  -2.244  -1.719  0.00  0.00     0.062 A 
ATOM      7  F   UNL d   1       0.446  -2.805  -2.918  0.00  0.00    -0.097 F 
ATOM      8  F1  UNL d   1       0.400  -0.106  -2.690  0.00  0.00    -0.096 F 
ATOM      9  I   UNL d   1      -0.058   1.807  -0.167  0.00  0.00    -0.060 I 
ATOM     10  F2  UNL d   1      -0.439  -0.543   1.972  0.00  0.00    -0.096 F 
ATOM     11  F3  UNL d   1      -0.387  -3.238   1.712  0.00  0.00    -0.097 F 
ATOM     12  F4  UNL d   1       0.054  -4.381  -0.725  0.00  0.00    -0.092 F 
ENDROOT
TORSDOF 0
ENDMDL
