MODEL 1
REMARK minimizedAffinity -0.356492788
REMARK minimizedRMSD -1
REMARK  0 active torsions:
REMARK  status: ('A' for Active; 'I' for Inactive)
ROOT
ATOM      1  C   UNL d   1       0.224   1.936  -0.765  0.00  0.00     0.124 A 
ATOM      2  C1  UNL d   1       0.028   1.608   0.570  0.00  0.00     0.062 A 
ATOM      3  C2  UNL d   1      -0.062   0.274   0.956  0.00  0.00     0.162 A 
ATOM      4  C3  UNL d   1       0.045  -0.743   0.007  0.00  0.00    -0.034 A 
ATOM      5  C4  UNL d   1       0.241  -0.405  -1.333  0.00  0.00     0.162 A 
ATOM      6  C5  UNL d   1       0.330   0.930  -1.714  0.00  0.00     0.062 A 
ATOM      7  F   UNL d   1       0.519   1.245  -3.004  0.00  0.00    -0.097 F 
ATOM      8  F1  UNL d   1       0.348  -1.357  -2.271  0.00  0.00    -0.096 F 
ATOM      9  I   UNL d   1      -0.089  -2.739   0.582  0.00  0.00    -0.060 I 
ATOM     10  F2  UNL d   1      -0.251  -0.014   2.253  0.00  0.00    -0.096 F 
ATOM     11  F3  UNL d   1      -0.075   2.578   1.489  0.00  0.00    -0.097 F 
ATOM     12  F4  UNL d   1       0.309   3.220  -1.134  0.00  0.00    -0.092 F 
ENDROOT
TORSDOF 0
ENDMDL
