MODEL 1
REMARK minimizedAffinity 18.6718864
REMARK minimizedRMSD -1
REMARK  0 active torsions:
REMARK  status: ('A' for Active; 'I' for Inactive)
ROOT
ATOM      1  C1  DEN d   1      -4.610  -3.360   1.519  0.00  0.00     0.130 A 
ATOM      2  C2  DEN d   1      -5.408  -2.185   1.177  0.00  0.00    -0.031 A 
ATOM      3  C3  DEN d   1      -4.491  -1.138   0.683  0.00  0.00     0.027 A 
ATOM      4  C4  DEN d   1      -1.927  -1.224   0.413  0.00  0.00     0.027 A 
ATOM      5  C5  DEN d   1      -0.806  -2.005   0.583  0.00  0.00    -0.003 A 
ATOM      6  C6  DEN d   1      -0.869  -3.269   1.106  0.00  0.00     0.001 A 
ATOM      7  C7  DEN d   1      -2.086  -3.808   1.434  0.00  0.00     0.017 A 
ATOM      8  C8  DEN d   1      -3.220  -3.024   1.271  0.00  0.00    -0.094 A 
ATOM      9  C9  DEN d   1      -3.136  -1.752   0.730  0.00  0.00    -0.072 A 
ENDROOT
TORSDOF 0
ENDMDL
