MODEL 1
REMARK minimizedAffinity 4.26215172
REMARK minimizedRMSD -1
REMARK  0 active torsions:
REMARK  status: ('A' for Active; 'I' for Inactive)
ROOT
ATOM      1  C1  DEN d   1       5.981   0.462   5.975  0.00  0.00     0.130 A 
ATOM      2  C2  DEN d   1       4.922  -0.511   5.726  0.00  0.00    -0.031 A 
ATOM      3  C3  DEN d   1       3.687   0.231   5.401  0.00  0.00     0.027 A 
ATOM      4  C4  DEN d   1       3.317   2.779   5.255  0.00  0.00     0.027 A 
ATOM      5  C5  DEN d   1       3.918   4.011   5.395  0.00  0.00    -0.003 A 
ATOM      6  C6  DEN d   1       5.229   4.146   5.768  0.00  0.00     0.001 A 
ATOM      7  C7  DEN d   1       5.995   3.028   5.971  0.00  0.00     0.017 A 
ATOM      8  C8  DEN d   1       5.394   1.783   5.839  0.00  0.00    -0.094 A 
ATOM      9  C9  DEN d   1       4.071   1.668   5.448  0.00  0.00    -0.072 A 
ENDROOT
TORSDOF 0
ENDMDL
