MODEL 1
REMARK minimizedAffinity 2.0762639
REMARK minimizedRMSD -1
REMARK  0 active torsions:
REMARK  status: ('A' for Active; 'I' for Inactive)
ROOT
ATOM      1  C1  DEN d   1      -1.459  -1.513   2.908  0.00  0.00     0.130 A 
ATOM      2  C2  DEN d   1      -0.940  -2.549   3.797  0.00  0.00    -0.031 A 
ATOM      3  C3  DEN d   1      -0.584  -3.721   2.972  0.00  0.00     0.027 A 
ATOM      4  C4  DEN d   1      -0.781  -4.029   0.419  0.00  0.00     0.027 A 
ATOM      5  C5  DEN d   1      -1.176  -3.430  -0.757  0.00  0.00    -0.003 A 
ATOM      6  C6  DEN d   1      -1.720  -2.173  -0.789  0.00  0.00     0.001 A 
ATOM      7  C7  DEN d   1      -1.843  -1.457   0.372  0.00  0.00     0.017 A 
ATOM      8  C8  DEN d   1      -1.453  -2.057   1.562  0.00  0.00    -0.094 A 
ATOM      9  C9  DEN d   1      -0.894  -3.323   1.573  0.00  0.00    -0.072 A 
ENDROOT
TORSDOF 0
ENDMDL
