MODEL 1
REMARK minimizedAffinity 16.8898335
REMARK minimizedRMSD -1
REMARK  0 active torsions:
REMARK  status: ('A' for Active; 'I' for Inactive)
ROOT
ATOM      1  C1  DEN d   1      -4.247  -0.541  -0.739  0.00  0.00     0.130 A 
ATOM      2  C2  DEN d   1      -4.143  -1.208   0.556  0.00  0.00    -0.031 A 
ATOM      3  C3  DEN d   1      -3.106  -2.254   0.450  0.00  0.00     0.027 A 
ATOM      4  C4  DEN d   1      -1.654  -2.898  -1.582  0.00  0.00     0.027 A 
ATOM      5  C5  DEN d   1      -1.390  -2.622  -2.906  0.00  0.00    -0.003 A 
ATOM      6  C6  DEN d   1      -2.077  -1.664  -3.603  0.00  0.00     0.001 A 
ATOM      7  C7  DEN d   1      -3.032  -0.916  -2.968  0.00  0.00     0.017 A 
ATOM      8  C8  DEN d   1      -3.310  -1.193  -1.636  0.00  0.00    -0.094 A 
ATOM      9  C9  DEN d   1      -2.595  -2.157  -0.944  0.00  0.00    -0.072 A 
ENDROOT
TORSDOF 0
ENDMDL
