MODEL 1
REMARK minimizedAffinity 23.360754
REMARK minimizedRMSD -1
REMARK  0 active torsions:
REMARK  status: ('A' for Active; 'I' for Inactive)
ROOT
ATOM      1  C1  DEN d   1      -2.495  -5.055   3.793  0.00  0.00     0.130 A 
ATOM      2  C2  DEN d   1      -2.390  -5.971   4.926  0.00  0.00    -0.031 A 
ATOM      3  C3  DEN d   1      -1.623  -5.293   5.991  0.00  0.00     0.027 A 
ATOM      4  C4  DEN d   1      -0.599  -2.926   5.997  0.00  0.00     0.027 A 
ATOM      5  C5  DEN d   1      -0.418  -1.779   5.255  0.00  0.00    -0.003 A 
ATOM      6  C6  DEN d   1      -0.882  -1.658   3.972  0.00  0.00     0.001 A 
ATOM      7  C7  DEN d   1      -1.592  -2.685   3.408  0.00  0.00     0.017 A 
ATOM      8  C8  DEN d   1      -1.772  -3.847   4.146  0.00  0.00    -0.094 A 
ATOM      9  C9  DEN d   1      -1.305  -3.945   5.446  0.00  0.00    -0.072 A 
ENDROOT
TORSDOF 0
ENDMDL
