MODEL 1
REMARK minimizedAffinity 23.5079269
REMARK minimizedRMSD -1
REMARK  0 active torsions:
REMARK  status: ('A' for Active; 'I' for Inactive)
ROOT
ATOM      1  C1  DEN d   1      -2.479  -1.343   3.342  0.00  0.00     0.130 A 
ATOM      2  C2  DEN d   1      -1.776  -2.134   4.348  0.00  0.00    -0.031 A 
ATOM      3  C3  DEN d   1      -0.863  -3.058   3.645  0.00  0.00     0.027 A 
ATOM      4  C4  DEN d   1      -0.467  -3.334   1.112  0.00  0.00     0.027 A 
ATOM      5  C5  DEN d   1      -0.841  -2.891  -0.138  0.00  0.00    -0.003 A 
ATOM      6  C6  DEN d   1      -1.804  -1.933  -0.315  0.00  0.00     0.001 A 
ATOM      7  C7  DEN d   1      -2.394  -1.354   0.777  0.00  0.00     0.017 A 
ATOM      8  C8  DEN d   1      -2.027  -1.800   2.040  0.00  0.00    -0.094 A 
ATOM      9  C9  DEN d   1      -1.043  -2.761   2.199  0.00  0.00    -0.072 A 
ENDROOT
TORSDOF 0
ENDMDL
