MODEL 1
REMARK minimizedAffinity 16.0702724
REMARK minimizedRMSD -1
REMARK  0 active torsions:
REMARK  status: ('A' for Active; 'I' for Inactive)
ROOT
ATOM      1  C1  DEN d   1      -1.016  -1.148   1.197  0.00  0.00     0.130 A 
ATOM      2  C2  DEN d   1      -2.455  -1.369   1.315  0.00  0.00    -0.031 A 
ATOM      3  C3  DEN d   1      -3.003  -1.545  -0.045  0.00  0.00     0.027 A 
ATOM      4  C4  DEN d   1      -1.769  -1.503  -2.310  0.00  0.00     0.027 A 
ATOM      5  C5  DEN d   1      -0.544  -1.338  -2.918  0.00  0.00    -0.003 A 
ATOM      6  C6  DEN d   1       0.594  -1.066  -2.205  0.00  0.00     0.001 A 
ATOM      7  C7  DEN d   1       0.539  -0.997  -0.838  0.00  0.00     0.017 A 
ATOM      8  C8  DEN d   1      -0.694  -1.155  -0.219  0.00  0.00    -0.094 A 
ATOM      9  C9  DEN d   1      -1.831  -1.441  -0.955  0.00  0.00    -0.072 A 
ENDROOT
TORSDOF 0
ENDMDL
