MODEL 1
REMARK minimizedAffinity 10.3295975
REMARK minimizedRMSD -1
REMARK  0 active torsions:
REMARK  status: ('A' for Active; 'I' for Inactive)
ROOT
ATOM      1  C1  DEN d   1      -4.288   3.077   0.706  0.00  0.00     0.130 A 
ATOM      2  C2  DEN d   1      -5.247   3.593   1.679  0.00  0.00    -0.031 A 
ATOM      3  C3  DEN d   1      -5.857   4.814   1.115  0.00  0.00     0.027 A 
ATOM      4  C4  DEN d   1      -5.415   5.946  -1.161  0.00  0.00     0.027 A 
ATOM      5  C5  DEN d   1      -4.678   5.882  -2.322  0.00  0.00    -0.003 A 
ATOM      6  C6  DEN d   1      -3.743   4.905  -2.540  0.00  0.00     0.001 A 
ATOM      7  C7  DEN d   1      -3.552   3.927  -1.601  0.00  0.00     0.017 A 
ATOM      8  C8  DEN d   1      -4.286   3.989  -0.424  0.00  0.00    -0.094 A 
ATOM      9  C9  DEN d   1      -5.235   4.978  -0.227  0.00  0.00    -0.072 A 
ENDROOT
TORSDOF 0
ENDMDL
