MODEL 1
REMARK minimizedAffinity 21.7767296
REMARK minimizedRMSD -1
REMARK  0 active torsions:
REMARK  status: ('A' for Active; 'I' for Inactive)
ROOT
ATOM      1  C1  DEN d   1       2.259  -0.770  -1.843  0.00  0.00     0.130 A 
ATOM      2  C2  DEN d   1       1.870   0.541  -1.328  0.00  0.00    -0.031 A 
ATOM      3  C3  DEN d   1       2.967   1.487  -1.615  0.00  0.00     0.027 A 
ATOM      4  C4  DEN d   1       5.215   1.054  -2.804  0.00  0.00     0.027 A 
ATOM      5  C5  DEN d   1       5.999   0.096  -3.407  0.00  0.00    -0.003 A 
ATOM      6  C6  DEN d   1       5.610  -1.214  -3.500  0.00  0.00     0.001 A 
ATOM      7  C7  DEN d   1       4.383  -1.593  -3.022  0.00  0.00     0.017 A 
ATOM      8  C8  DEN d   1       3.590  -0.635  -2.406  0.00  0.00    -0.094 A 
ATOM      9  C9  DEN d   1       3.996   0.687  -2.332  0.00  0.00    -0.072 A 
ENDROOT
TORSDOF 0
ENDMDL
