MODEL 1
REMARK minimizedAffinity 19.6089287
REMARK minimizedRMSD -1
REMARK  0 active torsions:
REMARK  status: ('A' for Active; 'I' for Inactive)
ROOT
ATOM      1  C1  DEN d   1      -2.616  -2.326   4.488  0.00  0.00     0.130 A 
ATOM      2  C2  DEN d   1      -1.541  -1.416   4.873  0.00  0.00    -0.031 A 
ATOM      3  C3  DEN d   1      -0.487  -2.210   5.537  0.00  0.00     0.027 A 
ATOM      4  C4  DEN d   1      -0.414  -4.746   5.999  0.00  0.00     0.027 A 
ATOM      5  C5  DEN d   1      -1.104  -5.932   5.867  0.00  0.00    -0.003 A 
ATOM      6  C6  DEN d   1      -2.350  -5.993   5.301  0.00  0.00     0.001 A 
ATOM      7  C7  DEN d   1      -2.927  -4.853   4.806  0.00  0.00     0.017 A 
ATOM      8  C8  DEN d   1      -2.241  -3.653   4.942  0.00  0.00    -0.094 A 
ATOM      9  C9  DEN d   1      -0.977  -3.614   5.505  0.00  0.00    -0.072 A 
ENDROOT
TORSDOF 0
ENDMDL
