MODEL 1
REMARK minimizedAffinity 16.0905266
REMARK minimizedRMSD -1
REMARK  0 active torsions:
REMARK  status: ('A' for Active; 'I' for Inactive)
ROOT
ATOM      1  C1  DEN d   1      -1.145  -3.218  -2.542  0.00  0.00     0.130 A 
ATOM      2  C2  DEN d   1      -1.664  -2.236  -3.490  0.00  0.00    -0.031 A 
ATOM      3  C3  DEN d   1      -2.352  -1.179  -2.721  0.00  0.00     0.027 A 
ATOM      4  C4  DEN d   1      -2.658  -0.967  -0.169  0.00  0.00     0.027 A 
ATOM      5  C5  DEN d   1      -2.402  -1.563   1.046  0.00  0.00    -0.003 A 
ATOM      6  C6  DEN d   1      -1.744  -2.760   1.147  0.00  0.00     0.001 A 
ATOM      7  C7  DEN d   1      -1.280  -3.378   0.016  0.00  0.00     0.017 A 
ATOM      8  C8  DEN d   1      -1.541  -2.786  -1.213  0.00  0.00    -0.094 A 
ATOM      9  C9  DEN d   1      -2.197  -1.569  -1.294  0.00  0.00    -0.072 A 
ENDROOT
TORSDOF 0
ENDMDL
