MODEL 1
REMARK minimizedAffinity 12.4429626
REMARK minimizedRMSD -1
REMARK  0 active torsions:
REMARK  status: ('A' for Active; 'I' for Inactive)
ROOT
ATOM      1  C1  DEN d   1      -3.090  -2.572   5.962  0.00  0.00     0.130 A 
ATOM      2  C2  DEN d   1      -1.661  -2.868   5.902  0.00  0.00    -0.031 A 
ATOM      3  C3  DEN d   1      -0.929  -1.585   5.888  0.00  0.00     0.027 A 
ATOM      4  C4  DEN d   1      -1.865   0.818   5.957  0.00  0.00     0.027 A 
ATOM      5  C5  DEN d   1      -3.016   1.573   6.000  0.00  0.00    -0.003 A 
ATOM      6  C6  DEN d   1      -4.262   1.006   5.999  0.00  0.00     0.001 A 
ATOM      7  C7  DEN d   1      -4.387  -0.359   6.000  0.00  0.00     0.017 A 
ATOM      8  C8  DEN d   1      -3.231  -1.127   5.949  0.00  0.00    -0.094 A 
ATOM      9  C9  DEN d   1      -1.980  -0.535   5.963  0.00  0.00    -0.072 A 
ENDROOT
TORSDOF 0
ENDMDL
