MODEL 1
REMARK minimizedAffinity 11.6023026
REMARK minimizedRMSD -1
REMARK  0 active torsions:
REMARK  status: ('A' for Active; 'I' for Inactive)
ROOT
ATOM      1  C1  DEN d   1      -0.967  -2.539   4.607  0.00  0.00     0.130 A 
ATOM      2  C2  DEN d   1      -2.104  -1.861   5.223  0.00  0.00    -0.031 A 
ATOM      3  C3  DEN d   1      -3.061  -1.510   4.154  0.00  0.00     0.027 A 
ATOM      4  C4  DEN d   1      -2.894  -1.952   1.619  0.00  0.00     0.027 A 
ATOM      5  C5  DEN d   1      -2.108  -2.486   0.622  0.00  0.00    -0.003 A 
ATOM      6  C6  DEN d   1      -0.882  -3.041   0.877  0.00  0.00     0.001 A 
ATOM      7  C7  DEN d   1      -0.425  -3.114   2.166  0.00  0.00     0.017 A 
ATOM      8  C8  DEN d   1      -1.208  -2.570   3.176  0.00  0.00    -0.094 A 
ATOM      9  C9  DEN d   1      -2.451  -2.026   2.899  0.00  0.00    -0.072 A 
ENDROOT
TORSDOF 0
ENDMDL
