MODEL 1
REMARK minimizedAffinity 10.2968082
REMARK minimizedRMSD -1
REMARK  0 active torsions:
REMARK  status: ('A' for Active; 'I' for Inactive)
ROOT
ATOM      1  C1  DEN d   1      -2.555  -1.513   4.601  0.00  0.00     0.130 A 
ATOM      2  C2  DEN d   1      -2.387  -2.425   5.729  0.00  0.00    -0.031 A 
ATOM      3  C3  DEN d   1      -1.700  -3.636   5.238  0.00  0.00     0.027 A 
ATOM      4  C4  DEN d   1      -0.879  -4.182   2.854  0.00  0.00     0.027 A 
ATOM      5  C5  DEN d   1      -0.807  -3.720   1.558  0.00  0.00    -0.003 A 
ATOM      6  C6  DEN d   1      -1.338  -2.515   1.182  0.00  0.00     0.001 A 
ATOM      7  C7  DEN d   1      -1.926  -1.710   2.121  0.00  0.00     0.017 A 
ATOM      8  C8  DEN d   1      -2.009  -2.172   3.428  0.00  0.00    -0.094 A 
ATOM      9  C9  DEN d   1      -1.455  -3.387   3.791  0.00  0.00    -0.072 A 
ENDROOT
TORSDOF 0
ENDMDL
