MODEL 1
REMARK minimizedAffinity -2.85331798
REMARK minimizedRMSD -1
REMARK  2 active torsions:
REMARK  status: ('A' for Active; 'I' for Inactive)
REMARK    1  A    between atoms: C1_2  and  C2_3 
REMARK    2  A    between atoms: C2_3  and  C3_4 
ROOT
ATOM      1  C3  UNL d   1       0.333   1.112   0.752  0.00  0.00    -0.075 A 
ATOM      2  C4  UNL d   1      -0.752   0.229   0.856  0.00  0.00     0.002 A 
ATOM      3  C5  UNL d   1      -0.680  -0.886   1.692  0.00  0.00     0.002 A 
ATOM      4  C6  UNL d   1       0.478  -1.138   2.424  0.00  0.00    -0.004 A 
ATOM      5  C7  UNL d   1       1.568  -0.277   2.315  0.00  0.00     0.002 A 
ATOM      6  C8  UNL d   1       1.498   0.842   1.483  0.00  0.00     0.002 A 
ENDROOT
BRANCH   1   7
ATOM      7  C2  UNL d   1       0.251   2.336  -0.128  0.00  0.00     0.056 C 
BRANCH   7   8
ATOM      8  C1  UNL d   1      -0.114   2.034  -1.585  0.00  0.00     0.007 C 
ATOM      9  C   UNL d   1      -0.160   3.278  -2.462  0.00  0.00     0.009 C 
ENDBRANCH   7   8
ENDBRANCH   1   7
TORSDOF 2
ENDMDL
