MODEL 1
REMARK minimizedAffinity 0.0821772814
REMARK minimizedRMSD -1
REMARK  2 active torsions:
REMARK  status: ('A' for Active; 'I' for Inactive)
REMARK    1  A    between atoms: C1_2  and  C2_3 
REMARK    2  A    between atoms: C2_3  and  C3_4 
ROOT
ATOM      1  C3  UNL d   1      -0.260   0.825  -0.276  0.00  0.00    -0.075 A 
ATOM      2  C4  UNL d   1      -1.081   1.177   0.805  0.00  0.00     0.002 A 
ATOM      3  C5  UNL d   1      -1.081   0.414   1.973  0.00  0.00     0.002 A 
ATOM      4  C6  UNL d   1      -0.269  -0.714   2.071  0.00  0.00    -0.004 A 
ATOM      5  C7  UNL d   1       0.538  -1.083   0.998  0.00  0.00     0.002 A 
ATOM      6  C8  UNL d   1       0.543  -0.319  -0.171  0.00  0.00     0.002 A 
ENDROOT
BRANCH   1   7
ATOM      7  C2  UNL d   1      -0.233   1.663  -1.532  0.00  0.00     0.056 C 
BRANCH   7   8
ATOM      8  C1  UNL d   1      -1.532   2.432  -1.796  0.00  0.00     0.007 C 
ATOM      9  C   UNL d   1      -1.326   3.692  -2.626  0.00  0.00     0.009 C 
ENDBRANCH   7   8
ENDBRANCH   1   7
TORSDOF 2
ENDMDL
