MODEL 1
REMARK minimizedAffinity -0.485125095
REMARK minimizedRMSD -1
REMARK  2 active torsions:
REMARK  status: ('A' for Active; 'I' for Inactive)
REMARK    1  A    between atoms: C1_2  and  C2_3 
REMARK    2  A    between atoms: C2_3  and  C3_4 
ROOT
ATOM      1  C3  UNL d   1       0.232   3.470  -2.041  0.00  0.00    -0.075 A 
ATOM      2  C4  UNL d   1       0.260   2.534  -3.085  0.00  0.00     0.002 A 
ATOM      3  C5  UNL d   1       0.894   2.835  -4.291  0.00  0.00     0.002 A 
ATOM      4  C6  UNL d   1       1.499   4.077  -4.472  0.00  0.00    -0.004 A 
ATOM      5  C7  UNL d   1       1.463   5.021  -3.448  0.00  0.00     0.002 A 
ATOM      6  C8  UNL d   1       0.833   4.721  -2.239  0.00  0.00     0.002 A 
ENDROOT
BRANCH   1   7
ATOM      7  C2  UNL d   1      -0.427   3.139  -0.724  0.00  0.00     0.056 C 
BRANCH   7   8
ATOM      8  C1  UNL d   1       0.478   2.382   0.254  0.00  0.00     0.007 C 
ATOM      9  C   UNL d   1       0.241   0.878   0.249  0.00  0.00     0.009 C 
ENDBRANCH   7   8
ENDBRANCH   1   7
TORSDOF 2
ENDMDL
