MODEL 1
REMARK minimizedAffinity -2.75721979
REMARK minimizedRMSD -1
REMARK  2 active torsions:
REMARK  status: ('A' for Active; 'I' for Inactive)
REMARK    1  A    between atoms: C1_2  and  C2_3 
REMARK    2  A    between atoms: C2_3  and  C3_4 
ROOT
ATOM      1  C3  UNL d   1      -0.814  -0.182  -0.715  0.00  0.00    -0.075 A 
ATOM      2  C4  UNL d   1      -1.700  -0.236   0.371  0.00  0.00     0.002 A 
ATOM      3  C5  UNL d   1      -1.283  -0.748   1.600  0.00  0.00     0.002 A 
ATOM      4  C6  UNL d   1       0.018  -1.220   1.756  0.00  0.00    -0.004 A 
ATOM      5  C7  UNL d   1       0.902  -1.187   0.679  0.00  0.00     0.002 A 
ATOM      6  C8  UNL d   1       0.489  -0.671  -0.551  0.00  0.00     0.002 A 
ENDROOT
BRANCH   1   7
ATOM      7  C2  UNL d   1      -1.250   0.399  -2.040  0.00  0.00     0.056 C 
BRANCH   7   8
ATOM      8  C1  UNL d   1      -0.296   1.459  -2.600  0.00  0.00     0.007 C 
ATOM      9  C   UNL d   1      -0.157   2.678  -1.698  0.00  0.00     0.009 C 
ENDBRANCH   7   8
ENDBRANCH   1   7
TORSDOF 2
ENDMDL
