MODEL 1
REMARK minimizedAffinity -5.03147745
REMARK minimizedRMSD -1
REMARK  2 active torsions:
REMARK  status: ('A' for Active; 'I' for Inactive)
REMARK    1  A    between atoms: C1_2  and  C2_3 
REMARK    2  A    between atoms: C2_3  and  C3_4 
ROOT
ATOM      1  C3  UNL d   1       0.732   0.415  -0.254  0.00  0.00    -0.075 A 
ATOM      2  C4  UNL d   1      -0.444   0.093   0.438  0.00  0.00     0.002 A 
ATOM      3  C5  UNL d   1      -0.385  -0.532   1.683  0.00  0.00     0.002 A 
ATOM      4  C6  UNL d   1       0.849  -0.852   2.247  0.00  0.00    -0.004 A 
ATOM      5  C7  UNL d   1       2.023  -0.552   1.561  0.00  0.00     0.002 A 
ATOM      6  C8  UNL d   1       1.967   0.078   0.317  0.00  0.00     0.002 A 
ENDROOT
BRANCH   1   7
ATOM      7  C2  UNL d   1       0.675   1.119  -1.589  0.00  0.00     0.056 C 
BRANCH   7   8
ATOM      8  C1  UNL d   1      -0.071   2.457  -1.558  0.00  0.00     0.007 C 
ATOM      9  C   UNL d   1       0.511   3.491  -2.513  0.00  0.00     0.009 C 
ENDBRANCH   7   8
ENDBRANCH   1   7
TORSDOF 2
ENDMDL
