MODEL 1
REMARK minimizedAffinity -3.39499545
REMARK minimizedRMSD -1
REMARK  2 active torsions:
REMARK  status: ('A' for Active; 'I' for Inactive)
REMARK    1  A    between atoms: C1_2  and  C2_3 
REMARK    2  A    between atoms: C2_3  and  C3_4 
ROOT
ATOM      1  C3  UNL d   1      -3.790   2.252   4.043  0.00  0.00    -0.075 A 
ATOM      2  C4  UNL d   1      -4.031   2.345   5.422  0.00  0.00     0.002 A 
ATOM      3  C5  UNL d   1      -5.106   1.667   5.999  0.00  0.00     0.002 A 
ATOM      4  C6  UNL d   1      -5.956   0.899   5.207  0.00  0.00    -0.004 A 
ATOM      5  C7  UNL d   1      -5.736   0.814   3.834  0.00  0.00     0.002 A 
ATOM      6  C8  UNL d   1      -4.659   1.487   3.254  0.00  0.00     0.002 A 
ENDROOT
BRANCH   1   7
ATOM      7  C2  UNL d   1      -2.612   2.959   3.416  0.00  0.00     0.056 C 
BRANCH   7   8
ATOM      8  C1  UNL d   1      -1.731   3.713   4.418  0.00  0.00     0.007 C 
ATOM      9  C   UNL d   1      -0.291   3.873   3.950  0.00  0.00     0.009 C 
ENDBRANCH   7   8
ENDBRANCH   1   7
TORSDOF 2
ENDMDL
