MODEL 1
REMARK minimizedAffinity -0.0860255286
REMARK minimizedRMSD -1
REMARK  0 active torsions:
REMARK  status: ('A' for Active; 'I' for Inactive)
ROOT
ATOM      1  C4' PXY d   1      -3.057   1.764   0.254  0.00  0.00     0.077 C 
ATOM      2  C1' PXY d   1       2.634   1.544   1.240  0.00  0.00     0.077 C 
ATOM      3  C1  PXY d   1       1.143   1.594   0.971  0.00  0.00    -0.082 A 
ATOM      4  C2  PXY d   1       0.435   2.626   1.401  0.00  0.00     0.003 A 
ATOM      5  C3  PXY d   1      -0.920   2.671   1.194  0.00  0.00     0.003 A 
ATOM      6  C4  PXY d   1      -1.548   1.676   0.494  0.00  0.00    -0.082 A 
ATOM      7  C5  PXY d   1      -0.830   0.625   0.043  0.00  0.00     0.003 A 
ATOM      8  C6  PXY d   1       0.537   0.578   0.299  0.00  0.00     0.003 A 
ENDROOT
TORSDOF 0
ENDMDL
