MODEL 1
REMARK minimizedAffinity -3.0983541
REMARK minimizedRMSD -1
REMARK  0 active torsions:
REMARK  status: ('A' for Active; 'I' for Inactive)
ROOT
ATOM      1  C4' PXY d   1      -0.626  -2.538  -1.271  0.00  0.00     0.077 C 
ATOM      2  C1' PXY d   1      -0.505   2.613   1.349  0.00  0.00     0.077 C 
ATOM      3  C1  PXY d   1      -0.524   1.262   0.663  0.00  0.00    -0.082 A 
ATOM      4  C2  PXY d   1      -1.562   0.922  -0.084  0.00  0.00     0.003 A 
ATOM      5  C3  PXY d   1      -1.610  -0.309  -0.686  0.00  0.00     0.003 A 
ATOM      6  C4  PXY d   1      -0.560  -1.180  -0.567  0.00  0.00    -0.082 A 
ATOM      7  C5  PXY d   1       0.508  -0.836   0.184  0.00  0.00     0.003 A 
ATOM      8  C6  PXY d   1       0.518   0.401   0.821  0.00  0.00     0.003 A 
ENDROOT
TORSDOF 0
ENDMDL
