MODEL 1
REMARK minimizedAffinity 3.94500136
REMARK minimizedRMSD -1
REMARK  0 active torsions:
REMARK  status: ('A' for Active; 'I' for Inactive)
ROOT
ATOM      1  C4' PXY d   1      -1.623  -2.551  -1.111  0.00  0.00     0.077 C 
ATOM      2  C1' PXY d   1      -1.031   2.533   1.575  0.00  0.00     0.077 C 
ATOM      3  C1  PXY d   1      -1.197   1.204   0.864  0.00  0.00    -0.082 A 
ATOM      4  C2  PXY d   1      -0.719   0.102   1.418  0.00  0.00     0.003 A 
ATOM      5  C3  PXY d   1      -0.832  -1.103   0.774  0.00  0.00     0.003 A 
ATOM      6  C4  PXY d   1      -1.487  -1.189  -0.425  0.00  0.00    -0.082 A 
ATOM      7  C5  PXY d   1      -1.987  -0.070  -0.992  0.00  0.00     0.003 A 
ATOM      8  C6  PXY d   1      -1.825   1.150  -0.341  0.00  0.00     0.003 A 
ENDROOT
TORSDOF 0
ENDMDL
