MODEL 1
REMARK minimizedAffinity -5.42947912
REMARK minimizedRMSD -1
REMARK  0 active torsions:
REMARK  status: ('A' for Active; 'I' for Inactive)
ROOT
ATOM      1  C4' PXY d   1       1.888   4.177   0.202  0.00  0.00     0.077 C 
ATOM      2  C1' PXY d   1      -0.230  -1.191  -0.139  0.00  0.00     0.077 C 
ATOM      3  C1  PXY d   1       0.314   0.222  -0.054  0.00  0.00    -0.082 A 
ATOM      4  C2  PXY d   1       1.619   0.426  -0.129  0.00  0.00     0.003 A 
ATOM      5  C3  PXY d   1       2.130   1.693  -0.021  0.00  0.00     0.003 A 
ATOM      6  C4  PXY d   1       1.293   2.769   0.111  0.00  0.00    -0.082 A 
ATOM      7  C5  PXY d   1      -0.040   2.570   0.177  0.00  0.00     0.003 A 
ATOM      8  C6  PXY d   1      -0.536   1.272   0.108  0.00  0.00     0.003 A 
ENDROOT
TORSDOF 0
ENDMDL
