MODEL 1
REMARK minimizedAffinity -2.9470644
REMARK minimizedRMSD -1
REMARK  0 active torsions:
REMARK  status: ('A' for Active; 'I' for Inactive)
ROOT
ATOM      1  C4' PXY d   1      -0.436  -2.665  -0.878  0.00  0.00     0.077 C 
ATOM      2  C1' PXY d   1      -0.326   2.682   1.315  0.00  0.00     0.077 C 
ATOM      3  C1  PXY d   1      -0.343   1.282   0.735  0.00  0.00    -0.082 A 
ATOM      4  C2  PXY d   1      -1.500   0.700   0.464  0.00  0.00     0.003 A 
ATOM      5  C3  PXY d   1      -1.535  -0.578  -0.031  0.00  0.00     0.003 A 
ATOM      6  C4  PXY d   1      -0.371  -1.248  -0.300  0.00  0.00    -0.082 A 
ATOM      7  C5  PXY d   1       0.813  -0.658  -0.036  0.00  0.00     0.003 A 
ATOM      8  C6  PXY d   1       0.826   0.625   0.505  0.00  0.00     0.003 A 
ENDROOT
TORSDOF 0
ENDMDL
