MODEL 1
REMARK minimizedAffinity -3.93361545
REMARK minimizedRMSD -1
REMARK  0 active torsions:
REMARK  status: ('A' for Active; 'I' for Inactive)
ROOT
ATOM      1  C4' PXY d   1      -2.579   1.485   0.981  0.00  0.00     0.077 C 
ATOM      2  C1' PXY d   1       3.131   1.726   0.117  0.00  0.00     0.077 C 
ATOM      3  C1  PXY d   1       1.635   1.672   0.353  0.00  0.00    -0.082 A 
ATOM      4  C2  PXY d   1       0.963   0.573   0.048  0.00  0.00     0.003 A 
ATOM      5  C3  PXY d   1      -0.395   0.519   0.224  0.00  0.00     0.003 A 
ATOM      6  C4  PXY d   1      -1.066   1.581   0.769  0.00  0.00    -0.082 A 
ATOM      7  C5  PXY d   1      -0.387   2.702   1.093  0.00  0.00     0.003 A 
ATOM      8  C6  PXY d   1       0.986   2.752   0.868  0.00  0.00     0.003 A 
ENDROOT
TORSDOF 0
ENDMDL
