MODEL 1
REMARK minimizedAffinity -3.14843488
REMARK minimizedRMSD -1
REMARK  0 active torsions:
REMARK  status: ('A' for Active; 'I' for Inactive)
ROOT
ATOM      1  C4' PXY d   1      -0.348  -1.075   0.684  0.00  0.00     0.077 C 
ATOM      2  C1' PXY d   1       1.572   4.364   0.302  0.00  0.00     0.077 C 
ATOM      3  C1  PXY d   1       1.058   2.942   0.409  0.00  0.00    -0.082 A 
ATOM      4  C2  PXY d   1       1.913   1.933   0.373  0.00  0.00     0.003 A 
ATOM      5  C3  PXY d   1       1.462   0.639   0.435  0.00  0.00     0.003 A 
ATOM      6  C4  PXY d   1       0.127   0.378   0.590  0.00  0.00    -0.082 A 
ATOM      7  C5  PXY d   1      -0.750   1.402   0.638  0.00  0.00     0.003 A 
ATOM      8  C6  PXY d   1      -0.277   2.706   0.531  0.00  0.00     0.003 A 
ENDROOT
TORSDOF 0
ENDMDL
