MODEL 1
REMARK minimizedAffinity -3.79783916
REMARK minimizedRMSD -1
REMARK  0 active torsions:
REMARK  status: ('A' for Active; 'I' for Inactive)
ROOT
ATOM      1  C4' PXY d   1      -1.737  -3.940  -1.859  0.00  0.00     0.077 C 
ATOM      2  C1' PXY d   1       2.356  -0.557   0.426  0.00  0.00     0.077 C 
ATOM      3  C1  PXY d   1       1.286  -1.440  -0.185  0.00  0.00    -0.082 A 
ATOM      4  C2  PXY d   1       0.231  -1.784   0.536  0.00  0.00     0.003 A 
ATOM      5  C3  PXY d   1      -0.730  -2.608   0.009  0.00  0.00     0.003 A 
ATOM      6  C4  PXY d   1      -0.637  -3.042  -1.286  0.00  0.00    -0.082 A 
ATOM      7  C5  PXY d   1       0.431  -2.687  -2.031  0.00  0.00     0.003 A 
ATOM      8  C6  PXY d   1       1.416  -1.883  -1.465  0.00  0.00     0.003 A 
ENDROOT
TORSDOF 0
ENDMDL
