MODEL 1
REMARK minimizedAffinity -1.42618489
REMARK minimizedRMSD -1
REMARK  0 active torsions:
REMARK  status: ('A' for Active; 'I' for Inactive)
ROOT
ATOM      1  C4' PXY d   1      -0.469  -2.446  -1.184  0.00  0.00     0.077 C 
ATOM      2  C1' PXY d   1      -0.521   2.938   0.920  0.00  0.00     0.077 C 
ATOM      3  C1  PXY d   1      -0.494   1.526   0.368  0.00  0.00    -0.082 A 
ATOM      4  C2  PXY d   1      -1.525   1.077  -0.330  0.00  0.00     0.003 A 
ATOM      5  C3  PXY d   1      -1.531  -0.208  -0.809  0.00  0.00     0.003 A 
ATOM      6  C4  PXY d   1      -0.448  -1.024  -0.616  0.00  0.00    -0.082 A 
ATOM      7  C5  PXY d   1       0.611  -0.570   0.086  0.00  0.00     0.003 A 
ATOM      8  C6  PXY d   1       0.580   0.724   0.599  0.00  0.00     0.003 A 
ENDROOT
TORSDOF 0
ENDMDL
