MODEL 1
REMARK minimizedAffinity -2.85844493
REMARK minimizedRMSD -1
REMARK  0 active torsions:
REMARK  status: ('A' for Active; 'I' for Inactive)
ROOT
ATOM      1  C4' PXY d   1       2.117   1.853   1.038  0.00  0.00     0.077 C 
ATOM      2  C1' PXY d   1      -0.773  -2.976  -0.279  0.00  0.00     0.077 C 
ATOM      3  C1  PXY d   1      -0.023  -1.703   0.059  0.00  0.00    -0.082 A 
ATOM      4  C2  PXY d   1       1.229  -1.774   0.481  0.00  0.00     0.003 A 
ATOM      5  C3  PXY d   1       1.911  -0.634   0.821  0.00  0.00     0.003 A 
ATOM      6  C4  PXY d   1       1.324   0.594   0.677  0.00  0.00    -0.082 A 
ATOM      7  C5  PXY d   1       0.051   0.675   0.236  0.00  0.00     0.003 A 
ATOM      8  C6  PXY d   1      -0.639  -0.496  -0.065  0.00  0.00     0.003 A 
ENDROOT
TORSDOF 0
ENDMDL
