MODEL 1
REMARK minimizedAffinity -4.9874506
REMARK minimizedRMSD -1
REMARK  0 active torsions:
REMARK  status: ('A' for Active; 'I' for Inactive)
ROOT
ATOM      1  C4' PXY d   1       2.092   4.431   0.235  0.00  0.00     0.077 C 
ATOM      2  C1' PXY d   1      -0.497  -0.703  -0.360  0.00  0.00     0.077 C 
ATOM      3  C1  PXY d   1       0.192   0.637  -0.200  0.00  0.00    -0.082 A 
ATOM      4  C2  PXY d   1      -0.534   1.738  -0.090  0.00  0.00     0.003 A 
ATOM      5  C3  PXY d   1       0.074   2.962   0.024  0.00  0.00     0.003 A 
ATOM      6  C4  PXY d   1       1.439   3.055   0.080  0.00  0.00    -0.082 A 
ATOM      7  C5  PXY d   1       2.186   1.936  -0.021  0.00  0.00     0.003 A 
ATOM      8  C6  PXY d   1       1.551   0.707  -0.177  0.00  0.00     0.003 A 
ENDROOT
TORSDOF 0
ENDMDL
