MODEL 1
REMARK minimizedAffinity -5.88570595
REMARK minimizedRMSD -1
REMARK  0 active torsions:
REMARK  status: ('A' for Active; 'I' for Inactive)
ROOT
ATOM      1  C4' PXY d   1       0.390  -1.560   0.446  0.00  0.00     0.077 C 
ATOM      2  C1' PXY d   1       1.230   4.148   0.089  0.00  0.00     0.077 C 
ATOM      3  C1  PXY d   1       0.999   2.653   0.190  0.00  0.00    -0.082 A 
ATOM      4  C2  PXY d   1       2.027   1.825   0.099  0.00  0.00     0.003 A 
ATOM      5  C3  PXY d   1       1.831   0.469   0.155  0.00  0.00     0.003 A 
ATOM      6  C4  PXY d   1       0.578  -0.043   0.360  0.00  0.00    -0.082 A 
ATOM      7  C5  PXY d   1      -0.474   0.797   0.465  0.00  0.00     0.003 A 
ATOM      8  C6  PXY d   1      -0.260   2.168   0.363  0.00  0.00     0.003 A 
ENDROOT
TORSDOF 0
ENDMDL
