MODEL 1
REMARK minimizedAffinity -4.04549122
REMARK minimizedRMSD -1
REMARK  0 active torsions:
REMARK  status: ('A' for Active; 'I' for Inactive)
ROOT
ATOM      1  C4' PXY d   1      -0.029  -1.682   0.550  0.00  0.00     0.077 C 
ATOM      2  C1' PXY d   1       1.060   3.989   0.805  0.00  0.00     0.077 C 
ATOM      3  C1  PXY d   1       0.786   2.500   0.733  0.00  0.00    -0.082 A 
ATOM      4  C2  PXY d   1      -0.463   2.065   0.707  0.00  0.00     0.003 A 
ATOM      5  C3  PXY d   1      -0.729   0.720   0.674  0.00  0.00     0.003 A 
ATOM      6  C4  PXY d   1       0.295  -0.187   0.613  0.00  0.00    -0.082 A 
ATOM      7  C5  PXY d   1       1.572   0.249   0.629  0.00  0.00     0.003 A 
ATOM      8  C6  PXY d   1       1.821   1.616   0.704  0.00  0.00     0.003 A 
ENDROOT
TORSDOF 0
ENDMDL
