MODEL 1
REMARK minimizedAffinity 2.66308188
REMARK minimizedRMSD -1
REMARK  0 active torsions:
REMARK  status: ('A' for Active; 'I' for Inactive)
ROOT
ATOM      1  C4' PXY d   1      -2.208  -2.700  -0.647  0.00  0.00     0.077 C 
ATOM      2  C1' PXY d   1       2.930  -0.074  -0.289  0.00  0.00     0.077 C 
ATOM      3  C1  PXY d   1       1.580  -0.760  -0.370  0.00  0.00    -0.082 A 
ATOM      4  C2  PXY d   1       1.364  -1.668  -1.308  0.00  0.00     0.003 A 
ATOM      5  C3  PXY d   1       0.139  -2.275  -1.416  0.00  0.00     0.003 A 
ATOM      6  C4  PXY d   1      -0.858  -1.988  -0.521  0.00  0.00    -0.082 A 
ATOM      7  C5  PXY d   1      -0.641  -1.070   0.445  0.00  0.00     0.003 A 
ATOM      8  C6  PXY d   1       0.596  -0.436   0.511  0.00  0.00     0.003 A 
ENDROOT
TORSDOF 0
ENDMDL
