MODEL 1
REMARK minimizedAffinity -3.01347733
REMARK minimizedRMSD -1
REMARK  0 active torsions:
REMARK  status: ('A' for Active; 'I' for Inactive)
ROOT
ATOM      1  C4' PXY d   1       0.800   2.919   1.355  0.00  0.00     0.077 C 
ATOM      2  C1' PXY d   1      -0.210  -2.303  -0.909  0.00  0.00     0.077 C 
ATOM      3  C1  PXY d   1       0.065  -0.938  -0.308  0.00  0.00    -0.082 A 
ATOM      4  C2  PXY d   1      -0.917  -0.057  -0.209  0.00  0.00     0.003 A 
ATOM      5  C3  PXY d   1      -0.678   1.193   0.302  0.00  0.00     0.003 A 
ATOM      6  C4  PXY d   1       0.566   1.526   0.765  0.00  0.00    -0.082 A 
ATOM      7  C5  PXY d   1       1.571   0.629   0.677  0.00  0.00     0.003 A 
ATOM      8  C6  PXY d   1       1.318  -0.620   0.117  0.00  0.00     0.003 A 
ENDROOT
TORSDOF 0
ENDMDL
