MODEL 1
REMARK minimizedAffinity -5.64976358
REMARK minimizedRMSD -1
REMARK  0 active torsions:
REMARK  status: ('A' for Active; 'I' for Inactive)
ROOT
ATOM      1  C4' PXY d   1      -0.321  -1.969  -0.349  0.00  0.00     0.077 C 
ATOM      2  C1' PXY d   1       1.843   3.108   1.369  0.00  0.00     0.077 C 
ATOM      3  C1  PXY d   1       1.264   1.780   0.922  0.00  0.00    -0.082 A 
ATOM      4  C2  PXY d   1       2.051   0.721   0.831  0.00  0.00     0.003 A 
ATOM      5  C3  PXY d   1       1.550  -0.480   0.398  0.00  0.00     0.003 A 
ATOM      6  C4  PXY d   1       0.219  -0.611   0.107  0.00  0.00    -0.082 A 
ATOM      7  C5  PXY d   1      -0.593   0.463   0.208  0.00  0.00     0.003 A 
ATOM      8  C6  PXY d   1      -0.057   1.683   0.610  0.00  0.00     0.003 A 
ENDROOT
TORSDOF 0
ENDMDL
