MODEL 1
REMARK minimizedAffinity 1.64886916
REMARK minimizedRMSD -1
REMARK  0 active torsions:
REMARK  status: ('A' for Active; 'I' for Inactive)
ROOT
ATOM      1  C4' PXY d   1      -3.097  -3.616  -1.142  0.00  0.00     0.077 C 
ATOM      2  C1' PXY d   1       2.241  -2.794  -3.200  0.00  0.00     0.077 C 
ATOM      3  C1  PXY d   1       0.846  -3.008  -2.648  0.00  0.00    -0.082 A 
ATOM      4  C2  PXY d   1      -0.062  -3.624  -3.388  0.00  0.00     0.003 A 
ATOM      5  C3  PXY d   1      -1.338  -3.798  -2.916  0.00  0.00     0.003 A 
ATOM      6  C4  PXY d   1      -1.673  -3.385  -1.655  0.00  0.00    -0.082 A 
ATOM      7  C5  PXY d   1      -0.749  -2.766  -0.890  0.00  0.00     0.003 A 
ATOM      8  C6  PXY d   1       0.529  -2.562  -1.403  0.00  0.00     0.003 A 
ENDROOT
TORSDOF 0
ENDMDL
