MODEL 1
REMARK minimizedAffinity -3.14042711
REMARK minimizedRMSD -1
REMARK  0 active torsions:
REMARK  status: ('A' for Active; 'I' for Inactive)
ROOT
ATOM      1  C4' PXY d   1       3.106   1.893   0.903  0.00  0.00     0.077 C 
ATOM      2  C1' PXY d   1      -2.526   0.863   0.109  0.00  0.00     0.077 C 
ATOM      3  C1  PXY d   1      -1.052   1.146   0.316  0.00  0.00    -0.082 A 
ATOM      4  C2  PXY d   1      -0.161   0.206   0.043  0.00  0.00     0.003 A 
ATOM      5  C3  PXY d   1       1.175   0.434   0.255  0.00  0.00     0.003 A 
ATOM      6  C4  PXY d   1       1.607   1.655   0.700  0.00  0.00    -0.082 A 
ATOM      7  C5  PXY d   1       0.705   2.622   0.970  0.00  0.00     0.003 A 
ATOM      8  C6  PXY d   1      -0.649   2.357   0.788  0.00  0.00     0.003 A 
ENDROOT
TORSDOF 0
ENDMDL
