MODEL 1
REMARK minimizedAffinity -5.6682148
REMARK minimizedRMSD -1
REMARK  0 active torsions:
REMARK  status: ('A' for Active; 'I' for Inactive)
ROOT
ATOM      1  C4' PXY d   1       0.778   4.097   0.327  0.00  0.00     0.077 C 
ATOM      2  C1' PXY d   1       0.304  -1.656   0.028  0.00  0.00     0.077 C 
ATOM      3  C1  PXY d   1       0.416  -0.146   0.102  0.00  0.00    -0.082 A 
ATOM      4  C2  PXY d   1       1.609   0.424   0.053  0.00  0.00     0.003 A 
ATOM      5  C3  PXY d   1       1.731   1.787   0.151  0.00  0.00     0.003 A 
ATOM      6  C4  PXY d   1       0.617   2.577   0.246  0.00  0.00    -0.082 A 
ATOM      7  C5  PXY d   1      -0.604   2.003   0.286  0.00  0.00     0.003 A 
ATOM      8  C6  PXY d   1      -0.704   0.616   0.227  0.00  0.00     0.003 A 
ENDROOT
TORSDOF 0
ENDMDL
