MODEL 1
REMARK minimizedAffinity -4.57277822
REMARK minimizedRMSD -1
REMARK  0 active torsions:
REMARK  status: ('A' for Active; 'I' for Inactive)
ROOT
ATOM      1  C4' PXY d   1       1.490   3.945   0.383  0.00  0.00     0.077 C 
ATOM      2  C1' PXY d   1      -0.448  -1.499   0.231  0.00  0.00     0.077 C 
ATOM      3  C1  PXY d   1       0.072  -0.076   0.275  0.00  0.00    -0.082 A 
ATOM      4  C2  PXY d   1      -0.773   0.924   0.467  0.00  0.00     0.003 A 
ATOM      5  C3  PXY d   1      -0.324   2.220   0.477  0.00  0.00     0.003 A 
ATOM      6  C4  PXY d   1       1.011   2.491   0.342  0.00  0.00    -0.082 A 
ATOM      7  C5  PXY d   1       1.881   1.476   0.156  0.00  0.00     0.003 A 
ATOM      8  C6  PXY d   1       1.400   0.171   0.107  0.00  0.00     0.003 A 
ENDROOT
TORSDOF 0
ENDMDL
