MODEL 1
REMARK minimizedAffinity 3.43339062
REMARK minimizedRMSD -1
REMARK  0 active torsions:
REMARK  status: ('A' for Active; 'I' for Inactive)
ROOT
ATOM      1  C   UNL d   1      -3.390   0.352  -1.640  0.00  0.00     0.077 C 
ATOM      2  C1  UNL d   1      -3.703  -0.373  -2.915  0.00  0.00    -0.074 A 
ATOM      3  C2  UNL d   1      -5.021  -0.495  -3.368  0.00  0.00    -0.005 A 
ATOM      4  C3  UNL d   1      -5.297  -1.164  -4.560  0.00  0.00     0.006 A 
ATOM      5  C4  UNL d   1      -4.259  -1.717  -5.311  0.00  0.00    -0.005 A 
ATOM      6  C5  UNL d   1      -2.935  -1.604  -4.875  0.00  0.00    -0.074 A 
ATOM      7  C6  UNL d   1      -1.807  -2.184  -5.676  0.00  0.00     0.077 C 
ATOM      8  C7  UNL d   1      -2.666  -0.924  -3.680  0.00  0.00    -0.001 A 
ENDROOT
TORSDOF 0
ENDMDL
