MODEL 1
REMARK minimizedAffinity 3.18915105
REMARK minimizedRMSD -1
REMARK  0 active torsions:
REMARK  status: ('A' for Active; 'I' for Inactive)
ROOT
ATOM      1  C   UNL d   1       0.986   4.812  -5.914  0.00  0.00     0.077 C 
ATOM      2  C1  UNL d   1       2.485   4.802  -5.933  0.00  0.00    -0.074 A 
ATOM      3  C2  UNL d   1       3.212   5.997  -5.940  0.00  0.00    -0.005 A 
ATOM      4  C3  UNL d   1       4.607   5.971  -5.949  0.00  0.00     0.006 A 
ATOM      5  C4  UNL d   1       5.287   4.753  -5.951  0.00  0.00    -0.005 A 
ATOM      6  C5  UNL d   1       4.577   3.549  -5.943  0.00  0.00    -0.074 A 
ATOM      7  C6  UNL d   1       5.294   2.231  -5.936  0.00  0.00     0.077 C 
ATOM      8  C7  UNL d   1       3.176   3.582  -5.928  0.00  0.00    -0.001 A 
ENDROOT
TORSDOF 0
ENDMDL
