MODEL 1
REMARK minimizedAffinity 7.05828428
REMARK minimizedRMSD -1
REMARK  0 active torsions:
REMARK  status: ('A' for Active; 'I' for Inactive)
ROOT
ATOM      1  C   UNL d   1      -2.064  -1.241  -5.471  0.00  0.00     0.077 C 
ATOM      2  C1  UNL d   1      -3.236  -0.349  -5.187  0.00  0.00    -0.074 A 
ATOM      3  C2  UNL d   1      -4.525  -0.876  -5.052  0.00  0.00    -0.005 A 
ATOM      4  C3  UNL d   1      -5.603  -0.035  -4.779  0.00  0.00     0.006 A 
ATOM      5  C4  UNL d   1      -5.405   1.340  -4.639  0.00  0.00    -0.005 A 
ATOM      6  C5  UNL d   1      -4.124   1.885  -4.770  0.00  0.00    -0.074 A 
ATOM      7  C6  UNL d   1      -3.892   3.358  -4.613  0.00  0.00     0.077 C 
ATOM      8  C7  UNL d   1      -3.044   1.032  -5.038  0.00  0.00    -0.001 A 
ENDROOT
TORSDOF 0
ENDMDL
