MODEL 1
REMARK minimizedAffinity -4.12261486
REMARK minimizedRMSD -1
REMARK  0 active torsions:
REMARK  status: ('A' for Active; 'I' for Inactive)
ROOT
ATOM      1  C   UNL d   1      -1.774   1.880  -5.023  0.00  0.00     0.077 C 
ATOM      2  C1  UNL d   1      -2.371   0.937  -4.021  0.00  0.00    -0.074 A 
ATOM      3  C2  UNL d   1      -2.165   1.120  -2.650  0.00  0.00    -0.005 A 
ATOM      4  C3  UNL d   1      -2.734   0.241  -1.730  0.00  0.00     0.006 A 
ATOM      5  C4  UNL d   1      -3.514  -0.829  -2.170  0.00  0.00    -0.005 A 
ATOM      6  C5  UNL d   1      -3.732  -1.028  -3.537  0.00  0.00    -0.074 A 
ATOM      7  C6  UNL d   1      -4.576  -2.167  -4.027  0.00  0.00     0.077 C 
ATOM      8  C7  UNL d   1      -3.162  -0.135  -4.455  0.00  0.00    -0.001 A 
ENDROOT
TORSDOF 0
ENDMDL
