MODEL 1
REMARK minimizedAffinity 3.88044786
REMARK minimizedRMSD -1
REMARK  0 active torsions:
REMARK  status: ('A' for Active; 'I' for Inactive)
ROOT
ATOM      1  C   UNL d   1      -4.892   2.263  -5.835  0.00  0.00     0.077 C 
ATOM      2  C1  UNL d   1      -4.573   0.856  -5.425  0.00  0.00    -0.074 A 
ATOM      3  C2  UNL d   1      -5.548   0.037  -4.846  0.00  0.00    -0.005 A 
ATOM      4  C3  UNL d   1      -5.239  -1.272  -4.479  0.00  0.00     0.006 A 
ATOM      5  C4  UNL d   1      -3.954  -1.776  -4.686  0.00  0.00    -0.005 A 
ATOM      6  C5  UNL d   1      -2.966  -0.972  -5.264  0.00  0.00    -0.074 A 
ATOM      7  C6  UNL d   1      -1.583  -1.501  -5.503  0.00  0.00     0.077 C 
ATOM      8  C7  UNL d   1      -3.287   0.340  -5.637  0.00  0.00    -0.001 A 
ENDROOT
TORSDOF 0
ENDMDL
