MODEL 1
REMARK minimizedAffinity 1.52775812
REMARK minimizedRMSD -1
REMARK  0 active torsions:
REMARK  status: ('A' for Active; 'I' for Inactive)
ROOT
ATOM      1  C   UNL d   1      -3.515   1.459  -6.000  0.00  0.00     0.077 C 
ATOM      2  C1  UNL d   1      -3.804   0.345  -5.039  0.00  0.00    -0.074 A 
ATOM      3  C2  UNL d   1      -4.347  -0.865  -5.484  0.00  0.00    -0.005 A 
ATOM      4  C3  UNL d   1      -4.602  -1.896  -4.579  0.00  0.00     0.006 A 
ATOM      5  C4  UNL d   1      -4.317  -1.728  -3.224  0.00  0.00    -0.005 A 
ATOM      6  C5  UNL d   1      -3.774  -0.526  -2.761  0.00  0.00    -0.074 A 
ATOM      7  C6  UNL d   1      -3.453  -0.332  -1.308  0.00  0.00     0.077 C 
ATOM      8  C7  UNL d   1      -3.514   0.503  -3.676  0.00  0.00    -0.001 A 
ENDROOT
TORSDOF 0
ENDMDL
