MODEL 1
REMARK minimizedAffinity 0.025281731
REMARK minimizedRMSD -1
REMARK  0 active torsions:
REMARK  status: ('A' for Active; 'I' for Inactive)
ROOT
ATOM      1  C   UNL d   1      -5.887   1.515  -5.593  0.00  0.00     0.077 C 
ATOM      2  C1  UNL d   1      -5.057   0.428  -4.977  0.00  0.00    -0.074 A 
ATOM      3  C2  UNL d   1      -5.294  -0.003  -3.668  0.00  0.00    -0.005 A 
ATOM      4  C3  UNL d   1      -4.520  -1.021  -3.112  0.00  0.00     0.006 A 
ATOM      5  C4  UNL d   1      -3.502  -1.617  -3.858  0.00  0.00    -0.005 A 
ATOM      6  C5  UNL d   1      -3.251  -1.200  -5.169  0.00  0.00    -0.074 A 
ATOM      7  C6  UNL d   1      -2.168  -1.836  -5.988  0.00  0.00     0.077 C 
ATOM      8  C7  UNL d   1      -4.038  -0.181  -5.723  0.00  0.00    -0.001 A 
ENDROOT
TORSDOF 0
ENDMDL
