MODEL 1
REMARK minimizedAffinity 1.23287296
REMARK minimizedRMSD -1
REMARK  0 active torsions:
REMARK  status: ('A' for Active; 'I' for Inactive)
ROOT
ATOM      1  C   UNL d   1      -6.000   1.187  -5.223  0.00  0.00     0.077 C 
ATOM      2  C1  UNL d   1      -4.710   0.489  -4.910  0.00  0.00    -0.074 A 
ATOM      3  C2  UNL d   1      -3.761   0.250  -5.909  0.00  0.00    -0.005 A 
ATOM      4  C3  UNL d   1      -2.561  -0.392  -5.601  0.00  0.00     0.006 A 
ATOM      5  C4  UNL d   1      -2.299  -0.800  -4.293  0.00  0.00    -0.005 A 
ATOM      6  C5  UNL d   1      -3.235  -0.569  -3.280  0.00  0.00    -0.074 A 
ATOM      7  C6  UNL d   1      -2.965  -0.993  -1.867  0.00  0.00     0.077 C 
ATOM      8  C7  UNL d   1      -4.435   0.082  -3.597  0.00  0.00    -0.001 A 
ENDROOT
TORSDOF 0
ENDMDL
