MODEL 1
REMARK minimizedAffinity -0.312678874
REMARK minimizedRMSD -1
REMARK  0 active torsions:
REMARK  status: ('A' for Active; 'I' for Inactive)
ROOT
ATOM      1  C   UNL d   1      -5.999   1.578  -4.929  0.00  0.00     0.077 C 
ATOM      2  C1  UNL d   1      -4.835   0.635  -4.847  0.00  0.00    -0.074 A 
ATOM      3  C2  UNL d   1      -4.037   0.381  -5.967  0.00  0.00    -0.005 A 
ATOM      4  C3  UNL d   1      -2.952  -0.491  -5.873  0.00  0.00     0.006 A 
ATOM      5  C4  UNL d   1      -2.655  -1.116  -4.661  0.00  0.00    -0.005 A 
ATOM      6  C5  UNL d   1      -3.442  -0.873  -3.531  0.00  0.00    -0.074 A 
ATOM      7  C6  UNL d   1      -3.132  -1.529  -2.218  0.00  0.00     0.077 C 
ATOM      8  C7  UNL d   1      -4.527   0.009  -3.631  0.00  0.00    -0.001 A 
ENDROOT
TORSDOF 0
ENDMDL
