MODEL 1
REMARK minimizedAffinity -2.38252234
REMARK minimizedRMSD -1
REMARK  0 active torsions:
REMARK  status: ('A' for Active; 'I' for Inactive)
ROOT
ATOM      1  C   UNL d   1       4.215  -3.477   1.623  0.00  0.00     0.077 C 
ATOM      2  C1  UNL d   1       4.604  -3.737   3.048  0.00  0.00    -0.074 A 
ATOM      3  C2  UNL d   1       4.498  -5.018   3.600  0.00  0.00    -0.005 A 
ATOM      4  C3  UNL d   1       4.873  -5.246   4.924  0.00  0.00     0.006 A 
ATOM      5  C4  UNL d   1       5.357  -4.198   5.708  0.00  0.00    -0.005 A 
ATOM      6  C5  UNL d   1       5.470  -2.911   5.173  0.00  0.00    -0.074 A 
ATOM      7  C6  UNL d   1       5.997  -1.775   5.999  0.00  0.00     0.077 C 
ATOM      8  C7  UNL d   1       5.098  -2.691   3.840  0.00  0.00    -0.001 A 
ENDROOT
TORSDOF 0
ENDMDL
