MODEL 1
REMARK minimizedAffinity 1.57417691
REMARK minimizedRMSD -1
REMARK  0 active torsions:
REMARK  status: ('A' for Active; 'I' for Inactive)
ROOT
ATOM      1  C   UNL d   1      -4.620   2.242  -5.996  0.00  0.00     0.077 C 
ATOM      2  C1  UNL d   1      -4.454   0.923  -5.303  0.00  0.00    -0.074 A 
ATOM      3  C2  UNL d   1      -5.547   0.278  -4.714  0.00  0.00    -0.005 A 
ATOM      4  C3  UNL d   1      -5.379  -0.954  -4.081  0.00  0.00     0.006 A 
ATOM      5  C4  UNL d   1      -4.119  -1.552  -4.031  0.00  0.00    -0.005 A 
ATOM      6  C5  UNL d   1      -3.015  -0.923  -4.616  0.00  0.00    -0.074 A 
ATOM      7  C6  UNL d   1      -1.657  -1.557  -4.580  0.00  0.00     0.077 C 
ATOM      8  C7  UNL d   1      -3.194   0.311  -5.256  0.00  0.00    -0.001 A 
ENDROOT
TORSDOF 0
ENDMDL
