MODEL 1
REMARK minimizedAffinity -0.51360786
REMARK minimizedRMSD -1
REMARK  1 active torsions:
REMARK  status: ('A' for Active; 'I' for Inactive)
REMARK    1  A    between atoms: C3_4  and  O_7 
ROOT
ATOM      1  C   UNL d   1       2.713  -1.831   2.755  0.00  0.00    -0.033 A 
ATOM      2  C1  UNL d   1       3.353  -3.069   2.849  0.00  0.00     0.039 A 
ATOM      3  C2  UNL d   1       2.792  -4.089   3.620  0.00  0.00    -0.080 A 
ATOM      4  C3  UNL d   1       1.593  -3.860   4.289  0.00  0.00     0.150 A 
ATOM      5  C4  UNL d   1       0.949  -2.631   4.196  0.00  0.00    -0.007 A 
ATOM      6  C5  UNL d   1       1.510  -1.613   3.427  0.00  0.00     0.039 A 
ENDROOT
BRANCH   4   7
ATOM      7  O   UNL d   1       1.010  -4.825   5.056  0.00  0.00    -0.526 OA
ATOM      8  H5  UNL d   1       1.582  -5.610   5.050  0.00  0.00     0.418 HD
ENDBRANCH   4   7
TORSDOF 1
ENDMDL
