MODEL 1
REMARK minimizedAffinity 0.0787462145
REMARK minimizedRMSD -1
REMARK  1 active torsions:
REMARK  status: ('A' for Active; 'I' for Inactive)
REMARK    1  A    between atoms: C3_4  and  O_7 
ROOT
ATOM      1  C   UNL d   1       2.107  -5.991  -3.016  0.00  0.00    -0.033 A 
ATOM      2  C1  UNL d   1       2.333  -5.998  -4.394  0.00  0.00     0.039 A 
ATOM      3  C2  UNL d   1       3.639  -5.998  -4.889  0.00  0.00    -0.080 A 
ATOM      4  C3  UNL d   1       4.708  -5.993  -3.996  0.00  0.00     0.150 A 
ATOM      5  C4  UNL d   1       4.489  -5.990  -2.623  0.00  0.00    -0.007 A 
ATOM      6  C5  UNL d   1       3.185  -5.989  -2.131  0.00  0.00     0.039 A 
ENDROOT
BRANCH   4   7
ATOM      7  O   UNL d   1       6.000  -5.988  -4.432  0.00  0.00    -0.526 OA
ATOM      8  H5  UNL d   1       5.997  -5.962  -5.403  0.00  0.00     0.418 HD
ENDBRANCH   4   7
TORSDOF 1
ENDMDL
