MODEL 1
REMARK minimizedAffinity -2.62251997
REMARK minimizedRMSD -1
REMARK  1 active torsions:
REMARK  status: ('A' for Active; 'I' for Inactive)
REMARK    1  A    between atoms: C3_4  and  O_7 
ROOT
ATOM      1  C   UNL d   1       5.442  -5.768  -3.930  0.00  0.00    -0.033 A 
ATOM      2  C1  UNL d   1       4.260  -5.921  -3.203  0.00  0.00     0.039 A 
ATOM      3  C2  UNL d   1       3.034  -5.999  -3.867  0.00  0.00    -0.080 A 
ATOM      4  C3  UNL d   1       3.004  -5.923  -5.257  0.00  0.00     0.150 A 
ATOM      5  C4  UNL d   1       4.178  -5.774  -5.988  0.00  0.00    -0.007 A 
ATOM      6  C5  UNL d   1       5.401  -5.696  -5.323  0.00  0.00     0.039 A 
ENDROOT
BRANCH   4   7
ATOM      7  O   UNL d   1       1.831  -5.989  -5.949  0.00  0.00    -0.526 OA
ATOM      8  H5  UNL d   1       1.101  -6.062  -5.311  0.00  0.00     0.418 HD
ENDBRANCH   4   7
TORSDOF 1
ENDMDL
