MODEL 1
REMARK minimizedAffinity -0.165595576
REMARK minimizedRMSD -1
REMARK  1 active torsions:
REMARK  status: ('A' for Active; 'I' for Inactive)
REMARK    1  A    between atoms: C3_4  and  O_7 
ROOT
ATOM      1  C   UNL d   1       4.722  -5.947  -3.688  0.00  0.00    -0.033 A 
ATOM      2  C1  UNL d   1       5.157  -5.936  -2.361  0.00  0.00     0.039 A 
ATOM      3  C2  UNL d   1       4.228  -5.928  -1.319  0.00  0.00    -0.080 A 
ATOM      4  C3  UNL d   1       2.868  -5.931  -1.617  0.00  0.00     0.150 A 
ATOM      5  C4  UNL d   1       2.427  -5.946  -2.936  0.00  0.00    -0.007 A 
ATOM      6  C5  UNL d   1       3.356  -5.953  -3.975  0.00  0.00     0.039 A 
ENDROOT
BRANCH   4   7
ATOM      7  O   UNL d   1       1.924  -5.919  -0.634  0.00  0.00    -0.526 OA
ATOM      8  H5  UNL d   1       2.375  -5.881   0.226  0.00  0.00     0.418 HD
ENDBRANCH   4   7
TORSDOF 1
ENDMDL
