MODEL 1
REMARK minimizedAffinity -0.629772782
REMARK minimizedRMSD -1
REMARK  1 active torsions:
REMARK  status: ('A' for Active; 'I' for Inactive)
REMARK    1  A    between atoms: C3_4  and  O_7 
ROOT
ATOM      1  C   UNL d   1       1.741  -5.985  -4.877  0.00  0.00    -0.033 A 
ATOM      2  C1  UNL d   1       2.629  -5.995  -5.954  0.00  0.00     0.039 A 
ATOM      3  C2  UNL d   1       4.007  -5.997  -5.724  0.00  0.00    -0.080 A 
ATOM      4  C3  UNL d   1       4.481  -5.990  -4.416  0.00  0.00     0.150 A 
ATOM      5  C4  UNL d   1       3.602  -5.984  -3.338  0.00  0.00    -0.007 A 
ATOM      6  C5  UNL d   1       2.227  -5.981  -3.569  0.00  0.00     0.039 A 
ENDROOT
BRANCH   4   7
ATOM      7  O   UNL d   1       5.817  -5.987  -4.142  0.00  0.00    -0.526 OA
ATOM      8  H5  UNL d   1       6.303  -5.963  -4.983  0.00  0.00     0.418 HD
ENDBRANCH   4   7
TORSDOF 1
ENDMDL
