MODEL 1
REMARK minimizedAffinity 2.22742033
REMARK minimizedRMSD -1
REMARK  1 active torsions:
REMARK  status: ('A' for Active; 'I' for Inactive)
REMARK    1  A    between atoms: C3_4  and  O_7 
ROOT
ATOM      1  C   UNL d   1       2.728  -4.611   4.713  0.00  0.00    -0.033 A 
ATOM      2  C1  UNL d   1       3.561  -3.494   4.790  0.00  0.00     0.039 A 
ATOM      3  C2  UNL d   1       3.221  -2.319   4.116  0.00  0.00    -0.080 A 
ATOM      4  C3  UNL d   1       2.047  -2.275   3.370  0.00  0.00     0.150 A 
ATOM      5  C4  UNL d   1       1.210  -3.384   3.292  0.00  0.00    -0.007 A 
ATOM      6  C5  UNL d   1       1.552  -4.556   3.965  0.00  0.00     0.039 A 
ENDROOT
BRANCH   4   7
ATOM      7  O   UNL d   1       1.675  -1.153   2.691  0.00  0.00    -0.526 OA
ATOM      8  H5  UNL d   1       2.363  -0.477   2.814  0.00  0.00     0.418 HD
ENDBRANCH   4   7
TORSDOF 1
ENDMDL
