MODEL 1
REMARK minimizedAffinity 8.01973629
REMARK minimizedRMSD -1
REMARK  1 active torsions:
REMARK  status: ('A' for Active; 'I' for Inactive)
REMARK    1  A    between atoms: C3_4  and  O_7 
ROOT
ATOM      1  C   UNL d   1      -3.038  -2.568  -2.094  0.00  0.00    -0.033 A 
ATOM      2  C1  UNL d   1      -2.399  -1.714  -1.193  0.00  0.00     0.039 A 
ATOM      3  C2  UNL d   1      -2.398  -0.336  -1.416  0.00  0.00    -0.080 A 
ATOM      4  C3  UNL d   1      -3.039   0.175  -2.541  0.00  0.00     0.150 A 
ATOM      5  C4  UNL d   1      -3.681  -0.670  -3.440  0.00  0.00    -0.007 A 
ATOM      6  C5  UNL d   1      -3.681  -2.046  -3.217  0.00  0.00     0.039 A 
ENDROOT
BRANCH   4   7
ATOM      7  O   UNL d   1      -3.060   1.513  -2.803  0.00  0.00    -0.526 OA
ATOM      8  H5  UNL d   1      -2.553   1.970  -2.112  0.00  0.00     0.418 HD
ENDBRANCH   4   7
TORSDOF 1
ENDMDL
