MODEL 1
REMARK minimizedAffinity 13.9896326
REMARK minimizedRMSD -1
REMARK  1 active torsions:
REMARK  status: ('A' for Active; 'I' for Inactive)
REMARK    1  A    between atoms: C3_4  and  O_7 
ROOT
ATOM      1  C   UNL d   1       3.165   2.207   1.496  0.00  0.00    -0.033 A 
ATOM      2  C1  UNL d   1       3.284   1.057   0.714  0.00  0.00     0.039 A 
ATOM      3  C2  UNL d   1       2.770  -0.158   1.172  0.00  0.00    -0.080 A 
ATOM      4  C3  UNL d   1       2.138  -0.209   2.411  0.00  0.00     0.150 A 
ATOM      5  C4  UNL d   1       2.012   0.934   3.194  0.00  0.00    -0.007 A 
ATOM      6  C5  UNL d   1       2.527   2.146   2.736  0.00  0.00     0.039 A 
ENDROOT
BRANCH   4   7
ATOM      7  O   UNL d   1       1.625  -1.372   2.902  0.00  0.00    -0.526 OA
ATOM      8  H5  UNL d   1       1.811  -2.083   2.267  0.00  0.00     0.418 HD
ENDBRANCH   4   7
TORSDOF 1
ENDMDL
