MODEL 1
REMARK minimizedAffinity 9.44418716
REMARK minimizedRMSD -1
REMARK  1 active torsions:
REMARK  status: ('A' for Active; 'I' for Inactive)
REMARK    1  A    between atoms: C3_4  and  O_7 
ROOT
ATOM      1  C   UNL d   1       4.737  -5.999  -0.515  0.00  0.00    -0.033 A 
ATOM      2  C1  UNL d   1       5.044  -5.997  -1.877  0.00  0.00     0.039 A 
ATOM      3  C2  UNL d   1       4.018  -5.996  -2.825  0.00  0.00    -0.080 A 
ATOM      4  C3  UNL d   1       2.693  -5.996  -2.398  0.00  0.00     0.150 A 
ATOM      5  C4  UNL d   1       2.381  -5.994  -1.043  0.00  0.00    -0.007 A 
ATOM      6  C5  UNL d   1       3.406  -5.995  -0.098  0.00  0.00     0.039 A 
ENDROOT
BRANCH   4   7
ATOM      7  O   UNL d   1       1.659  -6.000  -3.286  0.00  0.00    -0.526 OA
ATOM      8  H5  UNL d   1       2.025  -6.030  -4.186  0.00  0.00     0.418 HD
ENDBRANCH   4   7
TORSDOF 1
ENDMDL
