MODEL 1
REMARK minimizedAffinity 4.13953018
REMARK minimizedRMSD -1
REMARK  1 active torsions:
REMARK  status: ('A' for Active; 'I' for Inactive)
REMARK    1  A    between atoms: C3_4  and  O_7 
ROOT
ATOM      1  C   UNL d   1       1.891  -5.879   0.561  0.00  0.00    -0.033 A 
ATOM      2  C1  UNL d   1       3.242  -5.616   0.796  0.00  0.00     0.039 A 
ATOM      3  C2  UNL d   1       4.126  -5.478  -0.276  0.00  0.00    -0.080 A 
ATOM      4  C3  UNL d   1       3.646  -5.603  -1.577  0.00  0.00     0.150 A 
ATOM      5  C4  UNL d   1       2.300  -5.860  -1.819  0.00  0.00    -0.007 A 
ATOM      6  C5  UNL d   1       1.420  -5.999  -0.747  0.00  0.00     0.039 A 
ENDROOT
BRANCH   4   7
ATOM      7  O   UNL d   1       4.470  -5.480  -2.656  0.00  0.00    -0.526 OA
ATOM      8  H5  UNL d   1       5.376  -5.332  -2.336  0.00  0.00     0.418 HD
ENDBRANCH   4   7
TORSDOF 1
ENDMDL
