MODEL 1
REMARK minimizedAffinity -2.53380489
REMARK minimizedRMSD -1
REMARK  0 active torsions:
REMARK  status: ('A' for Active; 'I' for Inactive)
ROOT
ATOM      1  N1  IND d   1       1.416   1.540  -0.221  0.00  0.00    -0.196 N 
ATOM      2  C2  IND d   1       0.095   1.871  -0.341  0.00  0.00     0.054 A 
ATOM      3  C3  IND d   1      -0.647   0.768  -0.584  0.00  0.00    -0.031 A 
ATOM      4  C4  IND d   1       0.086  -1.696  -0.725  0.00  0.00     0.051 A 
ATOM      5  C5  IND d   1       1.197  -2.492  -0.718  0.00  0.00    -0.031 A 
ATOM      6  C6  IND d   1       2.463  -1.974  -0.539  0.00  0.00     0.015 A 
ATOM      7  C7  IND d   1       2.665  -0.636  -0.348  0.00  0.00    -0.016 A 
ATOM      8  C8  IND d   1       1.540   0.175  -0.361  0.00  0.00    -0.047 A 
ATOM      9  C9  IND d   1       0.256  -0.339  -0.585  0.00  0.00    -0.096 A 
ATOM     10  HN1 IND d   1       2.061   2.092  -0.082  0.00  0.00     0.298 HD
ENDROOT
TORSDOF 0
ENDMDL
