MODEL 1
REMARK minimizedAffinity -4.51363134
REMARK minimizedRMSD -1
REMARK  0 active torsions:
REMARK  status: ('A' for Active; 'I' for Inactive)
ROOT
ATOM      1  N1  IND d   1       1.244  -2.734  -1.409  0.00  0.00    -0.196 N 
ATOM      2  C2  IND d   1      -0.023  -2.452  -1.837  0.00  0.00     0.054 A 
ATOM      3  C3  IND d   1      -0.539  -1.420  -1.132  0.00  0.00    -0.031 A 
ATOM      4  C4  IND d   1       0.556   0.020   0.700  0.00  0.00     0.051 A 
ATOM      5  C5  IND d   1       1.690   0.122   1.455  0.00  0.00    -0.031 A 
ATOM      6  C6  IND d   1       2.757  -0.739   1.289  0.00  0.00     0.015 A 
ATOM      7  C7  IND d   1       2.733  -1.730   0.350  0.00  0.00    -0.016 A 
ATOM      8  C8  IND d   1       1.580  -1.841  -0.414  0.00  0.00    -0.047 A 
ATOM      9  C9  IND d   1       0.478  -0.998  -0.222  0.00  0.00    -0.096 A 
ATOM     10  HN1 IND d   1       1.747  -3.362  -1.710  0.00  0.00     0.298 HD
ENDROOT
TORSDOF 0
ENDMDL
