MODEL 1
REMARK minimizedAffinity -5.7018795
REMARK minimizedRMSD -1
REMARK  0 active torsions:
REMARK  status: ('A' for Active; 'I' for Inactive)
ROOT
ATOM      1  N1  IND d   1      -0.085   0.869  -0.170  0.00  0.00    -0.196 N 
ATOM      2  C2  IND d   1      -0.834  -0.203  -0.568  0.00  0.00     0.054 A 
ATOM      3  C3  IND d   1      -0.135  -1.349  -0.412  0.00  0.00    -0.031 A 
ATOM      4  C4  IND d   1       2.215  -1.710   0.576  0.00  0.00     0.051 A 
ATOM      5  C5  IND d   1       3.303  -1.028   1.044  0.00  0.00    -0.031 A 
ATOM      6  C6  IND d   1       3.317   0.348   1.135  0.00  0.00     0.015 A 
ATOM      7  C7  IND d   1       2.234   1.097   0.771  0.00  0.00    -0.016 A 
ATOM      8  C8  IND d   1       1.130   0.409   0.289  0.00  0.00    -0.047 A 
ATOM      9  C9  IND d   1       1.125  -0.985   0.154  0.00  0.00    -0.096 A 
ATOM     10  HN1 IND d   1      -0.331   1.693  -0.201  0.00  0.00     0.298 HD
ENDROOT
TORSDOF 0
ENDMDL
