MODEL 1
REMARK minimizedAffinity -2.41459322
REMARK minimizedRMSD -1
REMARK  0 active torsions:
REMARK  status: ('A' for Active; 'I' for Inactive)
ROOT
ATOM      1  N1  IND d   1      -0.101   1.448   0.046  0.00  0.00    -0.196 N 
ATOM      2  C2  IND d   1      -1.247   0.934  -0.492  0.00  0.00     0.054 A 
ATOM      3  C3  IND d   1      -1.099  -0.386  -0.742  0.00  0.00    -0.031 A 
ATOM      4  C4  IND d   1       0.903  -1.929  -0.251  0.00  0.00     0.051 A 
ATOM      5  C5  IND d   1       2.192  -1.909   0.202  0.00  0.00    -0.031 A 
ATOM      6  C6  IND d   1       2.794  -0.746   0.638  0.00  0.00     0.015 A 
ATOM      7  C7  IND d   1       2.122   0.443   0.647  0.00  0.00    -0.016 A 
ATOM      8  C8  IND d   1       0.815   0.428   0.181  0.00  0.00    -0.047 A 
ATOM      9  C9  IND d   1       0.213  -0.740  -0.302  0.00  0.00    -0.096 A 
ATOM     10  HN1 IND d   1       0.026   2.270   0.264  0.00  0.00     0.298 HD
ENDROOT
TORSDOF 0
ENDMDL
