MODEL 1
REMARK minimizedAffinity -3.46138763
REMARK minimizedRMSD -1
REMARK  0 active torsions:
REMARK  status: ('A' for Active; 'I' for Inactive)
ROOT
ATOM      1  N1  IND d   1       1.582   1.519   0.164  0.00  0.00    -0.196 N 
ATOM      2  C2  IND d   1       2.249   0.368   0.477  0.00  0.00     0.054 A 
ATOM      3  C3  IND d   1       1.395  -0.680   0.500  0.00  0.00    -0.031 A 
ATOM      4  C4  IND d   1      -1.120  -0.752  -0.047  0.00  0.00     0.051 A 
ATOM      5  C5  IND d   1      -2.180   0.056  -0.351  0.00  0.00    -0.031 A 
ATOM      6  C6  IND d   1      -2.036   1.420  -0.505  0.00  0.00     0.015 A 
ATOM      7  C7  IND d   1      -0.820   2.028  -0.371  0.00  0.00    -0.016 A 
ATOM      8  C8  IND d   1       0.257   1.212  -0.055  0.00  0.00    -0.047 A 
ATOM      9  C9  IND d   1       0.110  -0.167   0.144  0.00  0.00    -0.096 A 
ATOM     10  HN1 IND d   1       1.931   2.303   0.112  0.00  0.00     0.298 HD
ENDROOT
TORSDOF 0
ENDMDL
