MODEL 1
REMARK minimizedAffinity -0.980389357
REMARK minimizedRMSD -1
REMARK  0 active torsions:
REMARK  status: ('A' for Active; 'I' for Inactive)
ROOT
ATOM      1  N1  IND d   1      -0.283  -0.034   0.309  0.00  0.00    -0.196 N 
ATOM      2  C2  IND d   1       0.020  -0.451  -0.957  0.00  0.00     0.054 A 
ATOM      3  C3  IND d   1      -1.080  -0.408  -1.742  0.00  0.00    -0.031 A 
ATOM      4  C4  IND d   1      -3.456   0.409  -1.184  0.00  0.00     0.051 A 
ATOM      5  C5  IND d   1      -4.228   0.849  -0.146  0.00  0.00    -0.031 A 
ATOM      6  C6  IND d   1      -3.713   1.023   1.122  0.00  0.00     0.015 A 
ATOM      7  C7  IND d   1      -2.398   0.774   1.398  0.00  0.00    -0.016 A 
ATOM      8  C8  IND d   1      -1.613   0.320   0.347  0.00  0.00    -0.047 A 
ATOM      9  C9  IND d   1      -2.141   0.100  -0.932  0.00  0.00    -0.096 A 
ATOM     10  HN1 IND d   1       0.266   0.000   0.970  0.00  0.00     0.298 HD
ENDROOT
TORSDOF 0
ENDMDL
