MODEL 1
REMARK minimizedAffinity 0.0133886216
REMARK minimizedRMSD -1
REMARK  0 active torsions:
REMARK  status: ('A' for Active; 'I' for Inactive)
ROOT
ATOM      1  N1  IND d   1      -0.254   0.956  -1.778  0.00  0.00    -0.196 N 
ATOM      2  C2  IND d   1      -1.592   0.714  -1.637  0.00  0.00     0.054 A 
ATOM      3  C3  IND d   1      -1.800  -0.558  -1.230  0.00  0.00    -0.031 A 
ATOM      4  C4  IND d   1      -0.086  -2.385  -0.636  0.00  0.00     0.051 A 
ATOM      5  C5  IND d   1       1.255  -2.647  -0.643  0.00  0.00    -0.031 A 
ATOM      6  C6  IND d   1       2.181  -1.701  -1.034  0.00  0.00     0.015 A 
ATOM      7  C7  IND d   1       1.798  -0.449  -1.423  0.00  0.00    -0.016 A 
ATOM      8  C8  IND d   1       0.437  -0.182  -1.424  0.00  0.00    -0.047 A 
ATOM      9  C9  IND d   1      -0.510  -1.151  -1.069  0.00  0.00    -0.096 A 
ATOM     10  HN1 IND d   1       0.097   1.695  -2.043  0.00  0.00     0.298 HD
ENDROOT
TORSDOF 0
ENDMDL
