MODEL 1
REMARK minimizedAffinity 3.27740073
REMARK minimizedRMSD -1
REMARK  0 active torsions:
REMARK  status: ('A' for Active; 'I' for Inactive)
ROOT
ATOM      1  C   UNL d   1      -1.587  -2.359  -4.628  0.00  0.00     0.078 C 
ATOM      2  C1  UNL d   1      -2.165  -2.528  -3.254  0.00  0.00    -0.077 A 
ATOM      3  C2  UNL d   1      -3.278  -3.348  -3.035  0.00  0.00    -0.001 A 
ATOM      4  C3  UNL d   1      -3.811  -3.488  -1.753  0.00  0.00     0.003 A 
ATOM      5  C4  UNL d   1      -3.237  -2.810  -0.679  0.00  0.00    -0.005 A 
ATOM      6  C5  UNL d   1      -2.130  -1.989  -0.887  0.00  0.00     0.003 A 
ATOM      7  C6  UNL d   1      -1.596  -1.848  -2.169  0.00  0.00    -0.001 A 
ENDROOT
TORSDOF 0
ENDMDL
