MODEL 1
REMARK minimizedAffinity 1.59232759
REMARK minimizedRMSD -1
REMARK  0 active torsions:
REMARK  status: ('A' for Active; 'I' for Inactive)
ROOT
ATOM      1  C   UNL d   1       5.991   3.065   0.945  0.00  0.00     0.078 C 
ATOM      2  C1  UNL d   1       5.305   1.745   1.133  0.00  0.00    -0.077 A 
ATOM      3  C2  UNL d   1       3.970   1.565   0.752  0.00  0.00    -0.001 A 
ATOM      4  C3  UNL d   1       3.342   0.333   0.943  0.00  0.00     0.003 A 
ATOM      5  C4  UNL d   1       4.040  -0.727   1.516  0.00  0.00    -0.005 A 
ATOM      6  C5  UNL d   1       5.369  -0.557   1.901  0.00  0.00     0.003 A 
ATOM      7  C6  UNL d   1       5.999   0.674   1.711  0.00  0.00    -0.001 A 
ENDROOT
TORSDOF 0
ENDMDL
