MODEL 1
REMARK minimizedAffinity -0.596395969
REMARK minimizedRMSD -1
REMARK  0 active torsions:
REMARK  status: ('A' for Active; 'I' for Inactive)
ROOT
ATOM      1  C   UNL d   1       2.166   0.001   1.110  0.00  0.00     0.078 C 
ATOM      2  C1  UNL d   1       3.508   0.671   1.138  0.00  0.00    -0.077 A 
ATOM      3  C2  UNL d   1       4.588   0.094   1.818  0.00  0.00    -0.001 A 
ATOM      4  C3  UNL d   1       5.828   0.734   1.844  0.00  0.00     0.003 A 
ATOM      5  C4  UNL d   1       6.000   1.954   1.193  0.00  0.00    -0.005 A 
ATOM      6  C5  UNL d   1       4.930   2.537   0.516  0.00  0.00     0.003 A 
ATOM      7  C6  UNL d   1       3.689   1.899   0.489  0.00  0.00    -0.001 A 
ENDROOT
TORSDOF 0
ENDMDL
