MODEL 1
REMARK minimizedAffinity 13.4089241
REMARK minimizedRMSD -1
REMARK  0 active torsions:
REMARK  status: ('A' for Active; 'I' for Inactive)
ROOT
ATOM      1  C   UNL d   1       5.472  -1.606   4.731  0.00  0.00     0.078 C 
ATOM      2  C1  UNL d   1       4.764  -1.204   3.472  0.00  0.00    -0.077 A 
ATOM      3  C2  UNL d   1       3.391  -0.928   3.472  0.00  0.00    -0.001 A 
ATOM      4  C3  UNL d   1       2.744  -0.565   2.290  0.00  0.00     0.003 A 
ATOM      5  C4  UNL d   1       3.461  -0.476   1.099  0.00  0.00    -0.005 A 
ATOM      6  C5  UNL d   1       4.827  -0.750   1.088  0.00  0.00     0.003 A 
ATOM      7  C6  UNL d   1       5.476  -1.114   2.269  0.00  0.00    -0.001 A 
ENDROOT
TORSDOF 0
ENDMDL
