MODEL 1
REMARK minimizedAffinity 0.31329751
REMARK minimizedRMSD -1
REMARK  0 active torsions:
REMARK  status: ('A' for Active; 'I' for Inactive)
ROOT
ATOM      1  C   UNL d   1       4.482   2.762  -3.492  0.00  0.00     0.078 C 
ATOM      2  C1  UNL d   1       3.789   3.885  -4.205  0.00  0.00    -0.077 A 
ATOM      3  C2  UNL d   1       2.393   3.923  -4.305  0.00  0.00    -0.001 A 
ATOM      4  C3  UNL d   1       1.762   4.970  -4.979  0.00  0.00     0.003 A 
ATOM      5  C4  UNL d   1       2.519   5.985  -5.560  0.00  0.00    -0.005 A 
ATOM      6  C5  UNL d   1       3.909   5.955  -5.468  0.00  0.00     0.003 A 
ATOM      7  C6  UNL d   1       4.542   4.909  -4.793  0.00  0.00    -0.001 A 
ENDROOT
TORSDOF 0
ENDMDL
