MODEL 1
REMARK minimizedAffinity 4.5140295
REMARK minimizedRMSD -1
REMARK  0 active torsions:
REMARK  status: ('A' for Active; 'I' for Inactive)
ROOT
ATOM      1  C   UNL d   1       3.612   0.129   1.039  0.00  0.00     0.078 C 
ATOM      2  C1  UNL d   1       2.505   1.061   1.432  0.00  0.00    -0.077 A 
ATOM      3  C2  UNL d   1       2.612   2.440   1.215  0.00  0.00    -0.001 A 
ATOM      4  C3  UNL d   1       1.578   3.297   1.595  0.00  0.00     0.003 A 
ATOM      5  C4  UNL d   1       0.429   2.784   2.195  0.00  0.00    -0.005 A 
ATOM      6  C5  UNL d   1       0.315   1.413   2.417  0.00  0.00     0.003 A 
ATOM      7  C6  UNL d   1       1.348   0.555   2.038  0.00  0.00    -0.001 A 
ENDROOT
TORSDOF 0
ENDMDL
