MODEL 1
REMARK minimizedAffinity 2.98058295
REMARK minimizedRMSD -1
REMARK  0 active torsions:
REMARK  status: ('A' for Active; 'I' for Inactive)
ROOT
ATOM      1  C   UNL d   1       3.978   5.311   1.971  0.00  0.00     0.078 C 
ATOM      2  C1  UNL d   1       4.498   5.155   3.369  0.00  0.00    -0.077 A 
ATOM      3  C2  UNL d   1       4.063   5.997   4.399  0.00  0.00    -0.001 A 
ATOM      4  C3  UNL d   1       4.564   5.846   5.693  0.00  0.00     0.003 A 
ATOM      5  C4  UNL d   1       5.503   4.854   5.969  0.00  0.00    -0.005 A 
ATOM      6  C5  UNL d   1       5.944   4.013   4.950  0.00  0.00     0.003 A 
ATOM      7  C6  UNL d   1       5.444   4.162   3.655  0.00  0.00    -0.001 A 
ENDROOT
TORSDOF 0
ENDMDL
