MODEL 1
REMARK minimizedAffinity 11.6505327
REMARK minimizedRMSD -1
REMARK  0 active torsions:
REMARK  status: ('A' for Active; 'I' for Inactive)
ROOT
ATOM      1  C   UNL d   1      -5.619  -2.883   5.999  0.00  0.00     0.078 C 
ATOM      2  C1  UNL d   1      -5.131  -1.621   5.352  0.00  0.00    -0.077 A 
ATOM      3  C2  UNL d   1      -4.487  -1.651   4.109  0.00  0.00    -0.001 A 
ATOM      4  C3  UNL d   1      -4.029  -0.470   3.523  0.00  0.00     0.003 A 
ATOM      5  C4  UNL d   1      -4.208   0.750   4.174  0.00  0.00    -0.005 A 
ATOM      6  C5  UNL d   1      -4.845   0.789   5.412  0.00  0.00     0.003 A 
ATOM      7  C6  UNL d   1      -5.304  -0.391   6.000  0.00  0.00    -0.001 A 
ENDROOT
TORSDOF 0
ENDMDL
