MODEL 1
REMARK minimizedAffinity 4.10582352
REMARK minimizedRMSD -1
REMARK  0 active torsions:
REMARK  status: ('A' for Active; 'I' for Inactive)
ROOT
ATOM      1  C   UNL d   1       2.188   4.505  -4.822  0.00  0.00     0.078 C 
ATOM      2  C1  UNL d   1       3.462   3.816  -4.435  0.00  0.00    -0.077 A 
ATOM      3  C2  UNL d   1       3.539   3.043  -3.270  0.00  0.00    -0.001 A 
ATOM      4  C3  UNL d   1       4.734   2.415  -2.917  0.00  0.00     0.003 A 
ATOM      5  C4  UNL d   1       5.862   2.554  -3.724  0.00  0.00    -0.005 A 
ATOM      6  C5  UNL d   1       5.796   3.323  -4.884  0.00  0.00     0.003 A 
ATOM      7  C6  UNL d   1       4.602   3.952  -5.238  0.00  0.00    -0.001 A 
ENDROOT
TORSDOF 0
ENDMDL
