MODEL 1
REMARK minimizedAffinity -3.71087217
REMARK minimizedRMSD -1
REMARK  0 active torsions:
REMARK  status: ('A' for Active; 'I' for Inactive)
ROOT
ATOM      1  C   UNL d   1       4.499   2.404  -2.717  0.00  0.00     0.078 C 
ATOM      2  C1  UNL d   1       4.634   3.394  -3.835  0.00  0.00    -0.077 A 
ATOM      3  C2  UNL d   1       5.890   3.866  -4.233  0.00  0.00    -0.001 A 
ATOM      4  C3  UNL d   1       6.000   4.794  -5.270  0.00  0.00     0.003 A 
ATOM      5  C4  UNL d   1       4.856   5.260  -5.915  0.00  0.00    -0.005 A 
ATOM      6  C5  UNL d   1       3.601   4.798  -5.525  0.00  0.00     0.003 A 
ATOM      7  C6  UNL d   1       3.490   3.869  -4.488  0.00  0.00    -0.001 A 
ENDROOT
TORSDOF 0
ENDMDL
