MODEL 1
REMARK minimizedAffinity 9.10474014
REMARK minimizedRMSD -1
REMARK  0 active torsions:
REMARK  status: ('A' for Active; 'I' for Inactive)
ROOT
ATOM      1  C   UNL d   1      -1.738  -5.853   2.074  0.00  0.00     0.078 C 
ATOM      2  C1  UNL d   1      -1.475  -4.379   1.988  0.00  0.00    -0.077 A 
ATOM      3  C2  UNL d   1      -1.080  -3.650   3.116  0.00  0.00    -0.001 A 
ATOM      4  C3  UNL d   1      -0.848  -2.276   3.024  0.00  0.00     0.003 A 
ATOM      5  C4  UNL d   1      -1.011  -1.620   1.805  0.00  0.00    -0.005 A 
ATOM      6  C5  UNL d   1      -1.407  -2.337   0.678  0.00  0.00     0.003 A 
ATOM      7  C6  UNL d   1      -1.638  -3.710   0.768  0.00  0.00    -0.001 A 
ENDROOT
TORSDOF 0
ENDMDL
