MODEL 1
REMARK minimizedAffinity 4.10780811
REMARK minimizedRMSD -1
REMARK  0 active torsions:
REMARK  status: ('A' for Active; 'I' for Inactive)
ROOT
ATOM      1  C   UNL d   1       2.248   2.354  -2.988  0.00  0.00     0.078 C 
ATOM      2  C1  UNL d   1       2.363   1.747  -1.621  0.00  0.00    -0.077 A 
ATOM      3  C2  UNL d   1       1.441   2.058  -0.614  0.00  0.00    -0.001 A 
ATOM      4  C3  UNL d   1       1.565   1.493   0.656  0.00  0.00     0.003 A 
ATOM      5  C4  UNL d   1       2.610   0.614   0.931  0.00  0.00    -0.005 A 
ATOM      6  C5  UNL d   1       3.534   0.300  -0.064  0.00  0.00     0.003 A 
ATOM      7  C6  UNL d   1       3.411   0.864  -1.334  0.00  0.00    -0.001 A 
ENDROOT
TORSDOF 0
ENDMDL
