MODEL 1
REMARK minimizedAffinity 5.86069298
REMARK minimizedRMSD -1
REMARK  0 active torsions:
REMARK  status: ('A' for Active; 'I' for Inactive)
ROOT
ATOM      1  C   UNL d   1      -3.850   2.218   3.379  0.00  0.00     0.078 C 
ATOM      2  C1  UNL d   1      -4.506   3.540   3.645  0.00  0.00    -0.077 A 
ATOM      3  C2  UNL d   1      -4.276   4.232   4.840  0.00  0.00    -0.001 A 
ATOM      4  C3  UNL d   1      -4.901   5.457   5.078  0.00  0.00     0.003 A 
ATOM      5  C4  UNL d   1      -5.762   6.000   4.127  0.00  0.00    -0.005 A 
ATOM      6  C5  UNL d   1      -6.000   5.317   2.936  0.00  0.00     0.003 A 
ATOM      7  C6  UNL d   1      -5.375   4.092   2.695  0.00  0.00    -0.001 A 
ENDROOT
TORSDOF 0
ENDMDL
