MODEL 1
REMARK minimizedAffinity -1.7545712
REMARK minimizedRMSD -1
REMARK  0 active torsions:
REMARK  status: ('A' for Active; 'I' for Inactive)
ROOT
ATOM      1  C   UNL d   1       2.184   3.776  -5.972  0.00  0.00     0.078 C 
ATOM      2  C1  UNL d   1       3.508   3.273  -5.480  0.00  0.00    -0.077 A 
ATOM      3  C2  UNL d   1       3.582   2.284  -4.492  0.00  0.00    -0.001 A 
ATOM      4  C3  UNL d   1       4.821   1.832  -4.036  0.00  0.00     0.003 A 
ATOM      5  C4  UNL d   1       5.997   2.366  -4.561  0.00  0.00    -0.005 A 
ATOM      6  C5  UNL d   1       5.934   3.353  -5.542  0.00  0.00     0.003 A 
ATOM      7  C6  UNL d   1       4.695   3.805  -6.000  0.00  0.00    -0.001 A 
ENDROOT
TORSDOF 0
ENDMDL
