MODEL 1
REMARK minimizedAffinity 0.756364882
REMARK minimizedRMSD -1
REMARK  0 active torsions:
REMARK  status: ('A' for Active; 'I' for Inactive)
ROOT
ATOM      1  C   UNL d   1       5.966   5.623  -5.998  0.00  0.00     0.078 C 
ATOM      2  C1  UNL d   1       5.963   4.568  -4.933  0.00  0.00    -0.077 A 
ATOM      3  C2  UNL d   1       5.986   4.913  -3.576  0.00  0.00    -0.001 A 
ATOM      4  C3  UNL d   1       5.993   3.920  -2.595  0.00  0.00     0.003 A 
ATOM      5  C4  UNL d   1       5.979   2.575  -2.961  0.00  0.00    -0.005 A 
ATOM      6  C5  UNL d   1       5.959   2.222  -4.309  0.00  0.00     0.003 A 
ATOM      7  C6  UNL d   1       5.952   3.214  -5.291  0.00  0.00    -0.001 A 
ENDROOT
TORSDOF 0
ENDMDL
