MODEL 1
REMARK minimizedAffinity 2.71861124
REMARK minimizedRMSD -1
REMARK  0 active torsions:
REMARK  status: ('A' for Active; 'I' for Inactive)
ROOT
ATOM      1  C   UNL d   1       5.934   4.482  -5.998  0.00  0.00     0.078 C 
ATOM      2  C1  UNL d   1       5.296   3.527  -5.034  0.00  0.00    -0.077 A 
ATOM      3  C2  UNL d   1       3.994   3.055  -5.241  0.00  0.00    -0.001 A 
ATOM      4  C3  UNL d   1       3.409   2.174  -4.330  0.00  0.00     0.003 A 
ATOM      5  C4  UNL d   1       4.118   1.759  -3.205  0.00  0.00    -0.005 A 
ATOM      6  C5  UNL d   1       5.413   2.225  -2.988  0.00  0.00     0.003 A 
ATOM      7  C6  UNL d   1       6.000   3.106  -3.898  0.00  0.00    -0.001 A 
ENDROOT
TORSDOF 0
ENDMDL
