MODEL 1
REMARK minimizedAffinity -2.98681974
REMARK minimizedRMSD -1
REMARK  0 active torsions:
REMARK  status: ('A' for Active; 'I' for Inactive)
ROOT
ATOM      1  C   UNL d   1       4.875   2.625  -3.369  0.00  0.00     0.078 C 
ATOM      2  C1  UNL d   1       4.100   3.693  -4.081  0.00  0.00    -0.077 A 
ATOM      3  C2  UNL d   1       2.881   3.403  -4.707  0.00  0.00    -0.001 A 
ATOM      4  C3  UNL d   1       2.175   4.405  -5.374  0.00  0.00     0.003 A 
ATOM      5  C4  UNL d   1       2.680   5.703  -5.424  0.00  0.00    -0.005 A 
ATOM      6  C5  UNL d   1       3.893   6.000  -4.806  0.00  0.00     0.003 A 
ATOM      7  C6  UNL d   1       4.601   4.999  -4.138  0.00  0.00    -0.001 A 
ENDROOT
TORSDOF 0
ENDMDL
