MODEL 1
REMARK minimizedAffinity 4.84769964
REMARK minimizedRMSD -1
REMARK  0 active torsions:
REMARK  status: ('A' for Active; 'I' for Inactive)
ROOT
ATOM      1  C   UNL d   1       5.421   2.928  -2.504  0.00  0.00     0.020 A 
ATOM      2  C1  UNL d   1       4.052   3.194  -2.498  0.00  0.00     0.020 A 
ATOM      3  C2  UNL d   1       3.261   2.811  -3.583  0.00  0.00     0.034 A 
ATOM      4  C3  UNL d   1       3.839   2.159  -4.679  0.00  0.00     0.017 A 
ATOM      5  C4  UNL d   1       5.213   1.892  -4.684  0.00  0.00     0.017 A 
ATOM      6  C5  UNL d   1       6.000   2.278  -3.594  0.00  0.00     0.034 A 
ATOM      7 Cl   UNL d   1       5.997   1.092  -6.000  0.00  0.00    -0.070 Cl
ATOM      8 Cl1  UNL d   1       2.801   1.713  -5.987  0.00  0.00    -0.070 Cl
ENDROOT
TORSDOF 0
ENDMDL
