MODEL 1
REMARK minimizedAffinity -0.316055924
REMARK minimizedRMSD -1
REMARK  0 active torsions:
REMARK  status: ('A' for Active; 'I' for Inactive)
ROOT
ATOM      1  C   UNL d   1      -2.221   2.029  -5.999  0.00  0.00     0.020 A 
ATOM      2  C1  UNL d   1      -0.827   2.001  -5.998  0.00  0.00     0.020 A 
ATOM      3  C2  UNL d   1      -0.104   3.195  -5.997  0.00  0.00     0.034 A 
ATOM      4  C3  UNL d   1      -0.774   4.424  -5.997  0.00  0.00     0.017 A 
ATOM      5  C4  UNL d   1      -2.174   4.452  -5.998  0.00  0.00     0.017 A 
ATOM      6  C5  UNL d   1      -2.893   3.253  -6.000  0.00  0.00     0.034 A 
ATOM      7 Cl   UNL d   1      -3.071   5.929  -5.999  0.00  0.00    -0.070 Cl
ATOM      8 Cl1  UNL d   1       0.183   5.862  -5.995  0.00  0.00    -0.070 Cl
ENDROOT
TORSDOF 0
ENDMDL
