MODEL 1
REMARK minimizedAffinity -1.73169804
REMARK minimizedRMSD -1
REMARK  0 active torsions:
REMARK  status: ('A' for Active; 'I' for Inactive)
ROOT
ATOM      1  C   UNL d   1       0.698   2.444  -5.997  0.00  0.00     0.020 A 
ATOM      2  C1  UNL d   1       1.184   3.751  -5.995  0.00  0.00     0.020 A 
ATOM      3  C2  UNL d   1       0.294   4.827  -5.994  0.00  0.00     0.034 A 
ATOM      4  C3  UNL d   1      -1.087   4.598  -5.995  0.00  0.00     0.017 A 
ATOM      5  C4  UNL d   1      -1.574   3.286  -5.997  0.00  0.00     0.017 A 
ATOM      6  C5  UNL d   1      -0.678   2.212  -5.998  0.00  0.00     0.034 A 
ATOM      7 Cl   UNL d   1      -3.264   2.925  -5.998  0.00  0.00    -0.070 Cl
ATOM      8 Cl1  UNL d   1      -2.129   5.976  -5.993  0.00  0.00    -0.070 Cl
ENDROOT
TORSDOF 0
ENDMDL
