MODEL 1
REMARK minimizedAffinity -1.31608427
REMARK minimizedRMSD -1
REMARK  0 active torsions:
REMARK  status: ('A' for Active; 'I' for Inactive)
ROOT
ATOM      1  C   UNL d   1      -3.029   3.223  -5.996  0.00  0.00     0.020 A 
ATOM      2  C1  UNL d   1      -2.954   4.615  -5.997  0.00  0.00     0.020 A 
ATOM      3  C2  UNL d   1      -1.708   5.247  -5.998  0.00  0.00     0.034 A 
ATOM      4  C3  UNL d   1      -0.533   4.486  -5.998  0.00  0.00     0.017 A 
ATOM      5  C4  UNL d   1      -0.610   3.089  -5.997  0.00  0.00     0.017 A 
ATOM      6  C5  UNL d   1      -1.860   2.462  -5.996  0.00  0.00     0.034 A 
ATOM      7 Cl   UNL d   1       0.796   2.084  -5.997  0.00  0.00    -0.070 Cl
ATOM      8 Cl1  UNL d   1       0.972   5.334  -5.999  0.00  0.00    -0.070 Cl
ENDROOT
TORSDOF 0
ENDMDL
