MODEL 1
REMARK minimizedAffinity -2.00783181
REMARK minimizedRMSD -1
REMARK  0 active torsions:
REMARK  status: ('A' for Active; 'I' for Inactive)
ROOT
ATOM      1  C   UNL d   1      -2.876   5.183  -5.998  0.00  0.00     0.020 A 
ATOM      2  C1  UNL d   1      -3.026   3.797  -5.996  0.00  0.00     0.020 A 
ATOM      3  C2  UNL d   1      -1.898   2.974  -5.995  0.00  0.00     0.034 A 
ATOM      4  C3  UNL d   1      -0.616   3.535  -5.997  0.00  0.00     0.017 A 
ATOM      5  C4  UNL d   1      -0.467   4.927  -5.999  0.00  0.00     0.017 A 
ATOM      6  C5  UNL d   1      -1.600   5.747  -5.999  0.00  0.00     0.034 A 
ATOM      7 Cl   UNL d   1       1.082   5.694  -6.000  0.00  0.00    -0.070 Cl
ATOM      8 Cl1  UNL d   1       0.734   2.457  -5.995  0.00  0.00    -0.070 Cl
ENDROOT
TORSDOF 0
ENDMDL
