MODEL 1
REMARK minimizedAffinity -2.23999786
REMARK minimizedRMSD -1
REMARK  0 active torsions:
REMARK  status: ('A' for Active; 'I' for Inactive)
ROOT
ATOM      1  C   UNL d   1      -3.715   3.962  -5.857  0.00  0.00     0.020 A 
ATOM      2  C1  UNL d   1      -3.613   5.353  -5.857  0.00  0.00     0.020 A 
ATOM      3  C2  UNL d   1      -2.356   5.960  -5.901  0.00  0.00     0.034 A 
ATOM      4  C3  UNL d   1      -1.197   5.177  -5.946  0.00  0.00     0.017 A 
ATOM      5  C4  UNL d   1      -1.301   3.781  -5.946  0.00  0.00     0.017 A 
ATOM      6  C5  UNL d   1      -2.562   3.178  -5.902  0.00  0.00     0.034 A 
ATOM      7 Cl   UNL d   1       0.084   2.748  -6.000  0.00  0.00    -0.070 Cl
ATOM      8 Cl1  UNL d   1       0.324   5.995  -6.000  0.00  0.00    -0.070 Cl
ENDROOT
TORSDOF 0
ENDMDL
