MODEL 1
REMARK minimizedAffinity 0.543502629
REMARK minimizedRMSD -1
REMARK  0 active torsions:
REMARK  status: ('A' for Active; 'I' for Inactive)
ROOT
ATOM      1  C   UNL d   1       0.220   2.461  -5.999  0.00  0.00     0.020 A 
ATOM      2  C1  UNL d   1       0.708   3.767  -6.000  0.00  0.00     0.020 A 
ATOM      3  C2  UNL d   1      -0.181   4.844  -6.000  0.00  0.00     0.034 A 
ATOM      4  C3  UNL d   1      -1.562   4.618  -6.000  0.00  0.00     0.017 A 
ATOM      5  C4  UNL d   1      -2.051   3.306  -6.000  0.00  0.00     0.017 A 
ATOM      6  C5  UNL d   1      -1.157   2.231  -5.999  0.00  0.00     0.034 A 
ATOM      7 Cl   UNL d   1      -3.742   2.947  -6.000  0.00  0.00    -0.070 Cl
ATOM      8 Cl1  UNL d   1      -2.603   5.997  -6.000  0.00  0.00    -0.070 Cl
ENDROOT
TORSDOF 0
ENDMDL
