MODEL 1
REMARK minimizedAffinity -2.1532042
REMARK minimizedRMSD -1
REMARK  0 active torsions:
REMARK  status: ('A' for Active; 'I' for Inactive)
ROOT
ATOM      1  C   UNL d   1      -3.605   4.015  -5.983  0.00  0.00     0.020 A 
ATOM      2  C1  UNL d   1      -3.484   5.404  -5.983  0.00  0.00     0.020 A 
ATOM      3  C2  UNL d   1      -2.218   5.994  -5.988  0.00  0.00     0.034 A 
ATOM      4  C3  UNL d   1      -1.069   5.196  -5.993  0.00  0.00     0.017 A 
ATOM      5  C4  UNL d   1      -1.192   3.801  -5.993  0.00  0.00     0.017 A 
ATOM      6  C5  UNL d   1      -2.461   3.216  -5.988  0.00  0.00     0.034 A 
ATOM      7 Cl   UNL d   1       0.180   2.750  -5.999  0.00  0.00    -0.070 Cl
ATOM      8 Cl1  UNL d   1       0.464   5.993  -6.000  0.00  0.00    -0.070 Cl
ENDROOT
TORSDOF 0
ENDMDL
