MODEL 1
REMARK minimizedAffinity -2.49921298
REMARK minimizedRMSD -1
REMARK  0 active torsions:
REMARK  status: ('A' for Active; 'I' for Inactive)
ROOT
ATOM      1  C   UNL d   1       1.555   4.369  -5.978  0.00  0.00     0.020 A 
ATOM      2  C1  UNL d   1       1.298   2.998  -5.982  0.00  0.00     0.020 A 
ATOM      3  C2  UNL d   1      -0.019   2.535  -5.988  0.00  0.00     0.034 A 
ATOM      4  C3  UNL d   1      -1.085   3.442  -5.991  0.00  0.00     0.017 A 
ATOM      5  C4  UNL d   1      -0.826   4.817  -5.987  0.00  0.00     0.017 A 
ATOM      6  C5  UNL d   1       0.494   5.276  -5.981  0.00  0.00     0.034 A 
ATOM      7 Cl   UNL d   1      -2.089   5.998  -5.991  0.00  0.00    -0.070 Cl
ATOM      8 Cl1  UNL d   1      -2.688   2.798  -6.000  0.00  0.00    -0.070 Cl
ENDROOT
TORSDOF 0
ENDMDL
