MODEL 1
REMARK minimizedAffinity 0.922620356
REMARK minimizedRMSD -1
REMARK  0 active torsions:
REMARK  status: ('A' for Active; 'I' for Inactive)
ROOT
ATOM      1  C   UNL d   1      -2.576   5.203  -5.999  0.00  0.00     0.020 A 
ATOM      2  C1  UNL d   1      -1.422   5.986  -5.999  0.00  0.00     0.020 A 
ATOM      3  C2  UNL d   1      -0.166   5.377  -5.999  0.00  0.00     0.034 A 
ATOM      4  C3  UNL d   1      -0.060   3.981  -5.999  0.00  0.00     0.017 A 
ATOM      5  C4  UNL d   1      -1.219   3.196  -5.999  0.00  0.00     0.017 A 
ATOM      6  C5  UNL d   1      -2.475   3.812  -5.999  0.00  0.00     0.034 A 
ATOM      7 Cl   UNL d   1      -1.169   1.469  -5.999  0.00  0.00    -0.070 Cl
ATOM      8 Cl1  UNL d   1       1.526   3.295  -5.999  0.00  0.00    -0.070 Cl
ENDROOT
TORSDOF 0
ENDMDL
