MODEL 1
REMARK minimizedAffinity 4.39062738
REMARK minimizedRMSD -1
REMARK  0 active torsions:
REMARK  status: ('A' for Active; 'I' for Inactive)
ROOT
ATOM      1  C   UNL d   1       0.748   3.473  -5.998  0.00  0.00     0.020 A 
ATOM      2  C1  UNL d   1       0.142   2.218  -5.999  0.00  0.00     0.020 A 
ATOM      3  C2  UNL d   1      -1.251   2.115  -5.990  0.00  0.00     0.034 A 
ATOM      4  C3  UNL d   1      -2.042   3.270  -5.980  0.00  0.00     0.017 A 
ATOM      5  C4  UNL d   1      -1.432   4.530  -5.979  0.00  0.00     0.017 A 
ATOM      6  C5  UNL d   1      -0.037   4.627  -5.989  0.00  0.00     0.034 A 
ATOM      7 Cl   UNL d   1      -2.342   5.999  -5.968  0.00  0.00    -0.070 Cl
ATOM      8 Cl1  UNL d   1      -3.758   3.068  -5.969  0.00  0.00    -0.070 Cl
ENDROOT
TORSDOF 0
ENDMDL
