MODEL 1
REMARK minimizedAffinity -2.5315001
REMARK minimizedRMSD -1
REMARK  0 active torsions:
REMARK  status: ('A' for Active; 'I' for Inactive)
ROOT
ATOM      1  C   UNL d   1      -2.876   5.199  -5.997  0.00  0.00     0.020 A 
ATOM      2  C1  UNL d   1      -3.075   3.819  -5.996  0.00  0.00     0.020 A 
ATOM      3  C2  UNL d   1      -1.978   2.955  -5.996  0.00  0.00     0.034 A 
ATOM      4  C3  UNL d   1      -0.677   3.470  -5.997  0.00  0.00     0.017 A 
ATOM      5  C4  UNL d   1      -0.478   4.855  -5.998  0.00  0.00     0.017 A 
ATOM      6  C5  UNL d   1      -1.580   5.716  -5.998  0.00  0.00     0.034 A 
ATOM      7 Cl   UNL d   1       1.098   5.565  -6.000  0.00  0.00    -0.070 Cl
ATOM      8 Cl1  UNL d   1       0.633   2.343  -5.997  0.00  0.00    -0.070 Cl
ENDROOT
TORSDOF 0
ENDMDL
