MODEL 1
REMARK minimizedAffinity 1.45477927
REMARK minimizedRMSD -1
REMARK  0 active torsions:
REMARK  status: ('A' for Active; 'I' for Inactive)
ROOT
ATOM      1  C   UNL d   1      -3.796   5.547  -5.987  0.00  0.00     0.020 A 
ATOM      2  C1  UNL d   1      -4.064   4.179  -5.985  0.00  0.00     0.020 A 
ATOM      3  C2  UNL d   1      -3.011   3.261  -5.988  0.00  0.00     0.034 A 
ATOM      4  C3  UNL d   1      -1.686   3.711  -5.993  0.00  0.00     0.017 A 
ATOM      5  C4  UNL d   1      -1.418   5.084  -5.994  0.00  0.00     0.017 A 
ATOM      6  C5  UNL d   1      -2.476   5.999  -5.991  0.00  0.00     0.034 A 
ATOM      7 Cl   UNL d   1       0.191   5.715  -6.000  0.00  0.00    -0.070 Cl
ATOM      8 Cl1  UNL d   1      -0.434   2.520  -5.996  0.00  0.00    -0.070 Cl
ENDROOT
TORSDOF 0
ENDMDL
