MODEL 1
REMARK minimizedAffinity -1.25811541
REMARK minimizedRMSD -1
REMARK  0 active torsions:
REMARK  status: ('A' for Active; 'I' for Inactive)
ROOT
ATOM      1  C   UNL d   1      -4.076   4.480  -5.874  0.00  0.00     0.020 A 
ATOM      2  C1  UNL d   1      -3.576   5.781  -5.879  0.00  0.00     0.020 A 
ATOM      3  C2  UNL d   1      -2.197   5.999  -5.918  0.00  0.00     0.034 A 
ATOM      4  C3  UNL d   1      -1.314   4.914  -5.952  0.00  0.00     0.017 A 
ATOM      5  C4  UNL d   1      -1.817   3.608  -5.948  0.00  0.00     0.017 A 
ATOM      6  C5  UNL d   1      -3.198   3.395  -5.909  0.00  0.00     0.034 A 
ATOM      7 Cl   UNL d   1      -0.789   2.219  -5.989  0.00  0.00    -0.070 Cl
ATOM      8 Cl1  UNL d   1       0.379   5.257  -6.000  0.00  0.00    -0.070 Cl
ENDROOT
TORSDOF 0
ENDMDL
