MODEL 1
REMARK minimizedAffinity -0.755206287
REMARK minimizedRMSD -1
REMARK  0 active torsions:
REMARK  status: ('A' for Active; 'I' for Inactive)
ROOT
ATOM      1  C   UNL d   1      -3.690   3.876  -5.993  0.00  0.00     0.020 A 
ATOM      2  C1  UNL d   1      -3.619   5.269  -5.993  0.00  0.00     0.020 A 
ATOM      3  C2  UNL d   1      -2.375   5.904  -5.995  0.00  0.00     0.034 A 
ATOM      4  C3  UNL d   1      -1.198   5.147  -5.997  0.00  0.00     0.017 A 
ATOM      5  C4  UNL d   1      -1.271   3.749  -5.997  0.00  0.00     0.017 A 
ATOM      6  C5  UNL d   1      -2.519   3.118  -5.995  0.00  0.00     0.034 A 
ATOM      7 Cl   UNL d   1       0.138   2.747  -5.999  0.00  0.00    -0.070 Cl
ATOM      8 Cl1  UNL d   1       0.305   5.998  -6.000  0.00  0.00    -0.070 Cl
ENDROOT
TORSDOF 0
ENDMDL
