MODEL 1
REMARK minimizedAffinity 0.827436805
REMARK minimizedRMSD -1
REMARK  0 active torsions:
REMARK  status: ('A' for Active; 'I' for Inactive)
ROOT
ATOM      1  C   UNL d   1      -4.512   4.186  -5.916  0.00  0.00     0.020 A 
ATOM      2  C1  UNL d   1      -4.237   5.553  -5.909  0.00  0.00     0.020 A 
ATOM      3  C2  UNL d   1      -2.914   6.000  -5.929  0.00  0.00     0.034 A 
ATOM      4  C3  UNL d   1      -1.861   5.079  -5.957  0.00  0.00     0.017 A 
ATOM      5  C4  UNL d   1      -2.137   3.707  -5.965  0.00  0.00     0.017 A 
ATOM      6  C5  UNL d   1      -3.464   3.265  -5.944  0.00  0.00     0.034 A 
ATOM      7 Cl   UNL d   1      -0.891   2.510  -5.999  0.00  0.00    -0.070 Cl
ATOM      8 Cl1  UNL d   1      -0.249   5.702  -5.982  0.00  0.00    -0.070 Cl
ENDROOT
TORSDOF 0
ENDMDL
