MODEL 1
REMARK minimizedAffinity -3.85775614
REMARK minimizedRMSD -1
REMARK  1 active torsions:
REMARK  status: ('A' for Active; 'I' for Inactive)
REMARK    1  A    between atoms: C1_2  and  C2_3 
ROOT
ATOM      1  C2  UNL d   1       0.185  -0.422   0.619  0.00  0.00    -0.077 A 
ATOM      2  C3  UNL d   1      -0.723   0.020  -0.352  0.00  0.00     0.002 A 
ATOM      3  C4  UNL d   1      -0.463  -0.186  -1.709  0.00  0.00     0.002 A 
ATOM      4  C5  UNL d   1       0.704  -0.837  -2.105  0.00  0.00    -0.004 A 
ATOM      5  C6  UNL d   1       1.615  -1.278  -1.146  0.00  0.00     0.002 A 
ATOM      6  C7  UNL d   1       1.356  -1.073   0.210  0.00  0.00     0.002 A 
ENDROOT
BRANCH   1   7
ATOM      7  C1  UNL d   1      -0.117  -0.246   2.084  0.00  0.00     0.055 C 
ATOM      8  C   UNL d   1       0.676  -1.226   2.936  0.00  0.00     0.019 C 
ENDBRANCH   1   7
TORSDOF 1
ENDMDL
