MODEL 1
REMARK minimizedAffinity -4.47120714
REMARK minimizedRMSD -1
REMARK  1 active torsions:
REMARK  status: ('A' for Active; 'I' for Inactive)
REMARK    1  A    between atoms: C1_2  and  C2_3 
ROOT
ATOM      1  C2  UNL d   1      -0.642   0.549  -0.253  0.00  0.00    -0.077 A 
ATOM      2  C3  UNL d   1      -1.449   0.789   0.868  0.00  0.00     0.002 A 
ATOM      3  C4  UNL d   1      -1.094   0.275   2.117  0.00  0.00     0.002 A 
ATOM      4  C5  UNL d   1       0.069  -0.478   2.257  0.00  0.00    -0.004 A 
ATOM      5  C6  UNL d   1       0.878  -0.724   1.148  0.00  0.00     0.002 A 
ATOM      6  C7  UNL d   1       0.524  -0.213  -0.101  0.00  0.00     0.002 A 
ENDROOT
BRANCH   1   7
ATOM      7  C1  UNL d   1      -0.997   1.143  -1.591  0.00  0.00     0.055 C 
ATOM      8  C   UNL d   1      -0.069   2.295  -1.948  0.00  0.00     0.019 C 
ENDBRANCH   1   7
TORSDOF 1
ENDMDL
