MODEL 1
REMARK minimizedAffinity -4.64748144
REMARK minimizedRMSD -1
REMARK  1 active torsions:
REMARK  status: ('A' for Active; 'I' for Inactive)
REMARK    1  A    between atoms: C1_2  and  C2_3 
ROOT
ATOM      1  C2  UNL d   1       0.078   0.520   0.061  0.00  0.00    -0.077 A 
ATOM      2  C3  UNL d   1       1.004  -0.502  -0.189  0.00  0.00     0.002 A 
ATOM      3  C4  UNL d   1       1.457  -1.314   0.852  0.00  0.00     0.002 A 
ATOM      4  C5  UNL d   1       0.988  -1.115   2.148  0.00  0.00    -0.004 A 
ATOM      5  C6  UNL d   1       0.069  -0.100   2.408  0.00  0.00     0.002 A 
ATOM      6  C7  UNL d   1      -0.385   0.714   1.369  0.00  0.00     0.002 A 
ENDROOT
BRANCH   1   7
ATOM      7  C1  UNL d   1      -0.450   1.365  -1.069  0.00  0.00     0.055 C 
ATOM      8  C   UNL d   1      -0.463   0.592  -2.380  0.00  0.00     0.019 C 
ENDBRANCH   1   7
TORSDOF 1
ENDMDL
