MODEL 1
REMARK minimizedAffinity -4.29850674
REMARK minimizedRMSD -1
REMARK  1 active torsions:
REMARK  status: ('A' for Active; 'I' for Inactive)
REMARK    1  A    between atoms: C1_2  and  C2_3 
ROOT
ATOM      1  C2  UNL d   1       0.405  -0.806   0.104  0.00  0.00    -0.077 A 
ATOM      2  C3  UNL d   1      -0.346   0.352  -0.139  0.00  0.00     0.002 A 
ATOM      3  C4  UNL d   1      -1.097   0.935   0.884  0.00  0.00     0.002 A 
ATOM      4  C5  UNL d   1      -1.099   0.370   2.157  0.00  0.00    -0.004 A 
ATOM      5  C6  UNL d   1      -0.356  -0.783   2.408  0.00  0.00     0.002 A 
ATOM      6  C7  UNL d   1       0.393  -1.368   1.387  0.00  0.00     0.002 A 
ENDROOT
BRANCH   1   7
ATOM      7  C1  UNL d   1       1.254  -1.408  -0.986  0.00  0.00     0.055 C 
ATOM      8  C   UNL d   1       2.551  -1.975  -0.427  0.00  0.00     0.019 C 
ENDBRANCH   1   7
TORSDOF 1
ENDMDL
