MODEL 1
REMARK minimizedAffinity -3.94191003
REMARK minimizedRMSD -1
REMARK  1 active torsions:
REMARK  status: ('A' for Active; 'I' for Inactive)
REMARK    1  A    between atoms: C1_2  and  C2_3 
ROOT
ATOM      1  C2  UNL d   1      -0.576  -0.162  -0.315  0.00  0.00    -0.077 A 
ATOM      2  C3  UNL d   1       0.547  -0.999  -0.366  0.00  0.00     0.002 A 
ATOM      3  C4  UNL d   1       1.001  -1.643   0.787  0.00  0.00     0.002 A 
ATOM      4  C5  UNL d   1       0.336  -1.459   1.997  0.00  0.00    -0.004 A 
ATOM      5  C6  UNL d   1      -0.781  -0.626   2.058  0.00  0.00     0.002 A 
ATOM      6  C7  UNL d   1      -1.235   0.019   0.907  0.00  0.00     0.002 A 
ENDROOT
BRANCH   1   7
ATOM      7  C1  UNL d   1      -1.096   0.495  -1.567  0.00  0.00     0.055 C 
ATOM      8  C   UNL d   1      -0.451   1.855  -1.789  0.00  0.00     0.019 C 
ENDBRANCH   1   7
TORSDOF 1
ENDMDL
