MODEL 1
REMARK minimizedAffinity 6.39704943
REMARK minimizedRMSD -1
REMARK  1 active torsions:
REMARK  status: ('A' for Active; 'I' for Inactive)
REMARK    1  A    between atoms: C1_2  and  C2_3 
ROOT
ATOM      1  C2  UNL d   1      -2.797   4.301   3.466  0.00  0.00    -0.077 A 
ATOM      2  C3  UNL d   1      -1.963   3.238   3.841  0.00  0.00     0.002 A 
ATOM      3  C4  UNL d   1      -1.969   2.046   3.115  0.00  0.00     0.002 A 
ATOM      4  C5  UNL d   1      -2.805   1.906   2.009  0.00  0.00    -0.004 A 
ATOM      5  C6  UNL d   1      -3.640   2.956   1.629  0.00  0.00     0.002 A 
ATOM      6  C7  UNL d   1      -3.635   4.148   2.354  0.00  0.00     0.002 A 
ENDROOT
BRANCH   1   7
ATOM      7  C1  UNL d   1      -2.756   5.606   4.218  0.00  0.00     0.055 C 
ATOM      8  C   UNL d   1      -3.350   5.460   5.612  0.00  0.00     0.019 C 
ENDBRANCH   1   7
TORSDOF 1
ENDMDL
