MODEL 1
REMARK minimizedAffinity 13.7354879
REMARK minimizedRMSD -1
REMARK  1 active torsions:
REMARK  status: ('A' for Active; 'I' for Inactive)
REMARK    1  A    between atoms: C1_2  and  C2_3 
ROOT
ATOM      1  C2  UNL d   1      -3.825   5.980   3.744  0.00  0.00    -0.077 A 
ATOM      2  C3  UNL d   1      -2.517   5.977   3.240  0.00  0.00     0.002 A 
ATOM      3  C4  UNL d   1      -1.425   5.985   4.110  0.00  0.00     0.002 A 
ATOM      4  C5  UNL d   1      -1.629   5.993   5.488  0.00  0.00    -0.004 A 
ATOM      5  C6  UNL d   1      -2.927   5.999   5.999  0.00  0.00     0.002 A 
ATOM      6  C7  UNL d   1      -4.019   5.991   5.131  0.00  0.00     0.002 A 
ENDROOT
BRANCH   1   7
ATOM      7  C1  UNL d   1      -5.004   5.921   2.808  0.00  0.00     0.055 C 
ATOM      8  C   UNL d   1      -4.942   4.689   1.917  0.00  0.00     0.019 C 
ENDBRANCH   1   7
TORSDOF 1
ENDMDL
