MODEL 1
REMARK minimizedAffinity 6.57010794
REMARK minimizedRMSD -1
REMARK  1 active torsions:
REMARK  status: ('A' for Active; 'I' for Inactive)
REMARK    1  A    between atoms: C1_2  and  C2_3 
ROOT
ATOM      1  C2  UNL d   1      -3.023   3.548   3.706  0.00  0.00    -0.077 A 
ATOM      2  C3  UNL d   1      -2.401   2.325   3.994  0.00  0.00     0.002 A 
ATOM      3  C4  UNL d   1      -2.905   1.135   3.466  0.00  0.00     0.002 A 
ATOM      4  C5  UNL d   1      -4.030   1.156   2.644  0.00  0.00    -0.004 A 
ATOM      5  C6  UNL d   1      -4.656   2.367   2.353  0.00  0.00     0.002 A 
ATOM      6  C7  UNL d   1      -4.155   3.558   2.881  0.00  0.00     0.002 A 
ENDROOT
BRANCH   1   7
ATOM      7  C1  UNL d   1      -2.452   4.838   4.235  0.00  0.00     0.055 C 
ATOM      8  C   UNL d   1      -3.125   5.248   5.537  0.00  0.00     0.019 C 
ENDBRANCH   1   7
TORSDOF 1
ENDMDL
