MODEL 1
REMARK minimizedAffinity -0.131208062
REMARK minimizedRMSD -1
REMARK  1 active torsions:
REMARK  status: ('A' for Active; 'I' for Inactive)
REMARK    1  A    between atoms: C1_2  and  C2_3 
ROOT
ATOM      1  C2  UNL d   1       4.878   5.782   2.067  0.00  0.00    -0.077 A 
ATOM      2  C3  UNL d   1       3.682   5.998   1.368  0.00  0.00     0.002 A 
ATOM      3  C4  UNL d   1       3.611   5.754  -0.005  0.00  0.00     0.002 A 
ATOM      4  C5  UNL d   1       4.732   5.288  -0.690  0.00  0.00    -0.004 A 
ATOM      5  C6  UNL d   1       5.927   5.072  -0.004  0.00  0.00     0.002 A 
ATOM      6  C7  UNL d   1       5.999   5.317   1.368  0.00  0.00     0.002 A 
ENDROOT
BRANCH   1   7
ATOM      7  C1  UNL d   1       4.942   5.997   3.556  0.00  0.00     0.055 C 
ATOM      8  C   UNL d   1       5.999   5.111   4.199  0.00  0.00     0.019 C 
ENDBRANCH   1   7
TORSDOF 1
ENDMDL
