MODEL 1
REMARK minimizedAffinity 10.017848
REMARK minimizedRMSD -1
REMARK  1 active torsions:
REMARK  status: ('A' for Active; 'I' for Inactive)
REMARK    1  A    between atoms: C1_2  and  C2_3 
ROOT
ATOM      1  C2  UNL d   1       4.878   5.249   2.921  0.00  0.00    -0.077 A 
ATOM      2  C3  UNL d   1       5.346   4.578   1.783  0.00  0.00     0.002 A 
ATOM      3  C4  UNL d   1       4.580   4.544   0.617  0.00  0.00     0.002 A 
ATOM      4  C5  UNL d   1       3.343   5.184   0.576  0.00  0.00    -0.004 A 
ATOM      5  C6  UNL d   1       2.867   5.853   1.703  0.00  0.00     0.002 A 
ATOM      6  C7  UNL d   1       3.631   5.886   2.870  0.00  0.00     0.002 A 
ENDROOT
BRANCH   1   7
ATOM      7  C1  UNL d   1       5.725   5.328   4.164  0.00  0.00     0.055 C 
ATOM      8  C   UNL d   1       4.973   5.999   5.305  0.00  0.00     0.019 C 
ENDBRANCH   1   7
TORSDOF 1
ENDMDL
