MODEL 1
REMARK minimizedAffinity 7.91381121
REMARK minimizedRMSD -1
REMARK  1 active torsions:
REMARK  status: ('A' for Active; 'I' for Inactive)
REMARK    1  A    between atoms: C1_2  and  C2_3 
ROOT
ATOM      1  C2  UNL d   1       1.944   5.973  -2.845  0.00  0.00    -0.077 A 
ATOM      2  C3  UNL d   1       2.334   5.973  -1.498  0.00  0.00     0.002 A 
ATOM      3  C4  UNL d   1       1.375   5.987  -0.484  0.00  0.00     0.002 A 
ATOM      4  C5  UNL d   1       0.019   5.997  -0.806  0.00  0.00    -0.004 A 
ATOM      5  C6  UNL d   1      -0.380   5.999  -2.142  0.00  0.00     0.002 A 
ATOM      6  C7  UNL d   1       0.578   5.986  -3.157  0.00  0.00     0.002 A 
ENDROOT
BRANCH   1   7
ATOM      7  C1  UNL d   1       2.976   5.908  -3.939  0.00  0.00     0.055 C 
ATOM      8  C   UNL d   1       2.705   4.750  -4.889  0.00  0.00     0.019 C 
ENDBRANCH   1   7
TORSDOF 1
ENDMDL
