MODEL 1
REMARK minimizedAffinity 4.52043819
REMARK minimizedRMSD -1
REMARK  0 active torsions:
REMARK  status: ('A' for Active; 'I' for Inactive)
ROOT
ATOM      1  C2' OXE d   1       1.354  -3.345   0.235  0.00  0.00     0.078 C 
ATOM      2  C1' OXE d   1       3.198  -2.824  -1.816  0.00  0.00     0.078 C 
ATOM      3  C1  OXE d   1       2.992  -1.759  -0.769  0.00  0.00    -0.078 A 
ATOM      4  C2  OXE d   1       2.053  -2.003   0.205  0.00  0.00    -0.078 A 
ATOM      5  C3  OXE d   1       1.863  -1.077   1.227  0.00  0.00     0.003 A 
ATOM      6  C4  OXE d   1       2.506   0.166   1.186  0.00  0.00    -0.002 A 
ATOM      7  C5  OXE d   1       3.437   0.451   0.181  0.00  0.00    -0.002 A 
ATOM      8  C6  OXE d   1       3.722  -0.515  -0.778  0.00  0.00     0.003 A 
ENDROOT
TORSDOF 0
ENDMDL
