MODEL 1
REMARK minimizedAffinity 4.43751097
REMARK minimizedRMSD -1
REMARK  0 active torsions:
REMARK  status: ('A' for Active; 'I' for Inactive)
ROOT
ATOM      1  C2' OXE d   1      -0.646   1.882  -1.510  0.00  0.00     0.078 C 
ATOM      2  C1' OXE d   1       0.336   4.117  -0.124  0.00  0.00     0.078 C 
ATOM      3  C1  OXE d   1       1.094   2.819   0.006  0.00  0.00    -0.078 A 
ATOM      4  C2  OXE d   1       0.580   1.720  -0.638  0.00  0.00    -0.078 A 
ATOM      5  C3  OXE d   1       1.269   0.511  -0.595  0.00  0.00     0.003 A 
ATOM      6  C4  OXE d   1       2.397   0.366   0.222  0.00  0.00    -0.002 A 
ATOM      7  C5  OXE d   1       2.914   1.464   0.918  0.00  0.00    -0.002 A 
ATOM      8  C6  OXE d   1       2.301   2.705   0.787  0.00  0.00     0.003 A 
ENDROOT
TORSDOF 0
ENDMDL
