MODEL 1
REMARK minimizedAffinity 7.60158682
REMARK minimizedRMSD -1
REMARK  0 active torsions:
REMARK  status: ('A' for Active; 'I' for Inactive)
ROOT
ATOM      1  C2' OXE d   1      -2.407   4.016  -5.993  0.00  0.00     0.078 C 
ATOM      2  C1' OXE d   1      -2.086   2.384  -3.732  0.00  0.00     0.078 C 
ATOM      3  C1  OXE d   1      -3.472   2.517  -4.313  0.00  0.00    -0.078 A 
ATOM      4  C2  OXE d   1      -3.627   3.355  -5.391  0.00  0.00    -0.078 A 
ATOM      5  C3  OXE d   1      -4.874   3.471  -6.000  0.00  0.00     0.003 A 
ATOM      6  C4  OXE d   1      -6.000   2.863  -5.431  0.00  0.00    -0.002 A 
ATOM      7  C5  OXE d   1      -5.870   2.038  -4.309  0.00  0.00    -0.002 A 
ATOM      8  C6  OXE d   1      -4.609   1.821  -3.764  0.00  0.00     0.003 A 
ENDROOT
TORSDOF 0
ENDMDL
