MODEL 1
REMARK minimizedAffinity 1.30922937
REMARK minimizedRMSD -1
REMARK  0 active torsions:
REMARK  status: ('A' for Active; 'I' for Inactive)
ROOT
ATOM      1  C2' OXE d   1      -6.000   1.533  -1.399  0.00  0.00     0.078 C 
ATOM      2  C1' OXE d   1      -5.526   3.256  -3.565  0.00  0.00     0.078 C 
ATOM      3  C1  OXE d   1      -4.684   2.009  -3.460  0.00  0.00    -0.078 A 
ATOM      4  C2  OXE d   1      -4.890   1.196  -2.372  0.00  0.00    -0.078 A 
ATOM      5  C3  OXE d   1      -4.179   0.005  -2.256  0.00  0.00     0.003 A 
ATOM      6  C4  OXE d   1      -3.148  -0.295  -3.154  0.00  0.00    -0.002 A 
ATOM      7  C5  OXE d   1      -2.893   0.540  -4.248  0.00  0.00    -0.002 A 
ATOM      8  C6  OXE d   1      -3.679   1.672  -4.438  0.00  0.00     0.003 A 
ENDROOT
TORSDOF 0
ENDMDL
