MODEL 1
REMARK minimizedAffinity 0.449117303
REMARK minimizedRMSD -1
REMARK  0 active torsions:
REMARK  status: ('A' for Active; 'I' for Inactive)
ROOT
ATOM      1  C2' OXE d   1      -5.683   3.590  -3.804  0.00  0.00     0.078 C 
ATOM      2  C1' OXE d   1      -2.939   3.867  -3.283  0.00  0.00     0.078 C 
ATOM      3  C1  OXE d   1      -3.484   2.472  -3.460  0.00  0.00    -0.078 A 
ATOM      4  C2  OXE d   1      -4.836   2.343  -3.668  0.00  0.00    -0.078 A 
ATOM      5  C3  OXE d   1      -5.383   1.083  -3.892  0.00  0.00     0.003 A 
ATOM      6  C4  OXE d   1      -4.594  -0.066  -3.755  0.00  0.00    -0.002 A 
ATOM      7  C5  OXE d   1      -3.222   0.041  -3.503  0.00  0.00    -0.002 A 
ATOM      8  C6  OXE d   1      -2.645   1.301  -3.396  0.00  0.00     0.003 A 
ENDROOT
TORSDOF 0
ENDMDL
