MODEL 1
REMARK minimizedAffinity 3.06920648
REMARK minimizedRMSD -1
REMARK  0 active torsions:
REMARK  status: ('A' for Active; 'I' for Inactive)
ROOT
ATOM      1  C2' OXE d   1      -6.000   2.878  -4.479  0.00  0.00     0.078 C 
ATOM      2  C1' OXE d   1      -5.739   0.104  -4.816  0.00  0.00     0.078 C 
ATOM      3  C1  OXE d   1      -4.577   0.851  -4.212  0.00  0.00    -0.078 A 
ATOM      4  C2  OXE d   1      -4.695   2.215  -4.094  0.00  0.00    -0.078 A 
ATOM      5  C3  OXE d   1      -3.675   2.947  -3.493  0.00  0.00     0.003 A 
ATOM      6  C4  OXE d   1      -2.467   2.327  -3.148  0.00  0.00    -0.002 A 
ATOM      7  C5  OXE d   1      -2.310   0.945  -3.297  0.00  0.00    -0.002 A 
ATOM      8  C6  OXE d   1      -3.369   0.188  -3.786  0.00  0.00     0.003 A 
ENDROOT
TORSDOF 0
ENDMDL
