MODEL 1
REMARK minimizedAffinity 2.78996849
REMARK minimizedRMSD -1
REMARK  0 active torsions:
REMARK  status: ('A' for Active; 'I' for Inactive)
ROOT
ATOM      1  C2' OXE d   1      -4.334   0.345  -1.210  0.00  0.00     0.078 C 
ATOM      2  C1' OXE d   1      -2.071   1.529  -2.377  0.00  0.00     0.078 C 
ATOM      3  C1  OXE d   1      -3.359   1.548  -3.161  0.00  0.00    -0.078 A 
ATOM      4  C2  OXE d   1      -4.450   0.926  -2.603  0.00  0.00    -0.078 A 
ATOM      5  C3  OXE d   1      -5.676   0.962  -3.260  0.00  0.00     0.003 A 
ATOM      6  C4  OXE d   1      -5.772   1.493  -4.552  0.00  0.00    -0.002 A 
ATOM      7  C5  OXE d   1      -4.664   2.096  -5.156  0.00  0.00    -0.002 A 
ATOM      8  C6  OXE d   1      -3.464   2.170  -4.458  0.00  0.00     0.003 A 
ENDROOT
TORSDOF 0
ENDMDL
