MODEL 1
REMARK minimizedAffinity -1.53676713
REMARK minimizedRMSD -1
REMARK  0 active torsions:
REMARK  status: ('A' for Active; 'I' for Inactive)
ROOT
ATOM      1  C2' OXE d   1      -1.943   3.166  -2.832  0.00  0.00     0.078 C 
ATOM      2  C1' OXE d   1      -4.572   3.759  -2.048  0.00  0.00     0.078 C 
ATOM      3  C1  OXE d   1      -4.355   2.548  -2.919  0.00  0.00    -0.078 A 
ATOM      4  C2  OXE d   1      -3.071   2.291  -3.337  0.00  0.00    -0.078 A 
ATOM      5  C3  OXE d   1      -2.807   1.155  -4.096  0.00  0.00     0.003 A 
ATOM      6  C4  OXE d   1      -3.856   0.358  -4.567  0.00  0.00    -0.002 A 
ATOM      7  C5  OXE d   1      -5.176   0.624  -4.187  0.00  0.00    -0.002 A 
ATOM      8  C6  OXE d   1      -5.437   1.688  -3.330  0.00  0.00     0.003 A 
ENDROOT
TORSDOF 0
ENDMDL
