MODEL 1
REMARK minimizedAffinity 1.29763508
REMARK minimizedRMSD -1
REMARK  0 active torsions:
REMARK  status: ('A' for Active; 'I' for Inactive)
ROOT
ATOM      1  C2' OXE d   1      -2.382   3.319  -2.693  0.00  0.00     0.078 C 
ATOM      2  C1' OXE d   1      -2.162   0.622  -3.441  0.00  0.00     0.078 C 
ATOM      3  C1  OXE d   1      -3.521   1.269  -3.533  0.00  0.00    -0.078 A 
ATOM      4  C2  OXE d   1      -3.629   2.575  -3.120  0.00  0.00    -0.078 A 
ATOM      5  C3  OXE d   1      -4.849   3.236  -3.235  0.00  0.00     0.003 A 
ATOM      6  C4  OXE d   1      -6.000   2.538  -3.621  0.00  0.00    -0.002 A 
ATOM      7  C5  OXE d   1      -5.919   1.196  -4.008  0.00  0.00    -0.002 A 
ATOM      8  C6  OXE d   1      -4.683   0.560  -4.010  0.00  0.00     0.003 A 
ENDROOT
TORSDOF 0
ENDMDL
