MODEL 1
REMARK minimizedAffinity 1.2124691
REMARK minimizedRMSD -1
REMARK  0 active torsions:
REMARK  status: ('A' for Active; 'I' for Inactive)
ROOT
ATOM      1  C2' OXE d   1      -2.596   0.705  -4.550  0.00  0.00     0.078 C 
ATOM      2  C1' OXE d   1      -5.286  -0.094  -4.492  0.00  0.00     0.078 C 
ATOM      3  C1  OXE d   1      -4.970   1.337  -4.138  0.00  0.00    -0.078 A 
ATOM      4  C2  OXE d   1      -3.647   1.707  -4.123  0.00  0.00    -0.078 A 
ATOM      5  C3  OXE d   1      -3.303   3.030  -3.856  0.00  0.00     0.003 A 
ATOM      6  C4  OXE d   1      -4.280   3.948  -3.452  0.00  0.00    -0.002 A 
ATOM      7  C5  OXE d   1      -5.630   3.581  -3.421  0.00  0.00    -0.002 A 
ATOM      8  C6  OXE d   1      -5.995   2.294  -3.802  0.00  0.00     0.003 A 
ENDROOT
TORSDOF 0
ENDMDL
