MODEL 1
REMARK minimizedAffinity -2.3233521
REMARK minimizedRMSD -1
REMARK  0 active torsions:
REMARK  status: ('A' for Active; 'I' for Inactive)
ROOT
ATOM      1  C2' OXE d   1      -3.774   0.745  -4.519  0.00  0.00     0.078 C 
ATOM      2  C1' OXE d   1      -5.296   3.007  -3.849  0.00  0.00     0.078 C 
ATOM      3  C1  OXE d   1      -5.285   1.853  -2.878  0.00  0.00    -0.078 A 
ATOM      4  C2  OXE d   1      -4.575   0.732  -3.235  0.00  0.00    -0.078 A 
ATOM      5  C3  OXE d   1      -4.486  -0.339  -2.350  0.00  0.00     0.003 A 
ATOM      6  C4  OXE d   1      -5.238  -0.347  -1.169  0.00  0.00    -0.002 A 
ATOM      7  C5  OXE d   1      -6.000   0.769  -0.805  0.00  0.00    -0.002 A 
ATOM      8  C6  OXE d   1      -6.000   1.891  -1.626  0.00  0.00     0.003 A 
ENDROOT
TORSDOF 0
ENDMDL
