MODEL 1
REMARK minimizedAffinity 0.888497055
REMARK minimizedRMSD -1
REMARK  0 active torsions:
REMARK  status: ('A' for Active; 'I' for Inactive)
ROOT
ATOM      1  C2' OXE d   1      -4.505   3.322  -1.640  0.00  0.00     0.078 C 
ATOM      2  C1' OXE d   1      -2.210   1.969  -2.524  0.00  0.00     0.078 C 
ATOM      3  C1  OXE d   1      -3.475   1.809  -3.330  0.00  0.00    -0.078 A 
ATOM      4  C2  OXE d   1      -4.605   2.437  -2.864  0.00  0.00    -0.078 A 
ATOM      5  C3  OXE d   1      -5.785   2.368  -3.599  0.00  0.00     0.003 A 
ATOM      6  C4  OXE d   1      -5.872   1.539  -4.724  0.00  0.00    -0.002 A 
ATOM      7  C5  OXE d   1      -4.743   0.859  -5.193  0.00  0.00    -0.002 A 
ATOM      8  C6  OXE d   1      -3.529   1.017  -4.533  0.00  0.00     0.003 A 
ENDROOT
TORSDOF 0
ENDMDL
