MODEL 1
REMARK minimizedAffinity 6.93342495
REMARK minimizedRMSD -1
REMARK  0 active torsions:
REMARK  status: ('A' for Active; 'I' for Inactive)
ROOT
ATOM      1  C2' OXE d   1       1.560   1.341   1.490  0.00  0.00     0.078 C 
ATOM      2  C1' OXE d   1       1.756  -0.318  -0.766  0.00  0.00     0.078 C 
ATOM      3  C1  OXE d   1       2.874   0.664  -0.515  0.00  0.00    -0.078 A 
ATOM      4  C2  OXE d   1       2.747   1.503   0.565  0.00  0.00    -0.078 A 
ATOM      5  C3  OXE d   1       3.775   2.390   0.873  0.00  0.00     0.003 A 
ATOM      6  C4  OXE d   1       4.864   2.541   0.007  0.00  0.00    -0.002 A 
ATOM      7  C5  OXE d   1       4.993   1.723  -1.121  0.00  0.00    -0.002 A 
ATOM      8  C6  OXE d   1       4.030   0.752  -1.372  0.00  0.00     0.003 A 
ENDROOT
TORSDOF 0
ENDMDL
