MODEL 1
REMARK minimizedAffinity 4.29314947
REMARK minimizedRMSD -1
REMARK  0 active torsions:
REMARK  status: ('A' for Active; 'I' for Inactive)
ROOT
ATOM      1  C2' OXE d   1      -3.402   0.812  -4.254  0.00  0.00     0.078 C 
ATOM      2  C1' OXE d   1      -4.905   3.118  -3.700  0.00  0.00     0.078 C 
ATOM      3  C1  OXE d   1      -5.035   1.949  -2.756  0.00  0.00    -0.078 A 
ATOM      4  C2  OXE d   1      -4.332   0.808  -3.060  0.00  0.00    -0.078 A 
ATOM      5  C3  OXE d   1      -4.375  -0.280  -2.193  0.00  0.00     0.003 A 
ATOM      6  C4  OXE d   1      -5.245  -0.279  -1.096  0.00  0.00    -0.002 A 
ATOM      7  C5  OXE d   1      -6.000   0.859  -0.790  0.00  0.00    -0.002 A 
ATOM      8  C6  OXE d   1      -5.875   1.994  -1.584  0.00  0.00     0.003 A 
ENDROOT
TORSDOF 0
ENDMDL
