MODEL 1
REMARK minimizedAffinity -2.14040327
REMARK minimizedRMSD -1
REMARK  0 active torsions:
REMARK  status: ('A' for Active; 'I' for Inactive)
ROOT
ATOM      1  C   UNL d   1       5.255   5.760  -2.399  0.00  0.00     0.172 C 
ATOM      2  N   UNL d   1       5.200   5.434  -3.804  0.00  0.00    -0.070 N 
ATOM      3  C1  UNL d   1       5.996   4.522  -4.444  0.00  0.00    -0.004 A 
ATOM      4  C2  UNL d   1       5.632   4.504  -5.774  0.00  0.00    -0.047 A 
ATOM      5  C3  UNL d   1       4.583   5.438  -5.938  0.00  0.00    -0.047 A 
ATOM      6  C4  UNL d   1       4.335   6.000  -4.704  0.00  0.00    -0.004 A 
ENDROOT
TORSDOF 0
ENDMDL
