MODEL 1
REMARK minimizedAffinity -1.92842424
REMARK minimizedRMSD -1
REMARK  0 active torsions:
REMARK  status: ('A' for Active; 'I' for Inactive)
ROOT
ATOM      1  C   UNL d   1       6.000   5.969  -0.957  0.00  0.00     0.172 C 
ATOM      2  N   UNL d   1       5.355   5.101  -1.914  0.00  0.00    -0.070 N 
ATOM      3  C1  UNL d   1       4.024   4.779  -1.929  0.00  0.00    -0.004 A 
ATOM      4  C2  UNL d   1       3.807   3.931  -2.994  0.00  0.00    -0.047 A 
ATOM      5  C3  UNL d   1       5.051   3.735  -3.639  0.00  0.00    -0.047 A 
ATOM      6  C4  UNL d   1       5.992   4.471  -2.950  0.00  0.00    -0.004 A 
ENDROOT
TORSDOF 0
ENDMDL
