MODEL 1
REMARK minimizedAffinity -1.76595771
REMARK minimizedRMSD -1
REMARK  0 active torsions:
REMARK  status: ('A' for Active; 'I' for Inactive)
ROOT
ATOM      1  C   UNL d   1       5.291   5.854  -2.222  0.00  0.00     0.172 C 
ATOM      2  N   UNL d   1       5.199   5.479  -3.614  0.00  0.00    -0.070 N 
ATOM      3  C1  UNL d   1       5.998   4.566  -4.248  0.00  0.00    -0.004 A 
ATOM      4  C2  UNL d   1       5.593   4.493  -5.564  0.00  0.00    -0.047 A 
ATOM      5  C3  UNL d   1       4.514   5.394  -5.725  0.00  0.00    -0.047 A 
ATOM      6  C4  UNL d   1       4.291   5.991  -4.502  0.00  0.00    -0.004 A 
ENDROOT
TORSDOF 0
ENDMDL
