MODEL 1
REMARK minimizedAffinity -1.34332228
REMARK minimizedRMSD -1
REMARK  0 active torsions:
REMARK  status: ('A' for Active; 'I' for Inactive)
ROOT
ATOM      1  C   UNL d   1       6.000   5.972  -1.611  0.00  0.00     0.172 C 
ATOM      2  N   UNL d   1       5.349   5.142  -2.597  0.00  0.00    -0.070 N 
ATOM      3  C1  UNL d   1       5.944   4.137  -3.312  0.00  0.00    -0.004 A 
ATOM      4  C2  UNL d   1       4.991   3.589  -4.143  0.00  0.00    -0.047 A 
ATOM      5  C3  UNL d   1       3.781   4.290  -3.920  0.00  0.00    -0.047 A 
ATOM      6  C4  UNL d   1       4.032   5.245  -2.958  0.00  0.00    -0.004 A 
ENDROOT
TORSDOF 0
ENDMDL
