MODEL 1
REMARK minimizedAffinity 1.50083303
REMARK minimizedRMSD -1
REMARK  0 active torsions:
REMARK  status: ('A' for Active; 'I' for Inactive)
ROOT
ATOM      1  C   UNL d   1       2.519   4.734  -3.157  0.00  0.00     0.172 C 
ATOM      2  N   UNL d   1       3.935   4.503  -2.992  0.00  0.00    -0.070 N 
ATOM      3  C1  UNL d   1       4.709   4.983  -1.970  0.00  0.00    -0.004 A 
ATOM      4  C2  UNL d   1       5.999   4.542  -2.174  0.00  0.00    -0.047 A 
ATOM      5  C3  UNL d   1       6.000   3.770  -3.360  0.00  0.00    -0.047 A 
ATOM      6  C4  UNL d   1       4.710   3.762  -3.846  0.00  0.00    -0.004 A 
ENDROOT
TORSDOF 0
ENDMDL
