MODEL 1
REMARK minimizedAffinity 4.9644866
REMARK minimizedRMSD -1
REMARK  0 active torsions:
REMARK  status: ('A' for Active; 'I' for Inactive)
ROOT
ATOM      1  C   UNL d   1       3.163  -2.240  -3.744  0.00  0.00     0.172 C 
ATOM      2  N   UNL d   1       1.781  -2.171  -3.330  0.00  0.00    -0.070 N 
ATOM      3  C1  UNL d   1       0.787  -1.486  -3.977  0.00  0.00    -0.004 A 
ATOM      4  C2  UNL d   1      -0.381  -1.670  -3.269  0.00  0.00    -0.047 A 
ATOM      5  C3  UNL d   1      -0.079  -2.493  -2.159  0.00  0.00    -0.047 A 
ATOM      6  C4  UNL d   1       1.267  -2.789  -2.221  0.00  0.00    -0.004 A 
ENDROOT
TORSDOF 0
ENDMDL
