MODEL 1
REMARK minimizedAffinity 10.7889605
REMARK minimizedRMSD -1
REMARK  0 active torsions:
REMARK  status: ('A' for Active; 'I' for Inactive)
ROOT
ATOM      1  C   UNL d   1       2.629   5.401  -2.724  0.00  0.00     0.172 C 
ATOM      2  N   UNL d   1       3.998   5.176  -2.323  0.00  0.00    -0.070 N 
ATOM      3  C1  UNL d   1       4.738   5.999  -1.516  0.00  0.00    -0.004 A 
ATOM      4  C2  UNL d   1       5.988   5.435  -1.373  0.00  0.00    -0.047 A 
ATOM      5  C3  UNL d   1       5.999   4.233  -2.120  0.00  0.00    -0.047 A 
ATOM      6  C4  UNL d   1       4.754   4.097  -2.697  0.00  0.00    -0.004 A 
ENDROOT
TORSDOF 0
ENDMDL
