MODEL 1
REMARK minimizedAffinity -3.21249533
REMARK minimizedRMSD -1
REMARK  0 active torsions:
REMARK  status: ('A' for Active; 'I' for Inactive)
ROOT
ATOM      1  C   UNL d   1       6.000   5.471  -2.252  0.00  0.00     0.172 C 
ATOM      2  N   UNL d   1       5.360   4.671  -3.270  0.00  0.00    -0.070 N 
ATOM      3  C1  UNL d   1       6.000   3.852  -4.161  0.00  0.00    -0.004 A 
ATOM      4  C2  UNL d   1       5.042   3.268  -4.961  0.00  0.00    -0.047 A 
ATOM      5  C3  UNL d   1       3.782   3.754  -4.537  0.00  0.00    -0.047 A 
ATOM      6  C4  UNL d   1       4.008   4.621  -3.489  0.00  0.00    -0.004 A 
ENDROOT
TORSDOF 0
ENDMDL
