MODEL 1
REMARK minimizedAffinity 5.64341927
REMARK minimizedRMSD -1
REMARK  0 active torsions:
REMARK  status: ('A' for Active; 'I' for Inactive)
ROOT
ATOM      1  C   UNL d   1       2.238  -2.183  -3.205  0.00  0.00     0.172 C 
ATOM      2  N   UNL d   1       0.993  -2.332  -2.489  0.00  0.00    -0.070 N 
ATOM      3  C1  UNL d   1       0.841  -2.937  -1.270  0.00  0.00    -0.004 A 
ATOM      4  C2  UNL d   1      -0.494  -2.873  -0.931  0.00  0.00    -0.047 A 
ATOM      5  C3  UNL d   1      -1.167  -2.207  -1.983  0.00  0.00    -0.047 A 
ATOM      6  C4  UNL d   1      -0.223  -1.883  -2.934  0.00  0.00    -0.004 A 
ENDROOT
TORSDOF 0
ENDMDL
