MODEL 1
REMARK minimizedAffinity -3.21890926
REMARK minimizedRMSD -1
REMARK  0 active torsions:
REMARK  status: ('A' for Active; 'I' for Inactive)
ROOT
ATOM      1  C   UNL d   1       5.999   5.697  -2.181  0.00  0.00     0.172 C 
ATOM      2  N   UNL d   1       5.393   5.040  -3.316  0.00  0.00    -0.070 N 
ATOM      3  C1  UNL d   1       6.000   4.113  -4.120  0.00  0.00    -0.004 A 
ATOM      4  C2  UNL d   1       5.092   3.730  -5.083  0.00  0.00    -0.047 A 
ATOM      5  C3  UNL d   1       3.897   4.452  -4.850  0.00  0.00    -0.047 A 
ATOM      6  C4  UNL d   1       4.111   5.256  -3.750  0.00  0.00    -0.004 A 
ENDROOT
TORSDOF 0
ENDMDL
