MODEL 1
REMARK minimizedAffinity -2.76770878
REMARK minimizedRMSD -1
REMARK  0 active torsions:
REMARK  status: ('A' for Active; 'I' for Inactive)
ROOT
ATOM      1  C   UNL d   1       4.901   3.366  -5.093  0.00  0.00     0.172 C 
ATOM      2  N   UNL d   1       4.945   4.292  -3.986  0.00  0.00    -0.070 N 
ATOM      3  C1  UNL d   1       3.954   5.173  -3.643  0.00  0.00    -0.004 A 
ATOM      4  C2  UNL d   1       4.378   5.875  -2.535  0.00  0.00    -0.047 A 
ATOM      5  C3  UNL d   1       5.669   5.399  -2.202  0.00  0.00    -0.047 A 
ATOM      6  C4  UNL d   1       5.995   4.420  -3.116  0.00  0.00    -0.004 A 
ENDROOT
TORSDOF 0
ENDMDL
