MODEL 1
REMARK minimizedAffinity -3.3080225
REMARK minimizedRMSD -1
REMARK  0 active torsions:
REMARK  status: ('A' for Active; 'I' for Inactive)
ROOT
ATOM      1  C   UNL d   1       5.885   3.148  -5.981  0.00  0.00     0.172 C 
ATOM      2  N   UNL d   1       5.225   3.797  -4.872  0.00  0.00    -0.070 N 
ATOM      3  C1  UNL d   1       5.830   4.219  -3.719  0.00  0.00    -0.004 A 
ATOM      4  C2  UNL d   1       4.862   4.785  -2.918  0.00  0.00    -0.047 A 
ATOM      5  C3  UNL d   1       3.633   4.698  -3.613  0.00  0.00    -0.047 A 
ATOM      6  C4  UNL d   1       3.886   4.082  -4.820  0.00  0.00    -0.004 A 
ENDROOT
TORSDOF 0
ENDMDL
