MODEL 1
REMARK minimizedAffinity -2.68312883
REMARK minimizedRMSD -1
REMARK  0 active torsions:
REMARK  status: ('A' for Active; 'I' for Inactive)
ROOT
ATOM      1  C   UNL d   1       3.125   6.000  -4.130  0.00  0.00     0.172 C 
ATOM      2  N   UNL d   1       4.283   5.447  -3.467  0.00  0.00    -0.070 N 
ATOM      3  C1  UNL d   1       4.872   5.950  -2.338  0.00  0.00    -0.004 A 
ATOM      4  C2  UNL d   1       5.943   5.141  -2.024  0.00  0.00    -0.047 A 
ATOM      5  C3  UNL d   1       6.000   4.117  -3.000  0.00  0.00    -0.047 A 
ATOM      6  C4  UNL d   1       4.961   4.331  -3.881  0.00  0.00    -0.004 A 
ENDROOT
TORSDOF 0
ENDMDL
