MODEL 1
REMARK minimizedAffinity -2.20888066
REMARK minimizedRMSD -1
REMARK  0 active torsions:
REMARK  status: ('A' for Active; 'I' for Inactive)
ROOT
ATOM      1  C   UNL d   1       5.989   5.807  -2.677  0.00  0.00     0.172 C 
ATOM      2  N   UNL d   1       5.436   5.494  -3.974  0.00  0.00    -0.070 N 
ATOM      3  C1  UNL d   1       5.998   4.657  -4.901  0.00  0.00    -0.004 A 
ATOM      4  C2  UNL d   1       5.166   4.624  -5.999  0.00  0.00    -0.047 A 
ATOM      5  C3  UNL d   1       4.067   5.472  -5.724  0.00  0.00    -0.047 A 
ATOM      6  C4  UNL d   1       4.260   5.998  -4.464  0.00  0.00    -0.004 A 
ENDROOT
TORSDOF 0
ENDMDL
