MODEL 1
REMARK minimizedAffinity 15.0057678
REMARK minimizedRMSD -1
REMARK  0 active torsions:
REMARK  status: ('A' for Active; 'I' for Inactive)
ROOT
ATOM      1  C   UNL d   1       4.061   1.635  -4.890  0.00  0.00    -0.002 A 
ATOM      2  C1  UNL d   1       5.270   2.199  -5.274  0.00  0.00     0.010 A 
ATOM      3  C2  UNL d   1       5.341   3.546  -5.635  0.00  0.00     0.041 A 
ATOM      4  C3  UNL d   1       4.167   4.324  -5.601  0.00  0.00    -0.075 A 
ATOM      5  S   UNL d   1       4.016   5.995  -5.999  0.00  0.00     0.015 SA
ATOM      6  C4  UNL d   1       2.344   5.999  -5.668  0.00  0.00     0.022 A 
ATOM      7  C5  UNL d   1       1.896   4.764  -5.263  0.00  0.00     0.026 A 
ATOM      8  C6  UNL d   1       2.939   3.779  -5.217  0.00  0.00    -0.082 A 
ATOM      9  C7  UNL d   1       2.899   2.410  -4.858  0.00  0.00     0.045 A 
ENDROOT
TORSDOF 0
ENDMDL
