MODEL 1
REMARK minimizedAffinity 19.4921474
REMARK minimizedRMSD -1
REMARK  0 active torsions:
REMARK  status: ('A' for Active; 'I' for Inactive)
ROOT
ATOM      1  C   UNL d   1      -6.000   0.000  -4.501  0.00  0.00    -0.002 A 
ATOM      2  C1  UNL d   1      -5.687   0.829  -5.569  0.00  0.00     0.010 A 
ATOM      3  C2  UNL d   1      -4.645   1.753  -5.469  0.00  0.00     0.041 A 
ATOM      4  C3  UNL d   1      -3.914   1.829  -4.268  0.00  0.00    -0.075 A 
ATOM      5  S   UNL d   1      -2.596   2.884  -3.918  0.00  0.00     0.015 SA
ATOM      6  C4  UNL d   1      -2.416   2.258  -2.343  0.00  0.00     0.022 A 
ATOM      7  C5  UNL d   1      -3.332   1.269  -2.073  0.00  0.00     0.026 A 
ATOM      8  C6  UNL d   1      -4.210   1.005  -3.178  0.00  0.00    -0.082 A 
ATOM      9  C7  UNL d   1      -5.273   0.079  -3.310  0.00  0.00     0.045 A 
ENDROOT
TORSDOF 0
ENDMDL
