MODEL 1
REMARK minimizedAffinity 2.89712524
REMARK minimizedRMSD -1
REMARK  3 active torsions:
REMARK  status: ('A' for Active; 'I' for Inactive)
REMARK    1  A    between atoms: C3'_2  and  C2'_3 
REMARK    2  A    between atoms: C2'_3  and  C1'_4 
REMARK    3  A    between atoms: C1'_4  and  C1_5 
ROOT
ATOM      1  C1  N4B d   1       3.031   0.273  -1.617  0.00  0.00    -0.075 A 
ATOM      2  C2  N4B d   1       3.797   0.689  -0.506  0.00  0.00     0.002 A 
ATOM      3  C3  N4B d   1       3.212   0.792   0.732  0.00  0.00     0.002 A 
ATOM      4  C4  N4B d   1       1.863   0.504   0.879  0.00  0.00    -0.004 A 
ATOM      5  C5  N4B d   1       1.136   0.078  -0.194  0.00  0.00     0.002 A 
ATOM      6  C6  N4B d   1       1.712  -0.033  -1.444  0.00  0.00     0.002 A 
ENDROOT
BRANCH   1   7
ATOM      7  C1' N4B d   1       3.606   0.229  -3.007  0.00  0.00     0.057 C 
BRANCH   7   8
ATOM      8  C2' N4B d   1       4.103   1.620  -3.388  0.00  0.00     0.009 C 
BRANCH   8   9
ATOM      9  C3' N4B d   1       5.570   1.813  -3.047  0.00  0.00     0.004 C 
ATOM     10  C4' N4B d   1       5.996   3.249  -3.104  0.00  0.00     0.003 C 
ENDBRANCH   8   9
ENDBRANCH   7   8
ENDBRANCH   1   7
TORSDOF 3
ENDMDL
