MODEL 1
REMARK minimizedAffinity 4.98200321
REMARK minimizedRMSD -1
REMARK  3 active torsions:
REMARK  status: ('A' for Active; 'I' for Inactive)
REMARK    1  A    between atoms: C3'_2  and  C2'_3 
REMARK    2  A    between atoms: C2'_3  and  C1'_4 
REMARK    3  A    between atoms: C1'_4  and  C1_5 
ROOT
ATOM      1  C1  N4B d   1       1.891   0.755  -0.700  0.00  0.00    -0.075 A 
ATOM      2  C2  N4B d   1       1.217   1.995  -0.720  0.00  0.00     0.002 A 
ATOM      3  C3  N4B d   1      -0.133   2.039  -0.970  0.00  0.00     0.002 A 
ATOM      4  C4  N4B d   1      -0.822   0.862  -1.221  0.00  0.00    -0.004 A 
ATOM      5  C5  N4B d   1      -0.168  -0.334  -1.175  0.00  0.00     0.002 A 
ATOM      6  C6  N4B d   1       1.187  -0.394  -0.920  0.00  0.00     0.002 A 
ENDROOT
BRANCH   1   7
ATOM      7  C1' N4B d   1       3.382   0.664  -0.516  0.00  0.00     0.057 C 
BRANCH   7   8
ATOM      8  C2' N4B d   1       4.073   1.135  -1.792  0.00  0.00     0.009 C 
BRANCH   8   9
ATOM      9  C3' N4B d   1       5.445   1.723  -1.510  0.00  0.00     0.004 C 
ATOM     10  C4' N4B d   1       5.997   2.492  -2.673  0.00  0.00     0.003 C 
ENDBRANCH   8   9
ENDBRANCH   7   8
ENDBRANCH   1   7
TORSDOF 3
ENDMDL
