MODEL 1
REMARK minimizedAffinity 3.91082621
REMARK minimizedRMSD -1
REMARK  3 active torsions:
REMARK  status: ('A' for Active; 'I' for Inactive)
REMARK    1  A    between atoms: C3'_2  and  C2'_3 
REMARK    2  A    between atoms: C2'_3  and  C1'_4 
REMARK    3  A    between atoms: C1'_4  and  C1_5 
ROOT
ATOM      1  C1  N4B d   1      -0.240   1.222  -0.480  0.00  0.00    -0.075 A 
ATOM      2  C2  N4B d   1       0.301   2.420   0.036  0.00  0.00     0.002 A 
ATOM      3  C3  N4B d   1      -0.533   3.435   0.435  0.00  0.00     0.002 A 
ATOM      4  C4  N4B d   1      -1.906   3.284   0.309  0.00  0.00    -0.004 A 
ATOM      5  C5  N4B d   1      -2.422   2.114  -0.168  0.00  0.00     0.002 A 
ATOM      6  C6  N4B d   1      -1.595   1.084  -0.568  0.00  0.00     0.002 A 
ENDROOT
BRANCH   1   7
ATOM      7  C1' N4B d   1       0.634   0.118  -1.008  0.00  0.00     0.057 C 
BRANCH   7   8
ATOM      8  C2' N4B d   1       2.087   0.585  -1.004  0.00  0.00     0.009 C 
BRANCH   8   9
ATOM      9  C3' N4B d   1       2.898  -0.091   0.088  0.00  0.00     0.004 C 
ATOM     10  C4' N4B d   1       3.456   0.882   1.083  0.00  0.00     0.003 C 
ENDBRANCH   8   9
ENDBRANCH   7   8
ENDBRANCH   1   7
TORSDOF 3
ENDMDL
