MODEL 1
REMARK minimizedAffinity 9.4248457
REMARK minimizedRMSD -1
REMARK  3 active torsions:
REMARK  status: ('A' for Active; 'I' for Inactive)
REMARK    1  A    between atoms: C3'_2  and  C2'_3 
REMARK    2  A    between atoms: C2'_3  and  C1'_4 
REMARK    3  A    between atoms: C1'_4  and  C1_5 
ROOT
ATOM      1  C1  N4B d   1       3.710   1.278  -1.432  0.00  0.00    -0.075 A 
ATOM      2  C2  N4B d   1       2.641   0.356  -1.487  0.00  0.00     0.002 A 
ATOM      3  C3  N4B d   1       2.273  -0.335  -0.359  0.00  0.00     0.002 A 
ATOM      4  C4  N4B d   1       2.968  -0.137   0.825  0.00  0.00    -0.004 A 
ATOM      5  C5  N4B d   1       3.982   0.774   0.875  0.00  0.00     0.002 A 
ATOM      6  C6  N4B d   1       4.361   1.479  -0.249  0.00  0.00     0.002 A 
ENDROOT
BRANCH   1   7
ATOM      7  C1' N4B d   1       4.205   1.994  -2.659  0.00  0.00     0.057 C 
BRANCH   7   8
ATOM      8  C2' N4B d   1       5.596   2.556  -2.384  0.00  0.00     0.009 C 
BRANCH   8   9
ATOM      9  C3' N4B d   1       6.000   3.601  -3.411  0.00  0.00     0.004 C 
ATOM     10  C4' N4B d   1       5.658   4.997  -2.984  0.00  0.00     0.003 C 
ENDBRANCH   8   9
ENDBRANCH   7   8
ENDBRANCH   1   7
TORSDOF 3
ENDMDL
