MODEL 1
REMARK minimizedAffinity 8.3516407
REMARK minimizedRMSD -1
REMARK  1 active torsions:
REMARK  status: ('A' for Active; 'I' for Inactive)
REMARK    1  A    between atoms: C1_2  and  C2_3 
ROOT
ATOM      1  C2  UNL d   1       1.473   1.936   1.430  0.00  0.00    -0.081 A 
ATOM      2  C3  UNL d   1       0.908   1.333   2.561  0.00  0.00     0.006 A 
ATOM      3  C4  UNL d   1      -0.409   1.616   2.930  0.00  0.00     0.002 A 
ATOM      4  C5  UNL d   1      -1.185   2.499   2.172  0.00  0.00    -0.080 A 
ATOM      5  C6  UNL d   1      -2.610   2.788   2.541  0.00  0.00     0.076 C 
ATOM      6  C7  UNL d   1      -0.615   3.115   1.053  0.00  0.00     0.002 A 
ATOM      7  C8  UNL d   1       0.702   2.833   0.683  0.00  0.00     0.006 A 
ENDROOT
BRANCH   1   8
ATOM      8  C1  UNL d   1       2.872   1.584   0.992  0.00  0.00     0.054 C 
ATOM      9  C   UNL d   1       2.873   0.382   0.058  0.00  0.00     0.018 C 
ENDBRANCH   1   8
TORSDOF 1
ENDMDL
