MODEL 1
REMARK minimizedAffinity 4.48723555
REMARK minimizedRMSD -1
REMARK  1 active torsions:
REMARK  status: ('A' for Active; 'I' for Inactive)
REMARK    1  A    between atoms: C1_2  and  C2_3 
ROOT
ATOM      1  C2  UNL d   1       4.017  -0.985   1.091  0.00  0.00    -0.081 A 
ATOM      2  C3  UNL d   1       3.623  -2.123   1.806  0.00  0.00     0.006 A 
ATOM      3  C4  UNL d   1       2.619  -2.959   1.311  0.00  0.00     0.002 A 
ATOM      4  C5  UNL d   1       1.999  -2.676   0.089  0.00  0.00    -0.080 A 
ATOM      5  C6  UNL d   1       0.941  -3.582  -0.468  0.00  0.00     0.076 C 
ATOM      6  C7  UNL d   1       2.380  -1.530  -0.617  0.00  0.00     0.002 A 
ATOM      7  C8  UNL d   1       3.383  -0.694  -0.122  0.00  0.00     0.006 A 
ENDROOT
BRANCH   1   8
ATOM      8  C1  UNL d   1       5.143  -0.118   1.591  0.00  0.00     0.054 C 
ATOM      9  C   UNL d   1       5.998  -0.854   2.612  0.00  0.00     0.018 C 
ENDBRANCH   1   8
TORSDOF 1
ENDMDL
