MODEL 1
REMARK minimizedAffinity 7.2925539
REMARK minimizedRMSD -1
REMARK  1 active torsions:
REMARK  status: ('A' for Active; 'I' for Inactive)
REMARK    1  A    between atoms: C1_2  and  C2_3 
ROOT
ATOM      1  C2  UNL d   1      -1.623   2.175   2.117  0.00  0.00    -0.081 A 
ATOM      2  C3  UNL d   1      -0.400   2.175   1.435  0.00  0.00     0.006 A 
ATOM      3  C4  UNL d   1       0.759   1.709   2.060  0.00  0.00     0.002 A 
ATOM      4  C5  UNL d   1       0.713   1.226   3.372  0.00  0.00    -0.080 A 
ATOM      5  C6  UNL d   1       1.944   0.694   4.043  0.00  0.00     0.076 C 
ATOM      6  C7  UNL d   1      -0.505   1.242   4.060  0.00  0.00     0.002 A 
ATOM      7  C8  UNL d   1      -1.664   1.709   3.436  0.00  0.00     0.006 A 
ENDROOT
BRANCH   1   8
ATOM      8  C1  UNL d   1      -2.887   2.617   1.425  0.00  0.00     0.054 C 
ATOM      9  C   UNL d   1      -4.064   1.727   1.800  0.00  0.00     0.018 C 
ENDBRANCH   1   8
TORSDOF 1
ENDMDL
