MODEL 1
REMARK minimizedAffinity -2.44343305
REMARK minimizedRMSD -1
REMARK  1 active torsions:
REMARK  status: ('A' for Active; 'I' for Inactive)
REMARK    1  A    between atoms: C1_2  and  C2_3 
ROOT
ATOM      1  C2  UNL d   1       1.125   1.166   0.089  0.00  0.00    -0.081 A 
ATOM      2  C3  UNL d   1       2.020   0.101   0.243  0.00  0.00     0.006 A 
ATOM      3  C4  UNL d   1       1.593  -1.216   0.050  0.00  0.00     0.002 A 
ATOM      4  C5  UNL d   1       0.269  -1.487  -0.308  0.00  0.00    -0.080 A 
ATOM      5  C6  UNL d   1      -0.194  -2.894  -0.549  0.00  0.00     0.076 C 
ATOM      6  C7  UNL d   1      -0.630  -0.424  -0.446  0.00  0.00     0.002 A 
ATOM      7  C8  UNL d   1      -0.204   0.892  -0.252  0.00  0.00     0.006 A 
ENDROOT
BRANCH   1   8
ATOM      8  C1  UNL d   1       1.597   2.591   0.233  0.00  0.00     0.054 C 
ATOM      9  C   UNL d   1       0.881   3.298   1.375  0.00  0.00     0.018 C 
ENDBRANCH   1   8
TORSDOF 1
ENDMDL
