MODEL 1
REMARK minimizedAffinity 6.67713451
REMARK minimizedRMSD -1
REMARK  1 active torsions:
REMARK  status: ('A' for Active; 'I' for Inactive)
REMARK    1  A    between atoms: C1_2  and  C2_3 
ROOT
ATOM      1  C2  UNL d   1       2.455  -0.282   0.763  0.00  0.00    -0.081 A 
ATOM      2  C3  UNL d   1       2.147   0.500   1.883  0.00  0.00     0.006 A 
ATOM      3  C4  UNL d   1       1.715   1.820   1.728  0.00  0.00     0.002 A 
ATOM      4  C5  UNL d   1       1.576   2.376   0.452  0.00  0.00    -0.080 A 
ATOM      5  C6  UNL d   1       1.084   3.781   0.271  0.00  0.00     0.076 C 
ATOM      6  C7  UNL d   1       1.901   1.600  -0.666  0.00  0.00     0.002 A 
ATOM      7  C8  UNL d   1       2.334   0.282  -0.512  0.00  0.00     0.006 A 
ENDROOT
BRANCH   1   8
ATOM      8  C1  UNL d   1       2.860  -1.725   0.924  0.00  0.00     0.054 C 
ATOM      9  C   UNL d   1       2.115  -2.621  -0.056  0.00  0.00     0.018 C 
ENDBRANCH   1   8
TORSDOF 1
ENDMDL
