MODEL 1
REMARK minimizedAffinity 4.87319326
REMARK minimizedRMSD -1
REMARK  1 active torsions:
REMARK  status: ('A' for Active; 'I' for Inactive)
REMARK    1  A    between atoms: C1_2  and  C2_3 
ROOT
ATOM      1  C2  UNL d   1      -1.828   1.865   1.693  0.00  0.00    -0.081 A 
ATOM      2  C3  UNL d   1      -0.781   1.488   2.544  0.00  0.00     0.006 A 
ATOM      3  C4  UNL d   1       0.536   1.465   2.079  0.00  0.00     0.002 A 
ATOM      4  C5  UNL d   1       0.829   1.825   0.760  0.00  0.00    -0.080 A 
ATOM      5  C6  UNL d   1       2.242   1.834   0.257  0.00  0.00     0.076 C 
ATOM      6  C7  UNL d   1      -0.218   2.185  -0.096  0.00  0.00     0.002 A 
ATOM      7  C8  UNL d   1      -1.535   2.207   0.368  0.00  0.00     0.006 A 
ENDROOT
BRANCH   1   8
ATOM      8  C1  UNL d   1      -3.241   1.953   2.209  0.00  0.00     0.054 C 
ATOM      9  C   UNL d   1      -4.252   1.830   1.078  0.00  0.00     0.018 C 
ENDBRANCH   1   8
TORSDOF 1
ENDMDL
