MODEL 1
REMARK minimizedAffinity -1.05520046
REMARK minimizedRMSD -1
REMARK  1 active torsions:
REMARK  status: ('A' for Active; 'I' for Inactive)
REMARK    1  A    between atoms: C1_2  and  C2_3 
ROOT
ATOM      1  C2  UNL d   1       1.574  -1.890  -0.467  0.00  0.00    -0.081 A 
ATOM      2  C3  UNL d   1       1.289  -3.170   0.022  0.00  0.00     0.006 A 
ATOM      3  C4  UNL d   1       0.258  -3.929  -0.536  0.00  0.00     0.002 A 
ATOM      4  C5  UNL d   1      -0.500  -3.424  -1.598  0.00  0.00    -0.080 A 
ATOM      5  C6  UNL d   1      -1.590  -4.240  -2.226  0.00  0.00     0.076 C 
ATOM      6  C7  UNL d   1      -0.228  -2.137  -2.076  0.00  0.00     0.002 A 
ATOM      7  C8  UNL d   1       0.803  -1.378  -1.517  0.00  0.00     0.006 A 
ENDROOT
BRANCH   1   8
ATOM      8  C1  UNL d   1       2.727  -1.095   0.090  0.00  0.00     0.054 C 
ATOM      9  C   UNL d   1       2.542   0.396  -0.156  0.00  0.00     0.018 C 
ENDBRANCH   1   8
TORSDOF 1
ENDMDL
