MODEL 1
REMARK minimizedAffinity -2.04270887
REMARK minimizedRMSD -1
REMARK  1 active torsions:
REMARK  status: ('A' for Active; 'I' for Inactive)
REMARK    1  A    between atoms: C1_2  and  C2_3 
ROOT
ATOM      1  C2  UNL d   1      -1.622   0.365   0.030  0.00  0.00    -0.081 A 
ATOM      2  C3  UNL d   1      -1.443  -0.949  -0.422  0.00  0.00     0.006 A 
ATOM      3  C4  UNL d   1      -0.162  -1.499  -0.509  0.00  0.00     0.002 A 
ATOM      4  C5  UNL d   1       0.960  -0.749  -0.140  0.00  0.00    -0.080 A 
ATOM      5  C6  UNL d   1       2.338  -1.338  -0.201  0.00  0.00     0.076 C 
ATOM      6  C7  UNL d   1       0.783   0.569   0.295  0.00  0.00     0.002 A 
ATOM      7  C8  UNL d   1      -0.498   1.120   0.382  0.00  0.00     0.006 A 
ENDROOT
BRANCH   1   8
ATOM      8  C1  UNL d   1      -3.006   0.939   0.187  0.00  0.00     0.054 C 
ATOM      9  C   UNL d   1      -3.346   1.173   1.653  0.00  0.00     0.018 C 
ENDBRANCH   1   8
TORSDOF 1
ENDMDL
