MODEL 1
REMARK minimizedAffinity 4.64953852
REMARK minimizedRMSD -1
REMARK  1 active torsions:
REMARK  status: ('A' for Active; 'I' for Inactive)
REMARK    1  A    between atoms: C1_2  and  C2_3 
ROOT
ATOM      1  C2  UNL d   1       0.498   2.814   2.197  0.00  0.00    -0.081 A 
ATOM      2  C3  UNL d   1       0.479   2.856   0.797  0.00  0.00     0.006 A 
ATOM      3  C4  UNL d   1       0.832   1.729   0.050  0.00  0.00     0.002 A 
ATOM      4  C5  UNL d   1       1.203   0.541   0.689  0.00  0.00    -0.080 A 
ATOM      5  C6  UNL d   1       1.555  -0.684  -0.101  0.00  0.00     0.076 C 
ATOM      6  C7  UNL d   1       1.239   0.505   2.087  0.00  0.00     0.002 A 
ATOM      7  C8  UNL d   1       0.887   1.631   2.835  0.00  0.00     0.006 A 
ENDROOT
BRANCH   1   8
ATOM      8  C1  UNL d   1       0.056   4.007   3.005  0.00  0.00     0.054 C 
ATOM      9  C   UNL d   1      -0.205   5.213   2.115  0.00  0.00     0.018 C 
ENDBRANCH   1   8
TORSDOF 1
ENDMDL
