MODEL 1
REMARK minimizedAffinity -1.10509467
REMARK minimizedRMSD -1
REMARK  0 active torsions:
REMARK  status: ('A' for Active; 'I' for Inactive)
ROOT
ATOM      1  C   UNL d   1       0.540   0.366  -0.018  0.00  0.00    -0.002 A 
ATOM      2  C1  UNL d   1      -0.186  -0.154   1.045  0.00  0.00     0.010 A 
ATOM      3  C2  UNL d   1      -0.762  -1.422   0.958  0.00  0.00     0.041 A 
ATOM      4  C3  UNL d   1      -0.594  -2.168  -0.225  0.00  0.00    -0.075 A 
ATOM      5  S   UNL d   1      -1.210  -3.744  -0.557  0.00  0.00     0.015 SA
ATOM      6  C4  UNL d   1      -0.523  -3.765  -2.117  0.00  0.00     0.022 A 
ATOM      7  C5  UNL d   1       0.162  -2.606  -2.394  0.00  0.00     0.026 A 
ATOM      8  C6  UNL d   1       0.133  -1.667  -1.308  0.00  0.00    -0.082 A 
ATOM      9  C7  UNL d   1       0.705  -0.377  -1.190  0.00  0.00     0.045 A 
ENDROOT
TORSDOF 0
ENDMDL
