MODEL 1
REMARK minimizedAffinity 1.20455551
REMARK minimizedRMSD -1
REMARK  0 active torsions:
REMARK  status: ('A' for Active; 'I' for Inactive)
ROOT
ATOM      1  C   UNL d   1      -0.662   3.763  -1.128  0.00  0.00    -0.002 A 
ATOM      2  C1  UNL d   1      -0.521   2.954  -2.247  0.00  0.00     0.010 A 
ATOM      3  C2  UNL d   1      -0.179   1.607  -2.112  0.00  0.00     0.041 A 
ATOM      4  C3  UNL d   1       0.019   1.081  -0.820  0.00  0.00    -0.075 A 
ATOM      5  S   UNL d   1       0.442  -0.539  -0.411  0.00  0.00     0.015 SA
ATOM      6  C4  UNL d   1       0.444  -0.197   1.258  0.00  0.00     0.022 A 
ATOM      7  C5  UNL d   1       0.133   1.117   1.516  0.00  0.00     0.026 A 
ATOM      8  C6  UNL d   1      -0.119   1.875   0.322  0.00  0.00    -0.082 A 
ATOM      9  C7  UNL d   1      -0.465   3.237   0.151  0.00  0.00     0.045 A 
ENDROOT
TORSDOF 0
ENDMDL
