MODEL 1
REMARK minimizedAffinity 2.21534944
REMARK minimizedRMSD -1
REMARK  0 active torsions:
REMARK  status: ('A' for Active; 'I' for Inactive)
ROOT
ATOM      1  C   UNL d   1       0.079   0.755  -0.256  0.00  0.00    -0.002 A 
ATOM      2  C1  UNL d   1       0.690   0.071   0.786  0.00  0.00     0.010 A 
ATOM      3  C2  UNL d   1       0.843  -1.316   0.732  0.00  0.00     0.041 A 
ATOM      4  C3  UNL d   1       0.368  -2.011  -0.398  0.00  0.00    -0.075 A 
ATOM      5  S   UNL d   1       0.446  -3.709  -0.683  0.00  0.00     0.015 SA
ATOM      6  C4  UNL d   1      -0.330  -3.567  -2.194  0.00  0.00     0.022 A 
ATOM      7  C5  UNL d   1      -0.648  -2.263  -2.489  0.00  0.00     0.026 A 
ATOM      8  C6  UNL d   1      -0.251  -1.344  -1.459  0.00  0.00    -0.082 A 
ATOM      9  C7  UNL d   1      -0.391   0.062  -1.375  0.00  0.00     0.045 A 
ENDROOT
TORSDOF 0
ENDMDL
