MODEL 1
REMARK minimizedAffinity -0.953091443
REMARK minimizedRMSD -1
REMARK  0 active torsions:
REMARK  status: ('A' for Active; 'I' for Inactive)
ROOT
ATOM      1  C   UNL d   1       0.608  -1.749   0.628  0.00  0.00    -0.002 A 
ATOM      2  C1  UNL d   1       0.616  -1.544  -0.744  0.00  0.00     0.010 A 
ATOM      3  C2  UNL d   1       0.340  -0.283  -1.276  0.00  0.00     0.041 A 
ATOM      4  C3  UNL d   1       0.054   0.780  -0.396  0.00  0.00    -0.075 A 
ATOM      5  S   UNL d   1      -0.313   2.410  -0.819  0.00  0.00     0.015 SA
ATOM      6  C4  UNL d   1      -0.488   2.873   0.811  0.00  0.00     0.022 A 
ATOM      7  C5  UNL d   1      -0.276   1.822   1.672  0.00  0.00     0.026 A 
ATOM      8  C6  UNL d   1       0.041   0.598   0.990  0.00  0.00    -0.082 A 
ATOM      9  C7  UNL d   1       0.324  -0.692   1.498  0.00  0.00     0.045 A 
ENDROOT
TORSDOF 0
ENDMDL
