MODEL 1
REMARK minimizedAffinity -6.41831303
REMARK minimizedRMSD -1
REMARK  0 active torsions:
REMARK  status: ('A' for Active; 'I' for Inactive)
ROOT
ATOM      1  C   UNL d   1      -1.412   3.160   1.699  0.00  0.00    -0.002 A 
ATOM      2  C1  UNL d   1      -1.585   3.521   0.371  0.00  0.00     0.010 A 
ATOM      3  C2  UNL d   1      -1.174   2.669  -0.656  0.00  0.00     0.041 A 
ATOM      4  C3  UNL d   1      -0.583   1.435  -0.322  0.00  0.00    -0.075 A 
ATOM      5  S   UNL d   1      -0.005   0.231  -1.412  0.00  0.00     0.015 SA
ATOM      6  C4  UNL d   1       0.484  -0.792  -0.140  0.00  0.00     0.022 A 
ATOM      7  C5  UNL d   1       0.221  -0.244   1.093  0.00  0.00     0.026 A 
ATOM      8  C6  UNL d   1      -0.399   1.048   1.008  0.00  0.00    -0.082 A 
ATOM      9  C7  UNL d   1      -0.825   1.935   2.027  0.00  0.00     0.045 A 
ENDROOT
TORSDOF 0
ENDMDL
