MODEL 1
REMARK minimizedAffinity -5.14238453
REMARK minimizedRMSD -1
REMARK  0 active torsions:
REMARK  status: ('A' for Active; 'I' for Inactive)
ROOT
ATOM      1  C   UNL d   1      -1.273   3.086  -0.068  0.00  0.00    -0.002 A 
ATOM      2  C1  UNL d   1      -1.110   2.947   1.303  0.00  0.00     0.010 A 
ATOM      3  C2  UNL d   1      -0.494   1.812   1.834  0.00  0.00     0.041 A 
ATOM      4  C3  UNL d   1      -0.038   0.810   0.955  0.00  0.00    -0.075 A 
ATOM      5  S   UNL d   1       0.747  -0.665   1.378  0.00  0.00     0.015 SA
ATOM      6  C4  UNL d   1       0.886  -1.145  -0.252  0.00  0.00     0.022 A 
ATOM      7  C5  UNL d   1       0.352  -0.215  -1.111  0.00  0.00     0.026 A 
ATOM      8  C6  UNL d   1      -0.189   0.928  -0.430  0.00  0.00    -0.082 A 
ATOM      9  C7  UNL d   1      -0.819   2.090  -0.937  0.00  0.00     0.045 A 
ENDROOT
TORSDOF 0
ENDMDL
