MODEL 1
REMARK minimizedAffinity -5.81580019
REMARK minimizedRMSD -1
REMARK  0 active torsions:
REMARK  status: ('A' for Active; 'I' for Inactive)
ROOT
ATOM      1  C   UNL d   1      -1.459   3.136   1.134  0.00  0.00    -0.002 A 
ATOM      2  C1  UNL d   1      -1.405   3.357  -0.235  0.00  0.00     0.010 A 
ATOM      3  C2  UNL d   1      -0.752   2.454  -1.076  0.00  0.00     0.041 A 
ATOM      4  C3  UNL d   1      -0.150   1.312  -0.513  0.00  0.00    -0.075 A 
ATOM      5  S   UNL d   1       0.703   0.068  -1.348  0.00  0.00     0.015 SA
ATOM      6  C4  UNL d   1       1.016  -0.788   0.092  0.00  0.00     0.022 A 
ATOM      7  C5  UNL d   1       0.490  -0.154   1.193  0.00  0.00     0.026 A 
ATOM      8  C6  UNL d   1      -0.192   1.066   0.862  0.00  0.00    -0.082 A 
ATOM      9  C7  UNL d   1      -0.860   2.001   1.688  0.00  0.00     0.045 A 
ENDROOT
TORSDOF 0
ENDMDL
