MODEL 1
REMARK minimizedAffinity -4.1564188
REMARK minimizedRMSD -1
REMARK  0 active torsions:
REMARK  status: ('A' for Active; 'I' for Inactive)
ROOT
ATOM      1  C   UNL d   1       0.898  -0.344   1.607  0.00  0.00    -0.002 A 
ATOM      2  C1  UNL d   1       0.773  -0.536   0.239  0.00  0.00     0.010 A 
ATOM      3  C2  UNL d   1       0.042   0.362  -0.541  0.00  0.00     0.041 A 
ATOM      4  C3  UNL d   1      -0.567   1.468   0.084  0.00  0.00    -0.075 A 
ATOM      5  S   UNL d   1      -1.510   2.699  -0.669  0.00  0.00     0.015 SA
ATOM      6  C4  UNL d   1      -1.769   3.509   0.807  0.00  0.00     0.022 A 
ATOM      7  C5  UNL d   1      -1.158   2.870   1.860  0.00  0.00     0.026 A 
ATOM      8  C6  UNL d   1      -0.455   1.684   1.461  0.00  0.00    -0.082 A 
ATOM      9  C7  UNL d   1       0.293   0.755   2.224  0.00  0.00     0.045 A 
ENDROOT
TORSDOF 0
ENDMDL
