MODEL 1
REMARK minimizedAffinity 8.09717941
REMARK minimizedRMSD -1
REMARK  0 active torsions:
REMARK  status: ('A' for Active; 'I' for Inactive)
ROOT
ATOM      1  C   UNL d   1      -5.230   0.312  -2.619  0.00  0.00    -0.002 A 
ATOM      2  C1  UNL d   1      -5.114   1.474  -1.869  0.00  0.00     0.010 A 
ATOM      3  C2  UNL d   1      -3.891   1.832  -1.299  0.00  0.00     0.041 A 
ATOM      4  C3  UNL d   1      -2.774   0.997  -1.500  0.00  0.00    -0.075 A 
ATOM      5  S   UNL d   1      -1.176   1.235  -0.900  0.00  0.00     0.015 SA
ATOM      6  C4  UNL d   1      -0.609  -0.199  -1.626  0.00  0.00     0.022 A 
ATOM      7  C5  UNL d   1      -1.602  -0.856  -2.314  0.00  0.00     0.026 A 
ATOM      8  C6  UNL d   1      -2.866  -0.178  -2.253  0.00  0.00    -0.082 A 
ATOM      9  C7  UNL d   1      -4.120  -0.514  -2.817  0.00  0.00     0.045 A 
ENDROOT
TORSDOF 0
ENDMDL
