MODEL 1
REMARK minimizedAffinity 4.18567848
REMARK minimizedRMSD -1
REMARK  0 active torsions:
REMARK  status: ('A' for Active; 'I' for Inactive)
ROOT
ATOM      1  C   UNL d   1      -0.581  -2.860  -2.198  0.00  0.00    -0.002 A 
ATOM      2  C1  UNL d   1      -0.292  -3.612  -1.068  0.00  0.00     0.010 A 
ATOM      3  C2  UNL d   1       0.120  -2.991   0.113  0.00  0.00     0.041 A 
ATOM      4  C3  UNL d   1       0.235  -1.588   0.140  0.00  0.00    -0.075 A 
ATOM      5  S   UNL d   1       0.721  -0.610   1.475  0.00  0.00     0.015 SA
ATOM      6  C4  UNL d   1       0.555   0.829   0.577  0.00  0.00     0.022 A 
ATOM      7  C5  UNL d   1       0.141   0.588  -0.711  0.00  0.00     0.026 A 
ATOM      8  C6  UNL d   1      -0.051  -0.808  -0.984  0.00  0.00    -0.082 A 
ATOM      9  C7  UNL d   1      -0.465  -1.468  -2.167  0.00  0.00     0.045 A 
ENDROOT
TORSDOF 0
ENDMDL
