MODEL 1
REMARK minimizedAffinity -6.05101585
REMARK minimizedRMSD -1
REMARK  0 active torsions:
REMARK  status: ('A' for Active; 'I' for Inactive)
ROOT
ATOM      1  C1  DEN d   1       0.690  -0.266  -1.173  0.00  0.00     0.130 A 
ATOM      2  C2  DEN d   1      -0.451   0.587  -0.852  0.00  0.00    -0.031 A 
ATOM      3  C3  DEN d   1      -0.596   0.623   0.617  0.00  0.00     0.027 A 
ATOM      4  C4  DEN d   1       0.832  -0.550   2.417  0.00  0.00     0.027 A 
ATOM      5  C5  DEN d   1       1.902  -1.390   2.628  0.00  0.00    -0.003 A 
ATOM      6  C6  DEN d   1       2.617  -1.937   1.596  0.00  0.00     0.001 A 
ATOM      7  C7  DEN d   1       2.297  -1.614   0.303  0.00  0.00     0.017 A 
ATOM      8  C8  DEN d   1       1.215  -0.774   0.082  0.00  0.00    -0.094 A 
ATOM      9  C9  DEN d   1       0.512  -0.221   1.139  0.00  0.00    -0.072 A 
ENDROOT
TORSDOF 0
ENDMDL
