MODEL 1
REMARK minimizedAffinity -4.88900232
REMARK minimizedRMSD -1
REMARK  0 active torsions:
REMARK  status: ('A' for Active; 'I' for Inactive)
ROOT
ATOM      1  C1  DEN d   1      -1.792  -0.393   0.326  0.00  0.00     0.130 A 
ATOM      2  C2  DEN d   1      -1.433   0.055  -1.017  0.00  0.00    -0.031 A 
ATOM      3  C3  DEN d   1       0.031   0.243  -1.060  0.00  0.00     0.027 A 
ATOM      4  C4  DEN d   1       1.769  -0.119   0.812  0.00  0.00     0.027 A 
ATOM      5  C5  DEN d   1       1.940  -0.484   2.129  0.00  0.00    -0.003 A 
ATOM      6  C6  DEN d   1       0.886  -0.809   2.940  0.00  0.00     0.001 A 
ATOM      7  C7  DEN d   1      -0.386  -0.819   2.429  0.00  0.00     0.017 A 
ATOM      8  C8  DEN d   1      -0.567  -0.445   1.104  0.00  0.00    -0.094 A 
ATOM      9  C9  DEN d   1       0.513  -0.132   0.297  0.00  0.00    -0.072 A 
ENDROOT
TORSDOF 0
ENDMDL
