MODEL 1
REMARK minimizedAffinity -0.206630066
REMARK minimizedRMSD -1
REMARK  0 active torsions:
REMARK  status: ('A' for Active; 'I' for Inactive)
ROOT
ATOM      1  C1  DEN d   1      -0.966   1.256   0.474  0.00  0.00     0.130 A 
ATOM      2  C2  DEN d   1      -0.317  -0.035   0.260  0.00  0.00    -0.031 A 
ATOM      3  C3  DEN d   1       0.222  -0.052  -1.115  0.00  0.00     0.027 A 
ATOM      4  C4  DEN d   1       0.119   1.786  -2.922  0.00  0.00     0.027 A 
ATOM      5  C5  DEN d   1      -0.339   3.053  -3.209  0.00  0.00    -0.003 A 
ATOM      6  C6  DEN d   1      -1.061   3.790  -2.309  0.00  0.00     0.001 A 
ATOM      7  C7  DEN d   1      -1.308   3.284  -1.060  0.00  0.00     0.017 A 
ATOM      8  C8  DEN d   1      -0.856   2.004  -0.765  0.00  0.00    -0.094 A 
ATOM      9  C9  DEN d   1      -0.117   1.280  -1.685  0.00  0.00    -0.072 A 
ENDROOT
TORSDOF 0
ENDMDL
