MODEL 1
REMARK minimizedAffinity -3.95183873
REMARK minimizedRMSD -1
REMARK  0 active torsions:
REMARK  status: ('A' for Active; 'I' for Inactive)
ROOT
ATOM      1  C1  DEN d   1       1.258  -1.305   1.042  0.00  0.00     0.130 A 
ATOM      2  C2  DEN d   1       0.775  -1.455   2.412  0.00  0.00    -0.031 A 
ATOM      3  C3  DEN d   1      -0.557  -0.823   2.499  0.00  0.00     0.027 A 
ATOM      4  C4  DEN d   1      -1.913   0.364   0.654  0.00  0.00     0.027 A 
ATOM      5  C5  DEN d   1      -1.910   0.751  -0.668  0.00  0.00    -0.003 A 
ATOM      6  C6  DEN d   1      -0.847   0.511  -1.497  0.00  0.00     0.001 A 
ATOM      7  C7  DEN d   1       0.242  -0.173  -1.024  0.00  0.00     0.017 A 
ATOM      8  C8  DEN d   1       0.250  -0.559   0.310  0.00  0.00    -0.094 A 
ATOM      9  C9  DEN d   1      -0.840  -0.319   1.129  0.00  0.00    -0.072 A 
ENDROOT
TORSDOF 0
ENDMDL
