MODEL 1
REMARK minimizedAffinity -4.34019232
REMARK minimizedRMSD -1
REMARK  0 active torsions:
REMARK  status: ('A' for Active; 'I' for Inactive)
ROOT
ATOM      1  C1  DEN d   1      -0.415   0.660  -0.308  0.00  0.00     0.130 A 
ATOM      2  C2  DEN d   1      -0.087   0.016  -1.577  0.00  0.00    -0.031 A 
ATOM      3  C3  DEN d   1       0.853  -1.088  -1.299  0.00  0.00     0.027 A 
ATOM      4  C4  DEN d   1       1.824  -1.863   0.962  0.00  0.00     0.027 A 
ATOM      5  C5  DEN d   1       1.847  -1.617   2.317  0.00  0.00    -0.003 A 
ATOM      6  C6  DEN d   1       1.150  -0.583   2.883  0.00  0.00     0.001 A 
ATOM      7  C7  DEN d   1       0.364   0.217   2.097  0.00  0.00     0.017 A 
ATOM      8  C8  DEN d   1       0.341  -0.020   0.729  0.00  0.00    -0.094 A 
ATOM      9  C9  DEN d   1       1.043  -1.078   0.177  0.00  0.00    -0.072 A 
ENDROOT
TORSDOF 0
ENDMDL
