MODEL 1
REMARK minimizedAffinity -2.82763195
REMARK minimizedRMSD -1
REMARK  0 active torsions:
REMARK  status: ('A' for Active; 'I' for Inactive)
ROOT
ATOM      1  C1  DEN d   1       1.995  -2.477   1.667  0.00  0.00     0.130 A 
ATOM      2  C2  DEN d   1       2.722  -2.582   0.405  0.00  0.00    -0.031 A 
ATOM      3  C3  DEN d   1       2.048  -1.715  -0.583  0.00  0.00     0.027 A 
ATOM      4  C4  DEN d   1      -0.036  -0.226  -0.280  0.00  0.00     0.027 A 
ATOM      5  C5  DEN d   1      -1.004   0.182   0.610  0.00  0.00    -0.003 A 
ATOM      6  C6  DEN d   1      -1.061  -0.290   1.895  0.00  0.00     0.001 A 
ATOM      7  C7  DEN d   1      -0.104  -1.164   2.339  0.00  0.00     0.017 A 
ATOM      8  C8  DEN d   1       0.871  -1.586   1.445  0.00  0.00    -0.094 A 
ATOM      9  C9  DEN d   1       0.919  -1.087   0.154  0.00  0.00    -0.072 A 
ENDROOT
TORSDOF 0
ENDMDL
