MODEL 1
REMARK minimizedAffinity -3.55307984
REMARK minimizedRMSD -1
REMARK  1 active torsions:
REMARK  status: ('A' for Active; 'I' for Inactive)
REMARK    1  A    between atoms: C3_4  and  O_7 
ROOT
ATOM      1  C   UNL d   1       0.866   0.130  -0.056  0.00  0.00    -0.033 A 
ATOM      2  C1  UNL d   1       0.975   0.000   1.330  0.00  0.00     0.039 A 
ATOM      3  C2  UNL d   1       0.108   0.703   2.169  0.00  0.00    -0.080 A 
ATOM      4  C3  UNL d   1      -0.863   1.530   1.611  0.00  0.00     0.150 A 
ATOM      5  C4  UNL d   1      -0.980   1.660   0.231  0.00  0.00    -0.007 A 
ATOM      6  C5  UNL d   1      -0.113   0.959  -0.605  0.00  0.00     0.039 A 
ENDROOT
BRANCH   4   7
ATOM      7  O   UNL d   1      -1.729   2.239   2.389  0.00  0.00    -0.526 OA
ATOM      8  H5  UNL d   1      -1.511   2.073   3.322  0.00  0.00     0.418 HD
ENDBRANCH   4   7
TORSDOF 1
ENDMDL
