MODEL 1
REMARK minimizedAffinity -4.93161917
REMARK minimizedRMSD -1
REMARK  1 active torsions:
REMARK  status: ('A' for Active; 'I' for Inactive)
REMARK    1  A    between atoms: C3_4  and  O_7 
ROOT
ATOM      1  C   UNL d   1       0.036   0.040   0.444  0.00  0.00    -0.033 A 
ATOM      2  C1  UNL d   1      -1.093   0.621  -0.136  0.00  0.00     0.039 A 
ATOM      3  C2  UNL d   1      -1.775   1.642   0.530  0.00  0.00    -0.080 A 
ATOM      4  C3  UNL d   1      -1.318   2.071   1.773  0.00  0.00     0.150 A 
ATOM      5  C4  UNL d   1      -0.192   1.499   2.355  0.00  0.00    -0.007 A 
ATOM      6  C5  UNL d   1       0.488   0.480   1.689  0.00  0.00     0.039 A 
ENDROOT
BRANCH   4   7
ATOM      7  O   UNL d   1      -1.954   3.060   2.463  0.00  0.00    -0.526 OA
ATOM      8  H5  UNL d   1      -2.731   3.341   1.952  0.00  0.00     0.418 HD
ENDBRANCH   4   7
TORSDOF 1
ENDMDL
