MODEL 1
REMARK minimizedAffinity -3.67368627
REMARK minimizedRMSD -1
REMARK  1 active torsions:
REMARK  status: ('A' for Active; 'I' for Inactive)
REMARK    1  A    between atoms: C3_4  and  O_7 
ROOT
ATOM      1  C   UNL d   1       0.658   0.510  -1.464  0.00  0.00    -0.033 A 
ATOM      2  C1  UNL d   1       0.391  -0.136  -0.255  0.00  0.00     0.039 A 
ATOM      3  C2  UNL d   1      -0.570   0.379   0.617  0.00  0.00    -0.080 A 
ATOM      4  C3  UNL d   1      -1.258   1.538   0.268  0.00  0.00     0.150 A 
ATOM      5  C4  UNL d   1      -1.000   2.185  -0.936  0.00  0.00    -0.007 A 
ATOM      6  C5  UNL d   1      -0.039   1.670  -1.805  0.00  0.00     0.039 A 
ENDROOT
BRANCH   4   7
ATOM      7  O   UNL d   1      -2.201   2.081   1.089  0.00  0.00    -0.526 OA
ATOM      8  H5  UNL d   1      -2.252   1.543   1.897  0.00  0.00     0.418 HD
ENDBRANCH   4   7
TORSDOF 1
ENDMDL
