MODEL 1
REMARK minimizedAffinity -4.18923473
REMARK minimizedRMSD -1
REMARK  1 active torsions:
REMARK  status: ('A' for Active; 'I' for Inactive)
REMARK    1  A    between atoms: C3_4  and  O_7 
ROOT
ATOM      1  C   UNL d   1      -0.335   0.898   0.073  0.00  0.00    -0.033 A 
ATOM      2  C1  UNL d   1      -0.739   1.779   1.078  0.00  0.00     0.039 A 
ATOM      3  C2  UNL d   1      -0.749   1.363   2.411  0.00  0.00    -0.080 A 
ATOM      4  C3  UNL d   1      -0.351   0.066   2.725  0.00  0.00     0.150 A 
ATOM      5  C4  UNL d   1       0.057  -0.815   1.729  0.00  0.00    -0.007 A 
ATOM      6  C5  UNL d   1       0.065  -0.398   0.398  0.00  0.00     0.039 A 
ENDROOT
BRANCH   4   7
ATOM      7  O   UNL d   1      -0.348  -0.387   4.011  0.00  0.00    -0.526 OA
ATOM      8  H5  UNL d   1      -0.682   0.321   4.587  0.00  0.00     0.418 HD
ENDBRANCH   4   7
TORSDOF 1
ENDMDL
