MODEL 1
REMARK minimizedAffinity -4.25710201
REMARK minimizedRMSD -1
REMARK  1 active torsions:
REMARK  status: ('A' for Active; 'I' for Inactive)
REMARK    1  A    between atoms: C3_4  and  O_7 
ROOT
ATOM      1  C   UNL d   1      -0.107   0.102  -1.090  0.00  0.00    -0.033 A 
ATOM      2  C1  UNL d   1       0.331  -0.542   0.069  0.00  0.00     0.039 A 
ATOM      3  C2  UNL d   1       0.210   0.089   1.309  0.00  0.00    -0.080 A 
ATOM      4  C3  UNL d   1      -0.350   1.361   1.376  0.00  0.00     0.150 A 
ATOM      5  C4  UNL d   1      -0.792   2.008   0.226  0.00  0.00    -0.007 A 
ATOM      6  C5  UNL d   1      -0.669   1.377  -1.011  0.00  0.00     0.039 A 
ENDROOT
BRANCH   4   7
ATOM      7  O   UNL d   1      -0.485   2.019   2.563  0.00  0.00    -0.526 OA
ATOM      8  H5  UNL d   1      -0.111   1.463   3.267  0.00  0.00     0.418 HD
ENDBRANCH   4   7
TORSDOF 1
ENDMDL
