MODEL 1
REMARK minimizedAffinity -5.34043217
REMARK minimizedRMSD -1
REMARK  1 active torsions:
REMARK  status: ('A' for Active; 'I' for Inactive)
REMARK    1  A    between atoms: C3_4  and  O_7 
ROOT
ATOM      1  C   UNL d   1       1.100  -0.333   0.466  0.00  0.00    -0.033 A 
ATOM      2  C1  UNL d   1       0.112   0.189  -0.372  0.00  0.00     0.039 A 
ATOM      3  C2  UNL d   1      -0.842   1.073   0.138  0.00  0.00    -0.080 A 
ATOM      4  C3  UNL d   1      -0.796   1.426   1.483  0.00  0.00     0.150 A 
ATOM      5  C4  UNL d   1       0.188   0.913   2.322  0.00  0.00    -0.007 A 
ATOM      6  C5  UNL d   1       1.138   0.030   1.812  0.00  0.00     0.039 A 
ENDROOT
BRANCH   4   7
ATOM      7  O   UNL d   1      -1.708   2.281   2.027  0.00  0.00    -0.526 OA
ATOM      8  H5  UNL d   1      -2.344   2.533   1.337  0.00  0.00     0.418 HD
ENDBRANCH   4   7
TORSDOF 1
ENDMDL
