MODEL 1
REMARK minimizedAffinity -5.25744534
REMARK minimizedRMSD -1
REMARK  1 active torsions:
REMARK  status: ('A' for Active; 'I' for Inactive)
REMARK    1  A    between atoms: C3_4  and  O_7 
ROOT
ATOM      1  C   UNL d   1       0.364   0.099   0.000  0.00  0.00    -0.033 A 
ATOM      2  C1  UNL d   1       0.714   0.455   1.304  0.00  0.00     0.039 A 
ATOM      3  C2  UNL d   1      -0.071   1.363   2.016  0.00  0.00    -0.080 A 
ATOM      4  C3  UNL d   1      -1.203   1.907   1.415  0.00  0.00     0.150 A 
ATOM      5  C4  UNL d   1      -1.560   1.554   0.118  0.00  0.00    -0.007 A 
ATOM      6  C5  UNL d   1      -0.774   0.647  -0.593  0.00  0.00     0.039 A 
ENDROOT
BRANCH   4   7
ATOM      7  O   UNL d   1      -1.998   2.800   2.069  0.00  0.00    -0.526 OA
ATOM      8  H5  UNL d   1      -1.613   2.972   2.945  0.00  0.00     0.418 HD
ENDBRANCH   4   7
TORSDOF 1
ENDMDL
