MODEL 1
REMARK minimizedAffinity -4.09102201
REMARK minimizedRMSD -1
REMARK  1 active torsions:
REMARK  status: ('A' for Active; 'I' for Inactive)
REMARK    1  A    between atoms: C3_4  and  O_7 
ROOT
ATOM      1  C   UNL d   1      -0.176  -0.195   1.416  0.00  0.00    -0.033 A 
ATOM      2  C1  UNL d   1      -0.204   1.201   1.399  0.00  0.00     0.039 A 
ATOM      3  C2  UNL d   1      -0.092   1.888   0.190  0.00  0.00    -0.080 A 
ATOM      4  C3  UNL d   1       0.044   1.170  -0.995  0.00  0.00     0.150 A 
ATOM      5  C4  UNL d   1       0.068  -0.221  -0.986  0.00  0.00    -0.007 A 
ATOM      6  C5  UNL d   1      -0.042  -0.906   0.223  0.00  0.00     0.039 A 
ENDROOT
BRANCH   4   7
ATOM      7  O   UNL d   1       0.161   1.797  -2.200  0.00  0.00    -0.526 OA
ATOM      8  H5  UNL d   1       0.157   2.757  -2.048  0.00  0.00     0.418 HD
ENDBRANCH   4   7
TORSDOF 1
ENDMDL
