MODEL 1
REMARK minimizedAffinity -2.75442052
REMARK minimizedRMSD -1
REMARK  1 active torsions:
REMARK  status: ('A' for Active; 'I' for Inactive)
REMARK    1  A    between atoms: C3_4  and  O_7 
ROOT
ATOM      1  C   UNL d   1       0.594  -0.306  -0.078  0.00  0.00    -0.033 A 
ATOM      2  C1  UNL d   1      -0.479   0.354  -0.679  0.00  0.00     0.039 A 
ATOM      3  C2  UNL d   1      -1.051   1.468  -0.061  0.00  0.00    -0.080 A 
ATOM      4  C3  UNL d   1      -0.539   1.912   1.155  0.00  0.00     0.150 A 
ATOM      5  C4  UNL d   1       0.533   1.261   1.758  0.00  0.00    -0.007 A 
ATOM      6  C5  UNL d   1       1.101   0.148   1.140  0.00  0.00     0.039 A 
ENDROOT
BRANCH   4   7
ATOM      7  O   UNL d   1      -1.067   2.991   1.799  0.00  0.00    -0.526 OA
ATOM      8  H5  UNL d   1      -1.819   3.322   1.280  0.00  0.00     0.418 HD
ENDBRANCH   4   7
TORSDOF 1
ENDMDL
