MODEL 1
REMARK minimizedAffinity 17.3150215
REMARK minimizedRMSD -1
REMARK  2 active torsions:
REMARK  status: ('A' for Active; 'I' for Inactive)
REMARK    1  A    between atoms: C2'_3  and  C1'_4 
REMARK    2  A    between atoms: C1'_4  and  C1_5 
ROOT
ATOM      1  C1  I4B d   1       3.325   3.090   2.094  0.00  0.00    -0.075 A 
ATOM      2  C2  I4B d   1       3.411   4.235   2.846  0.00  0.00     0.003 A 
ATOM      3  C3  I4B d   1       3.990   4.199   4.137  0.00  0.00     0.002 A 
ATOM      4  C4  I4B d   1       4.422   2.995   4.655  0.00  0.00    -0.004 A 
ATOM      5  C5  I4B d   1       4.355   1.839   3.882  0.00  0.00     0.002 A 
ATOM      6  C6  I4B d   1       3.815   1.888   2.589  0.00  0.00     0.003 A 
ENDROOT
BRANCH   1   7
ATOM      7  C1' I4B d   1       2.677   3.159   0.748  0.00  0.00     0.060 C 
BRANCH   7   8
ATOM      8  C2' I4B d   1       3.234   2.030  -0.096  0.00  0.00    -0.013 C 
ATOM      9  C4' I4B d   1       2.154   1.052  -0.479  0.00  0.00     0.013 C 
ATOM     10  C3' I4B d   1       3.875   2.632  -1.310  0.00  0.00     0.013 C 
ENDBRANCH   7   8
ENDBRANCH   1   7
TORSDOF 2
ENDMDL
