MODEL 1
REMARK minimizedAffinity 6.20132494
REMARK minimizedRMSD -1
REMARK  2 active torsions:
REMARK  status: ('A' for Active; 'I' for Inactive)
REMARK    1  A    between atoms: C2'_3  and  C1'_4 
REMARK    2  A    between atoms: C1'_4  and  C1_5 
ROOT
ATOM      1  C1  I4B d   1       0.101   0.250   0.912  0.00  0.00    -0.075 A 
ATOM      2  C2  I4B d   1      -0.707   0.716   1.920  0.00  0.00     0.003 A 
ATOM      3  C3  I4B d   1      -2.115   0.700   1.769  0.00  0.00     0.002 A 
ATOM      4  C4  I4B d   1      -2.666   0.261   0.583  0.00  0.00    -0.004 A 
ATOM      5  C5  I4B d   1      -1.847  -0.232  -0.428  0.00  0.00     0.002 A 
ATOM      6  C6  I4B d   1      -0.455  -0.249  -0.258  0.00  0.00     0.003 A 
ENDROOT
BRANCH   1   7
ATOM      7  C1' I4B d   1       1.585   0.311   1.092  0.00  0.00     0.060 C 
BRANCH   7   8
ATOM      8  C2' I4B d   1       2.087   1.563   0.402  0.00  0.00    -0.013 C 
ATOM      9  C4' I4B d   1       2.892   2.419   1.344  0.00  0.00     0.013 C 
ATOM     10  C3' I4B d   1       2.906   1.143  -0.782  0.00  0.00     0.013 C 
ENDBRANCH   7   8
ENDBRANCH   1   7
TORSDOF 2
ENDMDL
