MODEL 1
REMARK minimizedAffinity 12.7817192
REMARK minimizedRMSD -1
REMARK  2 active torsions:
REMARK  status: ('A' for Active; 'I' for Inactive)
REMARK    1  A    between atoms: C2'_3  and  C1'_4 
REMARK    2  A    between atoms: C1'_4  and  C1_5 
ROOT
ATOM      1  C1  I4B d   1      -1.484  -0.104   1.775  0.00  0.00    -0.075 A 
ATOM      2  C2  I4B d   1      -2.850   0.010   1.841  0.00  0.00     0.003 A 
ATOM      3  C3  I4B d   1      -3.566  -0.595   2.903  0.00  0.00     0.002 A 
ATOM      4  C4  I4B d   1      -2.885  -1.342   3.842  0.00  0.00    -0.004 A 
ATOM      5  C5  I4B d   1      -1.498  -1.438   3.786  0.00  0.00     0.002 A 
ATOM      6  C6  I4B d   1      -0.791  -0.805   2.754  0.00  0.00     0.003 A 
ENDROOT
BRANCH   1   7
ATOM      7  C1' I4B d   1      -0.764   0.520   0.623  0.00  0.00     0.060 C 
BRANCH   7   8
ATOM      8  C2' I4B d   1       0.555  -0.206   0.448  0.00  0.00    -0.013 C 
ATOM      9  C4' I4B d   1       0.742  -0.659  -0.976  0.00  0.00     0.013 C 
ATOM     10  C3' I4B d   1       1.654   0.722   0.870  0.00  0.00     0.013 C 
ENDBRANCH   7   8
ENDBRANCH   1   7
TORSDOF 2
ENDMDL
