MODEL 1
REMARK minimizedAffinity 10.2684984
REMARK minimizedRMSD -1
REMARK  2 active torsions:
REMARK  status: ('A' for Active; 'I' for Inactive)
REMARK    1  A    between atoms: C2'_3  and  C1'_4 
REMARK    2  A    between atoms: C1'_4  and  C1_5 
ROOT
ATOM      1  C1  I4B d   1      -1.750  -0.083   2.442  0.00  0.00    -0.075 A 
ATOM      2  C2  I4B d   1      -3.090  -0.367   2.347  0.00  0.00     0.003 A 
ATOM      3  C3  I4B d   1      -3.689  -1.284   3.245  0.00  0.00     0.002 A 
ATOM      4  C4  I4B d   1      -2.907  -1.928   4.182  0.00  0.00    -0.004 A 
ATOM      5  C5  I4B d   1      -1.554  -1.621   4.291  0.00  0.00     0.002 A 
ATOM      6  C6  I4B d   1      -0.974  -0.684   3.424  0.00  0.00     0.003 A 
ENDROOT
BRANCH   1   7
ATOM      7  C1' I4B d   1      -1.143   0.865   1.458  0.00  0.00     0.060 C 
BRANCH   7   8
ATOM      8  C2' I4B d   1      -0.689   0.063   0.256  0.00  0.00    -0.013 C 
ATOM      9  C4' I4B d   1      -1.232   0.642  -1.024  0.00  0.00     0.013 C 
ATOM     10  C3' I4B d   1       0.811   0.048   0.249  0.00  0.00     0.013 C 
ENDBRANCH   7   8
ENDBRANCH   1   7
TORSDOF 2
ENDMDL
