MODEL 1
REMARK minimizedAffinity 6.42901897
REMARK minimizedRMSD -1
REMARK  2 active torsions:
REMARK  status: ('A' for Active; 'I' for Inactive)
REMARK    1  A    between atoms: C2'_3  and  C1'_4 
REMARK    2  A    between atoms: C1'_4  and  C1_5 
ROOT
ATOM      1  C1  I4B d   1       3.365   2.938   1.441  0.00  0.00    -0.075 A 
ATOM      2  C2  I4B d   1       4.125   3.000   0.300  0.00  0.00     0.003 A 
ATOM      3  C3  I4B d   1       3.786   2.212  -0.826  0.00  0.00     0.002 A 
ATOM      4  C4  I4B d   1       2.716   1.344  -0.751  0.00  0.00    -0.004 A 
ATOM      5  C5  I4B d   1       1.933   1.299   0.399  0.00  0.00     0.002 A 
ATOM      6  C6  I4B d   1       2.252   2.110   1.498  0.00  0.00     0.003 A 
ENDROOT
BRANCH   1   7
ATOM      7  C1' I4B d   1       3.772   3.759   2.624  0.00  0.00     0.060 C 
BRANCH   7   8
ATOM      8  C2' I4B d   1       4.799   2.970   3.410  0.00  0.00    -0.013 C 
ATOM      9  C4' I4B d   1       5.998   3.817   3.745  0.00  0.00     0.013 C 
ATOM     10  C3' I4B d   1       4.135   2.455   4.652  0.00  0.00     0.013 C 
ENDBRANCH   7   8
ENDBRANCH   1   7
TORSDOF 2
ENDMDL
