MODEL 1
REMARK minimizedAffinity 3.12744784
REMARK minimizedRMSD -1
REMARK  2 active torsions:
REMARK  status: ('A' for Active; 'I' for Inactive)
REMARK    1  A    between atoms: C2'_3  and  C1'_4 
REMARK    2  A    between atoms: C1'_4  and  C1_5 
ROOT
ATOM      1  C1  I4B d   1       0.499  -0.065   1.424  0.00  0.00    -0.075 A 
ATOM      2  C2  I4B d   1       1.729   0.314   0.948  0.00  0.00     0.003 A 
ATOM      3  C3  I4B d   1       1.863   0.795  -0.377  0.00  0.00     0.002 A 
ATOM      4  C4  I4B d   1       0.757   0.833  -1.202  0.00  0.00    -0.004 A 
ATOM      5  C5  I4B d   1      -0.493   0.470  -0.710  0.00  0.00     0.002 A 
ATOM      6  C6  I4B d   1      -0.626   0.030   0.615  0.00  0.00     0.003 A 
ENDROOT
BRANCH   1   7
ATOM      7  C1' I4B d   1       0.399  -0.599   2.818  0.00  0.00     0.060 C 
BRANCH   7   8
ATOM      8  C2' I4B d   1      -1.043  -0.469   3.265  0.00  0.00    -0.013 C 
ATOM      9  C4' I4B d   1      -1.572  -1.779   3.788  0.00  0.00     0.013 C 
ATOM     10  C3' I4B d   1      -1.108   0.599   4.315  0.00  0.00     0.013 C 
ENDBRANCH   7   8
ENDBRANCH   1   7
TORSDOF 2
ENDMDL
