MODEL 1
REMARK minimizedAffinity 6.84344769
REMARK minimizedRMSD -1
REMARK  0 active torsions:
REMARK  status: ('A' for Active; 'I' for Inactive)
ROOT
ATOM      1  N1  IND d   1       5.968   5.998  -2.654  0.00  0.00    -0.196 N 
ATOM      2  C2  IND d   1       6.000   5.973  -4.021  0.00  0.00     0.054 A 
ATOM      3  C3  IND d   1       4.783   5.650  -4.513  0.00  0.00    -0.031 A 
ATOM      4  C4  IND d   1       2.574   5.220  -3.264  0.00  0.00     0.051 A 
ATOM      5  C5  IND d   1       2.055   5.095  -2.006  0.00  0.00    -0.031 A 
ATOM      6  C6  IND d   1       2.829   5.270  -0.877  0.00  0.00     0.015 A 
ATOM      7  C7  IND d   1       4.154   5.590  -0.964  0.00  0.00    -0.016 A 
ATOM      8  C8  IND d   1       4.686   5.712  -2.240  0.00  0.00    -0.047 A 
ATOM      9  C9  IND d   1       3.916   5.493  -3.389  0.00  0.00    -0.096 A 
ATOM     10  HN1 IND d   1       6.637   6.165  -2.140  0.00  0.00     0.298 HD
ENDROOT
TORSDOF 0
ENDMDL
