MODEL 1
REMARK minimizedAffinity 9.09155655
REMARK minimizedRMSD -1
REMARK  0 active torsions:
REMARK  status: ('A' for Active; 'I' for Inactive)
ROOT
ATOM      1  N1  IND d   1      -5.869  -2.336  -5.985  0.00  0.00    -0.196 N 
ATOM      2  C2  IND d   1      -5.029  -1.437  -5.388  0.00  0.00     0.054 A 
ATOM      3  C3  IND d   1      -4.088  -2.081  -4.662  0.00  0.00    -0.031 A 
ATOM      4  C4  IND d   1      -3.676  -4.608  -4.395  0.00  0.00     0.051 A 
ATOM      5  C5  IND d   1      -4.204  -5.826  -4.720  0.00  0.00    -0.031 A 
ATOM      6  C6  IND d   1      -5.335  -5.945  -5.502  0.00  0.00     0.015 A 
ATOM      7  C7  IND d   1      -5.977  -4.846  -5.999  0.00  0.00    -0.016 A 
ATOM      8  C8  IND d   1      -5.447  -3.608  -5.665  0.00  0.00    -0.047 A 
ATOM      9  C9  IND d   1      -4.325  -3.479  -4.837  0.00  0.00    -0.096 A 
ATOM     10  HN1 IND d   1      -6.546  -2.140  -6.477  0.00  0.00     0.298 HD
ENDROOT
TORSDOF 0
ENDMDL
