MODEL 1
REMARK minimizedAffinity 7.05549717
REMARK minimizedRMSD -1
REMARK  0 active torsions:
REMARK  status: ('A' for Active; 'I' for Inactive)
ROOT
ATOM      1  N1  IND d   1      -4.222   1.330  -4.598  0.00  0.00    -0.196 N 
ATOM      2  C2  IND d   1      -4.092  -0.027  -4.501  0.00  0.00     0.054 A 
ATOM      3  C3  IND d   1      -3.625  -0.369  -3.279  0.00  0.00    -0.031 A 
ATOM      4  C4  IND d   1      -3.102   1.128  -1.251  0.00  0.00     0.051 A 
ATOM      5  C5  IND d   1      -3.031   2.438  -0.869  0.00  0.00    -0.031 A 
ATOM      6  C6  IND d   1      -3.362   3.467  -1.727  0.00  0.00     0.015 A 
ATOM      7  C7  IND d   1      -3.790   3.221  -3.001  0.00  0.00    -0.016 A 
ATOM      8  C8  IND d   1      -3.857   1.892  -3.395  0.00  0.00    -0.047 A 
ATOM      9  C9  IND d   1      -3.481   0.846  -2.542  0.00  0.00    -0.096 A 
ATOM     10  HN1 IND d   1      -4.486   1.760  -5.294  0.00  0.00     0.298 HD
ENDROOT
TORSDOF 0
ENDMDL
