MODEL 1
REMARK minimizedAffinity 15.8542452
REMARK minimizedRMSD -1
REMARK  0 active torsions:
REMARK  status: ('A' for Active; 'I' for Inactive)
ROOT
ATOM      1  N1  IND d   1      -2.879   0.286  -2.771  0.00  0.00    -0.196 N 
ATOM      2  C2  IND d   1      -3.416   1.124  -3.707  0.00  0.00     0.054 A 
ATOM      3  C3  IND d   1      -3.750   2.306  -3.143  0.00  0.00    -0.031 A 
ATOM      4  C4  IND d   1      -3.412   3.118  -0.724  0.00  0.00     0.051 A 
ATOM      5  C5  IND d   1      -2.994   2.694   0.506  0.00  0.00    -0.031 A 
ATOM      6  C6  IND d   1      -2.504   1.420   0.711  0.00  0.00     0.015 A 
ATOM      7  C7  IND d   1      -2.403   0.523  -0.315  0.00  0.00    -0.016 A 
ATOM      8  C8  IND d   1      -2.832   0.948  -1.564  0.00  0.00    -0.047 A 
ATOM      9  C9  IND d   1      -3.370   2.226  -1.768  0.00  0.00    -0.096 A 
ATOM     10  HN1 IND d   1      -2.614  -0.520  -2.912  0.00  0.00     0.298 HD
ENDROOT
TORSDOF 0
ENDMDL
