MODEL 1
REMARK minimizedAffinity 0.455648243
REMARK minimizedRMSD -1
REMARK  0 active torsions:
REMARK  status: ('A' for Active; 'I' for Inactive)
ROOT
ATOM      1  N1  IND d   1       5.767  -5.882  -4.499  0.00  0.00    -0.196 N 
ATOM      2  C2  IND d   1       5.406  -5.995  -5.813  0.00  0.00     0.054 A 
ATOM      3  C3  IND d   1       4.060  -6.000  -5.932  0.00  0.00    -0.031 A 
ATOM      4  C4  IND d   1       2.256  -5.733  -4.115  0.00  0.00     0.051 A 
ATOM      5  C5  IND d   1       2.097  -5.637  -2.760  0.00  0.00    -0.031 A 
ATOM      6  C6  IND d   1       3.175  -5.615  -1.899  0.00  0.00     0.015 A 
ATOM      7  C7  IND d   1       4.459  -5.677  -2.363  0.00  0.00    -0.016 A 
ATOM      8  C8  IND d   1       4.624  -5.781  -3.737  0.00  0.00    -0.047 A 
ATOM      9  C9  IND d   1       3.532  -5.847  -4.613  0.00  0.00    -0.096 A 
ATOM     10  HN1 IND d   1       6.573  -5.876  -4.199  0.00  0.00     0.298 HD
ENDROOT
TORSDOF 0
ENDMDL
