MODEL 1
REMARK minimizedAffinity 19.2850895
REMARK minimizedRMSD -1
REMARK  0 active torsions:
REMARK  status: ('A' for Active; 'I' for Inactive)
ROOT
ATOM      1  N1  IND d   1       0.844  -3.023   3.479  0.00  0.00    -0.196 N 
ATOM      2  C2  IND d   1       1.218  -2.575   4.715  0.00  0.00     0.054 A 
ATOM      3  C3  IND d   1       1.758  -1.339   4.623  0.00  0.00    -0.031 A 
ATOM      4  C4  IND d   1       2.033   0.176   2.560  0.00  0.00     0.051 A 
ATOM      5  C5  IND d   1       1.873   0.188   1.203  0.00  0.00    -0.031 A 
ATOM      6  C6  IND d   1       1.347  -0.891   0.522  0.00  0.00     0.015 A 
ATOM      7  C7  IND d   1       0.951  -2.022   1.177  0.00  0.00    -0.016 A 
ATOM      8  C8  IND d   1       1.120  -2.041   2.554  0.00  0.00    -0.047 A 
ATOM      9  C9  IND d   1       1.691  -0.965   3.246  0.00  0.00    -0.096 A 
ATOM     10  HN1 IND d   1       0.495  -3.790   3.308  0.00  0.00     0.298 HD
ENDROOT
TORSDOF 0
ENDMDL
