MODEL 1
REMARK minimizedAffinity 8.03285789
REMARK minimizedRMSD -1
REMARK  0 active torsions:
REMARK  status: ('A' for Active; 'I' for Inactive)
ROOT
ATOM      1  N1  IND d   1       1.111  -2.223   1.686  0.00  0.00    -0.196 N 
ATOM      2  C2  IND d   1       1.480  -2.304   3.000  0.00  0.00     0.054 A 
ATOM      3  C3  IND d   1       2.153  -1.191   3.369  0.00  0.00    -0.031 A 
ATOM      4  C4  IND d   1       2.677   0.930   2.007  0.00  0.00     0.051 A 
ATOM      5  C5  IND d   1       2.576   1.455   0.750  0.00  0.00    -0.031 A 
ATOM      6  C6  IND d   1       1.966   0.768  -0.280  0.00  0.00     0.015 A 
ATOM      7  C7  IND d   1       1.423  -0.470  -0.087  0.00  0.00    -0.016 A 
ATOM      8  C8  IND d   1       1.530  -1.010   1.187  0.00  0.00    -0.047 A 
ATOM      9  C9  IND d   1       2.185  -0.335   2.225  0.00  0.00    -0.096 A 
ATOM     10  HN1 IND d   1       0.689  -2.829   1.246  0.00  0.00     0.298 HD
ENDROOT
TORSDOF 0
ENDMDL
