MODEL 1
REMARK minimizedAffinity 4.97166443
REMARK minimizedRMSD -1
REMARK  0 active torsions:
REMARK  status: ('A' for Active; 'I' for Inactive)
ROOT
ATOM      1  N1  IND d   1       5.075  -3.768   4.388  0.00  0.00    -0.196 N 
ATOM      2  C2  IND d   1       5.922  -3.274   3.435  0.00  0.00     0.054 A 
ATOM      3  C3  IND d   1       5.246  -2.492   2.565  0.00  0.00    -0.031 A 
ATOM      4  C4  IND d   1       2.766  -1.801   2.571  0.00  0.00     0.051 A 
ATOM      5  C5  IND d   1       1.586  -2.028   3.222  0.00  0.00    -0.031 A 
ATOM      6  C6  IND d   1       1.508  -2.862   4.319  0.00  0.00     0.015 A 
ATOM      7  C7  IND d   1       2.614  -3.493   4.814  0.00  0.00    -0.016 A 
ATOM      8  C8  IND d   1       3.812  -3.270   4.152  0.00  0.00    -0.047 A 
ATOM      9  C9  IND d   1       3.890  -2.458   3.012  0.00  0.00    -0.096 A 
ATOM     10  HN1 IND d   1       5.294  -4.300   5.027  0.00  0.00     0.298 HD
ENDROOT
TORSDOF 0
ENDMDL
