MODEL 1
REMARK minimizedAffinity 11.2296858
REMARK minimizedRMSD -1
REMARK  0 active torsions:
REMARK  status: ('A' for Active; 'I' for Inactive)
ROOT
ATOM      1  N1  IND d   1       0.504  -1.948   2.298  0.00  0.00    -0.196 N 
ATOM      2  C2  IND d   1       1.091  -0.861   1.712  0.00  0.00     0.054 A 
ATOM      3  C3  IND d   1       2.382  -0.756   2.103  0.00  0.00    -0.031 A 
ATOM      4  C4  IND d   1       3.765  -2.314   3.615  0.00  0.00     0.051 A 
ATOM      5  C5  IND d   1       3.654  -3.417   4.414  0.00  0.00    -0.031 A 
ATOM      6  C6  IND d   1       2.464  -4.103   4.548  0.00  0.00     0.015 A 
ATOM      7  C7  IND d   1       1.338  -3.715   3.878  0.00  0.00    -0.016 A 
ATOM      8  C8  IND d   1       1.446  -2.591   3.071  0.00  0.00    -0.047 A 
ATOM      9  C9  IND d   1       2.640  -1.866   2.964  0.00  0.00    -0.096 A 
ATOM     10  HN1 IND d   1      -0.315  -2.189   2.200  0.00  0.00     0.298 HD
ENDROOT
TORSDOF 0
ENDMDL
