MODEL 1
REMARK minimizedAffinity 6.75838995
REMARK minimizedRMSD -1
REMARK  0 active torsions:
REMARK  status: ('A' for Active; 'I' for Inactive)
ROOT
ATOM      1  N1  IND d   1      -3.091   1.847  -1.444  0.00  0.00    -0.196 N 
ATOM      2  C2  IND d   1      -3.493   2.418  -0.269  0.00  0.00     0.054 A 
ATOM      3  C3  IND d   1      -4.605   3.162  -0.463  0.00  0.00    -0.031 A 
ATOM      4  C4  IND d   1      -5.992   3.502  -2.605  0.00  0.00     0.051 A 
ATOM      5  C5  IND d   1      -6.000   3.211  -3.940  0.00  0.00    -0.031 A 
ATOM      6  C6  IND d   1      -5.020   2.434  -4.523  0.00  0.00     0.015 A 
ATOM      7  C7  IND d   1      -3.998   1.905  -3.787  0.00  0.00    -0.016 A 
ATOM      8  C8  IND d   1      -3.983   2.204  -2.432  0.00  0.00    -0.047 A 
ATOM      9  C9  IND d   1      -4.951   3.027  -1.843  0.00  0.00    -0.096 A 
ATOM     10  HN1 IND d   1      -2.398   1.349  -1.549  0.00  0.00     0.298 HD
ENDROOT
TORSDOF 0
ENDMDL
