MODEL 1
REMARK minimizedAffinity -2.97338295
REMARK minimizedRMSD -1
REMARK  0 active torsions:
REMARK  status: ('A' for Active; 'I' for Inactive)
ROOT
ATOM      1  C   UNL d   1      -0.366   0.716   0.002  0.00  0.00     0.078 C 
ATOM      2  C1  UNL d   1       0.598   1.781   0.432  0.00  0.00    -0.077 A 
ATOM      3  C2  UNL d   1       1.954   1.708   0.088  0.00  0.00    -0.001 A 
ATOM      4  C3  UNL d   1       2.842   2.701   0.505  0.00  0.00     0.003 A 
ATOM      5  C4  UNL d   1       2.385   3.774   1.268  0.00  0.00    -0.005 A 
ATOM      6  C5  UNL d   1       1.038   3.853   1.618  0.00  0.00     0.003 A 
ATOM      7  C6  UNL d   1       0.149   2.861   1.202  0.00  0.00    -0.001 A 
ENDROOT
TORSDOF 0
ENDMDL
