MODEL 1
REMARK minimizedAffinity 0.324931383
REMARK minimizedRMSD -1
REMARK  0 active torsions:
REMARK  status: ('A' for Active; 'I' for Inactive)
ROOT
ATOM      1  C   UNL d   1       0.188   0.004  -2.222  0.00  0.00     0.078 C 
ATOM      2  C1  UNL d   1      -0.433  -0.415  -0.923  0.00  0.00    -0.077 A 
ATOM      3  C2  UNL d   1      -0.704   0.521   0.082  0.00  0.00    -0.001 A 
ATOM      4  C3  UNL d   1      -1.273   0.115   1.290  0.00  0.00     0.003 A 
ATOM      5  C4  UNL d   1      -1.577  -1.228   1.504  0.00  0.00    -0.005 A 
ATOM      6  C5  UNL d   1      -1.309  -2.167   0.510  0.00  0.00     0.003 A 
ATOM      7  C6  UNL d   1      -0.739  -1.763  -0.698  0.00  0.00    -0.001 A 
ENDROOT
TORSDOF 0
ENDMDL
