MODEL 1
REMARK minimizedAffinity -2.87364578
REMARK minimizedRMSD -1
REMARK  0 active torsions:
REMARK  status: ('A' for Active; 'I' for Inactive)
ROOT
ATOM      1  C   UNL d   1      -1.010  -2.263   1.094  0.00  0.00     0.078 C 
ATOM      2  C1  UNL d   1      -0.473  -1.199   0.185  0.00  0.00    -0.077 A 
ATOM      3  C2  UNL d   1      -0.261  -1.453  -1.176  0.00  0.00    -0.001 A 
ATOM      4  C3  UNL d   1       0.249  -0.456  -2.009  0.00  0.00     0.003 A 
ATOM      5  C4  UNL d   1       0.552   0.802  -1.491  0.00  0.00    -0.005 A 
ATOM      6  C5  UNL d   1       0.345   1.063  -0.138  0.00  0.00     0.003 A 
ATOM      7  C6  UNL d   1      -0.164   0.067   0.697  0.00  0.00    -0.001 A 
ENDROOT
TORSDOF 0
ENDMDL
