MODEL 1
REMARK minimizedAffinity -0.290274501
REMARK minimizedRMSD -1
REMARK  0 active torsions:
REMARK  status: ('A' for Active; 'I' for Inactive)
ROOT
ATOM      1  C   UNL d   1       1.835   3.283   1.258  0.00  0.00     0.078 C 
ATOM      2  C1  UNL d   1       1.268   2.179   0.415  0.00  0.00    -0.077 A 
ATOM      3  C2  UNL d   1       2.087   1.430  -0.438  0.00  0.00    -0.001 A 
ATOM      4  C3  UNL d   1       1.545   0.412  -1.223  0.00  0.00     0.003 A 
ATOM      5  C4  UNL d   1       0.180   0.135  -1.165  0.00  0.00    -0.005 A 
ATOM      6  C5  UNL d   1      -0.643   0.877  -0.321  0.00  0.00     0.003 A 
ATOM      7  C6  UNL d   1      -0.102   1.895   0.466  0.00  0.00    -0.001 A 
ENDROOT
TORSDOF 0
ENDMDL
