MODEL 1
REMARK minimizedAffinity -2.70659161
REMARK minimizedRMSD -1
REMARK  0 active torsions:
REMARK  status: ('A' for Active; 'I' for Inactive)
ROOT
ATOM      1  C   UNL d   1       0.310   1.582   0.015  0.00  0.00     0.078 C 
ATOM      2  C1  UNL d   1      -0.261   0.228   0.312  0.00  0.00    -0.077 A 
ATOM      3  C2  UNL d   1      -0.505  -0.693  -0.714  0.00  0.00    -0.001 A 
ATOM      4  C3  UNL d   1      -1.047  -1.946  -0.424  0.00  0.00     0.003 A 
ATOM      5  C4  UNL d   1      -1.351  -2.290   0.892  0.00  0.00    -0.005 A 
ATOM      6  C5  UNL d   1      -1.114  -1.379   1.920  0.00  0.00     0.003 A 
ATOM      7  C6  UNL d   1      -0.572  -0.125   1.631  0.00  0.00    -0.001 A 
ENDROOT
TORSDOF 0
ENDMDL
