MODEL 1
REMARK minimizedAffinity -1.60815406
REMARK minimizedRMSD -1
REMARK  0 active torsions:
REMARK  status: ('A' for Active; 'I' for Inactive)
ROOT
ATOM      1  C   UNL d   1      -1.837   0.262   1.087  0.00  0.00     0.078 C 
ATOM      2  C1  UNL d   1      -0.730   0.298   0.076  0.00  0.00    -0.077 A 
ATOM      3  C2  UNL d   1       0.511   0.868   0.386  0.00  0.00    -0.001 A 
ATOM      4  C3  UNL d   1       1.529   0.904  -0.568  0.00  0.00     0.003 A 
ATOM      5  C4  UNL d   1       1.317   0.373  -1.839  0.00  0.00    -0.005 A 
ATOM      6  C5  UNL d   1       0.084  -0.194  -2.157  0.00  0.00     0.003 A 
ATOM      7  C6  UNL d   1      -0.935  -0.231  -1.204  0.00  0.00    -0.001 A 
ENDROOT
TORSDOF 0
ENDMDL
