MODEL 1
REMARK minimizedAffinity -2.36295223
REMARK minimizedRMSD -1
REMARK  0 active torsions:
REMARK  status: ('A' for Active; 'I' for Inactive)
ROOT
ATOM      1  C   UNL d   1      -0.227   0.381  -0.087  0.00  0.00     0.078 C 
ATOM      2  C1  UNL d   1       0.648   1.547   0.265  0.00  0.00    -0.077 A 
ATOM      3  C2  UNL d   1       1.978   1.608  -0.170  0.00  0.00    -0.001 A 
ATOM      4  C3  UNL d   1       2.783   2.694   0.173  0.00  0.00     0.003 A 
ATOM      5  C4  UNL d   1       2.269   3.727   0.955  0.00  0.00    -0.005 A 
ATOM      6  C5  UNL d   1       0.948   3.674   1.394  0.00  0.00     0.003 A 
ATOM      7  C6  UNL d   1       0.141   2.588   1.052  0.00  0.00    -0.001 A 
ENDROOT
TORSDOF 0
ENDMDL
