MODEL 1
REMARK minimizedAffinity -1.72023225
REMARK minimizedRMSD -1
REMARK  0 active torsions:
REMARK  status: ('A' for Active; 'I' for Inactive)
ROOT
ATOM      1  C   UNL d   1       1.719   2.554   0.131  0.00  0.00     0.078 C 
ATOM      2  C1  UNL d   1       0.689   1.519   0.472  0.00  0.00    -0.077 A 
ATOM      3  C2  UNL d   1      -0.602   1.581  -0.068  0.00  0.00    -0.001 A 
ATOM      4  C3  UNL d   1      -1.554   0.616   0.267  0.00  0.00     0.003 A 
ATOM      5  C4  UNL d   1      -1.225  -0.417   1.142  0.00  0.00    -0.005 A 
ATOM      6  C5  UNL d   1       0.056  -0.485   1.686  0.00  0.00     0.003 A 
ATOM      7  C6  UNL d   1       1.009   0.479   1.353  0.00  0.00    -0.001 A 
ENDROOT
TORSDOF 0
ENDMDL
