MODEL 1
REMARK minimizedAffinity -3.04902959
REMARK minimizedRMSD -1
REMARK  0 active torsions:
REMARK  status: ('A' for Active; 'I' for Inactive)
ROOT
ATOM      1  C   UNL d   1       0.323   1.469  -0.024  0.00  0.00     0.078 C 
ATOM      2  C1  UNL d   1       0.017   0.008   0.113  0.00  0.00    -0.077 A 
ATOM      3  C2  UNL d   1       0.357  -0.898  -0.899  0.00  0.00    -0.001 A 
ATOM      4  C3  UNL d   1       0.057  -2.255  -0.762  0.00  0.00     0.003 A 
ATOM      5  C4  UNL d   1      -0.585  -2.717   0.385  0.00  0.00    -0.005 A 
ATOM      6  C5  UNL d   1      -0.928  -1.823   1.397  0.00  0.00     0.003 A 
ATOM      7  C6  UNL d   1      -0.629  -0.466   1.262  0.00  0.00    -0.001 A 
ENDROOT
TORSDOF 0
ENDMDL
