MODEL 1
REMARK minimizedAffinity -2.42874742
REMARK minimizedRMSD -1
REMARK  0 active torsions:
REMARK  status: ('A' for Active; 'I' for Inactive)
ROOT
ATOM      1  C   UNL d   1       0.327  -0.014  -2.305  0.00  0.00     0.078 C 
ATOM      2  C1  UNL d   1      -0.296  -0.265  -0.964  0.00  0.00    -0.077 A 
ATOM      3  C2  UNL d   1      -0.510  -1.570  -0.502  0.00  0.00    -0.001 A 
ATOM      4  C3  UNL d   1      -1.100  -1.789   0.744  0.00  0.00     0.003 A 
ATOM      5  C4  UNL d   1      -1.482  -0.709   1.537  0.00  0.00    -0.005 A 
ATOM      6  C5  UNL d   1      -1.276   0.592   1.084  0.00  0.00     0.003 A 
ATOM      7  C6  UNL d   1      -0.686   0.814  -0.161  0.00  0.00    -0.001 A 
ENDROOT
TORSDOF 0
ENDMDL
