MODEL 1
REMARK minimizedAffinity -5.50637674
REMARK minimizedRMSD -1
REMARK  0 active torsions:
REMARK  status: ('A' for Active; 'I' for Inactive)
ROOT
ATOM      1  C   UNL d   1       0.384   1.269  -0.195  0.00  0.00     0.078 C 
ATOM      2  C1  UNL d   1       0.164  -0.207  -0.046  0.00  0.00    -0.077 A 
ATOM      3  C2  UNL d   1      -0.697  -0.712   0.936  0.00  0.00    -0.001 A 
ATOM      4  C3  UNL d   1      -0.885  -2.089   1.069  0.00  0.00     0.003 A 
ATOM      5  C4  UNL d   1      -0.215  -2.971   0.225  0.00  0.00    -0.005 A 
ATOM      6  C5  UNL d   1       0.645  -2.478  -0.754  0.00  0.00     0.003 A 
ATOM      7  C6  UNL d   1       0.835  -1.102  -0.889  0.00  0.00    -0.001 A 
ENDROOT
TORSDOF 0
ENDMDL
