MODEL 1
REMARK minimizedAffinity 7.59444809
REMARK minimizedRMSD -1
REMARK  2 active torsions:
REMARK  status: ('A' for Active; 'I' for Inactive)
REMARK    1  A    between atoms: C2'_3  and  C1'_4 
REMARK    2  A    between atoms: C1'_4  and  C1_5 
ROOT
ATOM      1  C1  I4B d   1       0.347  -4.946  -3.952  0.00  0.00    -0.075 A 
ATOM      2  C2  I4B d   1       0.187  -4.927  -5.315  0.00  0.00     0.003 A 
ATOM      3  C3  I4B d   1      -0.996  -5.437  -5.900  0.00  0.00     0.002 A 
ATOM      4  C4  I4B d   1      -1.966  -6.000  -5.095  0.00  0.00    -0.004 A 
ATOM      5  C5  I4B d   1      -1.811  -5.997  -3.712  0.00  0.00     0.002 A 
ATOM      6  C6  I4B d   1      -0.653  -5.456  -3.135  0.00  0.00     0.003 A 
ENDROOT
BRANCH   1   7
ATOM      7  C1' I4B d   1       1.624  -4.428  -3.369  0.00  0.00     0.060 C 
BRANCH   7   8
ATOM      8  C2' I4B d   1       1.565  -2.914  -3.386  0.00  0.00    -0.013 C 
ATOM      9  C4' I4B d   1       0.632  -2.393  -2.325  0.00  0.00     0.013 C 
ATOM     10  C3' I4B d   1       2.958  -2.395  -3.185  0.00  0.00     0.013 C 
ENDBRANCH   7   8
ENDBRANCH   1   7
TORSDOF 2
ENDMDL
