MODEL 1
REMARK minimizedAffinity 8.10916901
REMARK minimizedRMSD -1
REMARK  2 active torsions:
REMARK  status: ('A' for Active; 'I' for Inactive)
REMARK    1  A    between atoms: C2'_3  and  C1'_4 
REMARK    2  A    between atoms: C1'_4  and  C1_5 
ROOT
ATOM      1  C1  I4B d   1       3.446   4.502  -2.541  0.00  0.00    -0.075 A 
ATOM      2  C2  I4B d   1       3.778   4.096  -3.810  0.00  0.00     0.003 A 
ATOM      3  C3  I4B d   1       5.044   4.422  -4.354  0.00  0.00     0.002 A 
ATOM      4  C4  I4B d   1       5.922   5.193  -3.619  0.00  0.00    -0.004 A 
ATOM      5  C5  I4B d   1       5.592   5.584  -2.325  0.00  0.00     0.002 A 
ATOM      6  C6  I4B d   1       4.352   5.226  -1.777  0.00  0.00     0.003 A 
ENDROOT
BRANCH   1   7
ATOM      7  C1' I4B d   1       2.088   4.168  -2.010  0.00  0.00     0.060 C 
BRANCH   7   8
ATOM      8  C2' I4B d   1       2.130   4.305  -0.502  0.00  0.00    -0.013 C 
ATOM      9  C4' I4B d   1       1.055   5.238  -0.009  0.00  0.00     0.013 C 
ATOM     10  C3' I4B d   1       1.974   2.937   0.092  0.00  0.00     0.013 C 
ENDBRANCH   7   8
ENDBRANCH   1   7
TORSDOF 2
ENDMDL
