MODEL 1
REMARK minimizedAffinity 1.02091324
REMARK minimizedRMSD -1
REMARK  2 active torsions:
REMARK  status: ('A' for Active; 'I' for Inactive)
REMARK    1  A    between atoms: C2'_3  and  C1'_4 
REMARK    2  A    between atoms: C1'_4  and  C1_5 
ROOT
ATOM      1  C1  I4B d   1       4.162  -3.297   3.548  0.00  0.00    -0.075 A 
ATOM      2  C2  I4B d   1       5.199  -4.152   3.828  0.00  0.00     0.003 A 
ATOM      3  C3  I4B d   1       5.856  -4.088   5.080  0.00  0.00     0.002 A 
ATOM      4  C4  I4B d   1       5.481  -3.129   5.998  0.00  0.00    -0.004 A 
ATOM      5  C5  I4B d   1       4.414  -2.278   5.721  0.00  0.00     0.002 A 
ATOM      6  C6  I4B d   1       3.742  -2.370   4.494  0.00  0.00     0.003 A 
ENDROOT
BRANCH   1   7
ATOM      7  C1' I4B d   1       3.511  -3.369   2.203  0.00  0.00     0.060 C 
BRANCH   7   8
ATOM      8  C2' I4B d   1       4.326  -2.525   1.245  0.00  0.00    -0.013 C 
ATOM      9  C4' I4B d   1       5.120  -3.387   0.299  0.00  0.00     0.013 C 
ATOM     10  C3' I4B d   1       3.382  -1.630   0.499  0.00  0.00     0.013 C 
ENDBRANCH   7   8
ENDBRANCH   1   7
TORSDOF 2
ENDMDL
