MODEL 1
REMARK minimizedAffinity 23.8429527
REMARK minimizedRMSD -1
REMARK  2 active torsions:
REMARK  status: ('A' for Active; 'I' for Inactive)
REMARK    1  A    between atoms: C2'_3  and  C1'_4 
REMARK    2  A    between atoms: C1'_4  and  C1_5 
ROOT
ATOM      1  C1  I4B d   1      -3.173   0.699   5.483  0.00  0.00    -0.075 A 
ATOM      2  C2  I4B d   1      -4.087  -0.313   5.637  0.00  0.00     0.003 A 
ATOM      3  C3  I4B d   1      -5.451  -0.013   5.870  0.00  0.00     0.002 A 
ATOM      4  C4  I4B d   1      -5.846   1.303   5.991  0.00  0.00    -0.004 A 
ATOM      5  C5  I4B d   1      -4.922   2.329   5.812  0.00  0.00     0.002 A 
ATOM      6  C6  I4B d   1      -3.579   2.026   5.544  0.00  0.00     0.003 A 
ENDROOT
BRANCH   1   7
ATOM      7  C1' I4B d   1      -1.735   0.346   5.271  0.00  0.00     0.060 C 
BRANCH   7   8
ATOM      8  C2' I4B d   1      -1.644  -1.157   5.100  0.00  0.00    -0.013 C 
ATOM      9  C4' I4B d   1      -1.801  -1.552   3.656  0.00  0.00     0.013 C 
ATOM     10  C3' I4B d   1      -0.319  -1.605   5.643  0.00  0.00     0.013 C 
ENDBRANCH   7   8
ENDBRANCH   1   7
TORSDOF 2
ENDMDL
