MODEL 1
REMARK minimizedAffinity 7.64720392
REMARK minimizedRMSD -1
REMARK  2 active torsions:
REMARK  status: ('A' for Active; 'I' for Inactive)
REMARK    1  A    between atoms: C2'_3  and  C1'_4 
REMARK    2  A    between atoms: C1'_4  and  C1_5 
ROOT
ATOM      1  C1  I4B d   1       5.643   4.892  -3.244  0.00  0.00    -0.075 A 
ATOM      2  C2  I4B d   1       5.548   3.636  -3.790  0.00  0.00     0.003 A 
ATOM      3  C3  I4B d   1       5.692   3.453  -5.186  0.00  0.00     0.002 A 
ATOM      4  C4  I4B d   1       5.880   4.552  -6.000  0.00  0.00    -0.004 A 
ATOM      5  C5  I4B d   1       6.000   5.821  -5.442  0.00  0.00     0.002 A 
ATOM      6  C6  I4B d   1       5.893   5.992  -4.054  0.00  0.00     0.003 A 
ENDROOT
BRANCH   1   7
ATOM      7  C1' I4B d   1       5.453   5.053  -1.769  0.00  0.00     0.060 C 
BRANCH   7   8
ATOM      8  C2' I4B d   1       4.089   5.673  -1.540  0.00  0.00    -0.013 C 
ATOM      9  C4' I4B d   1       3.292   5.724  -2.816  0.00  0.00     0.013 C 
ATOM     10  C3' I4B d   1       3.384   4.865  -0.492  0.00  0.00     0.013 C 
ENDBRANCH   7   8
ENDBRANCH   1   7
TORSDOF 2
ENDMDL
