MODEL 1
REMARK minimizedAffinity 7.63471937
REMARK minimizedRMSD -1
REMARK  2 active torsions:
REMARK  status: ('A' for Active; 'I' for Inactive)
REMARK    1  A    between atoms: C2'_3  and  C1'_4 
REMARK    2  A    between atoms: C1'_4  and  C1_5 
ROOT
ATOM      1  C1  I4B d   1      -1.674  -0.349   1.280  0.00  0.00    -0.075 A 
ATOM      2  C2  I4B d   1      -0.821  -0.551   0.225  0.00  0.00     0.003 A 
ATOM      3  C3  I4B d   1      -0.418  -1.863  -0.126  0.00  0.00     0.002 A 
ATOM      4  C4  I4B d   1      -0.850  -2.932   0.632  0.00  0.00    -0.004 A 
ATOM      5  C5  I4B d   1      -1.734  -2.727   1.688  0.00  0.00     0.002 A 
ATOM      6  C6  I4B d   1      -2.159  -1.429   2.007  0.00  0.00     0.003 A 
ENDROOT
BRANCH   1   7
ATOM      7  C1' I4B d   1      -2.053   1.051   1.644  0.00  0.00     0.060 C 
BRANCH   7   8
ATOM      8  C2' I4B d   1      -1.484   1.977   0.588  0.00  0.00    -0.013 C 
ATOM      9  C4' I4B d   1      -2.579   2.718  -0.135  0.00  0.00     0.013 C 
ATOM     10  C3' I4B d   1      -0.543   2.928   1.264  0.00  0.00     0.013 C 
ENDBRANCH   7   8
ENDBRANCH   1   7
TORSDOF 2
ENDMDL
