MODEL 1
REMARK minimizedAffinity 3.60243249
REMARK minimizedRMSD -1
REMARK  2 active torsions:
REMARK  status: ('A' for Active; 'I' for Inactive)
REMARK    1  A    between atoms: C2'_3  and  C1'_4 
REMARK    2  A    between atoms: C1'_4  and  C1_5 
ROOT
ATOM      1  C1  I4B d   1      -1.406  -2.791  -0.959  0.00  0.00    -0.075 A 
ATOM      2  C2  I4B d   1      -0.530  -1.736  -1.017  0.00  0.00     0.003 A 
ATOM      3  C3  I4B d   1       0.311  -1.569  -2.143  0.00  0.00     0.002 A 
ATOM      4  C4  I4B d   1       0.279  -2.502  -3.160  0.00  0.00    -0.004 A 
ATOM      5  C5  I4B d   1      -0.627  -3.558  -3.110  0.00  0.00     0.002 A 
ATOM      6  C6  I4B d   1      -1.483  -3.697  -2.009  0.00  0.00     0.003 A 
ENDROOT
BRANCH   1   7
ATOM      7  C1' I4B d   1      -2.257  -2.956   0.261  0.00  0.00     0.060 C 
BRANCH   7   8
ATOM      8  C2' I4B d   1      -1.615  -2.171   1.387  0.00  0.00    -0.013 C 
ATOM      9  C4' I4B d   1      -2.631  -1.328   2.111  0.00  0.00     0.013 C 
ATOM     10  C3' I4B d   1      -0.959  -3.147   2.317  0.00  0.00     0.013 C 
ENDBRANCH   7   8
ENDBRANCH   1   7
TORSDOF 2
ENDMDL
