MODEL 1
REMARK minimizedAffinity 7.87420082
REMARK minimizedRMSD -1
REMARK  2 active torsions:
REMARK  status: ('A' for Active; 'I' for Inactive)
REMARK    1  A    between atoms: C2'_3  and  C1'_4 
REMARK    2  A    between atoms: C1'_4  and  C1_5 
ROOT
ATOM      1  C1  I4B d   1       5.324   4.998  -3.173  0.00  0.00    -0.075 A 
ATOM      2  C2  I4B d   1       4.057   5.252  -3.637  0.00  0.00     0.003 A 
ATOM      3  C3  I4B d   1       3.431   4.352  -4.532  0.00  0.00     0.002 A 
ATOM      4  C4  I4B d   1       4.123   3.243  -4.975  0.00  0.00    -0.004 A 
ATOM      5  C5  I4B d   1       5.398   2.974  -4.486  0.00  0.00     0.002 A 
ATOM      6  C6  I4B d   1       5.998   3.850  -3.570  0.00  0.00     0.003 A 
ENDROOT
BRANCH   1   7
ATOM      7  C1' I4B d   1       5.967   5.987  -2.254  0.00  0.00     0.060 C 
BRANCH   7   8
ATOM      8  C2' I4B d   1       5.229   5.945  -0.932  0.00  0.00    -0.013 C 
ATOM      9  C4' I4B d   1       3.802   5.498  -1.118  0.00  0.00     0.013 C 
ATOM     10  C3' I4B d   1       5.971   5.018  -0.016  0.00  0.00     0.013 C 
ENDBRANCH   7   8
ENDBRANCH   1   7
TORSDOF 2
ENDMDL
