MODEL 1
REMARK minimizedAffinity 8.55580616
REMARK minimizedRMSD -1
REMARK  2 active torsions:
REMARK  status: ('A' for Active; 'I' for Inactive)
REMARK    1  A    between atoms: C2'_3  and  C1'_4 
REMARK    2  A    between atoms: C1'_4  and  C1_5 
ROOT
ATOM      1  C1  I4B d   1      -0.377  -3.323  -4.429  0.00  0.00    -0.075 A 
ATOM      2  C2  I4B d   1      -0.476  -3.763  -5.725  0.00  0.00     0.003 A 
ATOM      3  C3  I4B d   1      -0.799  -5.115  -5.997  0.00  0.00     0.002 A 
ATOM      4  C4  I4B d   1      -0.963  -5.998  -4.949  0.00  0.00    -0.004 A 
ATOM      5  C5  I4B d   1      -0.884  -5.545  -3.635  0.00  0.00     0.002 A 
ATOM      6  C6  I4B d   1      -0.602  -4.197  -3.373  0.00  0.00     0.003 A 
ENDROOT
BRANCH   1   7
ATOM      7  C1' I4B d   1      -0.003  -1.897  -4.178  0.00  0.00     0.060 C 
BRANCH   7   8
ATOM      8  C2' I4B d   1       0.884  -1.856  -2.950  0.00  0.00    -0.013 C 
ATOM      9  C4' I4B d   1       0.184  -2.442  -1.753  0.00  0.00     0.013 C 
ATOM     10  C3' I4B d   1       2.144  -2.607  -3.264  0.00  0.00     0.013 C 
ENDBRANCH   7   8
ENDBRANCH   1   7
TORSDOF 2
ENDMDL
