MODEL 1
REMARK minimizedAffinity 2.24807024
REMARK minimizedRMSD -1
REMARK  2 active torsions:
REMARK  status: ('A' for Active; 'I' for Inactive)
REMARK    1  A    between atoms: C2'_3  and  C1'_4 
REMARK    2  A    between atoms: C1'_4  and  C1_5 
ROOT
ATOM      1  C1  I4B d   1      -2.002  -1.877   1.425  0.00  0.00    -0.075 A 
ATOM      2  C2  I4B d   1      -3.322  -2.253   1.430  0.00  0.00     0.003 A 
ATOM      3  C3  I4B d   1      -3.916  -2.788   0.262  0.00  0.00     0.002 A 
ATOM      4  C4  I4B d   1      -3.172  -2.883  -0.896  0.00  0.00    -0.004 A 
ATOM      5  C5  I4B d   1      -1.827  -2.523  -0.894  0.00  0.00     0.002 A 
ATOM      6  C6  I4B d   1      -1.235  -2.029   0.277  0.00  0.00     0.003 A 
ENDROOT
BRANCH   1   7
ATOM      7  C1' I4B d   1      -1.416  -1.285   2.667  0.00  0.00     0.060 C 
BRANCH   7   8
ATOM      8  C2' I4B d   1      -2.056   0.071   2.885  0.00  0.00    -0.013 C 
ATOM      9  C4' I4B d   1      -1.682   0.642   4.227  0.00  0.00     0.013 C 
ATOM     10  C3' I4B d   1      -1.618   0.974   1.771  0.00  0.00     0.013 C 
ENDBRANCH   7   8
ENDBRANCH   1   7
TORSDOF 2
ENDMDL
