MODEL 1
REMARK minimizedAffinity 6.0695591
REMARK minimizedRMSD -1
REMARK  2 active torsions:
REMARK  status: ('A' for Active; 'I' for Inactive)
REMARK    1  A    between atoms: C2'_3  and  C1'_4 
REMARK    2  A    between atoms: C1'_4  and  C1_5 
ROOT
ATOM      1  C1  I4B d   1       0.863  -1.818  -1.832  0.00  0.00    -0.075 A 
ATOM      2  C2  I4B d   1       0.998  -1.947  -3.192  0.00  0.00     0.003 A 
ATOM      3  C3  I4B d   1       2.279  -2.131  -3.767  0.00  0.00     0.002 A 
ATOM      4  C4  I4B d   1       3.395  -2.129  -2.955  0.00  0.00    -0.004 A 
ATOM      5  C5  I4B d   1       3.254  -2.021  -1.574  0.00  0.00     0.002 A 
ATOM      6  C6  I4B d   1       1.979  -1.877  -1.008  0.00  0.00     0.003 A 
ENDROOT
BRANCH   1   7
ATOM      7  C1' I4B d   1      -0.501  -1.592  -1.262  0.00  0.00     0.060 C 
BRANCH   7   8
ATOM      8  C2' I4B d   1      -1.155  -2.944  -1.067  0.00  0.00    -0.013 C 
ATOM      9  C4' I4B d   1      -1.181  -3.333   0.387  0.00  0.00     0.013 C 
ATOM     10  C3' I4B d   1      -2.542  -2.873  -1.634  0.00  0.00     0.013 C 
ENDBRANCH   7   8
ENDBRANCH   1   7
TORSDOF 2
ENDMDL
