MODEL 1
REMARK minimizedAffinity 12.0498018
REMARK minimizedRMSD -1
REMARK  0 active torsions:
REMARK  status: ('A' for Active; 'I' for Inactive)
ROOT
ATOM      1  C   UNL d   1       1.912   0.767   6.000  0.00  0.00     0.077 C 
ATOM      2  C1  UNL d   1       2.235   0.586   4.546  0.00  0.00    -0.074 A 
ATOM      3  C2  UNL d   1       2.884   1.593   3.824  0.00  0.00    -0.005 A 
ATOM      4  C3  UNL d   1       3.187   1.407   2.475  0.00  0.00     0.006 A 
ATOM      5  C4  UNL d   1       2.845   0.215   1.836  0.00  0.00    -0.005 A 
ATOM      6  C5  UNL d   1       2.196  -0.803   2.543  0.00  0.00    -0.074 A 
ATOM      7  C6  UNL d   1       1.830  -2.095   1.873  0.00  0.00     0.077 C 
ATOM      8  C7  UNL d   1       1.902  -0.612   3.899  0.00  0.00    -0.001 A 
ENDROOT
TORSDOF 0
ENDMDL
