MODEL 1
REMARK minimizedAffinity 10.3757792
REMARK minimizedRMSD -1
REMARK  0 active torsions:
REMARK  status: ('A' for Active; 'I' for Inactive)
ROOT
ATOM      1  C   UNL d   1       1.726  -1.103   2.458  0.00  0.00     0.077 C 
ATOM      2  C1  UNL d   1       2.446  -1.590   3.680  0.00  0.00    -0.074 A 
ATOM      3  C2  UNL d   1       1.756  -1.836   4.871  0.00  0.00    -0.005 A 
ATOM      4  C3  UNL d   1       2.438  -2.299   5.996  0.00  0.00     0.006 A 
ATOM      5  C4  UNL d   1       3.815  -2.519   5.942  0.00  0.00    -0.005 A 
ATOM      6  C5  UNL d   1       4.522  -2.279   4.760  0.00  0.00    -0.074 A 
ATOM      7  C6  UNL d   1       6.000  -2.520   4.682  0.00  0.00     0.077 C 
ATOM      8  C7  UNL d   1       3.828  -1.822   3.631  0.00  0.00    -0.001 A 
ENDROOT
TORSDOF 0
ENDMDL
