MODEL 1
REMARK minimizedAffinity 5.72803211
REMARK minimizedRMSD -1
REMARK  0 active torsions:
REMARK  status: ('A' for Active; 'I' for Inactive)
ROOT
ATOM      1  C   UNL d   1      -5.991  -0.540  -2.155  0.00  0.00     0.077 C 
ATOM      2  C1  UNL d   1      -5.986   0.362  -3.354  0.00  0.00    -0.074 A 
ATOM      3  C2  UNL d   1      -5.994  -0.164  -4.649  0.00  0.00    -0.005 A 
ATOM      4  C3  UNL d   1      -6.000   0.687  -5.754  0.00  0.00     0.006 A 
ATOM      5  C4  UNL d   1      -5.997   2.071  -5.575  0.00  0.00    -0.005 A 
ATOM      6  C5  UNL d   1      -5.990   2.615  -4.287  0.00  0.00    -0.074 A 
ATOM      7  C6  UNL d   1      -5.997   4.100  -4.077  0.00  0.00     0.077 C 
ATOM      8  C7  UNL d   1      -5.991   1.753  -3.182  0.00  0.00    -0.001 A 
ENDROOT
TORSDOF 0
ENDMDL
