MODEL 1
REMARK minimizedAffinity -0.277500123
REMARK minimizedRMSD -1
REMARK  0 active torsions:
REMARK  status: ('A' for Active; 'I' for Inactive)
ROOT
ATOM      1  C   UNL d   1       5.999  -2.601   5.508  0.00  0.00     0.077 C 
ATOM      2  C1  UNL d   1       4.629  -2.168   5.078  0.00  0.00    -0.074 A 
ATOM      3  C2  UNL d   1       3.577  -2.093   5.997  0.00  0.00    -0.005 A 
ATOM      4  C3  UNL d   1       2.310  -1.679   5.584  0.00  0.00     0.006 A 
ATOM      5  C4  UNL d   1       2.083  -1.337   4.250  0.00  0.00    -0.005 A 
ATOM      6  C5  UNL d   1       3.123  -1.405   3.317  0.00  0.00    -0.074 A 
ATOM      7  C6  UNL d   1       2.898  -1.031   1.882  0.00  0.00     0.077 C 
ATOM      8  C7  UNL d   1       4.394  -1.815   3.742  0.00  0.00    -0.001 A 
ENDROOT
TORSDOF 0
ENDMDL
