MODEL 1
REMARK minimizedAffinity 4.84044695
REMARK minimizedRMSD -1
REMARK  0 active torsions:
REMARK  status: ('A' for Active; 'I' for Inactive)
ROOT
ATOM      1  C   UNL d   1       1.725  -0.423   2.192  0.00  0.00     0.077 C 
ATOM      2  C1  UNL d   1       2.424  -1.271   3.213  0.00  0.00    -0.074 A 
ATOM      3  C2  UNL d   1       1.697  -2.063   4.107  0.00  0.00    -0.005 A 
ATOM      4  C3  UNL d   1       2.361  -2.854   5.045  0.00  0.00     0.006 A 
ATOM      5  C4  UNL d   1       3.756  -2.859   5.099  0.00  0.00    -0.005 A 
ATOM      6  C5  UNL d   1       4.499  -2.074   4.212  0.00  0.00    -0.074 A 
ATOM      7  C6  UNL d   1       5.998  -2.076   4.249  0.00  0.00     0.077 C 
ATOM      8  C7  UNL d   1       3.824  -1.288   3.268  0.00  0.00    -0.001 A 
ENDROOT
TORSDOF 0
ENDMDL
