MODEL 1
REMARK minimizedAffinity 5.84548569
REMARK minimizedRMSD -1
REMARK  0 active torsions:
REMARK  status: ('A' for Active; 'I' for Inactive)
ROOT
ATOM      1  C   UNL d   1       2.891   0.355   2.000  0.00  0.00     0.077 C 
ATOM      2  C1  UNL d   1       2.989  -0.764   2.994  0.00  0.00    -0.074 A 
ATOM      3  C2  UNL d   1       1.888  -1.584   3.263  0.00  0.00    -0.005 A 
ATOM      4  C3  UNL d   1       1.996  -2.627   4.183  0.00  0.00     0.006 A 
ATOM      5  C4  UNL d   1       3.204  -2.859   4.842  0.00  0.00    -0.005 A 
ATOM      6  C5  UNL d   1       4.315  -2.050   4.586  0.00  0.00    -0.074 A 
ATOM      7  C6  UNL d   1       5.623  -2.292   5.279  0.00  0.00     0.077 C 
ATOM      8  C7  UNL d   1       4.200  -1.009   3.655  0.00  0.00    -0.001 A 
ENDROOT
TORSDOF 0
ENDMDL
