MODEL 1
REMARK minimizedAffinity 1.86601019
REMARK minimizedRMSD -1
REMARK  0 active torsions:
REMARK  status: ('A' for Active; 'I' for Inactive)
ROOT
ATOM      1  C   UNL d   1       2.019  -4.124  -5.996  0.00  0.00     0.077 C 
ATOM      2  C1  UNL d   1       3.409  -3.562  -5.989  0.00  0.00    -0.074 A 
ATOM      3  C2  UNL d   1       4.525  -4.405  -5.995  0.00  0.00    -0.005 A 
ATOM      4  C3  UNL d   1       5.812  -3.867  -5.998  0.00  0.00     0.006 A 
ATOM      5  C4  UNL d   1       5.996  -2.484  -5.995  0.00  0.00    -0.005 A 
ATOM      6  C5  UNL d   1       4.892  -1.625  -5.990  0.00  0.00    -0.074 A 
ATOM      7  C6  UNL d   1       5.072  -0.136  -5.997  0.00  0.00     0.077 C 
ATOM      8  C7  UNL d   1       3.602  -2.173  -5.994  0.00  0.00    -0.001 A 
ENDROOT
TORSDOF 0
ENDMDL
