MODEL 1
REMARK minimizedAffinity -2.58849096
REMARK minimizedRMSD -1
REMARK  1 active torsions:
REMARK  status: ('A' for Active; 'I' for Inactive)
REMARK    1  A    between atoms: C1_2  and  C2_3 
ROOT
ATOM      1  C2  UNL d   1       1.586  -0.020  -0.471  0.00  0.00    -0.077 A 
ATOM      2  C3  UNL d   1       2.413   0.108   0.653  0.00  0.00     0.002 A 
ATOM      3  C4  UNL d   1       2.191   1.128   1.581  0.00  0.00     0.002 A 
ATOM      4  C5  UNL d   1       1.140   2.024   1.396  0.00  0.00    -0.004 A 
ATOM      5  C6  UNL d   1       0.313   1.906   0.279  0.00  0.00     0.002 A 
ATOM      6  C7  UNL d   1       0.534   0.888  -0.650  0.00  0.00     0.002 A 
ENDROOT
BRANCH   1   7
ATOM      7  C1  UNL d   1       1.793  -1.149  -1.447  0.00  0.00     0.055 C 
ATOM      8  C   UNL d   1       0.714  -2.212  -1.302  0.00  0.00     0.019 C 
ENDBRANCH   1   7
TORSDOF 1
ENDMDL
