MODEL 1
REMARK minimizedAffinity 2.0025115
REMARK minimizedRMSD -1
REMARK  1 active torsions:
REMARK  status: ('A' for Active; 'I' for Inactive)
REMARK    1  A    between atoms: C1_2  and  C2_3 
ROOT
ATOM      1  C2  UNL d   1      -2.735   3.575   2.573  0.00  0.00    -0.077 A 
ATOM      2  C3  UNL d   1      -3.388   3.581   1.332  0.00  0.00     0.002 A 
ATOM      3  C4  UNL d   1      -4.313   2.583   1.016  0.00  0.00     0.002 A 
ATOM      4  C5  UNL d   1      -4.595   1.576   1.936  0.00  0.00    -0.004 A 
ATOM      5  C6  UNL d   1      -3.948   1.560   3.172  0.00  0.00     0.002 A 
ATOM      6  C7  UNL d   1      -3.023   2.556   3.489  0.00  0.00     0.002 A 
ENDROOT
BRANCH   1   7
ATOM      7  C1  UNL d   1      -1.774   4.678   2.935  0.00  0.00     0.055 C 
ATOM      8  C   UNL d   1      -2.511   5.970   3.258  0.00  0.00     0.019 C 
ENDBRANCH   1   7
TORSDOF 1
ENDMDL
