MODEL 1
REMARK minimizedAffinity -3.70287132
REMARK minimizedRMSD -1
REMARK  1 active torsions:
REMARK  status: ('A' for Active; 'I' for Inactive)
REMARK    1  A    between atoms: C1_2  and  C2_3 
ROOT
ATOM      1  C2  UNL d   1       1.162   0.048  -0.683  0.00  0.00    -0.077 A 
ATOM      2  C3  UNL d   1       1.217   0.982  -1.727  0.00  0.00     0.002 A 
ATOM      3  C4  UNL d   1       1.252   2.350  -1.450  0.00  0.00     0.002 A 
ATOM      4  C5  UNL d   1       1.238   2.796  -0.130  0.00  0.00    -0.004 A 
ATOM      5  C6  UNL d   1       1.182   1.875   0.915  0.00  0.00     0.002 A 
ATOM      6  C7  UNL d   1       1.145   0.508   0.640  0.00  0.00     0.002 A 
ENDROOT
BRANCH   1   7
ATOM      7  C1  UNL d   1       1.173  -1.429  -0.978  0.00  0.00     0.055 C 
ATOM      8  C   UNL d   1       0.096  -1.800  -1.988  0.00  0.00     0.019 C 
ENDBRANCH   1   7
TORSDOF 1
ENDMDL
