MODEL 1
REMARK minimizedAffinity -3.22136068
REMARK minimizedRMSD -1
REMARK  1 active torsions:
REMARK  status: ('A' for Active; 'I' for Inactive)
REMARK    1  A    between atoms: C1_2  and  C2_3 
ROOT
ATOM      1  C2  UNL d   1       1.162   0.715  -1.023  0.00  0.00    -0.077 A 
ATOM      2  C3  UNL d   1       0.947   1.725  -1.972  0.00  0.00     0.002 A 
ATOM      3  C4  UNL d   1       0.794   3.052  -1.567  0.00  0.00     0.002 A 
ATOM      4  C5  UNL d   1       0.858   3.382  -0.215  0.00  0.00    -0.004 A 
ATOM      5  C6  UNL d   1       1.069   2.385   0.736  0.00  0.00     0.002 A 
ATOM      6  C7  UNL d   1       1.221   1.057   0.334  0.00  0.00     0.002 A 
ENDROOT
BRANCH   1   7
ATOM      7  C1  UNL d   1       1.377  -0.710  -1.461  0.00  0.00     0.055 C 
ATOM      8  C   UNL d   1       0.834  -1.693  -0.434  0.00  0.00     0.019 C 
ENDBRANCH   1   7
TORSDOF 1
ENDMDL
