MODEL 1
REMARK minimizedAffinity -0.802637219
REMARK minimizedRMSD -1
REMARK  1 active torsions:
REMARK  status: ('A' for Active; 'I' for Inactive)
REMARK    1  A    between atoms: C1_2  and  C2_3 
ROOT
ATOM      1  C2  UNL d   1       1.124   0.181  -0.962  0.00  0.00    -0.077 A 
ATOM      2  C3  UNL d   1       1.500   0.420   0.368  0.00  0.00     0.002 A 
ATOM      3  C4  UNL d   1       1.502   1.719   0.879  0.00  0.00     0.002 A 
ATOM      4  C5  UNL d   1       1.125   2.789   0.069  0.00  0.00    -0.004 A 
ATOM      5  C6  UNL d   1       0.751   2.562  -1.255  0.00  0.00     0.002 A 
ATOM      6  C7  UNL d   1       0.750   1.264  -1.768  0.00  0.00     0.002 A 
ENDROOT
BRANCH   1   7
ATOM      7  C1  UNL d   1       1.074  -1.225  -1.500  0.00  0.00     0.055 C 
ATOM      8  C   UNL d   1       1.125  -2.250  -0.376  0.00  0.00     0.019 C 
ENDBRANCH   1   7
TORSDOF 1
ENDMDL
