MODEL 1
REMARK minimizedAffinity 5.62418842
REMARK minimizedRMSD -1
REMARK  1 active torsions:
REMARK  status: ('A' for Active; 'I' for Inactive)
REMARK    1  A    between atoms: C1_2  and  C2_3 
ROOT
ATOM      1  C2  UNL d   1       1.567   2.074   0.179  0.00  0.00    -0.077 A 
ATOM      2  C3  UNL d   1       1.105   2.694  -0.991  0.00  0.00     0.002 A 
ATOM      3  C4  UNL d   1       1.078   1.993  -2.198  0.00  0.00     0.002 A 
ATOM      4  C5  UNL d   1       1.507   0.668  -2.246  0.00  0.00    -0.004 A 
ATOM      5  C6  UNL d   1       1.969   0.043  -1.088  0.00  0.00     0.002 A 
ATOM      6  C7  UNL d   1       1.998   0.743   0.119  0.00  0.00     0.002 A 
ENDROOT
BRANCH   1   7
ATOM      7  C1  UNL d   1       1.550   2.813   1.492  0.00  0.00     0.055 C 
ATOM      8  C   UNL d   1       2.631   2.297   2.431  0.00  0.00     0.019 C 
ENDBRANCH   1   7
TORSDOF 1
ENDMDL
