MODEL 1
REMARK minimizedAffinity 2.6340127
REMARK minimizedRMSD -1
REMARK  1 active torsions:
REMARK  status: ('A' for Active; 'I' for Inactive)
REMARK    1  A    between atoms: C1_2  and  C2_3 
ROOT
ATOM      1  C2  UNL d   1       0.838   0.840  -1.036  0.00  0.00    -0.077 A 
ATOM      2  C3  UNL d   1       0.979   1.423   0.231  0.00  0.00     0.002 A 
ATOM      3  C4  UNL d   1       1.178   0.622   1.358  0.00  0.00     0.002 A 
ATOM      4  C5  UNL d   1       1.242  -0.763   1.228  0.00  0.00    -0.004 A 
ATOM      5  C6  UNL d   1       1.101  -1.352  -0.028  0.00  0.00     0.002 A 
ATOM      6  C7  UNL d   1       0.901  -0.554  -1.155  0.00  0.00     0.002 A 
ENDROOT
BRANCH   1   7
ATOM      7  C1  UNL d   1       0.672   1.704  -2.259  0.00  0.00     0.055 C 
ATOM      8  C   UNL d   1       1.033   3.153  -1.966  0.00  0.00     0.019 C 
ENDBRANCH   1   7
TORSDOF 1
ENDMDL
