MODEL 1
REMARK minimizedAffinity -3.25693202
REMARK minimizedRMSD -1
REMARK  1 active torsions:
REMARK  status: ('A' for Active; 'I' for Inactive)
REMARK    1  A    between atoms: C1_2  and  C2_3 
ROOT
ATOM      1  C2  UNL d   1       0.949   1.283   0.879  0.00  0.00    -0.077 A 
ATOM      2  C3  UNL d   1       0.881   0.060   0.197  0.00  0.00     0.002 A 
ATOM      3  C4  UNL d   1       0.800   0.032  -1.197  0.00  0.00     0.002 A 
ATOM      4  C5  UNL d   1       0.791   1.223  -1.920  0.00  0.00    -0.004 A 
ATOM      5  C6  UNL d   1       0.857   2.444  -1.251  0.00  0.00     0.002 A 
ATOM      6  C7  UNL d   1       0.936   2.474   0.142  0.00  0.00     0.002 A 
ENDROOT
BRANCH   1   7
ATOM      7  C1  UNL d   1       1.086   1.315   2.379  0.00  0.00     0.055 C 
ATOM      8  C   UNL d   1       2.299   2.127   2.807  0.00  0.00     0.019 C 
ENDBRANCH   1   7
TORSDOF 1
ENDMDL
