MODEL 1
REMARK minimizedAffinity 1.33170784
REMARK minimizedRMSD -1
REMARK  1 active torsions:
REMARK  status: ('A' for Active; 'I' for Inactive)
REMARK    1  A    between atoms: C1_2  and  C2_3 
ROOT
ATOM      1  C2  UNL d   1      -0.790  -3.984   0.617  0.00  0.00    -0.077 A 
ATOM      2  C3  UNL d   1       0.467  -3.631   1.129  0.00  0.00     0.002 A 
ATOM      3  C4  UNL d   1       1.386  -2.945   0.333  0.00  0.00     0.002 A 
ATOM      4  C5  UNL d   1       1.057  -2.602  -0.977  0.00  0.00    -0.004 A 
ATOM      5  C6  UNL d   1      -0.189  -2.951  -1.496  0.00  0.00     0.002 A 
ATOM      6  C7  UNL d   1      -1.109  -3.638  -0.702  0.00  0.00     0.002 A 
ENDROOT
BRANCH   1   7
ATOM      7  C1  UNL d   1      -1.801  -4.682   1.489  0.00  0.00     0.055 C 
ATOM      8  C   UNL d   1      -1.590  -4.346   2.958  0.00  0.00     0.019 C 
ENDBRANCH   1   7
TORSDOF 1
ENDMDL
