MODEL 1
REMARK minimizedAffinity -0.235880971
REMARK minimizedRMSD -1
REMARK  1 active torsions:
REMARK  status: ('A' for Active; 'I' for Inactive)
REMARK    1  A    between atoms: C1_2  and  C2_3 
ROOT
ATOM      1  C2  UNL d   1       1.311  -0.058  -1.616  0.00  0.00    -0.077 A 
ATOM      2  C3  UNL d   1       0.584  -1.174  -2.051  0.00  0.00     0.002 A 
ATOM      3  C4  UNL d   1       0.794  -2.425  -1.468  0.00  0.00     0.002 A 
ATOM      4  C5  UNL d   1       1.727  -2.570  -0.444  0.00  0.00    -0.004 A 
ATOM      5  C6  UNL d   1       2.457  -1.466  -0.005  0.00  0.00     0.002 A 
ATOM      6  C7  UNL d   1       2.249  -0.215  -0.588  0.00  0.00     0.002 A 
ENDROOT
BRANCH   1   7
ATOM      7  C1  UNL d   1       1.051   1.302  -2.210  0.00  0.00     0.055 C 
ATOM      8  C   UNL d   1       0.672   2.312  -1.136  0.00  0.00     0.019 C 
ENDBRANCH   1   7
TORSDOF 1
ENDMDL
