MODEL 1
REMARK minimizedAffinity 2.74190712
REMARK minimizedRMSD -1
REMARK  1 active torsions:
REMARK  status: ('A' for Active; 'I' for Inactive)
REMARK    1  A    between atoms: C1_2  and  C2_3 
ROOT
ATOM      1  C2  UNL d   1       1.014   1.795  -1.098  0.00  0.00    -0.077 A 
ATOM      2  C3  UNL d   1       1.218   2.091   0.257  0.00  0.00     0.002 A 
ATOM      3  C4  UNL d   1       1.294   1.064   1.200  0.00  0.00     0.002 A 
ATOM      4  C5  UNL d   1       1.170  -0.264   0.797  0.00  0.00    -0.004 A 
ATOM      5  C6  UNL d   1       0.964  -0.568  -0.548  0.00  0.00     0.002 A 
ATOM      6  C7  UNL d   1       0.887   0.457  -1.492  0.00  0.00     0.002 A 
ENDROOT
BRANCH   1   7
ATOM      7  C1  UNL d   1       0.981   2.899  -2.124  0.00  0.00     0.055 C 
ATOM      8  C   UNL d   1       1.473   4.214  -1.537  0.00  0.00     0.019 C 
ENDBRANCH   1   7
TORSDOF 1
ENDMDL
