MODEL 1
REMARK minimizedAffinity -2.51582384
REMARK minimizedRMSD -1
REMARK  1 active torsions:
REMARK  status: ('A' for Active; 'I' for Inactive)
REMARK    1  A    between atoms: C1_2  and  C2_3 
ROOT
ATOM      1  C2  UNL d   1       0.873   0.667  -1.110  0.00  0.00    -0.077 A 
ATOM      2  C3  UNL d   1       1.217   0.949   0.220  0.00  0.00     0.002 A 
ATOM      3  C4  UNL d   1       1.194   2.264   0.691  0.00  0.00     0.002 A 
ATOM      4  C5  UNL d   1       0.825   3.304  -0.159  0.00  0.00    -0.004 A 
ATOM      5  C6  UNL d   1       0.483   3.033  -1.484  0.00  0.00     0.002 A 
ATOM      6  C7  UNL d   1       0.507   1.720  -1.956  0.00  0.00     0.002 A 
ENDROOT
BRANCH   1   7
ATOM      7  C1  UNL d   1       0.850  -0.755  -1.606  0.00  0.00     0.055 C 
ATOM      8  C   UNL d   1       1.122  -1.740  -0.478  0.00  0.00     0.019 C 
ENDBRANCH   1   7
TORSDOF 1
ENDMDL
