MODEL 1
REMARK minimizedAffinity 1.41501904
REMARK minimizedRMSD -1
REMARK  1 active torsions:
REMARK  status: ('A' for Active; 'I' for Inactive)
REMARK    1  A    between atoms: C1_2  and  C2_3 
ROOT
ATOM      1  C2  UNL d   1       1.760   1.047   1.213  0.00  0.00    -0.077 A 
ATOM      2  C3  UNL d   1       1.800  -0.235   0.646  0.00  0.00     0.002 A 
ATOM      3  C4  UNL d   1       1.244  -0.469  -0.613  0.00  0.00     0.002 A 
ATOM      4  C5  UNL d   1       0.647   0.574  -1.317  0.00  0.00    -0.004 A 
ATOM      5  C6  UNL d   1       0.600   1.852  -0.762  0.00  0.00     0.002 A 
ATOM      6  C7  UNL d   1       1.154   2.088   0.497  0.00  0.00     0.002 A 
ENDROOT
BRANCH   1   7
ATOM      7  C1  UNL d   1       2.403   1.313   2.549  0.00  0.00     0.055 C 
ATOM      8  C   UNL d   1       2.952   2.730   2.627  0.00  0.00     0.019 C 
ENDBRANCH   1   7
TORSDOF 1
ENDMDL
