MODEL 1
REMARK minimizedAffinity 16.1214542
REMARK minimizedRMSD -1
REMARK  0 active torsions:
REMARK  status: ('A' for Active; 'I' for Inactive)
ROOT
ATOM      1  C   UNL d   1       1.504   1.040  -1.038  0.00  0.00     0.023 A 
ATOM      2  C1  UNL d   1       0.372   1.843  -0.894  0.00  0.00     0.003 A 
ATOM      3  C2  UNL d   1      -0.635   1.478   0.002  0.00  0.00     0.048 A 
ATOM      4  C3  UNL d   1      -0.504   0.310   0.752  0.00  0.00     0.023 A 
ATOM      5  C4  UNL d   1       0.628  -0.496   0.612  0.00  0.00     0.048 A 
ATOM      6  C5  UNL d   1       1.631  -0.128  -0.286  0.00  0.00     0.003 A 
ATOM      7  I   UNL d   1      -2.001  -0.234   2.086  0.00  0.00    -0.146 I 
ENDROOT
TORSDOF 0
ENDMDL
