MODEL 1
REMARK minimizedAffinity 14.9416647
REMARK minimizedRMSD -1
REMARK  0 active torsions:
REMARK  status: ('A' for Active; 'I' for Inactive)
ROOT
ATOM      1  C   UNL d   1       1.046   0.932  -0.404  0.00  0.00     0.023 A 
ATOM      2  C1  UNL d   1       1.858   1.630  -1.299  0.00  0.00     0.003 A 
ATOM      3  C2  UNL d   1       3.247   1.593  -1.158  0.00  0.00     0.048 A 
ATOM      4  C3  UNL d   1       3.817   0.855  -0.122  0.00  0.00     0.023 A 
ATOM      5  C4  UNL d   1       3.009   0.155   0.775  0.00  0.00     0.048 A 
ATOM      6  C5  UNL d   1       1.621   0.195   0.631  0.00  0.00     0.003 A 
ATOM      7  I   UNL d   1       5.884   0.798   0.089  0.00  0.00    -0.146 I 
ENDROOT
TORSDOF 0
ENDMDL
