MODEL 1
REMARK minimizedAffinity 0.14748168
REMARK minimizedRMSD -1
REMARK  0 active torsions:
REMARK  status: ('A' for Active; 'I' for Inactive)
ROOT
ATOM      1  C   UNL d   1       0.473   1.681   1.603  0.00  0.00     0.023 A 
ATOM      2  C1  UNL d   1       1.151   2.225   0.512  0.00  0.00     0.003 A 
ATOM      3  C2  UNL d   1       1.171   1.547  -0.708  0.00  0.00     0.048 A 
ATOM      4  C3  UNL d   1       0.510   0.325  -0.831  0.00  0.00     0.023 A 
ATOM      5  C4  UNL d   1      -0.171  -0.222   0.258  0.00  0.00     0.048 A 
ATOM      6  C5  UNL d   1      -0.187   0.459   1.476  0.00  0.00     0.003 A 
ATOM      7  I   UNL d   1       0.538  -0.686  -2.646  0.00  0.00    -0.146 I 
ENDROOT
TORSDOF 0
ENDMDL
