MODEL 1
REMARK minimizedAffinity 6.52792549
REMARK minimizedRMSD -1
REMARK  0 active torsions:
REMARK  status: ('A' for Active; 'I' for Inactive)
ROOT
ATOM      1  C   UNL d   1      -2.876   2.683  -1.547  0.00  0.00     0.023 A 
ATOM      2  C1  UNL d   1      -2.119   3.675  -0.923  0.00  0.00     0.003 A 
ATOM      3  C2  UNL d   1      -1.354   4.556  -1.688  0.00  0.00     0.048 A 
ATOM      4  C3  UNL d   1      -1.350   4.441  -3.078  0.00  0.00     0.023 A 
ATOM      5  C4  UNL d   1      -2.107   3.451  -3.707  0.00  0.00     0.048 A 
ATOM      6  C5  UNL d   1      -2.870   2.571  -2.937  0.00  0.00     0.003 A 
ATOM      7  I   UNL d   1      -0.212   5.753  -4.220  0.00  0.00    -0.146 I 
ENDROOT
TORSDOF 0
ENDMDL
