MODEL 1
REMARK minimizedAffinity 11.4358158
REMARK minimizedRMSD -1
REMARK  0 active torsions:
REMARK  status: ('A' for Active; 'I' for Inactive)
ROOT
ATOM      1  C   UNL d   1       0.623   0.842   1.309  0.00  0.00     0.023 A 
ATOM      2  C1  UNL d   1       1.043   1.173   0.020  0.00  0.00     0.003 A 
ATOM      3  C2  UNL d   1       2.376   0.985  -0.351  0.00  0.00     0.048 A 
ATOM      4  C3  UNL d   1       3.283   0.464   0.571  0.00  0.00     0.023 A 
ATOM      5  C4  UNL d   1       2.868   0.130   1.861  0.00  0.00     0.048 A 
ATOM      6  C5  UNL d   1       1.534   0.321   2.228  0.00  0.00     0.003 A 
ATOM      7  I   UNL d   1       5.268   0.182   0.020  0.00  0.00    -0.146 I 
ENDROOT
TORSDOF 0
ENDMDL
