MODEL 1
REMARK minimizedAffinity 2.96045518
REMARK minimizedRMSD -1
REMARK  0 active torsions:
REMARK  status: ('A' for Active; 'I' for Inactive)
ROOT
ATOM      1  C   UNL d   1       6.000   4.357  -4.735  0.00  0.00     0.023 A 
ATOM      2  C1  UNL d   1       4.946   3.797  -4.013  0.00  0.00     0.003 A 
ATOM      3  C2  UNL d   1       3.631   4.182  -4.280  0.00  0.00     0.048 A 
ATOM      4  C3  UNL d   1       3.376   5.128  -5.273  0.00  0.00     0.023 A 
ATOM      5  C4  UNL d   1       4.427   5.691  -5.999  0.00  0.00     0.048 A 
ATOM      6  C5  UNL d   1       5.740   5.303  -5.727  0.00  0.00     0.003 A 
ATOM      7  I   UNL d   1       1.420   5.703  -5.674  0.00  0.00    -0.146 I 
ENDROOT
TORSDOF 0
ENDMDL
