MODEL 1
REMARK minimizedAffinity 1.67431033
REMARK minimizedRMSD -1
REMARK  0 active torsions:
REMARK  status: ('A' for Active; 'I' for Inactive)
ROOT
ATOM      1  C   UNL d   1      -2.023  -2.996   1.397  0.00  0.00     0.023 A 
ATOM      2  C1  UNL d   1      -1.054  -3.161   0.407  0.00  0.00     0.003 A 
ATOM      3  C2  UNL d   1      -0.145  -2.136   0.140  0.00  0.00     0.048 A 
ATOM      4  C3  UNL d   1      -0.209  -0.948   0.868  0.00  0.00     0.023 A 
ATOM      5  C4  UNL d   1      -1.177  -0.779   1.860  0.00  0.00     0.048 A 
ATOM      6  C5  UNL d   1      -2.084  -1.807   2.122  0.00  0.00     0.003 A 
ATOM      7  I   UNL d   1       1.144   0.579   0.474  0.00  0.00    -0.146 I 
ENDROOT
TORSDOF 0
ENDMDL
