MODEL 1
REMARK minimizedAffinity 0.824115992
REMARK minimizedRMSD -1
REMARK  0 active torsions:
REMARK  status: ('A' for Active; 'I' for Inactive)
ROOT
ATOM      1  C   UNL d   1       3.078   4.674  -5.200  0.00  0.00     0.023 A 
ATOM      2  C1  UNL d   1       2.744   5.618  -4.229  0.00  0.00     0.003 A 
ATOM      3  C2  UNL d   1       1.412   6.000  -4.053  0.00  0.00     0.048 A 
ATOM      4  C3  UNL d   1       0.419   5.431  -4.850  0.00  0.00     0.023 A 
ATOM      5  C4  UNL d   1       0.748   4.485  -5.822  0.00  0.00     0.048 A 
ATOM      6  C5  UNL d   1       2.081   4.108  -5.995  0.00  0.00     0.003 A 
ATOM      7  I   UNL d   1      -1.564   5.997  -4.589  0.00  0.00    -0.146 I 
ENDROOT
TORSDOF 0
ENDMDL
