MODEL 1
REMARK minimizedAffinity 0.652567089
REMARK minimizedRMSD -1
REMARK  0 active torsions:
REMARK  status: ('A' for Active; 'I' for Inactive)
ROOT
ATOM      1  C   UNL d   1      -1.664   5.999  -2.777  0.00  0.00     0.023 A 
ATOM      2  C1  UNL d   1      -0.380   6.000  -2.232  0.00  0.00     0.003 A 
ATOM      3  C2  UNL d   1       0.736   5.998  -3.072  0.00  0.00     0.048 A 
ATOM      4  C3  UNL d   1       0.560   5.996  -4.455  0.00  0.00     0.023 A 
ATOM      5  C4  UNL d   1      -0.723   5.995  -5.005  0.00  0.00     0.048 A 
ATOM      6  C5  UNL d   1      -1.835   5.997  -4.162  0.00  0.00     0.003 A 
ATOM      7  I   UNL d   1       2.220   5.993  -5.707  0.00  0.00    -0.146 I 
ENDROOT
TORSDOF 0
ENDMDL
