MODEL 1
REMARK minimizedAffinity 3.10447621
REMARK minimizedRMSD -1
REMARK  0 active torsions:
REMARK  status: ('A' for Active; 'I' for Inactive)
ROOT
ATOM      1  C   UNL d   1      -4.610   5.996  -1.717  0.00  0.00     0.023 A 
ATOM      2  C1  UNL d   1      -4.540   5.992  -3.110  0.00  0.00     0.003 A 
ATOM      3  C2  UNL d   1      -3.298   5.993  -3.748  0.00  0.00     0.048 A 
ATOM      4  C3  UNL d   1      -2.129   5.997  -2.987  0.00  0.00     0.023 A 
ATOM      5  C4  UNL d   1      -2.194   6.000  -1.593  0.00  0.00     0.048 A 
ATOM      6  C5  UNL d   1      -3.438   6.000  -0.959  0.00  0.00     0.003 A 
ATOM      7  I   UNL d   1      -0.280   5.999  -3.935  0.00  0.00    -0.146 I 
ENDROOT
TORSDOF 0
ENDMDL
