MODEL 1
REMARK minimizedAffinity 7.16116285
REMARK minimizedRMSD -1
REMARK  0 active torsions:
REMARK  status: ('A' for Active; 'I' for Inactive)
ROOT
ATOM      1  C   UNL d   1       1.669   2.257   0.530  0.00  0.00     0.023 A 
ATOM      2  C1  UNL d   1       1.727   1.734   1.821  0.00  0.00     0.003 A 
ATOM      3  C2  UNL d   1       0.796   0.776   2.230  0.00  0.00     0.048 A 
ATOM      4  C3  UNL d   1      -0.189   0.346   1.342  0.00  0.00     0.023 A 
ATOM      5  C4  UNL d   1      -0.250   0.866   0.048  0.00  0.00     0.048 A 
ATOM      6  C5  UNL d   1       0.682   1.824  -0.356  0.00  0.00     0.003 A 
ATOM      7  I   UNL d   1      -1.575  -1.080   1.949  0.00  0.00    -0.146 I 
ENDROOT
TORSDOF 0
ENDMDL
