MODEL 1
REMARK minimizedAffinity 5.32265186
REMARK minimizedRMSD -1
REMARK  0 active torsions:
REMARK  status: ('A' for Active; 'I' for Inactive)
ROOT
ATOM      1  C   UNL d   1      -1.019  -0.995   1.324  0.00  0.00     0.023 A 
ATOM      2  C1  UNL d   1       0.064  -1.008   0.446  0.00  0.00     0.003 A 
ATOM      3  C2  UNL d   1       0.748   0.175   0.161  0.00  0.00     0.048 A 
ATOM      4  C3  UNL d   1       0.345   1.368   0.760  0.00  0.00     0.023 A 
ATOM      5  C4  UNL d   1      -0.738   1.386   1.641  0.00  0.00     0.048 A 
ATOM      6  C5  UNL d   1      -1.420   0.200   1.921  0.00  0.00     0.003 A 
ATOM      7  I   UNL d   1       1.362   3.131   0.339  0.00  0.00    -0.146 I 
ENDROOT
TORSDOF 0
ENDMDL
