MODEL 1
REMARK minimizedAffinity 3.71067739
REMARK minimizedRMSD -1
REMARK  0 active torsions:
REMARK  status: ('A' for Active; 'I' for Inactive)
ROOT
ATOM      1  C   UNL d   1      -1.049  -0.725  -4.644  0.00  0.00     0.023 A 
ATOM      2  C1  UNL d   1       0.287  -0.848  -4.261  0.00  0.00     0.003 A 
ATOM      3  C2  UNL d   1       0.657  -0.621  -2.934  0.00  0.00     0.048 A 
ATOM      4  C3  UNL d   1      -0.313  -0.271  -1.995  0.00  0.00     0.023 A 
ATOM      5  C4  UNL d   1      -1.651  -0.147  -2.374  0.00  0.00     0.048 A 
ATOM      6  C5  UNL d   1      -2.016  -0.375  -3.702  0.00  0.00     0.003 A 
ATOM      7  I   UNL d   1       0.236   0.067  -0.019  0.00  0.00    -0.146 I 
ENDROOT
TORSDOF 0
ENDMDL
