MODEL 1
REMARK minimizedAffinity 0.898705125
REMARK minimizedRMSD -1
REMARK  0 active torsions:
REMARK  status: ('A' for Active; 'I' for Inactive)
ROOT
ATOM      1  C   UNL d   1       1.551   2.890   0.190  0.00  0.00     0.023 A 
ATOM      2  C1  UNL d   1       1.493   2.200   1.401  0.00  0.00     0.003 A 
ATOM      3  C2  UNL d   1       0.896   0.939   1.460  0.00  0.00     0.048 A 
ATOM      4  C3  UNL d   1       0.361   0.373   0.304  0.00  0.00     0.023 A 
ATOM      5  C4  UNL d   1       0.418   1.058  -0.911  0.00  0.00     0.048 A 
ATOM      6  C5  UNL d   1       1.014   2.319  -0.965  0.00  0.00     0.003 A 
ATOM      7  I   UNL d   1      -0.527  -1.505   0.389  0.00  0.00    -0.146 I 
ENDROOT
TORSDOF 0
ENDMDL
