MODEL 1
REMARK minimizedAffinity 0.534925401
REMARK minimizedRMSD -1
REMARK  0 active torsions:
REMARK  status: ('A' for Active; 'I' for Inactive)
ROOT
ATOM      1  C   UNL d   1       1.153   5.995  -4.407  0.00  0.00     0.023 A 
ATOM      2  C1  UNL d   1       0.681   5.998  -3.094  0.00  0.00     0.003 A 
ATOM      3  C2  UNL d   1      -0.693   6.000  -2.845  0.00  0.00     0.048 A 
ATOM      4  C3  UNL d   1      -1.590   5.998  -3.913  0.00  0.00     0.023 A 
ATOM      5  C4  UNL d   1      -1.122   5.994  -5.228  0.00  0.00     0.048 A 
ATOM      6  C5  UNL d   1       0.253   5.993  -5.472  0.00  0.00     0.003 A 
ATOM      7  I   UNL d   1      -3.635   6.000  -3.545  0.00  0.00    -0.146 I 
ENDROOT
TORSDOF 0
ENDMDL
