MODEL 1
REMARK minimizedAffinity 5.93053675
REMARK minimizedRMSD -1
REMARK  0 active torsions:
REMARK  status: ('A' for Active; 'I' for Inactive)
ROOT
ATOM      1  C   UNL d   1      -0.719   1.427   2.994  0.00  0.00     0.023 A 
ATOM      2  C1  UNL d   1       0.462   2.082   2.643  0.00  0.00     0.003 A 
ATOM      3  C2  UNL d   1       1.161   1.699   1.497  0.00  0.00     0.048 A 
ATOM      4  C3  UNL d   1       0.674   0.660   0.705  0.00  0.00     0.023 A 
ATOM      5  C4  UNL d   1      -0.507   0.002   1.051  0.00  0.00     0.048 A 
ATOM      6  C5  UNL d   1      -1.203   0.388   2.199  0.00  0.00     0.003 A 
ATOM      7  I   UNL d   1       1.713   0.087  -1.002  0.00  0.00    -0.146 I 
ENDROOT
TORSDOF 0
ENDMDL
