MODEL 1
REMARK minimizedAffinity 3.8264091
REMARK minimizedRMSD -1
REMARK  0 active torsions:
REMARK  status: ('A' for Active; 'I' for Inactive)
ROOT
ATOM      1  C   UNL d   1       0.459   0.878  -0.207  0.00  0.00     0.023 A 
ATOM      2  C1  UNL d   1      -0.467   0.265   0.637  0.00  0.00     0.003 A 
ATOM      3  C2  UNL d   1      -0.309   0.344   2.022  0.00  0.00     0.048 A 
ATOM      4  C3  UNL d   1       0.776   1.037   2.556  0.00  0.00     0.023 A 
ATOM      5  C4  UNL d   1       1.705   1.653   1.715  0.00  0.00     0.048 A 
ATOM      6  C5  UNL d   1       1.543   1.571   0.331  0.00  0.00     0.003 A 
ATOM      7  I   UNL d   1       1.013   1.155   4.618  0.00  0.00    -0.146 I 
ENDROOT
TORSDOF 0
ENDMDL
