MODEL 1
REMARK minimizedAffinity 2.66700864
REMARK minimizedRMSD -1
REMARK  0 active torsions:
REMARK  status: ('A' for Active; 'I' for Inactive)
ROOT
ATOM      1  C   UNL d   1      -2.239   0.910   0.957  0.00  0.00     0.078 C 
ATOM      2  C1  UNL d   1      -2.228   0.019   2.163  0.00  0.00    -0.077 A 
ATOM      3  C2  UNL d   1      -1.058  -0.171   2.908  0.00  0.00    -0.001 A 
ATOM      4  C3  UNL d   1      -1.059  -1.011   4.023  0.00  0.00     0.003 A 
ATOM      5  C4  UNL d   1      -2.228  -1.669   4.401  0.00  0.00    -0.005 A 
ATOM      6  C5  UNL d   1      -3.397  -1.487   3.665  0.00  0.00     0.003 A 
ATOM      7  C6  UNL d   1      -3.397  -0.648   2.550  0.00  0.00    -0.001 A 
ENDROOT
TORSDOF 0
ENDMDL
