MODEL 1
REMARK minimizedAffinity 5.59163904
REMARK minimizedRMSD -1
REMARK  0 active torsions:
REMARK  status: ('A' for Active; 'I' for Inactive)
ROOT
ATOM      1  C   UNL d   1       0.531  -0.795   3.981  0.00  0.00     0.078 C 
ATOM      2  C1  UNL d   1      -0.911  -0.801   3.569  0.00  0.00    -0.077 A 
ATOM      3  C2  UNL d   1      -1.810  -1.731   4.106  0.00  0.00    -0.001 A 
ATOM      4  C3  UNL d   1      -3.148  -1.731   3.706  0.00  0.00     0.003 A 
ATOM      5  C4  UNL d   1      -3.598  -0.805   2.767  0.00  0.00    -0.005 A 
ATOM      6  C5  UNL d   1      -2.710   0.122   2.226  0.00  0.00     0.003 A 
ATOM      7  C6  UNL d   1      -1.372   0.125   2.625  0.00  0.00    -0.001 A 
ENDROOT
TORSDOF 0
ENDMDL
