MODEL 1
REMARK minimizedAffinity 4.05496311
REMARK minimizedRMSD -1
REMARK  0 active torsions:
REMARK  status: ('A' for Active; 'I' for Inactive)
ROOT
ATOM      1  C   UNL d   1       1.604   0.142   0.869  0.00  0.00     0.078 C 
ATOM      2  C1  UNL d   1       0.411   0.073   1.776  0.00  0.00    -0.077 A 
ATOM      3  C2  UNL d   1       0.499  -0.523   3.039  0.00  0.00    -0.001 A 
ATOM      4  C3  UNL d   1      -0.621  -0.589   3.869  0.00  0.00     0.003 A 
ATOM      5  C4  UNL d   1      -1.839  -0.061   3.443  0.00  0.00    -0.005 A 
ATOM      6  C5  UNL d   1      -1.936   0.532   2.186  0.00  0.00     0.003 A 
ATOM      7  C6  UNL d   1      -0.817   0.599   1.356  0.00  0.00    -0.001 A 
ENDROOT
TORSDOF 0
ENDMDL
