MODEL 1
REMARK minimizedAffinity 4.83567429
REMARK minimizedRMSD -1
REMARK  0 active torsions:
REMARK  status: ('A' for Active; 'I' for Inactive)
ROOT
ATOM      1  C   UNL d   1       0.771  -1.205   4.194  0.00  0.00     0.078 C 
ATOM      2  C1  UNL d   1      -0.655  -0.990   3.785  0.00  0.00    -0.077 A 
ATOM      3  C2  UNL d   1      -1.010   0.067   2.938  0.00  0.00    -0.001 A 
ATOM      4  C3  UNL d   1      -2.343   0.262   2.572  0.00  0.00     0.003 A 
ATOM      5  C4  UNL d   1      -3.332  -0.596   3.050  0.00  0.00    -0.005 A 
ATOM      6  C5  UNL d   1      -2.988  -1.649   3.895  0.00  0.00     0.003 A 
ATOM      7  C6  UNL d   1      -1.656  -1.845   4.261  0.00  0.00    -0.001 A 
ENDROOT
TORSDOF 0
ENDMDL
