MODEL 1
REMARK minimizedAffinity 3.1326077
REMARK minimizedRMSD -1
REMARK  1 active torsions:
REMARK  status: ('A' for Active; 'I' for Inactive)
REMARK    1  A    between atoms: C1_2  and  C2_3 
ROOT
ATOM      1  C2  UNL d   1       3.299   4.061   4.684  0.00  0.00    -0.077 A 
ATOM      2  C3  UNL d   1       3.726   4.745   3.537  0.00  0.00     0.002 A 
ATOM      3  C4  UNL d   1       4.730   5.711   3.623  0.00  0.00     0.002 A 
ATOM      4  C5  UNL d   1       5.318   5.999   4.853  0.00  0.00    -0.004 A 
ATOM      5  C6  UNL d   1       4.899   5.326   6.000  0.00  0.00     0.002 A 
ATOM      6  C7  UNL d   1       3.895   4.361   5.916  0.00  0.00     0.002 A 
ENDROOT
BRANCH   1   7
ATOM      7  C1  UNL d   1       2.251   2.984   4.585  0.00  0.00     0.055 C 
ATOM      8  C   UNL d   1       1.704   2.616   5.956  0.00  0.00     0.019 C 
ENDBRANCH   1   7
TORSDOF 1
ENDMDL
