MODEL 1
REMARK minimizedAffinity 5.79490185
REMARK minimizedRMSD -1
REMARK  1 active torsions:
REMARK  status: ('A' for Active; 'I' for Inactive)
REMARK    1  A    between atoms: C1_2  and  C2_3 
ROOT
ATOM      1  C2  UNL d   1       3.799  -0.442  -0.724  0.00  0.00    -0.077 A 
ATOM      2  C3  UNL d   1       4.216  -0.985  -1.947  0.00  0.00     0.002 A 
ATOM      3  C4  UNL d   1       3.831  -2.276  -2.315  0.00  0.00     0.002 A 
ATOM      4  C5  UNL d   1       3.024  -3.032  -1.467  0.00  0.00    -0.004 A 
ATOM      5  C6  UNL d   1       2.606  -2.502  -0.247  0.00  0.00     0.002 A 
ATOM      6  C7  UNL d   1       2.990  -1.212   0.122  0.00  0.00     0.002 A 
ENDROOT
BRANCH   1   7
ATOM      7  C1  UNL d   1       4.172   0.968  -0.347  0.00  0.00     0.055 C 
ATOM      8  C   UNL d   1       3.064   1.640   0.450  0.00  0.00     0.019 C 
ENDBRANCH   1   7
TORSDOF 1
ENDMDL
