MODEL 1
REMARK minimizedAffinity 3.1508863
REMARK minimizedRMSD -1
REMARK  1 active torsions:
REMARK  status: ('A' for Active; 'I' for Inactive)
REMARK    1  A    between atoms: C1_2  and  C2_3 
ROOT
ATOM      1  C2  UNL d   1      -3.831   4.826   4.172  0.00  0.00    -0.077 A 
ATOM      2  C3  UNL d   1      -3.841   5.851   5.128  0.00  0.00     0.002 A 
ATOM      3  C4  UNL d   1      -4.922   5.993   6.000  0.00  0.00     0.002 A 
ATOM      4  C5  UNL d   1      -5.999   5.112   5.927  0.00  0.00    -0.004 A 
ATOM      5  C6  UNL d   1      -5.999   4.091   4.977  0.00  0.00     0.002 A 
ATOM      6  C7  UNL d   1      -4.920   3.948   4.104  0.00  0.00     0.002 A 
ENDROOT
BRANCH   1   7
ATOM      7  C1  UNL d   1      -2.644   4.641   3.263  0.00  0.00     0.055 C 
ATOM      8  C   UNL d   1      -2.092   5.979   2.793  0.00  0.00     0.019 C 
ENDBRANCH   1   7
TORSDOF 1
ENDMDL
