MODEL 1
REMARK minimizedAffinity 0.798878431
REMARK minimizedRMSD -1
REMARK  1 active torsions:
REMARK  status: ('A' for Active; 'I' for Inactive)
REMARK    1  A    between atoms: C1_2  and  C2_3 
ROOT
ATOM      1  C2  UNL d   1       4.114   4.107   4.017  0.00  0.00    -0.077 A 
ATOM      2  C3  UNL d   1       4.360   4.052   5.396  0.00  0.00     0.002 A 
ATOM      3  C4  UNL d   1       5.232   4.964   5.995  0.00  0.00     0.002 A 
ATOM      4  C5  UNL d   1       5.861   5.938   5.223  0.00  0.00    -0.004 A 
ATOM      5  C6  UNL d   1       5.624   6.000   3.851  0.00  0.00     0.002 A 
ATOM      6  C7  UNL d   1       4.754   5.089   3.250  0.00  0.00     0.002 A 
ENDROOT
BRANCH   1   7
ATOM      7  C1  UNL d   1       3.136   3.156   3.378  0.00  0.00     0.055 C 
ATOM      8  C   UNL d   1       1.884   2.995   4.228  0.00  0.00     0.019 C 
ENDBRANCH   1   7
TORSDOF 1
ENDMDL
