MODEL 1
REMARK minimizedAffinity 8.42101574
REMARK minimizedRMSD -1
REMARK  1 active torsions:
REMARK  status: ('A' for Active; 'I' for Inactive)
REMARK    1  A    between atoms: C1_2  and  C2_3 
ROOT
ATOM      1  C2  UNL d   1      -5.252   4.192   4.202  0.00  0.00    -0.077 A 
ATOM      2  C3  UNL d   1      -3.858   4.330   4.163  0.00  0.00     0.002 A 
ATOM      3  C4  UNL d   1      -3.211   5.215   5.028  0.00  0.00     0.002 A 
ATOM      4  C5  UNL d   1      -3.950   5.964   5.941  0.00  0.00    -0.004 A 
ATOM      5  C6  UNL d   1      -5.338   5.835   5.986  0.00  0.00     0.002 A 
ATOM      6  C7  UNL d   1      -5.986   4.953   5.121  0.00  0.00     0.002 A 
ENDROOT
BRANCH   1   7
ATOM      7  C1  UNL d   1      -5.947   3.202   3.303  0.00  0.00     0.055 C 
ATOM      8  C   UNL d   1      -5.525   3.381   1.852  0.00  0.00     0.019 C 
ENDBRANCH   1   7
TORSDOF 1
ENDMDL
