MODEL 1
REMARK minimizedAffinity -3.60243821
REMARK minimizedRMSD -1
REMARK  3 active torsions:
REMARK  status: ('A' for Active; 'I' for Inactive)
REMARK    1  A    between atoms: C3'_2  and  C2'_3 
REMARK    2  A    between atoms: C2'_3  and  C1'_4 
REMARK    3  A    between atoms: C1'_4  and  C1_5 
ROOT
ATOM      1  C1  N4B d   1      -0.130  -0.018   0.333  0.00  0.00    -0.075 A 
ATOM      2  C2  N4B d   1      -1.485   0.007   0.730  0.00  0.00     0.002 A 
ATOM      3  C3  N4B d   1      -1.873   0.780   1.796  0.00  0.00     0.002 A 
ATOM      4  C4  N4B d   1      -0.926   1.517   2.490  0.00  0.00    -0.004 A 
ATOM      5  C5  N4B d   1       0.377   1.507   2.085  0.00  0.00     0.002 A 
ATOM      6  C6  N4B d   1       0.781   0.738   1.012  0.00  0.00     0.002 A 
ENDROOT
BRANCH   1   7
ATOM      7  C1' N4B d   1       0.357  -0.914  -0.774  0.00  0.00     0.057 C 
BRANCH   7   8
ATOM      8  C2' N4B d   1      -0.836  -1.379  -1.603  0.00  0.00     0.009 C 
BRANCH   8   9
ATOM      9  C3' N4B d   1      -0.992  -2.890  -1.579  0.00  0.00     0.004 C 
ATOM     10  C4' N4B d   1      -2.391  -3.324  -1.262  0.00  0.00     0.003 C 
ENDBRANCH   8   9
ENDBRANCH   7   8
ENDBRANCH   1   7
TORSDOF 3
ENDMDL
