MODEL 1
REMARK minimizedAffinity -2.19698548
REMARK minimizedRMSD -1
REMARK  3 active torsions:
REMARK  status: ('A' for Active; 'I' for Inactive)
REMARK    1  A    between atoms: C3'_2  and  C2'_3 
REMARK    2  A    between atoms: C2'_3  and  C1'_4 
REMARK    3  A    between atoms: C1'_4  and  C1_5 
ROOT
ATOM      1  C1  N4B d   1      -1.590  -0.372   0.760  0.00  0.00    -0.075 A 
ATOM      2  C2  N4B d   1      -1.866   0.164   2.037  0.00  0.00     0.002 A 
ATOM      3  C3  N4B d   1      -0.922   0.926   2.681  0.00  0.00     0.002 A 
ATOM      4  C4  N4B d   1       0.307   1.149   2.078  0.00  0.00    -0.004 A 
ATOM      5  C5  N4B d   1       0.556   0.649   0.833  0.00  0.00     0.002 A 
ATOM      6  C6  N4B d   1      -0.385  -0.115   0.173  0.00  0.00     0.002 A 
ENDROOT
BRANCH   1   7
ATOM      7  C1' N4B d   1      -2.557  -1.282   0.054  0.00  0.00     0.057 C 
BRANCH   7   8
ATOM      8  C2' N4B d   1      -1.776  -2.340  -0.720  0.00  0.00     0.009 C 
BRANCH   8   9
ATOM      9  C3' N4B d   1      -2.626  -3.560  -1.031  0.00  0.00     0.004 C 
ATOM     10  C4' N4B d   1      -4.065  -3.218  -1.277  0.00  0.00     0.003 C 
ENDBRANCH   8   9
ENDBRANCH   7   8
ENDBRANCH   1   7
TORSDOF 3
ENDMDL
