MODEL 1
REMARK minimizedAffinity -3.23159575
REMARK minimizedRMSD -1
REMARK  3 active torsions:
REMARK  status: ('A' for Active; 'I' for Inactive)
REMARK    1  A    between atoms: C3'_2  and  C2'_3 
REMARK    2  A    between atoms: C2'_3  and  C1'_4 
REMARK    3  A    between atoms: C1'_4  and  C1_5 
ROOT
ATOM      1  C1  N4B d   1       1.230   0.197  -2.808  0.00  0.00    -0.075 A 
ATOM      2  C2  N4B d   1       0.070   0.241  -3.612  0.00  0.00     0.002 A 
ATOM      3  C3  N4B d   1       0.092   0.908  -4.813  0.00  0.00     0.002 A 
ATOM      4  C4  N4B d   1       1.252   1.551  -5.219  0.00  0.00    -0.004 A 
ATOM      5  C5  N4B d   1       2.375   1.482  -4.448  0.00  0.00     0.002 A 
ATOM      6  C6  N4B d   1       2.369   0.812  -3.241  0.00  0.00     0.002 A 
ENDROOT
BRANCH   1   7
ATOM      7  C1' N4B d   1       1.230  -0.447  -1.448  0.00  0.00     0.057 C 
BRANCH   7   8
ATOM      8  C2' N4B d   1       0.221   0.270  -0.555  0.00  0.00     0.009 C 
BRANCH   8   9
ATOM      9  C3' N4B d   1       0.455  -0.026   0.916  0.00  0.00     0.004 C 
ATOM     10  C4' N4B d   1       0.643   1.215   1.736  0.00  0.00     0.003 C 
ENDBRANCH   8   9
ENDBRANCH   7   8
ENDBRANCH   1   7
TORSDOF 3
ENDMDL
