MODEL 1
REMARK minimizedAffinity -4.30156708
REMARK minimizedRMSD -1
REMARK  3 active torsions:
REMARK  status: ('A' for Active; 'I' for Inactive)
REMARK    1  A    between atoms: C3'_2  and  C2'_3 
REMARK    2  A    between atoms: C2'_3  and  C1'_4 
REMARK    3  A    between atoms: C1'_4  and  C1_5 
ROOT
ATOM      1  C1  N4B d   1       0.190  -1.695  -2.881  0.00  0.00    -0.075 A 
ATOM      2  C2  N4B d   1      -0.381  -1.250  -4.093  0.00  0.00     0.002 A 
ATOM      3  C3  N4B d   1       0.064  -0.089  -4.677  0.00  0.00     0.002 A 
ATOM      4  C4  N4B d   1       1.062   0.650  -4.060  0.00  0.00    -0.004 A 
ATOM      5  C5  N4B d   1       1.626   0.200  -2.903  0.00  0.00     0.002 A 
ATOM      6  C6  N4B d   1       1.192  -0.967  -2.307  0.00  0.00     0.002 A 
ENDROOT
BRANCH   1   7
ATOM      7  C1' N4B d   1      -0.322  -2.912  -2.161  0.00  0.00     0.057 C 
BRANCH   7   8
ATOM      8  C2' N4B d   1      -1.808  -3.084  -2.462  0.00  0.00     0.009 C 
BRANCH   8   9
ATOM      9  C3' N4B d   1      -2.619  -3.325  -1.201  0.00  0.00     0.004 C 
ATOM     10  C4' N4B d   1      -4.098  -3.236  -1.435  0.00  0.00     0.003 C 
ENDBRANCH   8   9
ENDBRANCH   7   8
ENDBRANCH   1   7
TORSDOF 3
ENDMDL
