MODEL 1
REMARK minimizedAffinity -3.76168299
REMARK minimizedRMSD -1
REMARK  3 active torsions:
REMARK  status: ('A' for Active; 'I' for Inactive)
REMARK    1  A    between atoms: C3'_2  and  C2'_3 
REMARK    2  A    between atoms: C2'_3  and  C1'_4 
REMARK    3  A    between atoms: C1'_4  and  C1_5 
ROOT
ATOM      1  C1  N4B d   1      -0.577  -1.129  -0.889  0.00  0.00    -0.075 A 
ATOM      2  C2  N4B d   1      -1.821  -1.364  -0.262  0.00  0.00     0.002 A 
ATOM      3  C3  N4B d   1      -2.678  -2.310  -0.769  0.00  0.00     0.002 A 
ATOM      4  C4  N4B d   1      -2.323  -3.017  -1.908  0.00  0.00    -0.004 A 
ATOM      5  C5  N4B d   1      -1.109  -2.802  -2.493  0.00  0.00     0.002 A 
ATOM      6  C6  N4B d   1      -0.236  -1.858  -1.992  0.00  0.00     0.002 A 
ENDROOT
BRANCH   1   7
ATOM      7  C1' N4B d   1       0.356  -0.046  -0.422  0.00  0.00     0.057 C 
BRANCH   7   8
ATOM      8  C2' N4B d   1      -0.404   0.908   0.495  0.00  0.00     0.009 C 
BRANCH   8   9
ATOM      9  C3' N4B d   1       0.149   0.898   1.910  0.00  0.00     0.004 C 
ATOM     10  C4' N4B d   1      -0.824   1.434   2.917  0.00  0.00     0.003 C 
ENDBRANCH   8   9
ENDBRANCH   7   8
ENDBRANCH   1   7
TORSDOF 3
ENDMDL
