MODEL 1
REMARK minimizedAffinity -0.179203242
REMARK minimizedRMSD -1
REMARK  3 active torsions:
REMARK  status: ('A' for Active; 'I' for Inactive)
REMARK    1  A    between atoms: C3'_2  and  C2'_3 
REMARK    2  A    between atoms: C2'_3  and  C1'_4 
REMARK    3  A    between atoms: C1'_4  and  C1_5 
ROOT
ATOM      1  C1  N4B d   1       0.058  -0.138   0.023  0.00  0.00    -0.075 A 
ATOM      2  C2  N4B d   1       1.254  -0.700   0.522  0.00  0.00     0.002 A 
ATOM      3  C3  N4B d   1       1.943  -0.066   1.527  0.00  0.00     0.002 A 
ATOM      4  C4  N4B d   1       1.469   1.135   2.032  0.00  0.00    -0.004 A 
ATOM      5  C5  N4B d   1       0.299   1.658   1.562  0.00  0.00     0.002 A 
ATOM      6  C6  N4B d   1      -0.406   1.029   0.555  0.00  0.00     0.002 A 
ENDROOT
BRANCH   1   7
ATOM      7  C1' N4B d   1      -0.684  -0.751  -1.133  0.00  0.00     0.057 C 
BRANCH   7   8
ATOM      8  C2' N4B d   1      -1.602  -1.853  -0.612  0.00  0.00     0.009 C 
BRANCH   8   9
ATOM      9  C3' N4B d   1      -1.714  -3.009  -1.590  0.00  0.00     0.004 C 
ATOM     10  C4' N4B d   1      -2.836  -3.946  -1.256  0.00  0.00     0.003 C 
ENDBRANCH   8   9
ENDBRANCH   7   8
ENDBRANCH   1   7
TORSDOF 3
ENDMDL
