MODEL 1
REMARK minimizedAffinity 6.24918985
REMARK minimizedRMSD -1
REMARK  1 active torsions:
REMARK  status: ('A' for Active; 'I' for Inactive)
REMARK    1  A    between atoms: C1_2  and  C2_3 
ROOT
ATOM      1  C2  UNL d   1       0.731   3.621  -3.503  0.00  0.00    -0.073 A 
ATOM      2  C3  UNL d   1       1.259   4.236  -4.644  0.00  0.00    -0.002 A 
ATOM      3  C4  UNL d   1       0.680   5.401  -5.147  0.00  0.00     0.004 A 
ATOM      4  C5  UNL d   1      -0.426   5.967  -4.513  0.00  0.00    -0.004 A 
ATOM      5  C6  UNL d   1      -0.961   5.373  -3.365  0.00  0.00    -0.075 A 
ATOM      6  C7  UNL d   1      -2.151   5.968  -2.672  0.00  0.00     0.076 C 
ATOM      7  C8  UNL d   1      -0.375   4.202  -2.867  0.00  0.00     0.001 A 
ENDROOT
BRANCH   1   8
ATOM      8  C1  UNL d   1       1.357   2.366  -2.951  0.00  0.00     0.053 C 
ATOM      9  C   UNL d   1       0.884   2.067  -1.537  0.00  0.00     0.018 C 
ENDBRANCH   1   8
TORSDOF 1
ENDMDL
