MODEL 1
REMARK minimizedAffinity -0.325464994
REMARK minimizedRMSD -1
REMARK  1 active torsions:
REMARK  status: ('A' for Active; 'I' for Inactive)
REMARK    1  A    between atoms: C1_2  and  C2_3 
ROOT
ATOM      1  C2  UNL d   1       0.711   4.125  -3.879  0.00  0.00    -0.073 A 
ATOM      2  C3  UNL d   1       0.968   4.526  -5.195  0.00  0.00    -0.002 A 
ATOM      3  C4  UNL d   1      -0.066   5.007  -6.000  0.00  0.00     0.004 A 
ATOM      4  C5  UNL d   1      -1.363   5.100  -5.496  0.00  0.00    -0.004 A 
ATOM      5  C6  UNL d   1      -1.637   4.716  -4.179  0.00  0.00    -0.075 A 
ATOM      6  C7  UNL d   1      -3.028   4.807  -3.622  0.00  0.00     0.076 C 
ATOM      7  C8  UNL d   1      -0.594   4.231  -3.378  0.00  0.00     0.001 A 
ENDROOT
BRANCH   1   8
ATOM      8  C1  UNL d   1       1.825   3.611  -3.004  0.00  0.00     0.053 C 
ATOM      9  C   UNL d   1       1.520   3.793  -1.526  0.00  0.00     0.018 C 
ENDBRANCH   1   8
TORSDOF 1
ENDMDL
