MODEL 1
REMARK minimizedAffinity 12.2846355
REMARK minimizedRMSD -1
REMARK  1 active torsions:
REMARK  status: ('A' for Active; 'I' for Inactive)
REMARK    1  A    between atoms: C1_2  and  C2_3 
ROOT
ATOM      1  C2  UNL d   1       3.566   1.619  -1.834  0.00  0.00    -0.073 A 
ATOM      2  C3  UNL d   1       2.339   2.285  -1.933  0.00  0.00    -0.002 A 
ATOM      3  C4  UNL d   1       1.366   2.121  -0.946  0.00  0.00     0.004 A 
ATOM      4  C5  UNL d   1       1.613   1.298   0.152  0.00  0.00    -0.004 A 
ATOM      5  C6  UNL d   1       2.837   0.633   0.275  0.00  0.00    -0.075 A 
ATOM      6  C7  UNL d   1       3.117  -0.259   1.449  0.00  0.00     0.076 C 
ATOM      7  C8  UNL d   1       3.808   0.800  -0.722  0.00  0.00     0.001 A 
ENDROOT
BRANCH   1   8
ATOM      8  C1  UNL d   1       4.621   1.797  -2.895  0.00  0.00     0.053 C 
ATOM      9  C   UNL d   1       5.979   2.130  -2.298  0.00  0.00     0.018 C 
ENDBRANCH   1   8
TORSDOF 1
ENDMDL
