MODEL 1
REMARK minimizedAffinity 6.26805162
REMARK minimizedRMSD -1
REMARK  1 active torsions:
REMARK  status: ('A' for Active; 'I' for Inactive)
REMARK    1  A    between atoms: C1_2  and  C2_3 
ROOT
ATOM      1  C2  UNL d   1      -1.155  -4.759  -0.817  0.00  0.00    -0.073 A 
ATOM      2  C3  UNL d   1      -1.534  -4.024   0.313  0.00  0.00    -0.002 A 
ATOM      3  C4  UNL d   1      -0.587  -3.672   1.275  0.00  0.00     0.004 A 
ATOM      4  C5  UNL d   1       0.748  -4.045   1.115  0.00  0.00    -0.004 A 
ATOM      5  C6  UNL d   1       1.148  -4.769  -0.012  0.00  0.00    -0.075 A 
ATOM      6  C7  UNL d   1       2.579  -5.180  -0.198  0.00  0.00     0.076 C 
ATOM      7  C8  UNL d   1       0.190  -5.121  -0.973  0.00  0.00     0.001 A 
ENDROOT
BRANCH   1   8
ATOM      8  C1  UNL d   1      -2.174  -5.135  -1.862  0.00  0.00     0.053 C 
ATOM      9  C   UNL d   1      -1.605  -5.048  -3.269  0.00  0.00     0.018 C 
ENDBRANCH   1   8
TORSDOF 1
ENDMDL
