MODEL 1
REMARK minimizedAffinity 8.01879883
REMARK minimizedRMSD -1
REMARK  1 active torsions:
REMARK  status: ('A' for Active; 'I' for Inactive)
REMARK    1  A    between atoms: C1_2  and  C2_3 
ROOT
ATOM      1  C2  UNL d   1      -4.772   4.100  -1.179  0.00  0.00    -0.073 A 
ATOM      2  C3  UNL d   1      -4.820   4.868  -0.010  0.00  0.00    -0.002 A 
ATOM      3  C4  UNL d   1      -3.687   5.553   0.431  0.00  0.00     0.004 A 
ATOM      4  C5  UNL d   1      -2.498   5.483  -0.295  0.00  0.00    -0.004 A 
ATOM      5  C6  UNL d   1      -2.434   4.730  -1.472  0.00  0.00    -0.075 A 
ATOM      6  C7  UNL d   1      -1.161   4.643  -2.263  0.00  0.00     0.076 C 
ATOM      7  C8  UNL d   1      -3.575   4.043  -1.907  0.00  0.00     0.001 A 
ENDROOT
BRANCH   1   8
ATOM      8  C1  UNL d   1      -5.995   3.364  -1.662  0.00  0.00     0.053 C 
ATOM      9  C   UNL d   1      -5.955   3.116  -3.162  0.00  0.00     0.018 C 
ENDBRANCH   1   8
TORSDOF 1
ENDMDL
