MODEL 1
REMARK minimizedAffinity 12.2063951
REMARK minimizedRMSD -1
REMARK  1 active torsions:
REMARK  status: ('A' for Active; 'I' for Inactive)
REMARK    1  A    between atoms: C1_2  and  C2_3 
ROOT
ATOM      1  C2  UNL d   1       1.837   1.598  -0.970  0.00  0.00    -0.073 A 
ATOM      2  C3  UNL d   1       1.495   2.573  -0.026  0.00  0.00    -0.002 A 
ATOM      3  C4  UNL d   1       1.901   2.441   1.303  0.00  0.00     0.004 A 
ATOM      4  C5  UNL d   1       2.658   1.338   1.699  0.00  0.00    -0.004 A 
ATOM      5  C6  UNL d   1       3.020   0.360   0.767  0.00  0.00    -0.075 A 
ATOM      6  C7  UNL d   1       3.832  -0.834   1.177  0.00  0.00     0.076 C 
ATOM      7  C8  UNL d   1       2.606   0.498  -0.564  0.00  0.00     0.001 A 
ENDROOT
BRANCH   1   8
ATOM      8  C1  UNL d   1       1.405   1.740  -2.407  0.00  0.00     0.053 C 
ATOM      9  C   UNL d   1       0.743   3.083  -2.674  0.00  0.00     0.018 C 
ENDBRANCH   1   8
TORSDOF 1
ENDMDL
