MODEL 1
REMARK minimizedAffinity 12.117322
REMARK minimizedRMSD -1
REMARK  1 active torsions:
REMARK  status: ('A' for Active; 'I' for Inactive)
REMARK    1  A    between atoms: C1_2  and  C2_3 
ROOT
ATOM      1  C2  UNL d   1      -0.364  -0.842   2.475  0.00  0.00    -0.073 A 
ATOM      2  C3  UNL d   1      -0.755  -0.022   1.411  0.00  0.00    -0.002 A 
ATOM      3  C4  UNL d   1      -1.802   0.887   1.569  0.00  0.00     0.004 A 
ATOM      4  C5  UNL d   1      -2.463   0.991   2.793  0.00  0.00    -0.004 A 
ATOM      5  C6  UNL d   1      -2.078   0.189   3.872  0.00  0.00    -0.075 A 
ATOM      6  C7  UNL d   1      -2.780   0.287   5.195  0.00  0.00     0.076 C 
ATOM      7  C8  UNL d   1      -1.028  -0.724   3.705  0.00  0.00     0.001 A 
ENDROOT
BRANCH   1   8
ATOM      8  C1  UNL d   1       0.770  -1.820   2.311  0.00  0.00     0.053 C 
ATOM      9  C   UNL d   1       1.975  -1.187   1.634  0.00  0.00     0.018 C 
ENDBRANCH   1   8
TORSDOF 1
ENDMDL
