MODEL 1
REMARK minimizedAffinity -0.390151709
REMARK minimizedRMSD -1
REMARK  1 active torsions:
REMARK  status: ('A' for Active; 'I' for Inactive)
REMARK    1  A    between atoms: C1_2  and  C2_3 
ROOT
ATOM      1  C2  UNL d   1       1.220   2.329  -2.778  0.00  0.00    -0.073 A 
ATOM      2  C3  UNL d   1       2.474   2.946  -2.709  0.00  0.00    -0.002 A 
ATOM      3  C4  UNL d   1       2.789   4.000  -3.568  0.00  0.00     0.004 A 
ATOM      4  C5  UNL d   1       1.853   4.452  -4.498  0.00  0.00    -0.004 A 
ATOM      5  C6  UNL d   1       0.590   3.856  -4.574  0.00  0.00    -0.075 A 
ATOM      6  C7  UNL d   1      -0.427   4.328  -5.571  0.00  0.00     0.076 C 
ATOM      7  C8  UNL d   1       0.282   2.796  -3.711  0.00  0.00     0.001 A 
ENDROOT
BRANCH   1   8
ATOM      8  C1  UNL d   1       0.873   1.195  -1.849  0.00  0.00     0.053 C 
ATOM      9  C   UNL d   1       1.305   1.477  -0.419  0.00  0.00     0.018 C 
ENDBRANCH   1   8
TORSDOF 1
ENDMDL
