MODEL 1
REMARK minimizedAffinity -1.11755371
REMARK minimizedRMSD -1
REMARK  1 active torsions:
REMARK  status: ('A' for Active; 'I' for Inactive)
REMARK    1  A    between atoms: C1_2  and  C2_3 
ROOT
ATOM      1  C2  UNL d   1       2.694   2.357  -2.053  0.00  0.00    -0.073 A 
ATOM      2  C3  UNL d   1       1.656   1.420  -2.095  0.00  0.00    -0.002 A 
ATOM      3  C4  UNL d   1       1.043   0.994  -0.916  0.00  0.00     0.004 A 
ATOM      4  C5  UNL d   1       1.456   1.504   0.314  0.00  0.00    -0.004 A 
ATOM      5  C6  UNL d   1       2.485   2.450   0.376  0.00  0.00    -0.075 A 
ATOM      6  C7  UNL d   1       2.943   3.008   1.691  0.00  0.00     0.076 C 
ATOM      7  C8  UNL d   1       3.097   2.871  -0.812  0.00  0.00     0.001 A 
ENDROOT
BRANCH   1   8
ATOM      8  C1  UNL d   1       3.355   2.824  -3.324  0.00  0.00     0.053 C 
ATOM      9  C   UNL d   1       2.421   3.671  -4.174  0.00  0.00     0.018 C 
ENDBRANCH   1   8
TORSDOF 1
ENDMDL
