MODEL 1
REMARK minimizedAffinity 2.49231172
REMARK minimizedRMSD -1
REMARK  1 active torsions:
REMARK  status: ('A' for Active; 'I' for Inactive)
REMARK    1  A    between atoms: C1_2  and  C2_3 
ROOT
ATOM      1  C2  UNL d   1       3.360   2.985  -3.682  0.00  0.00    -0.073 A 
ATOM      2  C3  UNL d   1       2.490   2.645  -2.640  0.00  0.00    -0.002 A 
ATOM      3  C4  UNL d   1       1.204   3.184  -2.590  0.00  0.00     0.004 A 
ATOM      4  C5  UNL d   1       0.772   4.063  -3.584  0.00  0.00    -0.004 A 
ATOM      5  C6  UNL d   1       1.623   4.406  -4.640  0.00  0.00    -0.075 A 
ATOM      6  C7  UNL d   1       1.174   5.351  -5.716  0.00  0.00     0.076 C 
ATOM      7  C8  UNL d   1       2.914   3.862  -4.682  0.00  0.00     0.001 A 
ENDROOT
BRANCH   1   8
ATOM      8  C1  UNL d   1       4.747   2.400  -3.744  0.00  0.00     0.053 C 
ATOM      9  C   UNL d   1       4.893   1.398  -4.878  0.00  0.00     0.018 C 
ENDBRANCH   1   8
TORSDOF 1
ENDMDL
