MODEL 1
REMARK minimizedAffinity 17.2263432
REMARK minimizedRMSD -1
REMARK  1 active torsions:
REMARK  status: ('A' for Active; 'I' for Inactive)
REMARK    1  A    between atoms: C1_2  and  C2_3 
ROOT
ATOM      1  C2  UNL d   1      -5.951  -0.591  -4.575  0.00  0.00    -0.073 A 
ATOM      2  C3  UNL d   1      -5.940  -0.211  -3.228  0.00  0.00    -0.002 A 
ATOM      3  C4  UNL d   1      -5.933  -1.178  -2.223  0.00  0.00     0.004 A 
ATOM      4  C5  UNL d   1      -5.930  -2.533  -2.553  0.00  0.00    -0.004 A 
ATOM      5  C6  UNL d   1      -5.929  -2.933  -3.893  0.00  0.00    -0.075 A 
ATOM      6  C7  UNL d   1      -5.928  -4.387  -4.265  0.00  0.00     0.076 C 
ATOM      7  C8  UNL d   1      -5.939  -1.955  -4.897  0.00  0.00     0.001 A 
ENDROOT
BRANCH   1   8
ATOM      8  C1  UNL d   1      -5.952   0.451  -5.664  0.00  0.00     0.053 C 
ATOM      9  C   UNL d   1      -5.998   1.863  -5.103  0.00  0.00     0.018 C 
ENDBRANCH   1   8
TORSDOF 1
ENDMDL
