MODEL 1
REMARK minimizedAffinity -2.9713366
REMARK minimizedRMSD -1
REMARK  0 active torsions:
REMARK  status: ('A' for Active; 'I' for Inactive)
ROOT
ATOM      1  C   UNL d   1       3.047  -5.517   3.267  0.00  0.00     0.078 C 
ATOM      2  C1  UNL d   1       4.061  -4.963   4.223  0.00  0.00    -0.077 A 
ATOM      3  C2  UNL d   1       4.155  -3.586   4.456  0.00  0.00    -0.001 A 
ATOM      4  C3  UNL d   1       5.110  -3.083   5.341  0.00  0.00     0.003 A 
ATOM      5  C4  UNL d   1       5.979  -3.951   6.000  0.00  0.00    -0.005 A 
ATOM      6  C5  UNL d   1       5.894  -5.323   5.773  0.00  0.00     0.003 A 
ATOM      7  C6  UNL d   1       4.940  -5.827   4.888  0.00  0.00    -0.001 A 
ENDROOT
TORSDOF 0
ENDMDL
