MODEL 1
REMARK minimizedAffinity 5.7988987
REMARK minimizedRMSD -1
REMARK  0 active torsions:
REMARK  status: ('A' for Active; 'I' for Inactive)
ROOT
ATOM      1  C   UNL d   1      -5.263   5.257   3.012  0.00  0.00     0.078 C 
ATOM      2  C1  UNL d   1      -4.097   5.245   3.956  0.00  0.00    -0.077 A 
ATOM      3  C2  UNL d   1      -4.116   5.999   5.135  0.00  0.00    -0.001 A 
ATOM      4  C3  UNL d   1      -3.021   5.986   6.000  0.00  0.00     0.003 A 
ATOM      5  C4  UNL d   1      -1.897   5.221   5.693  0.00  0.00    -0.005 A 
ATOM      6  C5  UNL d   1      -1.868   4.469   4.521  0.00  0.00     0.003 A 
ATOM      7  C6  UNL d   1      -2.963   4.481   3.655  0.00  0.00    -0.001 A 
ENDROOT
TORSDOF 0
ENDMDL
