MODEL 1
REMARK minimizedAffinity 6.26784182
REMARK minimizedRMSD -1
REMARK  0 active torsions:
REMARK  status: ('A' for Active; 'I' for Inactive)
ROOT
ATOM      1  C   UNL d   1      -2.670   4.113   3.405  0.00  0.00     0.078 C 
ATOM      2  C1  UNL d   1      -2.673   2.805   2.672  0.00  0.00    -0.077 A 
ATOM      3  C2  UNL d   1      -2.773   1.591   3.363  0.00  0.00    -0.001 A 
ATOM      4  C3  UNL d   1      -2.765   0.381   2.669  0.00  0.00     0.003 A 
ATOM      5  C4  UNL d   1      -2.655   0.372   1.280  0.00  0.00    -0.005 A 
ATOM      6  C5  UNL d   1      -2.552   1.574   0.583  0.00  0.00     0.003 A 
ATOM      7  C6  UNL d   1      -2.560   2.786   1.276  0.00  0.00    -0.001 A 
ENDROOT
TORSDOF 0
ENDMDL
