MODEL 1
REMARK minimizedAffinity -0.531765044
REMARK minimizedRMSD -1
REMARK  0 active torsions:
REMARK  status: ('A' for Active; 'I' for Inactive)
ROOT
ATOM      1  C   UNL d   1       4.918   5.573   4.006  0.00  0.00     0.078 C 
ATOM      2  C1  UNL d   1       4.883   5.578   2.506  0.00  0.00    -0.077 A 
ATOM      3  C2  UNL d   1       3.741   5.999   1.813  0.00  0.00    -0.001 A 
ATOM      4  C3  UNL d   1       3.719   5.989   0.418  0.00  0.00     0.003 A 
ATOM      5  C4  UNL d   1       4.835   5.558  -0.297  0.00  0.00    -0.005 A 
ATOM      6  C5  UNL d   1       5.975   5.135   0.384  0.00  0.00     0.003 A 
ATOM      7  C6  UNL d   1       5.999   5.144   1.780  0.00  0.00    -0.001 A 
ENDROOT
TORSDOF 0
ENDMDL
