MODEL 1
REMARK minimizedAffinity 7.2228179
REMARK minimizedRMSD -1
REMARK  0 active torsions:
REMARK  status: ('A' for Active; 'I' for Inactive)
ROOT
ATOM      1  C   UNL d   1      -2.414   3.758   2.212  0.00  0.00     0.078 C 
ATOM      2  C1  UNL d   1      -2.340   4.536   3.492  0.00  0.00    -0.077 A 
ATOM      3  C2  UNL d   1      -1.181   4.524   4.278  0.00  0.00    -0.001 A 
ATOM      4  C3  UNL d   1      -1.130   5.245   5.471  0.00  0.00     0.003 A 
ATOM      5  C4  UNL d   1      -2.235   5.983   5.891  0.00  0.00    -0.005 A 
ATOM      6  C5  UNL d   1      -3.394   6.000   5.117  0.00  0.00     0.003 A 
ATOM      7  C6  UNL d   1      -3.447   5.279   3.923  0.00  0.00    -0.001 A 
ENDROOT
TORSDOF 0
ENDMDL
