MODEL 1
REMARK minimizedAffinity 18.7816753
REMARK minimizedRMSD -1
REMARK  0 active torsions:
REMARK  status: ('A' for Active; 'I' for Inactive)
ROOT
ATOM      1  C   UNL d   1       6.000  -2.080   5.642  0.00  0.00     0.078 C 
ATOM      2  C1  UNL d   1       5.313  -1.447   4.468  0.00  0.00    -0.077 A 
ATOM      3  C2  UNL d   1       3.993  -1.779   4.140  0.00  0.00    -0.001 A 
ATOM      4  C3  UNL d   1       3.369  -1.190   3.039  0.00  0.00     0.003 A 
ATOM      5  C4  UNL d   1       4.059  -0.266   2.256  0.00  0.00    -0.005 A 
ATOM      6  C5  UNL d   1       5.374   0.069   2.573  0.00  0.00     0.003 A 
ATOM      7  C6  UNL d   1       5.999  -0.520   3.674  0.00  0.00    -0.001 A 
ENDROOT
TORSDOF 0
ENDMDL
