MODEL 1
REMARK minimizedAffinity 5.87329674
REMARK minimizedRMSD -1
REMARK  0 active torsions:
REMARK  status: ('A' for Active; 'I' for Inactive)
ROOT
ATOM      1  C   UNL d   1      -5.205   3.732   1.904  0.00  0.00     0.078 C 
ATOM      2  C1  UNL d   1      -4.560   2.523   2.514  0.00  0.00    -0.077 A 
ATOM      3  C2  UNL d   1      -3.214   2.541   2.900  0.00  0.00    -0.001 A 
ATOM      4  C3  UNL d   1      -2.625   1.406   3.458  0.00  0.00     0.003 A 
ATOM      5  C4  UNL d   1      -3.373   0.244   3.635  0.00  0.00    -0.005 A 
ATOM      6  C5  UNL d   1      -4.713   0.216   3.252  0.00  0.00     0.003 A 
ATOM      7  C6  UNL d   1      -5.304   1.350   2.694  0.00  0.00    -0.001 A 
ENDROOT
TORSDOF 0
ENDMDL
