MODEL 1
REMARK minimizedAffinity -0.461560041
REMARK minimizedRMSD -1
REMARK  0 active torsions:
REMARK  status: ('A' for Active; 'I' for Inactive)
ROOT
ATOM      1  C   UNL d   1       3.399   1.836  -2.365  0.00  0.00     0.078 C 
ATOM      2  C1  UNL d   1       2.562   1.875  -3.608  0.00  0.00    -0.077 A 
ATOM      3  C2  UNL d   1       1.202   1.541  -3.573  0.00  0.00    -0.001 A 
ATOM      4  C3  UNL d   1       0.437   1.572  -4.740  0.00  0.00     0.003 A 
ATOM      5  C4  UNL d   1       1.022   1.935  -5.951  0.00  0.00    -0.005 A 
ATOM      6  C5  UNL d   1       2.375   2.267  -5.996  0.00  0.00     0.003 A 
ATOM      7  C6  UNL d   1       3.142   2.237  -4.830  0.00  0.00    -0.001 A 
ENDROOT
TORSDOF 0
ENDMDL
