MODEL 1
REMARK minimizedAffinity 3.84509158
REMARK minimizedRMSD -1
REMARK  0 active torsions:
REMARK  status: ('A' for Active; 'I' for Inactive)
ROOT
ATOM      1  C   UNL d   1       5.250   5.997   5.768  0.00  0.00     0.078 C 
ATOM      2  C1  UNL d   1       5.040   5.607   4.335  0.00  0.00    -0.077 A 
ATOM      3  C2  UNL d   1       3.887   5.998   3.643  0.00  0.00    -0.001 A 
ATOM      4  C3  UNL d   1       3.699   5.620   2.313  0.00  0.00     0.003 A 
ATOM      5  C4  UNL d   1       4.660   4.847   1.663  0.00  0.00    -0.005 A 
ATOM      6  C5  UNL d   1       5.809   4.451   2.344  0.00  0.00     0.003 A 
ATOM      7  C6  UNL d   1       5.998   4.829   3.675  0.00  0.00    -0.001 A 
ENDROOT
TORSDOF 0
ENDMDL
