MODEL 1
REMARK minimizedAffinity 8.40677357
REMARK minimizedRMSD -1
REMARK  0 active torsions:
REMARK  status: ('A' for Active; 'I' for Inactive)
ROOT
ATOM      1  C   UNL d   1       1.468  -1.050  -1.994  0.00  0.00     0.078 C 
ATOM      2  C1  UNL d   1       0.426   0.026  -1.915  0.00  0.00    -0.077 A 
ATOM      3  C2  UNL d   1      -0.662  -0.087  -1.041  0.00  0.00    -0.001 A 
ATOM      4  C3  UNL d   1      -1.629   0.917  -0.985  0.00  0.00     0.003 A 
ATOM      5  C4  UNL d   1      -1.519   2.042  -1.801  0.00  0.00    -0.005 A 
ATOM      6  C5  UNL d   1      -0.441   2.161  -2.675  0.00  0.00     0.003 A 
ATOM      7  C6  UNL d   1       0.527   1.158  -2.733  0.00  0.00    -0.001 A 
ENDROOT
TORSDOF 0
ENDMDL
