MODEL 1
REMARK minimizedAffinity 6.83549166
REMARK minimizedRMSD -1
REMARK  0 active torsions:
REMARK  status: ('A' for Active; 'I' for Inactive)
ROOT
ATOM      1  C   UNL d   1       0.942  -0.382  -2.594  0.00  0.00     0.078 C 
ATOM      2  C1  UNL d   1      -0.353   0.020  -1.953  0.00  0.00    -0.077 A 
ATOM      3  C2  UNL d   1      -0.916   1.279  -2.194  0.00  0.00    -0.001 A 
ATOM      4  C3  UNL d   1      -2.117   1.644  -1.584  0.00  0.00     0.003 A 
ATOM      5  C4  UNL d   1      -2.765   0.755  -0.728  0.00  0.00    -0.005 A 
ATOM      6  C5  UNL d   1      -2.211  -0.499  -0.481  0.00  0.00     0.003 A 
ATOM      7  C6  UNL d   1      -1.010  -0.865  -1.090  0.00  0.00    -0.001 A 
ENDROOT
TORSDOF 0
ENDMDL
