MODEL 1
REMARK minimizedAffinity 3.2705133
REMARK minimizedRMSD -1
REMARK  0 active torsions:
REMARK  status: ('A' for Active; 'I' for Inactive)
ROOT
ATOM      1  C   UNL d   1      -2.890  -0.243   2.665  0.00  0.00     0.078 C 
ATOM      2  C1  UNL d   1      -3.800  -0.368   1.480  0.00  0.00    -0.077 A 
ATOM      3  C2  UNL d   1      -5.167  -0.622   1.643  0.00  0.00    -0.001 A 
ATOM      4  C3  UNL d   1      -6.000  -0.746   0.529  0.00  0.00     0.003 A 
ATOM      5  C4  UNL d   1      -5.475  -0.617  -0.755  0.00  0.00    -0.005 A 
ATOM      6  C5  UNL d   1      -4.115  -0.366  -0.927  0.00  0.00     0.003 A 
ATOM      7  C6  UNL d   1      -3.281  -0.242   0.185  0.00  0.00    -0.001 A 
ENDROOT
TORSDOF 0
ENDMDL
