MODEL 1
REMARK minimizedAffinity 6.49234867
REMARK minimizedRMSD -1
REMARK  0 active torsions:
REMARK  status: ('A' for Active; 'I' for Inactive)
ROOT
ATOM      1  C   UNL d   1      -5.781   0.139   1.889  0.00  0.00     0.078 C 
ATOM      2  C1  UNL d   1      -4.335   0.415   2.173  0.00  0.00    -0.077 A 
ATOM      3  C2  UNL d   1      -3.383  -0.612   2.134  0.00  0.00    -0.001 A 
ATOM      4  C3  UNL d   1      -2.042  -0.342   2.409  0.00  0.00     0.003 A 
ATOM      5  C4  UNL d   1      -1.640   0.954   2.728  0.00  0.00    -0.005 A 
ATOM      6  C5  UNL d   1      -2.580   1.981   2.772  0.00  0.00     0.003 A 
ATOM      7  C6  UNL d   1      -3.922   1.713   2.496  0.00  0.00    -0.001 A 
ENDROOT
TORSDOF 0
ENDMDL
