MODEL 1
REMARK minimizedAffinity 5.15133715
REMARK minimizedRMSD -1
REMARK  0 active torsions:
REMARK  status: ('A' for Active; 'I' for Inactive)
ROOT
ATOM      1  C   UNL d   1       5.993   5.565   5.367  0.00  0.00     0.078 C 
ATOM      2  C1  UNL d   1       5.479   5.219   4.002  0.00  0.00    -0.077 A 
ATOM      3  C2  UNL d   1       5.998   4.131   3.290  0.00  0.00    -0.001 A 
ATOM      4  C3  UNL d   1       5.517   3.827   2.015  0.00  0.00     0.003 A 
ATOM      5  C4  UNL d   1       4.515   4.606   1.441  0.00  0.00    -0.005 A 
ATOM      6  C5  UNL d   1       3.994   5.693   2.141  0.00  0.00     0.003 A 
ATOM      7  C6  UNL d   1       4.474   5.999   3.416  0.00  0.00    -0.001 A 
ENDROOT
TORSDOF 0
ENDMDL
