MODEL 1
REMARK minimizedAffinity 0.973729074
REMARK minimizedRMSD -1
REMARK  0 active torsions:
REMARK  status: ('A' for Active; 'I' for Inactive)
ROOT
ATOM      1  C   UNL d   1      -2.510   1.389   3.001  0.00  0.00     0.078 C 
ATOM      2  C1  UNL d   1      -3.725   0.670   3.509  0.00  0.00    -0.077 A 
ATOM      3  C2  UNL d   1      -3.749   0.115   4.794  0.00  0.00    -0.001 A 
ATOM      4  C3  UNL d   1      -4.883  -0.560   5.250  0.00  0.00     0.003 A 
ATOM      5  C4  UNL d   1      -6.000  -0.686   4.427  0.00  0.00    -0.005 A 
ATOM      6  C5  UNL d   1      -5.984  -0.139   3.146  0.00  0.00     0.003 A 
ATOM      7  C6  UNL d   1      -4.851   0.536   2.688  0.00  0.00    -0.001 A 
ENDROOT
TORSDOF 0
ENDMDL
