MODEL 1
REMARK minimizedAffinity 3.4223845
REMARK minimizedRMSD -1
REMARK  0 active torsions:
REMARK  status: ('A' for Active; 'I' for Inactive)
ROOT
ATOM      1  C   UNL d   1      -1.945   0.509   2.620  0.00  0.00     0.078 C 
ATOM      2  C1  UNL d   1      -3.163   0.168   3.426  0.00  0.00    -0.077 A 
ATOM      3  C2  UNL d   1      -3.081  -0.026   4.810  0.00  0.00    -0.001 A 
ATOM      4  C3  UNL d   1      -4.221  -0.352   5.546  0.00  0.00     0.003 A 
ATOM      5  C4  UNL d   1      -5.451  -0.489   4.906  0.00  0.00    -0.005 A 
ATOM      6  C5  UNL d   1      -5.542  -0.300   3.529  0.00  0.00     0.003 A 
ATOM      7  C6  UNL d   1      -4.403   0.027   2.791  0.00  0.00    -0.001 A 
ENDROOT
TORSDOF 0
ENDMDL
