MODEL 1
REMARK minimizedAffinity -1.48266375
REMARK minimizedRMSD -1
REMARK  0 active torsions:
REMARK  status: ('A' for Active; 'I' for Inactive)
ROOT
ATOM      1  C   UNL d   1      -0.122   0.374  -1.371  0.00  0.00     0.078 C 
ATOM      2  C1  UNL d   1      -0.933   0.303  -0.112  0.00  0.00    -0.077 A 
ATOM      3  C2  UNL d   1      -0.547   1.008   1.035  0.00  0.00    -0.001 A 
ATOM      4  C3  UNL d   1      -1.306   0.924   2.203  0.00  0.00     0.003 A 
ATOM      5  C4  UNL d   1      -2.454   0.136   2.237  0.00  0.00    -0.005 A 
ATOM      6  C5  UNL d   1      -2.845  -0.571   1.101  0.00  0.00     0.003 A 
ATOM      7  C6  UNL d   1      -2.087  -0.488  -0.068  0.00  0.00    -0.001 A 
ENDROOT
TORSDOF 0
ENDMDL
