MODEL 1
REMARK minimizedAffinity 5.73353958
REMARK minimizedRMSD -1
REMARK  0 active torsions:
REMARK  status: ('A' for Active; 'I' for Inactive)
ROOT
ATOM      1  C   UNL d   1       2.836   5.989  -4.247  0.00  0.00     0.078 C 
ATOM      2  C1  UNL d   1       1.892   5.983  -3.083  0.00  0.00    -0.077 A 
ATOM      3  C2  UNL d   1       0.505   5.993  -3.278  0.00  0.00    -0.001 A 
ATOM      4  C3  UNL d   1      -0.362   5.997  -2.185  0.00  0.00     0.003 A 
ATOM      5  C4  UNL d   1       0.147   5.992  -0.888  0.00  0.00    -0.005 A 
ATOM      6  C5  UNL d   1       1.525   5.985  -0.683  0.00  0.00     0.003 A 
ATOM      7  C6  UNL d   1       2.394   5.981  -1.775  0.00  0.00    -0.001 A 
ENDROOT
TORSDOF 0
ENDMDL
