MODEL 1
REMARK minimizedAffinity -4.51417589
REMARK minimizedRMSD -1
REMARK  0 active torsions:
REMARK  status: ('A' for Active; 'I' for Inactive)
ROOT
ATOM      1  C   UNL d   1       2.510  -0.010  -0.827  0.00  0.00     0.020 A 
ATOM      2  C1  UNL d   1       1.997   1.216  -0.405  0.00  0.00     0.020 A 
ATOM      3  C2  UNL d   1       0.826   1.259   0.354  0.00  0.00     0.034 A 
ATOM      4  C3  UNL d   1       0.163   0.074   0.693  0.00  0.00     0.017 A 
ATOM      5  C4  UNL d   1       0.679  -1.156   0.269  0.00  0.00     0.017 A 
ATOM      6  C5  UNL d   1       1.852  -1.194  -0.490  0.00  0.00     0.034 A 
ATOM      7 Cl   UNL d   1      -0.083  -2.661   0.649  0.00  0.00    -0.070 Cl
ATOM      8 Cl1  UNL d   1      -1.280   0.201   1.635  0.00  0.00    -0.070 Cl
ENDROOT
TORSDOF 0
ENDMDL
