MODEL 1
REMARK minimizedAffinity -4.21027374
REMARK minimizedRMSD -1
REMARK  0 active torsions:
REMARK  status: ('A' for Active; 'I' for Inactive)
ROOT
ATOM      1  C   UNL d   1       1.301  -1.449   1.076  0.00  0.00     0.020 A 
ATOM      2  C1  UNL d   1       1.398  -1.836  -0.260  0.00  0.00     0.020 A 
ATOM      3  C2  UNL d   1       0.694  -1.138  -1.243  0.00  0.00     0.034 A 
ATOM      4  C3  UNL d   1      -0.112  -0.049  -0.891  0.00  0.00     0.017 A 
ATOM      5  C4  UNL d   1      -0.210   0.339   0.450  0.00  0.00     0.017 A 
ATOM      6  C5  UNL d   1       0.498  -0.364   1.430  0.00  0.00     0.034 A 
ATOM      7 Cl   UNL d   1      -1.184   1.672   0.961  0.00  0.00    -0.070 Cl
ATOM      8 Cl1  UNL d   1      -0.956   0.769  -2.158  0.00  0.00    -0.070 Cl
ENDROOT
TORSDOF 0
ENDMDL
