MODEL 1
REMARK minimizedAffinity -2.74172497
REMARK minimizedRMSD -1
REMARK  0 active torsions:
REMARK  status: ('A' for Active; 'I' for Inactive)
ROOT
ATOM      1  C   UNL d   1      -1.345   0.012   1.548  0.00  0.00     0.020 A 
ATOM      2  C1  UNL d   1      -1.197   1.024   0.600  0.00  0.00     0.020 A 
ATOM      3  C2  UNL d   1      -0.046   1.078  -0.189  0.00  0.00     0.034 A 
ATOM      4  C3  UNL d   1       0.961   0.118  -0.032  0.00  0.00     0.017 A 
ATOM      5  C4  UNL d   1       0.811  -0.898   0.919  0.00  0.00     0.017 A 
ATOM      6  C5  UNL d   1      -0.344  -0.947   1.706  0.00  0.00     0.034 A 
ATOM      7 Cl   UNL d   1       2.010  -2.117   1.169  0.00  0.00    -0.070 Cl
ATOM      8 Cl1  UNL d   1       2.357   0.246  -1.043  0.00  0.00    -0.070 Cl
ENDROOT
TORSDOF 0
ENDMDL
