MODEL 1
REMARK minimizedAffinity -4.82418728
REMARK minimizedRMSD -1
REMARK  0 active torsions:
REMARK  status: ('A' for Active; 'I' for Inactive)
ROOT
ATOM      1  C   UNL d   1      -1.689   2.639  -2.902  0.00  0.00     0.020 A 
ATOM      2  C1  UNL d   1      -0.969   3.067  -1.788  0.00  0.00     0.020 A 
ATOM      3  C2  UNL d   1      -0.582   2.148  -0.811  0.00  0.00     0.034 A 
ATOM      4  C3  UNL d   1      -0.914   0.795  -0.946  0.00  0.00     0.017 A 
ATOM      5  C4  UNL d   1      -1.637   0.366  -2.065  0.00  0.00     0.017 A 
ATOM      6  C5  UNL d   1      -2.022   1.291  -3.040  0.00  0.00     0.034 A 
ATOM      7 Cl   UNL d   1      -2.084  -1.287  -2.302  0.00  0.00    -0.070 Cl
ATOM      8 Cl1  UNL d   1      -0.402  -0.287   0.300  0.00  0.00    -0.070 Cl
ENDROOT
TORSDOF 0
ENDMDL
