MODEL 1
REMARK minimizedAffinity -2.37351394
REMARK minimizedRMSD -1
REMARK  0 active torsions:
REMARK  status: ('A' for Active; 'I' for Inactive)
ROOT
ATOM      1  C   UNL d   1       0.832  -2.319   1.030  0.00  0.00     0.020 A 
ATOM      2  C1  UNL d   1      -0.543  -2.091   1.035  0.00  0.00     0.020 A 
ATOM      3  C2  UNL d   1      -1.058  -0.915   0.486  0.00  0.00     0.034 A 
ATOM      4  C3  UNL d   1      -0.197   0.038  -0.070  0.00  0.00     0.017 A 
ATOM      5  C4  UNL d   1       1.183  -0.191  -0.074  0.00  0.00     0.017 A 
ATOM      6  C5  UNL d   1       1.694  -1.370   0.476  0.00  0.00     0.034 A 
ATOM      7 Cl   UNL d   1       2.308   0.939  -0.742  0.00  0.00    -0.070 Cl
ATOM      8 Cl1  UNL d   1      -0.904   1.470  -0.731  0.00  0.00    -0.070 Cl
ENDROOT
TORSDOF 0
ENDMDL
