MODEL 1
REMARK minimizedAffinity -2.46572328
REMARK minimizedRMSD -1
REMARK  0 active torsions:
REMARK  status: ('A' for Active; 'I' for Inactive)
ROOT
ATOM      1  C   UNL d   1      -0.662  -2.022   1.513  0.00  0.00     0.020 A 
ATOM      2  C1  UNL d   1       0.633  -2.448   1.223  0.00  0.00     0.020 A 
ATOM      3  C2  UNL d   1       1.459  -1.670   0.409  0.00  0.00     0.034 A 
ATOM      4  C3  UNL d   1       0.990  -0.461  -0.118  0.00  0.00     0.017 A 
ATOM      5  C4  UNL d   1      -0.311  -0.034   0.173  0.00  0.00     0.017 A 
ATOM      6  C5  UNL d   1      -1.133  -0.817   0.989  0.00  0.00     0.034 A 
ATOM      7 Cl   UNL d   1      -0.959   1.446  -0.440  0.00  0.00    -0.070 Cl
ATOM      8 Cl1  UNL d   1       2.065   0.451  -1.118  0.00  0.00    -0.070 Cl
ENDROOT
TORSDOF 0
ENDMDL
