MODEL 1
REMARK minimizedAffinity -1.33196497
REMARK minimizedRMSD -1
REMARK  0 active torsions:
REMARK  status: ('A' for Active; 'I' for Inactive)
ROOT
ATOM      1  C   UNL d   1       0.885  -2.948   0.136  0.00  0.00     0.020 A 
ATOM      2  C1  UNL d   1       2.083  -2.557   0.733  0.00  0.00     0.020 A 
ATOM      3  C2  UNL d   1       2.463  -1.214   0.722  0.00  0.00     0.034 A 
ATOM      4  C3  UNL d   1       1.645  -0.255   0.113  0.00  0.00     0.017 A 
ATOM      5  C4  UNL d   1       0.443  -0.648  -0.486  0.00  0.00     0.017 A 
ATOM      6  C5  UNL d   1       0.067  -1.995  -0.473  0.00  0.00     0.034 A 
ATOM      7 Cl   UNL d   1      -0.619   0.477  -1.257  0.00  0.00    -0.070 Cl
ATOM      8 Cl1  UNL d   1       2.178   1.388   0.138  0.00  0.00    -0.070 Cl
ENDROOT
TORSDOF 0
ENDMDL
