MODEL 1
REMARK minimizedAffinity -3.77256989
REMARK minimizedRMSD -1
REMARK  0 active torsions:
REMARK  status: ('A' for Active; 'I' for Inactive)
ROOT
ATOM      1  C   UNL d   1      -0.269  -2.182   0.706  0.00  0.00     0.020 A 
ATOM      2  C1  UNL d   1       1.084  -2.455   0.509  0.00  0.00     0.020 A 
ATOM      3  C2  UNL d   1       1.893  -1.531  -0.155  0.00  0.00     0.034 A 
ATOM      4  C3  UNL d   1       1.350  -0.330  -0.625  0.00  0.00     0.017 A 
ATOM      5  C4  UNL d   1      -0.009  -0.057  -0.427  0.00  0.00     0.017 A 
ATOM      6  C5  UNL d   1      -0.814  -0.986   0.239  0.00  0.00     0.034 A 
ATOM      7 Cl   UNL d   1      -0.750   1.404  -0.978  0.00  0.00    -0.070 Cl
ATOM      8 Cl1  UNL d   1       2.409   0.768  -1.437  0.00  0.00    -0.070 Cl
ENDROOT
TORSDOF 0
ENDMDL
