MODEL 1
REMARK minimizedAffinity -4.58464575
REMARK minimizedRMSD -1
REMARK  0 active torsions:
REMARK  status: ('A' for Active; 'I' for Inactive)
ROOT
ATOM      1  C   UNL d   1       1.173   0.505  -0.679  0.00  0.00     0.020 A 
ATOM      2  C1  UNL d   1      -0.039   1.098  -0.328  0.00  0.00     0.020 A 
ATOM      3  C2  UNL d   1      -0.897   0.456   0.568  0.00  0.00     0.034 A 
ATOM      4  C3  UNL d   1      -0.545  -0.783   1.115  0.00  0.00     0.017 A 
ATOM      5  C4  UNL d   1       0.672  -1.377   0.762  0.00  0.00     0.017 A 
ATOM      6  C5  UNL d   1       1.527  -0.730  -0.135  0.00  0.00     0.034 A 
ATOM      7 Cl   UNL d   1       1.176  -2.904   1.395  0.00  0.00    -0.070 Cl
ATOM      8 Cl1  UNL d   1      -1.653  -1.520   2.216  0.00  0.00    -0.070 Cl
ENDROOT
TORSDOF 0
ENDMDL
