MODEL 1
REMARK minimizedAffinity -2.60938215
REMARK minimizedRMSD -1
REMARK  0 active torsions:
REMARK  status: ('A' for Active; 'I' for Inactive)
ROOT
ATOM      1  C   UNL d   1       1.401   0.593  -0.262  0.00  0.00     0.020 A 
ATOM      2  C1  UNL d   1       0.132   1.079   0.049  0.00  0.00     0.020 A 
ATOM      3  C2  UNL d   1      -0.786   0.259   0.710  0.00  0.00     0.034 A 
ATOM      4  C3  UNL d   1      -0.436  -1.049   1.061  0.00  0.00     0.017 A 
ATOM      5  C4  UNL d   1       0.838  -1.536   0.748  0.00  0.00     0.017 A 
ATOM      6  C5  UNL d   1       1.754  -0.711   0.086  0.00  0.00     0.034 A 
ATOM      7 Cl   UNL d   1       1.343  -3.140   1.149  0.00  0.00    -0.070 Cl
ATOM      8 Cl1  UNL d   1      -1.621  -2.007   1.877  0.00  0.00    -0.070 Cl
ENDROOT
TORSDOF 0
ENDMDL
