MODEL 1
REMARK minimizedAffinity -3.83603311
REMARK minimizedRMSD -1
REMARK  0 active torsions:
REMARK  status: ('A' for Active; 'I' for Inactive)
ROOT
ATOM      1  C   UNL d   1       1.662  -2.751   0.979  0.00  0.00     0.020 A 
ATOM      2  C1  UNL d   1       0.403  -2.587   1.555  0.00  0.00     0.020 A 
ATOM      3  C2  UNL d   1      -0.386  -1.488   1.208  0.00  0.00     0.034 A 
ATOM      4  C3  UNL d   1       0.084  -0.549   0.283  0.00  0.00     0.017 A 
ATOM      5  C4  UNL d   1       1.347  -0.714  -0.295  0.00  0.00     0.017 A 
ATOM      6  C5  UNL d   1       2.133  -1.817   0.055  0.00  0.00     0.034 A 
ATOM      7 Cl   UNL d   1       1.994   0.403  -1.445  0.00  0.00    -0.070 Cl
ATOM      8 Cl1  UNL d   1      -0.945   0.786  -0.099  0.00  0.00    -0.070 Cl
ENDROOT
TORSDOF 0
ENDMDL
