MODEL 1
REMARK minimizedAffinity -2.50885797
REMARK minimizedRMSD -1
REMARK  0 active torsions:
REMARK  status: ('A' for Active; 'I' for Inactive)
ROOT
ATOM      1  C   UNL d   1      -0.918   0.999  -0.559  0.00  0.00     0.020 A 
ATOM      2  C1  UNL d   1      -1.464   0.004   0.250  0.00  0.00     0.020 A 
ATOM      3  C2  UNL d   1      -0.693  -1.101   0.616  0.00  0.00     0.034 A 
ATOM      4  C3  UNL d   1       0.629  -1.214   0.172  0.00  0.00     0.017 A 
ATOM      5  C4  UNL d   1       1.177  -0.215  -0.641  0.00  0.00     0.017 A 
ATOM      6  C5  UNL d   1       0.400   0.889  -1.004  0.00  0.00     0.034 A 
ATOM      7 Cl   UNL d   1       2.802  -0.285  -1.228  0.00  0.00    -0.070 Cl
ATOM      8 Cl1  UNL d   1       1.526  -2.608   0.663  0.00  0.00    -0.070 Cl
ENDROOT
TORSDOF 0
ENDMDL
