MODEL 1
REMARK minimizedAffinity -3.60389209
REMARK minimizedRMSD -1
REMARK  0 active torsions:
REMARK  status: ('A' for Active; 'I' for Inactive)
ROOT
ATOM      1  C   UNL d   1       2.059  -1.936   0.718  0.00  0.00     0.020 A 
ATOM      2  C1  UNL d   1       2.295  -1.118  -0.387  0.00  0.00     0.020 A 
ATOM      3  C2  UNL d   1       1.341  -0.175  -0.774  0.00  0.00     0.034 A 
ATOM      4  C3  UNL d   1       0.147  -0.046  -0.056  0.00  0.00     0.017 A 
ATOM      5  C4  UNL d   1      -0.090  -0.867   1.053  0.00  0.00     0.017 A 
ATOM      6  C5  UNL d   1       0.869  -1.810   1.436  0.00  0.00     0.034 A 
ATOM      7 Cl   UNL d   1      -1.540  -0.767   1.988  0.00  0.00    -0.070 Cl
ATOM      8 Cl1  UNL d   1      -0.988   1.142  -0.590  0.00  0.00    -0.070 Cl
ENDROOT
TORSDOF 0
ENDMDL
