MODEL 1
REMARK minimizedAffinity -3.58066607
REMARK minimizedRMSD -1
REMARK  0 active torsions:
REMARK  status: ('A' for Active; 'I' for Inactive)
ROOT
ATOM      1  C   UNL d   1       0.056  -2.146   0.901  0.00  0.00     0.020 A 
ATOM      2  C1  UNL d   1       1.436  -2.289   0.769  0.00  0.00     0.020 A 
ATOM      3  C2  UNL d   1       2.185  -1.291   0.142  0.00  0.00     0.034 A 
ATOM      4  C3  UNL d   1       1.553  -0.145  -0.355  0.00  0.00     0.017 A 
ATOM      5  C4  UNL d   1       0.167  -0.003  -0.222  0.00  0.00     0.017 A 
ATOM      6  C5  UNL d   1      -0.577  -1.006   0.406  0.00  0.00     0.034 A 
ATOM      7 Cl   UNL d   1      -0.683   1.383  -0.810  0.00  0.00    -0.070 Cl
ATOM      8 Cl1  UNL d   1       2.541   1.050  -1.118  0.00  0.00    -0.070 Cl
ENDROOT
TORSDOF 0
ENDMDL
