MODEL 1
REMARK minimizedAffinity -4.27479172
REMARK minimizedRMSD -1
REMARK  0 active torsions:
REMARK  status: ('A' for Active; 'I' for Inactive)
ROOT
ATOM      1  C   UNL d   1       0.153  -2.599   0.870  0.00  0.00     0.020 A 
ATOM      2  C1  UNL d   1       1.522  -2.654   0.614  0.00  0.00     0.020 A 
ATOM      3  C2  UNL d   1       2.168  -1.563   0.027  0.00  0.00     0.034 A 
ATOM      4  C3  UNL d   1       1.443  -0.413  -0.306  0.00  0.00     0.017 A 
ATOM      5  C4  UNL d   1       0.069  -0.358  -0.049  0.00  0.00     0.017 A 
ATOM      6  C5  UNL d   1      -0.572  -1.453   0.539  0.00  0.00     0.034 A 
ATOM      7 Cl   UNL d   1      -0.892   1.027  -0.432  0.00  0.00    -0.070 Cl
ATOM      8 Cl1  UNL d   1       2.306   0.899  -1.028  0.00  0.00    -0.070 Cl
ENDROOT
TORSDOF 0
ENDMDL
