MODEL 1
REMARK minimizedAffinity -3.92385149
REMARK minimizedRMSD -1
REMARK  0 active torsions:
REMARK  status: ('A' for Active; 'I' for Inactive)
ROOT
ATOM      1  C   UNL d   1       1.101  -2.689   1.148  0.00  0.00     0.020 A 
ATOM      2  C1  UNL d   1      -0.165  -2.336   1.614  0.00  0.00     0.020 A 
ATOM      3  C2  UNL d   1      -0.740  -1.125   1.224  0.00  0.00     0.034 A 
ATOM      4  C3  UNL d   1      -0.049  -0.262   0.366  0.00  0.00     0.017 A 
ATOM      5  C4  UNL d   1       1.221  -0.617  -0.102  0.00  0.00     0.017 A 
ATOM      6  C5  UNL d   1       1.792  -1.831   0.292  0.00  0.00     0.034 A 
ATOM      7 Cl   UNL d   1       2.135   0.395  -1.164  0.00  0.00    -0.070 Cl
ATOM      8 Cl1  UNL d   1      -0.821   1.220  -0.076  0.00  0.00    -0.070 Cl
ENDROOT
TORSDOF 0
ENDMDL
