MODEL 1
REMARK minimizedAffinity -4.62558508
REMARK minimizedRMSD -1
REMARK  0 active torsions:
REMARK  status: ('A' for Active; 'I' for Inactive)
ROOT
ATOM      1  C   UNL d   1      -0.082   1.236  -0.266  0.00  0.00     0.020 A 
ATOM      2  C1  UNL d   1       1.155   0.754  -0.692  0.00  0.00     0.020 A 
ATOM      3  C2  UNL d   1       1.552  -0.543  -0.357  0.00  0.00     0.034 A 
ATOM      4  C3  UNL d   1       0.712  -1.361   0.406  0.00  0.00     0.017 A 
ATOM      5  C4  UNL d   1      -0.530  -0.877   0.832  0.00  0.00     0.017 A 
ATOM      6  C5  UNL d   1      -0.923   0.422   0.494  0.00  0.00     0.034 A 
ATOM      7 Cl   UNL d   1      -1.622  -1.828   1.777  0.00  0.00    -0.070 Cl
ATOM      8 Cl1  UNL d   1       1.267  -2.954   0.783  0.00  0.00    -0.070 Cl
ENDROOT
TORSDOF 0
ENDMDL
