MODEL 1
REMARK minimizedAffinity -3.93383384
REMARK minimizedRMSD -1
REMARK  0 active torsions:
REMARK  status: ('A' for Active; 'I' for Inactive)
ROOT
ATOM      1  C   UNL d   1      -0.126  -1.625   1.209  0.00  0.00     0.020 A 
ATOM      2  C1  UNL d   1       1.230  -1.944   1.154  0.00  0.00     0.020 A 
ATOM      3  C2  UNL d   1       2.105  -1.150   0.409  0.00  0.00     0.034 A 
ATOM      4  C3  UNL d   1       1.624  -0.033  -0.284  0.00  0.00     0.017 A 
ATOM      5  C4  UNL d   1       0.262   0.287  -0.228  0.00  0.00     0.017 A 
ATOM      6  C5  UNL d   1      -0.609  -0.512   0.520  0.00  0.00     0.034 A 
ATOM      7 Cl   UNL d   1      -0.405   1.649  -1.057  0.00  0.00    -0.070 Cl
ATOM      8 Cl1  UNL d   1       2.761   0.905  -1.186  0.00  0.00    -0.070 Cl
ENDROOT
TORSDOF 0
ENDMDL
