MODEL 1
REMARK minimizedAffinity 4.06835938
REMARK minimizedRMSD -1
REMARK  3 active torsions:
REMARK  status: ('A' for Active; 'I' for Inactive)
REMARK    1  A    between atoms: C3'_2  and  C2'_3 
REMARK    2  A    between atoms: C2'_3  and  C1'_4 
REMARK    3  A    between atoms: C1'_4  and  C1_5 
ROOT
ATOM      1  C1  N4B d   1      -2.306  -5.158  -1.524  0.00  0.00    -0.075 A 
ATOM      2  C2  N4B d   1      -2.432  -4.175  -2.529  0.00  0.00     0.002 A 
ATOM      3  C3  N4B d   1      -3.595  -4.078  -3.252  0.00  0.00     0.002 A 
ATOM      4  C4  N4B d   1      -4.634  -4.962  -3.002  0.00  0.00    -0.004 A 
ATOM      5  C5  N4B d   1      -4.514  -5.893  -2.012  0.00  0.00     0.002 A 
ATOM      6  C6  N4B d   1      -3.352  -5.999  -1.274  0.00  0.00     0.002 A 
ENDROOT
BRANCH   1   7
ATOM      7  C1' N4B d   1      -1.022  -5.358  -0.765  0.00  0.00     0.057 C 
BRANCH   7   8
ATOM      8  C2' N4B d   1      -0.782  -4.154   0.140  0.00  0.00     0.009 C 
BRANCH   8   9
ATOM      9  C3' N4B d   1      -1.960  -3.894   1.063  0.00  0.00     0.004 C 
ATOM     10  C4' N4B d   1      -1.561  -3.822   2.507  0.00  0.00     0.003 C 
ENDBRANCH   8   9
ENDBRANCH   7   8
ENDBRANCH   1   7
TORSDOF 3
ENDMDL
