MODEL 1
REMARK minimizedAffinity 10.3822441
REMARK minimizedRMSD -1
REMARK  3 active torsions:
REMARK  status: ('A' for Active; 'I' for Inactive)
REMARK    1  A    between atoms: C3'_2  and  C2'_3 
REMARK    2  A    between atoms: C2'_3  and  C1'_4 
REMARK    3  A    between atoms: C1'_4  and  C1_5 
ROOT
ATOM      1  C1  N4B d   1       2.633   1.862  -0.569  0.00  0.00    -0.075 A 
ATOM      2  C2  N4B d   1       1.233   2.049  -0.588  0.00  0.00     0.002 A 
ATOM      3  C3  N4B d   1       0.711   3.320  -0.603  0.00  0.00     0.002 A 
ATOM      4  C4  N4B d   1       1.565   4.412  -0.581  0.00  0.00    -0.004 A 
ATOM      5  C5  N4B d   1       2.916   4.222  -0.588  0.00  0.00     0.002 A 
ATOM      6  C6  N4B d   1       3.454   2.951  -0.577  0.00  0.00     0.002 A 
ENDROOT
BRANCH   1   7
ATOM      7  C1' N4B d   1       3.249   0.493  -0.465  0.00  0.00     0.057 C 
BRANCH   7   8
ATOM      8  C2' N4B d   1       2.718  -0.202   0.785  0.00  0.00     0.009 C 
BRANCH   8   9
ATOM      9  C3' N4B d   1       3.633   0.002   1.980  0.00  0.00     0.004 C 
ATOM     10  C4' N4B d   1       5.048   0.301   1.584  0.00  0.00     0.003 C 
ENDBRANCH   8   9
ENDBRANCH   7   8
ENDBRANCH   1   7
TORSDOF 3
ENDMDL
