MODEL 1
REMARK minimizedAffinity 10.4436893
REMARK minimizedRMSD -1
REMARK  3 active torsions:
REMARK  status: ('A' for Active; 'I' for Inactive)
REMARK    1  A    between atoms: C3'_2  and  C2'_3 
REMARK    2  A    between atoms: C2'_3  and  C1'_4 
REMARK    3  A    between atoms: C1'_4  and  C1_5 
ROOT
ATOM      1  C1  N4B d   1       1.105  -0.767   1.064  0.00  0.00    -0.075 A 
ATOM      2  C2  N4B d   1       0.700  -0.391   2.363  0.00  0.00     0.002 A 
ATOM      3  C3  N4B d   1      -0.542  -0.748   2.826  0.00  0.00     0.002 A 
ATOM      4  C4  N4B d   1      -1.401  -1.462   2.004  0.00  0.00    -0.004 A 
ATOM      5  C5  N4B d   1      -0.993  -1.843   0.759  0.00  0.00     0.002 A 
ATOM      6  C6  N4B d   1       0.254  -1.494   0.283  0.00  0.00     0.002 A 
ENDROOT
BRANCH   1   7
ATOM      7  C1' N4B d   1       2.420  -0.325   0.482  0.00  0.00     0.057 C 
BRANCH   7   8
ATOM      8  C2' N4B d   1       2.181   0.272  -0.901  0.00  0.00     0.009 C 
BRANCH   8   9
ATOM      9  C3' N4B d   1       1.884   1.760  -0.834  0.00  0.00     0.004 C 
ATOM     10  C4' N4B d   1       1.480   2.332  -2.160  0.00  0.00     0.003 C 
ENDBRANCH   8   9
ENDBRANCH   7   8
ENDBRANCH   1   7
TORSDOF 3
ENDMDL
