MODEL 1
REMARK minimizedAffinity -0.296616673
REMARK minimizedRMSD -1
REMARK  3 active torsions:
REMARK  status: ('A' for Active; 'I' for Inactive)
REMARK    1  A    between atoms: C3'_2  and  C2'_3 
REMARK    2  A    between atoms: C2'_3  and  C1'_4 
REMARK    3  A    between atoms: C1'_4  and  C1_5 
ROOT
ATOM      1  C1  N4B d   1      -4.545  -5.484   0.132  0.00  0.00    -0.075 A 
ATOM      2  C2  N4B d   1      -3.569  -4.545  -0.267  0.00  0.00     0.002 A 
ATOM      3  C3  N4B d   1      -3.483  -4.160  -1.582  0.00  0.00     0.002 A 
ATOM      4  C4  N4B d   1      -4.346  -4.714  -2.517  0.00  0.00    -0.004 A 
ATOM      5  C5  N4B d   1      -5.303  -5.602  -2.119  0.00  0.00     0.002 A 
ATOM      6  C6  N4B d   1      -5.403  -5.994  -0.799  0.00  0.00     0.002 A 
ENDROOT
BRANCH   1   7
ATOM      7  C1' N4B d   1      -4.622  -6.000   1.543  0.00  0.00     0.057 C 
BRANCH   7   8
ATOM      8  C2' N4B d   1      -4.229  -4.883   2.506  0.00  0.00     0.009 C 
BRANCH   8   9
ATOM      9  C3' N4B d   1      -5.250  -4.706   3.617  0.00  0.00     0.004 C 
ATOM     10  C4' N4B d   1      -5.998  -5.968   3.925  0.00  0.00     0.003 C 
ENDBRANCH   8   9
ENDBRANCH   7   8
ENDBRANCH   1   7
TORSDOF 3
ENDMDL
