MODEL 1
REMARK minimizedAffinity 6.7117424
REMARK minimizedRMSD -1
REMARK  3 active torsions:
REMARK  status: ('A' for Active; 'I' for Inactive)
REMARK    1  A    between atoms: C3'_2  and  C2'_3 
REMARK    2  A    between atoms: C2'_3  and  C1'_4 
REMARK    3  A    between atoms: C1'_4  and  C1_5 
ROOT
ATOM      1  C1  N4B d   1      -3.655  -4.494   4.408  0.00  0.00    -0.075 A 
ATOM      2  C2  N4B d   1      -4.152  -5.149   3.259  0.00  0.00     0.002 A 
ATOM      3  C3  N4B d   1      -5.321  -5.865   3.330  0.00  0.00     0.002 A 
ATOM      4  C4  N4B d   1      -5.998  -5.956   4.537  0.00  0.00    -0.004 A 
ATOM      5  C5  N4B d   1      -5.525  -5.299   5.635  0.00  0.00     0.002 A 
ATOM      6  C6  N4B d   1      -4.353  -4.572   5.578  0.00  0.00     0.002 A 
ENDROOT
BRANCH   1   7
ATOM      7  C1' N4B d   1      -2.336  -3.770   4.401  0.00  0.00     0.057 C 
BRANCH   7   8
ATOM      8  C2' N4B d   1      -2.287  -2.807   5.583  0.00  0.00     0.009 C 
BRANCH   8   9
ATOM      9  C3' N4B d   1      -1.502  -1.548   5.258  0.00  0.00     0.004 C 
ATOM     10  C4' N4B d   1      -1.265  -1.374   3.788  0.00  0.00     0.003 C 
ENDBRANCH   8   9
ENDBRANCH   7   8
ENDBRANCH   1   7
TORSDOF 3
ENDMDL
