MODEL 1
REMARK minimizedAffinity 5.6545496
REMARK minimizedRMSD -1
REMARK  3 active torsions:
REMARK  status: ('A' for Active; 'I' for Inactive)
REMARK    1  A    between atoms: C3'_2  and  C2'_3 
REMARK    2  A    between atoms: C2'_3  and  C1'_4 
REMARK    3  A    between atoms: C1'_4  and  C1_5 
ROOT
ATOM      1  C1  N4B d   1      -0.087   1.836  -0.256  0.00  0.00    -0.075 A 
ATOM      2  C2  N4B d   1      -0.933   2.728  -0.951  0.00  0.00     0.002 A 
ATOM      3  C3  N4B d   1      -0.392   3.753  -1.688  0.00  0.00     0.002 A 
ATOM      4  C4  N4B d   1       0.984   3.916  -1.730  0.00  0.00    -0.004 A 
ATOM      5  C5  N4B d   1       1.795   3.034  -1.077  0.00  0.00     0.002 A 
ATOM      6  C6  N4B d   1       1.266   1.998  -0.335  0.00  0.00     0.002 A 
ENDROOT
BRANCH   1   7
ATOM      7  C1' N4B d   1      -0.634   0.753   0.633  0.00  0.00     0.057 C 
BRANCH   7   8
ATOM      8  C2' N4B d   1       0.396  -0.367   0.750  0.00  0.00     0.009 C 
BRANCH   8   9
ATOM      9  C3' N4B d   1      -0.203  -1.726   0.433  0.00  0.00     0.004 C 
ATOM     10  C4' N4B d   1      -0.539  -1.889  -1.019  0.00  0.00     0.003 C 
ENDBRANCH   8   9
ENDBRANCH   7   8
ENDBRANCH   1   7
TORSDOF 3
ENDMDL
