MODEL 1
REMARK minimizedAffinity 12.8398914
REMARK minimizedRMSD -1
REMARK  0 active torsions:
REMARK  status: ('A' for Active; 'I' for Inactive)
ROOT
ATOM      1  C   UNL d   1       0.831  -0.485   0.279  0.00  0.00     0.020 A 
ATOM      2  C1  UNL d   1       0.252  -1.510  -0.470  0.00  0.00     0.020 A 
ATOM      3  C2  UNL d   1       0.742  -2.813  -0.366  0.00  0.00     0.034 A 
ATOM      4  C3  UNL d   1       1.815  -3.096   0.488  0.00  0.00     0.017 A 
ATOM      5  C4  UNL d   1       2.395  -2.067   1.239  0.00  0.00     0.017 A 
ATOM      6  C5  UNL d   1       1.900  -0.764   1.131  0.00  0.00     0.034 A 
ATOM      7 Cl   UNL d   1       3.721  -2.338   2.314  0.00  0.00    -0.070 Cl
ATOM      8 Cl1  UNL d   1       2.370  -4.730   0.567  0.00  0.00    -0.070 Cl
ENDROOT
TORSDOF 0
ENDMDL
