MODEL 1
REMARK minimizedAffinity 16.3582993
REMARK minimizedRMSD -1
REMARK  0 active torsions:
REMARK  status: ('A' for Active; 'I' for Inactive)
ROOT
ATOM      1  C   UNL d   1       4.017  -5.957   0.088  0.00  0.00     0.020 A 
ATOM      2  C1  UNL d   1       5.403  -5.850   0.189  0.00  0.00     0.020 A 
ATOM      3  C2  UNL d   1       5.995  -4.598   0.374  0.00  0.00     0.034 A 
ATOM      4  C3  UNL d   1       5.200  -3.450   0.459  0.00  0.00     0.017 A 
ATOM      5  C4  UNL d   1       3.808  -3.559   0.358  0.00  0.00     0.017 A 
ATOM      6  C5  UNL d   1       3.221  -4.814   0.172  0.00  0.00     0.034 A 
ATOM      7 Cl   UNL d   1       2.761  -2.186   0.454  0.00  0.00    -0.070 Cl
ATOM      8 Cl1  UNL d   1       5.998  -1.935   0.690  0.00  0.00    -0.070 Cl
ENDROOT
TORSDOF 0
ENDMDL
