MODEL 1
REMARK minimizedAffinity 7.86811018
REMARK minimizedRMSD -1
REMARK  0 active torsions:
REMARK  status: ('A' for Active; 'I' for Inactive)
ROOT
ATOM      1  C   UNL d   1       1.510  -0.863   1.289  0.00  0.00     0.020 A 
ATOM      2  C1  UNL d   1       1.163  -1.588   0.150  0.00  0.00     0.020 A 
ATOM      3  C2  UNL d   1       1.739  -2.838  -0.084  0.00  0.00     0.034 A 
ATOM      4  C3  UNL d   1       2.665  -3.367   0.822  0.00  0.00     0.017 A 
ATOM      5  C4  UNL d   1       3.013  -2.639   1.965  0.00  0.00     0.017 A 
ATOM      6  C5  UNL d   1       2.433  -1.387   2.195  0.00  0.00     0.034 A 
ATOM      7 Cl   UNL d   1       4.148  -3.226   3.129  0.00  0.00    -0.070 Cl
ATOM      8 Cl1  UNL d   1       3.337  -4.920   0.470  0.00  0.00    -0.070 Cl
ENDROOT
TORSDOF 0
ENDMDL
