MODEL 1
REMARK minimizedAffinity 10.0429783
REMARK minimizedRMSD -1
REMARK  0 active torsions:
REMARK  status: ('A' for Active; 'I' for Inactive)
ROOT
ATOM      1  C   UNL d   1      -0.135  -1.896   1.246  0.00  0.00     0.020 A 
ATOM      2  C1  UNL d   1       0.729  -0.923   1.749  0.00  0.00     0.020 A 
ATOM      3  C2  UNL d   1       2.111  -1.102   1.657  0.00  0.00     0.034 A 
ATOM      4  C3  UNL d   1       2.633  -2.256   1.062  0.00  0.00     0.017 A 
ATOM      5  C4  UNL d   1       1.765  -3.232   0.557  0.00  0.00     0.017 A 
ATOM      6  C5  UNL d   1       0.382  -3.047   0.652  0.00  0.00     0.034 A 
ATOM      7 Cl   UNL d   1       2.335  -4.681  -0.191  0.00  0.00    -0.070 Cl
ATOM      8 Cl1  UNL d   1       4.352  -2.411   0.982  0.00  0.00    -0.070 Cl
ENDROOT
TORSDOF 0
ENDMDL
