MODEL 1
REMARK minimizedAffinity 13.8895864
REMARK minimizedRMSD -1
REMARK  0 active torsions:
REMARK  status: ('A' for Active; 'I' for Inactive)
ROOT
ATOM      1  C   UNL d   1       4.826  -5.967   5.998  0.00  0.00     0.020 A 
ATOM      2  C1  UNL d   1       3.500  -5.945   5.566  0.00  0.00     0.020 A 
ATOM      3  C2  UNL d   1       2.927  -4.748   5.132  0.00  0.00     0.034 A 
ATOM      4  C3  UNL d   1       3.679  -3.567   5.130  0.00  0.00     0.017 A 
ATOM      5  C4  UNL d   1       5.009  -3.590   5.564  0.00  0.00     0.017 A 
ATOM      6  C5  UNL d   1       5.578  -4.792   5.997  0.00  0.00     0.034 A 
ATOM      7 Cl   UNL d   1       6.000  -2.174   5.590  0.00  0.00    -0.070 Cl
ATOM      8 Cl1  UNL d   1       2.905  -2.123   4.581  0.00  0.00    -0.070 Cl
ENDROOT
TORSDOF 0
ENDMDL
