MODEL 1
REMARK minimizedAffinity 11.4284515
REMARK minimizedRMSD -1
REMARK  0 active torsions:
REMARK  status: ('A' for Active; 'I' for Inactive)
ROOT
ATOM      1  C   UNL d   1      -5.994  -0.727  -4.504  0.00  0.00     0.020 A 
ATOM      2  C1  UNL d   1      -6.000   0.544  -5.077  0.00  0.00     0.020 A 
ATOM      3  C2  UNL d   1      -5.089   1.509  -4.644  0.00  0.00     0.034 A 
ATOM      4  C3  UNL d   1      -4.168   1.205  -3.635  0.00  0.00     0.017 A 
ATOM      5  C4  UNL d   1      -4.162  -0.071  -3.061  0.00  0.00     0.017 A 
ATOM      6  C5  UNL d   1      -5.077  -1.034  -3.498  0.00  0.00     0.034 A 
ATOM      7 Cl   UNL d   1      -3.056  -0.520  -1.811  0.00  0.00    -0.070 Cl
ATOM      8 Cl1  UNL d   1      -3.069   2.448  -3.149  0.00  0.00    -0.070 Cl
ENDROOT
TORSDOF 0
ENDMDL
