MODEL 1
REMARK minimizedAffinity 16.1089764
REMARK minimizedRMSD -1
REMARK  0 active torsions:
REMARK  status: ('A' for Active; 'I' for Inactive)
ROOT
ATOM      1  C   UNL d   1       0.895  -1.043   1.958  0.00  0.00     0.020 A 
ATOM      2  C1  UNL d   1       0.126  -2.171   1.677  0.00  0.00     0.020 A 
ATOM      3  C2  UNL d   1       0.712  -3.279   1.061  0.00  0.00     0.034 A 
ATOM      4  C3  UNL d   1       2.070  -3.261   0.724  0.00  0.00     0.017 A 
ATOM      5  C4  UNL d   1       2.841  -2.128   1.008  0.00  0.00     0.017 A 
ATOM      6  C5  UNL d   1       2.250  -1.021   1.625  0.00  0.00     0.034 A 
ATOM      7 Cl   UNL d   1       4.523  -2.032   0.623  0.00  0.00    -0.070 Cl
ATOM      8 Cl1  UNL d   1       2.728  -4.666  -0.035  0.00  0.00    -0.070 Cl
ENDROOT
TORSDOF 0
ENDMDL
