MODEL 1
REMARK minimizedAffinity 8.94342613
REMARK minimizedRMSD -1
REMARK  0 active torsions:
REMARK  status: ('A' for Active; 'I' for Inactive)
ROOT
ATOM      1  C   UNL d   1       5.977   0.281   0.316  0.00  0.00     0.020 A 
ATOM      2  C1  UNL d   1       5.999   1.187   1.375  0.00  0.00     0.020 A 
ATOM      3  C2  UNL d   1       6.000   2.560   1.120  0.00  0.00     0.034 A 
ATOM      4  C3  UNL d   1       5.979   3.031  -0.198  0.00  0.00     0.017 A 
ATOM      5  C4  UNL d   1       5.957   2.121  -1.261  0.00  0.00     0.017 A 
ATOM      6  C5  UNL d   1       5.956   0.747  -0.999  0.00  0.00     0.034 A 
ATOM      7 Cl   UNL d   1       5.930   2.626  -2.913  0.00  0.00    -0.070 Cl
ATOM      8 Cl1  UNL d   1       5.982   4.742  -0.440  0.00  0.00    -0.070 Cl
ENDROOT
TORSDOF 0
ENDMDL
