MODEL 1
REMARK minimizedAffinity 16.1035175
REMARK minimizedRMSD -1
REMARK  0 active torsions:
REMARK  status: ('A' for Active; 'I' for Inactive)
ROOT
ATOM      1  C   UNL d   1      -5.999   2.572  -5.633  0.00  0.00     0.020 A 
ATOM      2  C1  UNL d   1      -5.493   1.355  -5.177  0.00  0.00     0.020 A 
ATOM      3  C2  UNL d   1      -4.352   1.331  -4.372  0.00  0.00     0.034 A 
ATOM      4  C3  UNL d   1      -3.713   2.526  -4.021  0.00  0.00     0.017 A 
ATOM      5  C4  UNL d   1      -4.222   3.747  -4.478  0.00  0.00     0.017 A 
ATOM      6  C5  UNL d   1      -5.365   3.765  -5.284  0.00  0.00     0.034 A 
ATOM      7 Cl   UNL d   1      -3.490   5.262  -4.086  0.00  0.00    -0.070 Cl
ATOM      8 Cl1  UNL d   1      -2.307   2.422  -3.022  0.00  0.00    -0.070 Cl
ENDROOT
TORSDOF 0
ENDMDL
