MODEL 1
REMARK minimizedAffinity 7.53498507
REMARK minimizedRMSD -1
REMARK  0 active torsions:
REMARK  status: ('A' for Active; 'I' for Inactive)
ROOT
ATOM      1  C   UNL d   1       5.993   3.584   1.666  0.00  0.00     0.020 A 
ATOM      2  C1  UNL d   1       5.993   4.139   0.387  0.00  0.00     0.020 A 
ATOM      3  C2  UNL d   1       5.995   3.307  -0.735  0.00  0.00     0.034 A 
ATOM      4  C3  UNL d   1       5.997   1.916  -0.580  0.00  0.00     0.017 A 
ATOM      5  C4  UNL d   1       5.997   1.360   0.704  0.00  0.00     0.017 A 
ATOM      6  C5  UNL d   1       5.995   2.197   1.824  0.00  0.00     0.034 A 
ATOM      7 Cl   UNL d   1       6.000  -0.347   0.975  0.00  0.00    -0.070 Cl
ATOM      8 Cl1  UNL d   1       6.000   0.949  -2.012  0.00  0.00    -0.070 Cl
ENDROOT
TORSDOF 0
ENDMDL
