MODEL 1
REMARK minimizedAffinity 16.6445808
REMARK minimizedRMSD -1
REMARK  0 active torsions:
REMARK  status: ('A' for Active; 'I' for Inactive)
ROOT
ATOM      1  C   UNL d   1       4.951   5.998  -5.733  0.00  0.00     0.020 A 
ATOM      2  C1  UNL d   1       6.000   5.081  -5.709  0.00  0.00     0.020 A 
ATOM      3  C2  UNL d   1       5.772   3.770  -5.283  0.00  0.00     0.034 A 
ATOM      4  C3  UNL d   1       4.492   3.374  -4.879  0.00  0.00     0.017 A 
ATOM      5  C4  UNL d   1       3.439   4.296  -4.903  0.00  0.00     0.017 A 
ATOM      6  C5  UNL d   1       3.673   5.607  -5.331  0.00  0.00     0.034 A 
ATOM      7 Cl   UNL d   1       1.833   3.882  -4.419  0.00  0.00    -0.070 Cl
ATOM      8 Cl1  UNL d   1       4.282   1.738  -4.363  0.00  0.00    -0.070 Cl
ENDROOT
TORSDOF 0
ENDMDL
