MODEL 1
REMARK minimizedAffinity 6.72043657
REMARK minimizedRMSD -1
REMARK  0 active torsions:
REMARK  status: ('A' for Active; 'I' for Inactive)
ROOT
ATOM      1  C   UNL d   1       6.000   5.032  -6.000  0.00  0.00     0.020 A 
ATOM      2  C1  UNL d   1       4.996   6.000  -5.971  0.00  0.00     0.020 A 
ATOM      3  C2  UNL d   1       3.777   5.723  -5.351  0.00  0.00     0.034 A 
ATOM      4  C3  UNL d   1       3.557   4.475  -4.756  0.00  0.00     0.017 A 
ATOM      5  C4  UNL d   1       4.565   3.504  -4.786  0.00  0.00     0.017 A 
ATOM      6  C5  UNL d   1       5.784   3.787  -5.408  0.00  0.00     0.034 A 
ATOM      7 Cl   UNL d   1       4.368   1.941  -4.074  0.00  0.00    -0.070 Cl
ATOM      8 Cl1  UNL d   1       2.025   4.201  -4.006  0.00  0.00    -0.070 Cl
ENDROOT
TORSDOF 0
ENDMDL
