MODEL 1
REMARK minimizedAffinity 0.771520376
REMARK minimizedRMSD -1
REMARK  3 active torsions:
REMARK  status: ('A' for Active; 'I' for Inactive)
REMARK    1  A    between atoms: C3'_2  and  C2'_3 
REMARK    2  A    between atoms: C2'_3  and  C1'_4 
REMARK    3  A    between atoms: C1'_4  and  C1_5 
ROOT
ATOM      1  C1  N4B d   1       1.182  -0.081  -0.010  0.00  0.00    -0.075 A 
ATOM      2  C2  N4B d   1      -0.184  -0.018  -0.363  0.00  0.00     0.002 A 
ATOM      3  C3  N4B d   1      -1.121  -0.673   0.398  0.00  0.00     0.002 A 
ATOM      4  C4  N4B d   1      -0.715  -1.410   1.501  0.00  0.00    -0.004 A 
ATOM      5  C5  N4B d   1       0.603  -1.446   1.850  0.00  0.00     0.002 A 
ATOM      6  C6  N4B d   1       1.555  -0.789   1.096  0.00  0.00     0.002 A 
ENDROOT
BRANCH   1   7
ATOM      7  C1' N4B d   1       2.251   0.547  -0.860  0.00  0.00     0.057 C 
BRANCH   7   8
ATOM      8  C2' N4B d   1       2.648  -0.426  -1.967  0.00  0.00     0.009 C 
BRANCH   8   9
ATOM      9  C3' N4B d   1       1.687  -0.372  -3.142  0.00  0.00     0.004 C 
ATOM     10  C4' N4B d   1       2.331  -0.764  -4.438  0.00  0.00     0.003 C 
ENDBRANCH   8   9
ENDBRANCH   7   8
ENDBRANCH   1   7
TORSDOF 3
ENDMDL
