MODEL 1
REMARK minimizedAffinity -1.38494384
REMARK minimizedRMSD -1
REMARK  3 active torsions:
REMARK  status: ('A' for Active; 'I' for Inactive)
REMARK    1  A    between atoms: C3'_2  and  C2'_3 
REMARK    2  A    between atoms: C2'_3  and  C1'_4 
REMARK    3  A    between atoms: C1'_4  and  C1_5 
ROOT
ATOM      1  C1  N4B d   1       0.970   0.426   0.605  0.00  0.00    -0.075 A 
ATOM      2  C2  N4B d   1       1.231  -0.492   1.646  0.00  0.00     0.002 A 
ATOM      3  C3  N4B d   1       0.326  -1.487   1.926  0.00  0.00     0.002 A 
ATOM      4  C4  N4B d   1      -0.850  -1.571   1.196  0.00  0.00    -0.004 A 
ATOM      5  C5  N4B d   1      -1.082  -0.695   0.176  0.00  0.00     0.002 A 
ATOM      6  C6  N4B d   1      -0.180   0.307  -0.120  0.00  0.00     0.002 A 
ENDROOT
BRANCH   1   7
ATOM      7  C1' N4B d   1       1.889   1.582   0.317  0.00  0.00     0.057 C 
BRANCH   7   8
ATOM      8  C2' N4B d   1       2.157   2.342   1.613  0.00  0.00     0.009 C 
BRANCH   8   9
ATOM      9  C3' N4B d   1       2.833   3.679   1.357  0.00  0.00     0.004 C 
ATOM     10  C4' N4B d   1       3.374   3.799  -0.036  0.00  0.00     0.003 C 
ENDBRANCH   8   9
ENDBRANCH   7   8
ENDBRANCH   1   7
TORSDOF 3
ENDMDL
