MODEL 1
REMARK minimizedAffinity -5.04304838
REMARK minimizedRMSD -1
REMARK  3 active torsions:
REMARK  status: ('A' for Active; 'I' for Inactive)
REMARK    1  A    between atoms: C3'_2  and  C2'_3 
REMARK    2  A    between atoms: C2'_3  and  C1'_4 
REMARK    3  A    between atoms: C1'_4  and  C1_5 
ROOT
ATOM      1  C1  N4B d   1      -0.822  -0.698   0.486  0.00  0.00    -0.075 A 
ATOM      2  C2  N4B d   1      -1.480   0.018  -0.538  0.00  0.00     0.002 A 
ATOM      3  C3  N4B d   1      -2.746  -0.347  -0.925  0.00  0.00     0.002 A 
ATOM      4  C4  N4B d   1      -3.363  -1.431  -0.320  0.00  0.00    -0.004 A 
ATOM      5  C5  N4B d   1      -2.731  -2.102   0.686  0.00  0.00     0.002 A 
ATOM      6  C6  N4B d   1      -1.460  -1.744   1.089  0.00  0.00     0.002 A 
ENDROOT
BRANCH   1   7
ATOM      7  C1' N4B d   1       0.596  -0.391   0.885  0.00  0.00     0.057 C 
BRANCH   7   8
ATOM      8  C2' N4B d   1       1.199   0.582  -0.123  0.00  0.00     0.009 C 
BRANCH   8   9
ATOM      9  C3' N4B d   1       2.001   1.680   0.556  0.00  0.00     0.004 C 
ATOM     10  C4' N4B d   1       3.104   2.213  -0.308  0.00  0.00     0.003 C 
ENDBRANCH   8   9
ENDBRANCH   7   8
ENDBRANCH   1   7
TORSDOF 3
ENDMDL
