MODEL 1
REMARK minimizedAffinity -3.18243718
REMARK minimizedRMSD -1
REMARK  3 active torsions:
REMARK  status: ('A' for Active; 'I' for Inactive)
REMARK    1  A    between atoms: C3'_2  and  C2'_3 
REMARK    2  A    between atoms: C2'_3  and  C1'_4 
REMARK    3  A    between atoms: C1'_4  and  C1_5 
ROOT
ATOM      1  C1  N4B d   1       0.607   0.266  -2.954  0.00  0.00    -0.075 A 
ATOM      2  C2  N4B d   1       1.743  -0.040  -2.172  0.00  0.00     0.002 A 
ATOM      3  C3  N4B d   1       2.916  -0.414  -2.782  0.00  0.00     0.002 A 
ATOM      4  C4  N4B d   1       2.971  -0.506  -4.164  0.00  0.00    -0.004 A 
ATOM      5  C5  N4B d   1       1.877  -0.184  -4.913  0.00  0.00     0.002 A 
ATOM      6  C6  N4B d   1       0.693   0.197  -4.314  0.00  0.00     0.002 A 
ENDROOT
BRANCH   1   7
ATOM      7  C1' N4B d   1      -0.721   0.596  -2.330  0.00  0.00     0.057 C 
BRANCH   7   8
ATOM      8  C2' N4B d   1      -0.851  -0.150  -1.005  0.00  0.00     0.009 C 
BRANCH   8   9
ATOM      9  C3' N4B d   1      -2.235  -0.748  -0.822  0.00  0.00     0.004 C 
ATOM     10  C4' N4B d   1      -2.811  -0.474   0.535  0.00  0.00     0.003 C 
ENDBRANCH   8   9
ENDBRANCH   7   8
ENDBRANCH   1   7
TORSDOF 3
ENDMDL
