MODEL 1
REMARK minimizedAffinity -6.24179554
REMARK minimizedRMSD -1
REMARK  3 active torsions:
REMARK  status: ('A' for Active; 'I' for Inactive)
REMARK    1  A    between atoms: C3'_2  and  C2'_3 
REMARK    2  A    between atoms: C2'_3  and  C1'_4 
REMARK    3  A    between atoms: C1'_4  and  C1_5 
ROOT
ATOM      1  C1  N4B d   1      -1.158  -0.735  -0.050  0.00  0.00    -0.075 A 
ATOM      2  C2  N4B d   1      -2.466  -0.444  -0.498  0.00  0.00     0.002 A 
ATOM      3  C3  N4B d   1      -3.519  -1.228  -0.095  0.00  0.00     0.002 A 
ATOM      4  C4  N4B d   1      -3.288  -2.314   0.736  0.00  0.00    -0.004 A 
ATOM      5  C5  N4B d   1      -2.025  -2.573   1.184  0.00  0.00     0.002 A 
ATOM      6  C6  N4B d   1      -0.958  -1.791   0.791  0.00  0.00     0.002 A 
ENDROOT
BRANCH   1   7
ATOM      7  C1' N4B d   1       0.037   0.042  -0.532  0.00  0.00     0.057 C 
BRANCH   7   8
ATOM      8  C2' N4B d   1       1.185  -0.144   0.455  0.00  0.00     0.009 C 
BRANCH   8   9
ATOM      9  C3' N4B d   1       2.229   0.953   0.325  0.00  0.00     0.004 C 
ATOM     10  C4' N4B d   1       2.255   1.873   1.509  0.00  0.00     0.003 C 
ENDBRANCH   8   9
ENDBRANCH   7   8
ENDBRANCH   1   7
TORSDOF 3
ENDMDL
