MODEL 1
REMARK minimizedAffinity -3.01873565
REMARK minimizedRMSD -1
REMARK  3 active torsions:
REMARK  status: ('A' for Active; 'I' for Inactive)
REMARK    1  A    between atoms: C3'_2  and  C2'_3 
REMARK    2  A    between atoms: C2'_3  and  C1'_4 
REMARK    3  A    between atoms: C1'_4  and  C1_5 
ROOT
ATOM      1  C1  N4B d   1      -0.205  -0.361   0.115  0.00  0.00    -0.075 A 
ATOM      2  C2  N4B d   1      -0.748  -1.203   1.110  0.00  0.00     0.002 A 
ATOM      3  C3  N4B d   1      -2.093  -1.482   1.113  0.00  0.00     0.002 A 
ATOM      4  C4  N4B d   1      -2.913  -0.918   0.147  0.00  0.00    -0.004 A 
ATOM      5  C5  N4B d   1      -2.376  -0.127  -0.825  0.00  0.00     0.002 A 
ATOM      6  C6  N4B d   1      -1.025   0.159  -0.843  0.00  0.00     0.002 A 
ENDROOT
BRANCH   1   7
ATOM      7  C1' N4B d   1       1.245   0.042   0.121  0.00  0.00     0.057 C 
BRANCH   7   8
ATOM      8  C2' N4B d   1       1.626   0.561  -1.262  0.00  0.00     0.009 C 
BRANCH   8   9
ATOM      9  C3' N4B d   1       2.655  -0.328  -1.939  0.00  0.00     0.004 C 
ATOM     10  C4' N4B d   1       2.299  -0.653  -3.359  0.00  0.00     0.003 C 
ENDBRANCH   8   9
ENDBRANCH   7   8
ENDBRANCH   1   7
TORSDOF 3
ENDMDL
