MODEL 1
REMARK minimizedAffinity -1.48967576
REMARK minimizedRMSD -1
REMARK  3 active torsions:
REMARK  status: ('A' for Active; 'I' for Inactive)
REMARK    1  A    between atoms: C3'_2  and  C2'_3 
REMARK    2  A    between atoms: C2'_3  and  C1'_4 
REMARK    3  A    between atoms: C1'_4  and  C1_5 
ROOT
ATOM      1  C1  N4B d   1       0.750  -0.256  -2.036  0.00  0.00    -0.075 A 
ATOM      2  C2  N4B d   1       1.114  -0.525  -0.698  0.00  0.00     0.002 A 
ATOM      3  C3  N4B d   1       0.144  -0.649   0.266  0.00  0.00     0.002 A 
ATOM      4  C4  N4B d   1      -1.190  -0.489  -0.078  0.00  0.00    -0.004 A 
ATOM      5  C5  N4B d   1      -1.535  -0.255  -1.377  0.00  0.00     0.002 A 
ATOM      6  C6  N4B d   1      -0.571  -0.132  -2.357  0.00  0.00     0.002 A 
ENDROOT
BRANCH   1   7
ATOM      7  C1' N4B d   1       1.779  -0.028  -3.108  0.00  0.00     0.057 C 
BRANCH   7   8
ATOM      8  C2' N4B d   1       1.661  -1.129  -4.158  0.00  0.00     0.009 C 
BRANCH   8   9
ATOM      9  C3' N4B d   1       1.452  -0.565  -5.553  0.00  0.00     0.004 C 
ATOM     10  C4' N4B d   1       1.440   0.935  -5.577  0.00  0.00     0.003 C 
ENDBRANCH   8   9
ENDBRANCH   7   8
ENDBRANCH   1   7
TORSDOF 3
ENDMDL
