MODEL 1
REMARK minimizedAffinity -3.5352788
REMARK minimizedRMSD -1
REMARK  0 active torsions:
REMARK  status: ('A' for Active; 'I' for Inactive)
ROOT
ATOM      1  C2' OXE d   1       0.280   0.354  -1.148  0.00  0.00     0.078 C 
ATOM      2  C1' OXE d   1       1.841   1.871   0.624  0.00  0.00     0.078 C 
ATOM      3  C1  OXE d   1       0.853   0.897   1.214  0.00  0.00    -0.078 A 
ATOM      4  C2  OXE d   1       0.060   0.193   0.340  0.00  0.00    -0.078 A 
ATOM      5  C3  OXE d   1      -0.830  -0.759   0.830  0.00  0.00     0.003 A 
ATOM      6  C4  OXE d   1      -1.035  -0.894   2.209  0.00  0.00    -0.002 A 
ATOM      7  C5  OXE d   1      -0.266  -0.158   3.116  0.00  0.00    -0.002 A 
ATOM      8  C6  OXE d   1       0.710   0.709   2.637  0.00  0.00     0.003 A 
ENDROOT
TORSDOF 0
ENDMDL
