MODEL 1
REMARK minimizedAffinity -2.8386879
REMARK minimizedRMSD -1
REMARK  0 active torsions:
REMARK  status: ('A' for Active; 'I' for Inactive)
ROOT
ATOM      1  C2' OXE d   1      -0.151   0.232  -1.031  0.00  0.00     0.078 C 
ATOM      2  C1' OXE d   1      -2.599  -0.035   0.318  0.00  0.00     0.078 C 
ATOM      3  C1  OXE d   1      -1.333  -0.256   1.107  0.00  0.00    -0.078 A 
ATOM      4  C2  OXE d   1      -0.141  -0.170   0.429  0.00  0.00    -0.078 A 
ATOM      5  C3  OXE d   1       1.058  -0.312   1.120  0.00  0.00     0.003 A 
ATOM      6  C4  OXE d   1       1.059  -0.693   2.468  0.00  0.00    -0.002 A 
ATOM      7  C5  OXE d   1      -0.145  -0.826   3.168  0.00  0.00    -0.002 A 
ATOM      8  C6  OXE d   1      -1.345  -0.570   2.515  0.00  0.00     0.003 A 
ENDROOT
TORSDOF 0
ENDMDL
