MODEL 1
REMARK minimizedAffinity -5.51709366
REMARK minimizedRMSD -1
REMARK  0 active torsions:
REMARK  status: ('A' for Active; 'I' for Inactive)
ROOT
ATOM      1  C2' OXE d   1      -0.197   0.278  -1.156  0.00  0.00     0.078 C 
ATOM      2  C1' OXE d   1      -2.326  -0.392   0.547  0.00  0.00     0.078 C 
ATOM      3  C1  OXE d   1      -0.947  -0.291   1.150  0.00  0.00    -0.078 A 
ATOM      4  C2  OXE d   1       0.095  -0.008   0.301  0.00  0.00    -0.078 A 
ATOM      5  C3  OXE d   1       1.379   0.151   0.815  0.00  0.00     0.003 A 
ATOM      6  C4  OXE d   1       1.643  -0.126   2.162  0.00  0.00    -0.002 A 
ATOM      7  C5  OXE d   1       0.601  -0.454   3.036  0.00  0.00    -0.002 A 
ATOM      8  C6  OXE d   1      -0.703  -0.499   2.556  0.00  0.00     0.003 A 
ENDROOT
TORSDOF 0
ENDMDL
