MODEL 1
REMARK minimizedAffinity -1.84263098
REMARK minimizedRMSD -1
REMARK  0 active torsions:
REMARK  status: ('A' for Active; 'I' for Inactive)
ROOT
ATOM      1  C2' OXE d   1       1.565   1.228  -0.008  0.00  0.00     0.078 C 
ATOM      2  C1' OXE d   1       0.671  -1.187  -1.125  0.00  0.00     0.078 C 
ATOM      3  C1  OXE d   1       0.303  -0.896   0.308  0.00  0.00    -0.078 A 
ATOM      4  C2  OXE d   1       0.784   0.266   0.861  0.00  0.00    -0.078 A 
ATOM      5  C3  OXE d   1       0.429   0.609   2.163  0.00  0.00     0.003 A 
ATOM      6  C4  OXE d   1      -0.285  -0.291   2.963  0.00  0.00    -0.002 A 
ATOM      7  C5  OXE d   1      -0.751  -1.499   2.431  0.00  0.00    -0.002 A 
ATOM      8  C6  OXE d   1      -0.502  -1.796   1.096  0.00  0.00     0.003 A 
ENDROOT
TORSDOF 0
ENDMDL
