MODEL 1
REMARK minimizedAffinity -4.99537325
REMARK minimizedRMSD -1
REMARK  0 active torsions:
REMARK  status: ('A' for Active; 'I' for Inactive)
ROOT
ATOM      1  C2' OXE d   1       1.848   1.491   0.473  0.00  0.00     0.078 C 
ATOM      2  C1' OXE d   1       0.120   0.200  -1.323  0.00  0.00     0.078 C 
ATOM      3  C1  OXE d   1      -0.100  -0.028   0.152  0.00  0.00    -0.078 A 
ATOM      4  C2  OXE d   1       0.779   0.571   1.022  0.00  0.00    -0.078 A 
ATOM      5  C3  OXE d   1       0.589   0.438   2.394  0.00  0.00     0.003 A 
ATOM      6  C4  OXE d   1      -0.396  -0.423   2.893  0.00  0.00    -0.002 A 
ATOM      7  C5  OXE d   1      -1.277  -1.074   2.023  0.00  0.00    -0.002 A 
ATOM      8  C6  OXE d   1      -1.170  -0.854   0.655  0.00  0.00     0.003 A 
ENDROOT
TORSDOF 0
ENDMDL
