MODEL 1
REMARK minimizedAffinity -3.19825149
REMARK minimizedRMSD -1
REMARK  0 active torsions:
REMARK  status: ('A' for Active; 'I' for Inactive)
ROOT
ATOM      1  C2' OXE d   1      -0.896  -1.048   2.482  0.00  0.00     0.078 C 
ATOM      2  C1' OXE d   1      -2.923  -0.539   0.608  0.00  0.00     0.078 C 
ATOM      3  C1  OXE d   1      -1.496  -0.296   0.184  0.00  0.00    -0.078 A 
ATOM      4  C2  OXE d   1      -0.514  -0.503   1.123  0.00  0.00    -0.078 A 
ATOM      5  C3  OXE d   1       0.823  -0.347   0.768  0.00  0.00     0.003 A 
ATOM      6  C4  OXE d   1       1.168   0.167  -0.488  0.00  0.00    -0.002 A 
ATOM      7  C5  OXE d   1       0.180   0.422  -1.446  0.00  0.00    -0.002 A 
ATOM      8  C6  OXE d   1      -1.150   0.156  -1.141  0.00  0.00     0.003 A 
ENDROOT
TORSDOF 0
ENDMDL
