MODEL 1
REMARK minimizedAffinity -1.34607649
REMARK minimizedRMSD -1
REMARK  0 active torsions:
REMARK  status: ('A' for Active; 'I' for Inactive)
ROOT
ATOM      1  C2' OXE d   1      -2.884  -0.147   0.654  0.00  0.00     0.078 C 
ATOM      2  C1' OXE d   1      -0.975  -0.641   2.653  0.00  0.00     0.078 C 
ATOM      3  C1  OXE d   1      -0.483  -0.465   1.238  0.00  0.00    -0.078 A 
ATOM      4  C2  OXE d   1      -1.428  -0.270   0.259  0.00  0.00    -0.078 A 
ATOM      5  C3  OXE d   1      -1.024  -0.048  -1.054  0.00  0.00     0.003 A 
ATOM      6  C4  OXE d   1       0.323  -0.174  -1.413  0.00  0.00    -0.002 A 
ATOM      7  C5  OXE d   1       1.298  -0.412  -0.438  0.00  0.00    -0.002 A 
ATOM      8  C6  OXE d   1       0.917  -0.517   0.895  0.00  0.00     0.003 A 
ENDROOT
TORSDOF 0
ENDMDL
