MODEL 1
REMARK minimizedAffinity -4.30144167
REMARK minimizedRMSD -1
REMARK  0 active torsions:
REMARK  status: ('A' for Active; 'I' for Inactive)
ROOT
ATOM      1  C2' OXE d   1      -2.916  -0.778   1.026  0.00  0.00     0.078 C 
ATOM      2  C1' OXE d   1      -0.888  -1.070   2.945  0.00  0.00     0.078 C 
ATOM      3  C1  OXE d   1      -0.510  -0.491   1.605  0.00  0.00    -0.078 A 
ATOM      4  C2  OXE d   1      -1.499  -0.395   0.656  0.00  0.00    -0.078 A 
ATOM      5  C3  OXE d   1      -1.216   0.183  -0.578  0.00  0.00     0.003 A 
ATOM      6  C4  OXE d   1       0.099   0.525  -0.916  0.00  0.00    -0.002 A 
ATOM      7  C5  OXE d   1       1.129   0.399   0.022  0.00  0.00    -0.002 A 
ATOM      8  C6  OXE d   1       0.834  -0.067   1.298  0.00  0.00     0.003 A 
ENDROOT
TORSDOF 0
ENDMDL
