MODEL 1
REMARK minimizedAffinity -5.09962511
REMARK minimizedRMSD -1
REMARK  0 active torsions:
REMARK  status: ('A' for Active; 'I' for Inactive)
ROOT
ATOM      1  C2' OXE d   1      -0.282   0.330  -0.928  0.00  0.00     0.078 C 
ATOM      2  C1' OXE d   1      -2.804   0.072   0.277  0.00  0.00     0.078 C 
ATOM      3  C1  OXE d   1      -1.588  -0.022   1.164  0.00  0.00    -0.078 A 
ATOM      4  C2  OXE d   1      -0.357   0.059   0.559  0.00  0.00    -0.078 A 
ATOM      5  C3  OXE d   1       0.797   0.033   1.337  0.00  0.00     0.003 A 
ATOM      6  C4  OXE d   1       0.719  -0.228   2.711  0.00  0.00    -0.002 A 
ATOM      7  C5  OXE d   1      -0.523  -0.353   3.341  0.00  0.00    -0.002 A 
ATOM      8  C6  OXE d   1      -1.685  -0.211   2.590  0.00  0.00     0.003 A 
ENDROOT
TORSDOF 0
ENDMDL
