MODEL 1
REMARK minimizedAffinity -6.21815777
REMARK minimizedRMSD -1
REMARK  0 active torsions:
REMARK  status: ('A' for Active; 'I' for Inactive)
ROOT
ATOM      1  C2' OXE d   1       1.252   0.408   1.135  0.00  0.00     0.078 C 
ATOM      2  C1' OXE d   1      -0.451   0.494  -1.095  0.00  0.00     0.078 C 
ATOM      3  C1  OXE d   1      -1.080   0.316   0.265  0.00  0.00    -0.078 A 
ATOM      4  C2  OXE d   1      -0.236   0.228   1.345  0.00  0.00    -0.078 A 
ATOM      5  C3  OXE d   1      -0.766   0.118   2.627  0.00  0.00     0.003 A 
ATOM      6  C4  OXE d   1      -2.143  -0.058   2.812  0.00  0.00    -0.002 A 
ATOM      7  C5  OXE d   1      -3.017  -0.011   1.721  0.00  0.00    -0.002 A 
ATOM      8  C6  OXE d   1      -2.507   0.217   0.448  0.00  0.00     0.003 A 
ENDROOT
TORSDOF 0
ENDMDL
