MODEL 1
REMARK minimizedAffinity -5.3910141
REMARK minimizedRMSD -1
REMARK  0 active torsions:
REMARK  status: ('A' for Active; 'I' for Inactive)
ROOT
ATOM      1  C2' OXE d   1       1.920   0.205   2.338  0.00  0.00     0.078 C 
ATOM      2  C1' OXE d   1      -0.643  -0.589   3.163  0.00  0.00     0.078 C 
ATOM      3  C1  OXE d   1      -0.485  -0.076   1.754  0.00  0.00    -0.078 A 
ATOM      4  C2  OXE d   1       0.764   0.354   1.374  0.00  0.00    -0.078 A 
ATOM      5  C3  OXE d   1       0.976   0.785   0.067  0.00  0.00     0.003 A 
ATOM      6  C4  OXE d   1      -0.101   0.930  -0.815  0.00  0.00    -0.002 A 
ATOM      7  C5  OXE d   1      -1.389   0.535  -0.435  0.00  0.00    -0.002 A 
ATOM      8  C6  OXE d   1      -1.589  -0.008   0.829  0.00  0.00     0.003 A 
ENDROOT
TORSDOF 0
ENDMDL
