MODEL 1
REMARK minimizedAffinity -4.98636293
REMARK minimizedRMSD -1
REMARK  0 active torsions:
REMARK  status: ('A' for Active; 'I' for Inactive)
ROOT
ATOM      1  C2' OXE d   1       0.009  -0.292   3.071  0.00  0.00     0.078 C 
ATOM      2  C1' OXE d   1       2.350   0.257   1.623  0.00  0.00     0.078 C 
ATOM      3  C1  OXE d   1       1.066   0.093   0.849  0.00  0.00    -0.078 A 
ATOM      4  C2  OXE d   1      -0.066  -0.221   1.561  0.00  0.00    -0.078 A 
ATOM      5  C3  OXE d   1      -1.288  -0.329   0.902  0.00  0.00     0.003 A 
ATOM      6  C4  OXE d   1      -1.347  -0.272  -0.495  0.00  0.00    -0.002 A 
ATOM      7  C5  OXE d   1      -0.198   0.008  -1.244  0.00  0.00    -0.002 A 
ATOM      8  C6  OXE d   1       1.005   0.235  -0.585  0.00  0.00     0.003 A 
ENDROOT
TORSDOF 0
ENDMDL
