MODEL 1
REMARK minimizedAffinity -5.66626453
REMARK minimizedRMSD -1
REMARK  0 active torsions:
REMARK  status: ('A' for Active; 'I' for Inactive)
ROOT
ATOM      1  C2' OXE d   1       1.323   0.434   0.940  0.00  0.00     0.078 C 
ATOM      2  C1' OXE d   1      -0.537   0.607  -1.156  0.00  0.00     0.078 C 
ATOM      3  C1  OXE d   1      -1.065   0.358   0.235  0.00  0.00    -0.078 A 
ATOM      4  C2  OXE d   1      -0.145   0.229   1.247  0.00  0.00    -0.078 A 
ATOM      5  C3  OXE d   1      -0.581   0.053   2.557  0.00  0.00     0.003 A 
ATOM      6  C4  OXE d   1      -1.939  -0.146   2.831  0.00  0.00    -0.002 A 
ATOM      7  C5  OXE d   1      -2.890  -0.058   1.809  0.00  0.00    -0.002 A 
ATOM      8  C6  OXE d   1      -2.474   0.235   0.515  0.00  0.00     0.003 A 
ENDROOT
TORSDOF 0
ENDMDL
