MODEL 1
REMARK minimizedAffinity -3.3770318
REMARK minimizedRMSD -1
REMARK  0 active torsions:
REMARK  status: ('A' for Active; 'I' for Inactive)
ROOT
ATOM      1  C2' OXE d   1      -0.370  -0.435   2.642  0.00  0.00     0.078 C 
ATOM      2  C1' OXE d   1      -2.421  -0.264   0.732  0.00  0.00     0.078 C 
ATOM      3  C1  OXE d   1      -1.000  -0.085   0.257  0.00  0.00    -0.078 A 
ATOM      4  C2  OXE d   1      -0.007  -0.124   1.206  0.00  0.00    -0.078 A 
ATOM      5  C3  OXE d   1       1.325  -0.018   0.815  0.00  0.00     0.003 A 
ATOM      6  C4  OXE d   1       1.652   0.280  -0.514  0.00  0.00    -0.002 A 
ATOM      7  C5  OXE d   1       0.652   0.363  -1.489  0.00  0.00    -0.002 A 
ATOM      8  C6  OXE d   1      -0.672   0.142  -1.128  0.00  0.00     0.003 A 
ENDROOT
TORSDOF 0
ENDMDL
