MODEL 1
REMARK minimizedAffinity -0.644270599
REMARK minimizedRMSD -1
REMARK  0 active torsions:
REMARK  status: ('A' for Active; 'I' for Inactive)
ROOT
ATOM      1  C2' OXE d   1      -0.300  -1.075  -0.624  0.00  0.00     0.078 C 
ATOM      2  C1' OXE d   1      -0.105   1.252  -2.181  0.00  0.00     0.078 C 
ATOM      3  C1  OXE d   1       0.570   0.005  -2.693  0.00  0.00    -0.078 A 
ATOM      4  C2  OXE d   1       0.509  -1.117  -1.902  0.00  0.00    -0.078 A 
ATOM      5  C3  OXE d   1       1.068  -2.310  -2.352  0.00  0.00     0.003 A 
ATOM      6  C4  OXE d   1       1.824  -2.338  -3.531  0.00  0.00    -0.002 A 
ATOM      7  C5  OXE d   1       1.932  -1.196  -4.332  0.00  0.00    -0.002 A 
ATOM      8  C6  OXE d   1       1.277  -0.031  -3.949  0.00  0.00     0.003 A 
ENDROOT
TORSDOF 0
ENDMDL
