MODEL 1
REMARK minimizedAffinity -4.93741608
REMARK minimizedRMSD -1
REMARK  0 active torsions:
REMARK  status: ('A' for Active; 'I' for Inactive)
ROOT
ATOM      1  C2' OXE d   1      -3.458   0.099   0.509  0.00  0.00     0.078 C 
ATOM      2  C1' OXE d   1      -1.517   0.689  -1.431  0.00  0.00     0.078 C 
ATOM      3  C1  OXE d   1      -1.041   0.337  -0.044  0.00  0.00    -0.078 A 
ATOM      4  C2  OXE d   1      -1.999   0.095   0.911  0.00  0.00    -0.078 A 
ATOM      5  C3  OXE d   1      -1.614  -0.288   2.193  0.00  0.00     0.003 A 
ATOM      6  C4  OXE d   1      -0.263  -0.279   2.559  0.00  0.00    -0.002 A 
ATOM      7  C5  OXE d   1       0.728   0.003   1.612  0.00  0.00    -0.002 A 
ATOM      8  C6  OXE d   1       0.358   0.270   0.299  0.00  0.00     0.003 A 
ENDROOT
TORSDOF 0
ENDMDL
