MODEL 1
REMARK minimizedAffinity 2.36431718
REMARK minimizedRMSD -1
REMARK  3 active torsions:
REMARK  status: ('A' for Active; 'I' for Inactive)
REMARK    1  A    between atoms: C3'_2  and  C2'_3 
REMARK    2  A    between atoms: C2'_3  and  C1'_4 
REMARK    3  A    between atoms: C1'_4  and  C1_5 
ROOT
ATOM      1  C1  N4B d   1      -2.115   1.470  -3.979  0.00  0.00    -0.075 A 
ATOM      2  C2  N4B d   1      -3.512   1.498  -3.771  0.00  0.00     0.002 A 
ATOM      3  C3  N4B d   1      -4.068   2.469  -2.975  0.00  0.00     0.002 A 
ATOM      4  C4  N4B d   1      -3.250   3.407  -2.364  0.00  0.00    -0.004 A 
ATOM      5  C5  N4B d   1      -1.905   3.388  -2.589  0.00  0.00     0.002 A 
ATOM      6  C6  N4B d   1      -1.332   2.421  -3.390  0.00  0.00     0.002 A 
ENDROOT
BRANCH   1   7
ATOM      7  C1' N4B d   1      -1.452   0.377  -4.771  0.00  0.00     0.057 C 
BRANCH   7   8
ATOM      8  C2' N4B d   1      -1.115  -0.783  -3.840  0.00  0.00     0.009 C 
BRANCH   8   9
ATOM      9  C3' N4B d   1       0.206  -1.439  -4.203  0.00  0.00     0.004 C 
ATOM     10  C4' N4B d   1       1.196  -0.470  -4.778  0.00  0.00     0.003 C 
ENDBRANCH   8   9
ENDBRANCH   7   8
ENDBRANCH   1   7
TORSDOF 3
ENDMDL
