MODEL 1
REMARK minimizedAffinity -2.50491977
REMARK minimizedRMSD -1
REMARK  3 active torsions:
REMARK  status: ('A' for Active; 'I' for Inactive)
REMARK    1  A    between atoms: C3'_2  and  C2'_3 
REMARK    2  A    between atoms: C2'_3  and  C1'_4 
REMARK    3  A    between atoms: C1'_4  and  C1_5 
ROOT
ATOM      1  C1  N4B d   1      -0.063  -0.895   0.660  0.00  0.00    -0.075 A 
ATOM      2  C2  N4B d   1       1.157  -0.345   0.208  0.00  0.00     0.002 A 
ATOM      3  C3  N4B d   1       1.335  -0.077  -1.127  0.00  0.00     0.002 A 
ATOM      4  C4  N4B d   1       0.321  -0.367  -2.027  0.00  0.00    -0.004 A 
ATOM      5  C5  N4B d   1      -0.863  -0.874  -1.579  0.00  0.00     0.002 A 
ATOM      6  C6  N4B d   1      -1.059  -1.145  -0.239  0.00  0.00     0.002 A 
ENDROOT
BRANCH   1   7
ATOM      7  C1' N4B d   1      -0.273  -1.285   2.097  0.00  0.00     0.057 C 
BRANCH   7   8
ATOM      8  C2' N4B d   1      -0.145  -2.800   2.229  0.00  0.00     0.009 C 
BRANCH   8   9
ATOM      9  C3' N4B d   1       1.305  -3.251   2.209  0.00  0.00     0.004 C 
ATOM     10  C4' N4B d   1       1.633  -4.099   1.016  0.00  0.00     0.003 C 
ENDBRANCH   8   9
ENDBRANCH   7   8
ENDBRANCH   1   7
TORSDOF 3
ENDMDL
