MODEL 1
REMARK minimizedAffinity 2.08154845
REMARK minimizedRMSD -1
REMARK  3 active torsions:
REMARK  status: ('A' for Active; 'I' for Inactive)
REMARK    1  A    between atoms: C3'_2  and  C2'_3 
REMARK    2  A    between atoms: C2'_3  and  C1'_4 
REMARK    3  A    between atoms: C1'_4  and  C1_5 
ROOT
ATOM      1  C1  N4B d   1       2.083   0.842   0.489  0.00  0.00    -0.075 A 
ATOM      2  C2  N4B d   1       0.743   0.395   0.499  0.00  0.00     0.002 A 
ATOM      3  C3  N4B d   1       0.380  -0.699  -0.246  0.00  0.00     0.002 A 
ATOM      4  C4  N4B d   1       1.330  -1.350  -1.019  0.00  0.00    -0.004 A 
ATOM      5  C5  N4B d   1       2.627  -0.927  -1.003  0.00  0.00     0.002 A 
ATOM      6  C6  N4B d   1       3.008   0.169  -0.256  0.00  0.00     0.002 A 
ENDROOT
BRANCH   1   7
ATOM      7  C1' N4B d   1       2.511   2.085   1.220  0.00  0.00     0.057 C 
BRANCH   7   8
ATOM      8  C2' N4B d   1       1.537   2.355   2.363  0.00  0.00     0.009 C 
BRANCH   8   9
ATOM      9  C3' N4B d   1       1.505   3.823   2.749  0.00  0.00     0.004 C 
ATOM     10  C4' N4B d   1       1.097   4.041   4.175  0.00  0.00     0.003 C 
ENDBRANCH   8   9
ENDBRANCH   7   8
ENDBRANCH   1   7
TORSDOF 3
ENDMDL
