MODEL 1
REMARK minimizedAffinity 1.34673476
REMARK minimizedRMSD -1
REMARK  3 active torsions:
REMARK  status: ('A' for Active; 'I' for Inactive)
REMARK    1  A    between atoms: C3'_2  and  C2'_3 
REMARK    2  A    between atoms: C2'_3  and  C1'_4 
REMARK    3  A    between atoms: C1'_4  and  C1_5 
ROOT
ATOM      1  C1  N4B d   1      -0.514  -1.626   1.573  0.00  0.00    -0.075 A 
ATOM      2  C2  N4B d   1      -0.005  -0.799   0.547  0.00  0.00     0.002 A 
ATOM      3  C3  N4B d   1      -0.855   0.007  -0.170  0.00  0.00     0.002 A 
ATOM      4  C4  N4B d   1      -2.214  -0.012   0.105  0.00  0.00    -0.004 A 
ATOM      5  C5  N4B d   1      -2.694  -0.795   1.114  0.00  0.00     0.002 A 
ATOM      6  C6  N4B d   1      -1.851  -1.607   1.846  0.00  0.00     0.002 A 
ENDROOT
BRANCH   1   7
ATOM      7  C1' N4B d   1       0.364  -2.587   2.327  0.00  0.00     0.057 C 
BRANCH   7   8
ATOM      8  C2' N4B d   1       1.391  -3.184   1.369  0.00  0.00     0.009 C 
BRANCH   8   9
ATOM      9  C3' N4B d   1       1.853  -4.560   1.817  0.00  0.00     0.004 C 
ATOM     10  C4' N4B d   1       3.217  -4.911   1.301  0.00  0.00     0.003 C 
ENDBRANCH   8   9
ENDBRANCH   7   8
ENDBRANCH   1   7
TORSDOF 3
ENDMDL
