MODEL 1
REMARK minimizedAffinity -4.29781628
REMARK minimizedRMSD -1
REMARK  3 active torsions:
REMARK  status: ('A' for Active; 'I' for Inactive)
REMARK    1  A    between atoms: C3'_2  and  C2'_3 
REMARK    2  A    between atoms: C2'_3  and  C1'_4 
REMARK    3  A    between atoms: C1'_4  and  C1_5 
ROOT
ATOM      1  C1  N4B d   1      -1.100  -0.661   0.389  0.00  0.00    -0.075 A 
ATOM      2  C2  N4B d   1      -0.931  -1.190   1.687  0.00  0.00     0.002 A 
ATOM      3  C3  N4B d   1      -2.024  -1.388   2.495  0.00  0.00     0.002 A 
ATOM      4  C4  N4B d   1      -3.288  -1.050   2.035  0.00  0.00    -0.004 A 
ATOM      5  C5  N4B d   1      -3.445  -0.564   0.770  0.00  0.00     0.002 A 
ATOM      6  C6  N4B d   1      -2.356  -0.362  -0.054  0.00  0.00     0.002 A 
ENDROOT
BRANCH   1   7
ATOM      7  C1' N4B d   1       0.073  -0.345  -0.499  0.00  0.00     0.057 C 
BRANCH   7   8
ATOM      8  C2' N4B d   1       0.603  -1.640  -1.108  0.00  0.00     0.009 C 
BRANCH   8   9
ATOM      9  C3' N4B d   1       1.917  -2.068  -0.477  0.00  0.00     0.004 C 
ATOM     10  C4' N4B d   1       1.734  -3.065   0.628  0.00  0.00     0.003 C 
ENDBRANCH   8   9
ENDBRANCH   7   8
ENDBRANCH   1   7
TORSDOF 3
ENDMDL
