MODEL 1
REMARK minimizedAffinity 2.73308611
REMARK minimizedRMSD -1
REMARK  3 active torsions:
REMARK  status: ('A' for Active; 'I' for Inactive)
REMARK    1  A    between atoms: C3'_2  and  C2'_3 
REMARK    2  A    between atoms: C2'_3  and  C1'_4 
REMARK    3  A    between atoms: C1'_4  and  C1_5 
ROOT
ATOM      1  C1  N4B d   1      -0.359  -1.037   0.985  0.00  0.00    -0.075 A 
ATOM      2  C2  N4B d   1       0.480  -0.962  -0.148  0.00  0.00     0.002 A 
ATOM      3  C3  N4B d   1      -0.037  -0.583  -1.363  0.00  0.00     0.002 A 
ATOM      4  C4  N4B d   1      -1.389  -0.294  -1.472  0.00  0.00    -0.004 A 
ATOM      5  C5  N4B d   1      -2.188  -0.343  -0.367  0.00  0.00     0.002 A 
ATOM      6  C6  N4B d   1      -1.681  -0.718   0.860  0.00  0.00     0.002 A 
ENDROOT
BRANCH   1   7
ATOM      7  C1' N4B d   1       0.143  -1.529   2.315  0.00  0.00     0.057 C 
BRANCH   7   8
ATOM      8  C2' N4B d   1      -0.894  -2.467   2.925  0.00  0.00     0.009 C 
BRANCH   8   9
ATOM      9  C3' N4B d   1      -0.414  -3.908   2.945  0.00  0.00     0.004 C 
ATOM     10  C4' N4B d   1       0.816  -4.122   2.114  0.00  0.00     0.003 C 
ENDBRANCH   8   9
ENDBRANCH   7   8
ENDBRANCH   1   7
TORSDOF 3
ENDMDL
