MODEL 1
REMARK minimizedAffinity -1.93381584
REMARK minimizedRMSD -1
REMARK  0 active torsions:
REMARK  status: ('A' for Active; 'I' for Inactive)
ROOT
ATOM      1  C   UNL d   1      -1.153   0.263   2.190  0.00  0.00     0.124 A 
ATOM      2  C1  UNL d   1      -1.901   0.166   1.024  0.00  0.00     0.062 A 
ATOM      3  C2  UNL d   1      -1.269   0.188  -0.216  0.00  0.00     0.162 A 
ATOM      4  C3  UNL d   1       0.118   0.306  -0.298  0.00  0.00    -0.034 A 
ATOM      5  C4  UNL d   1       0.863   0.404   0.879  0.00  0.00     0.162 A 
ATOM      6  C5  UNL d   1       0.227   0.381   2.116  0.00  0.00     0.062 A 
ATOM      7  F   UNL d   1       0.951   0.475   3.241  0.00  0.00    -0.097 F 
ATOM      8  F1  UNL d   1       2.199   0.519   0.837  0.00  0.00    -0.096 F 
ATOM      9  I   UNL d   1       1.066   0.340  -2.150  0.00  0.00    -0.060 I 
ATOM     10  F2  UNL d   1      -2.017   0.093  -1.326  0.00  0.00    -0.096 F 
ATOM     11  F3  UNL d   1      -3.235   0.052   1.093  0.00  0.00    -0.097 F 
ATOM     12  F4  UNL d   1      -1.763   0.242   3.382  0.00  0.00    -0.092 F 
ENDROOT
TORSDOF 0
ENDMDL
