MODEL 1
REMARK minimizedAffinity -4.82215834
REMARK minimizedRMSD -1
REMARK  0 active torsions:
REMARK  status: ('A' for Active; 'I' for Inactive)
ROOT
ATOM      1  C   UNL d   1      -1.200   0.016   2.791  0.00  0.00     0.124 A 
ATOM      2  C1  UNL d   1       0.166   0.038   2.544  0.00  0.00     0.062 A 
ATOM      3  C2  UNL d   1       0.641   0.091   1.237  0.00  0.00     0.162 A 
ATOM      4  C3  UNL d   1      -0.252   0.123   0.165  0.00  0.00    -0.034 A 
ATOM      5  C4  UNL d   1      -1.624   0.100   0.421  0.00  0.00     0.162 A 
ATOM      6  C5  UNL d   1      -2.093   0.047   1.729  0.00  0.00     0.062 A 
ATOM      7  F   UNL d   1      -3.413   0.026   1.966  0.00  0.00    -0.097 F 
ATOM      8  F1  UNL d   1      -2.509   0.130  -0.586  0.00  0.00    -0.096 F 
ATOM      9  I   UNL d   1       0.454   0.203  -1.791  0.00  0.00    -0.060 I 
ATOM     10  F2  UNL d   1       1.965   0.111   1.028  0.00  0.00    -0.096 F 
ATOM     11  F3  UNL d   1       1.031   0.007   3.568  0.00  0.00    -0.097 F 
ATOM     12  F4  UNL d   1      -1.654  -0.036   4.050  0.00  0.00    -0.092 F 
ENDROOT
TORSDOF 0
ENDMDL
