MODEL 1
REMARK minimizedAffinity -6.01796293
REMARK minimizedRMSD -1
REMARK  0 active torsions:
REMARK  status: ('A' for Active; 'I' for Inactive)
ROOT
ATOM      1  C   UNL d   1      -1.463  -0.003   2.813  0.00  0.00     0.124 A 
ATOM      2  C1  UNL d   1      -0.091  -0.021   2.606  0.00  0.00     0.062 A 
ATOM      3  C2  UNL d   1       0.423   0.033   1.314  0.00  0.00     0.162 A 
ATOM      4  C3  UNL d   1      -0.436   0.106   0.217  0.00  0.00    -0.034 A 
ATOM      5  C4  UNL d   1      -1.815   0.123   0.433  0.00  0.00     0.162 A 
ATOM      6  C5  UNL d   1      -2.324   0.069   1.727  0.00  0.00     0.062 A 
ATOM      7  F   UNL d   1      -3.650   0.087   1.925  0.00  0.00    -0.097 F 
ATOM      8  F1  UNL d   1      -2.670   0.193  -0.598  0.00  0.00    -0.096 F 
ATOM      9  I   UNL d   1       0.328   0.187  -1.717  0.00  0.00    -0.060 I 
ATOM     10  F2  UNL d   1       1.753   0.014   1.143  0.00  0.00    -0.096 F 
ATOM     11  F3  UNL d   1       0.743  -0.091   3.654  0.00  0.00    -0.097 F 
ATOM     12  F4  UNL d   1      -1.955  -0.055   4.058  0.00  0.00    -0.092 F 
ENDROOT
TORSDOF 0
ENDMDL
