MODEL 1
REMARK minimizedAffinity 0.78672266
REMARK minimizedRMSD -1
REMARK  0 active torsions:
REMARK  status: ('A' for Active; 'I' for Inactive)
ROOT
ATOM      1  C   UNL d   1      -0.606  -0.225   2.191  0.00  0.00     0.124 A 
ATOM      2  C1  UNL d   1       0.713   0.153   1.981  0.00  0.00     0.062 A 
ATOM      3  C2  UNL d   1       1.204   0.293   0.687  0.00  0.00     0.162 A 
ATOM      4  C3  UNL d   1       0.375   0.056  -0.410  0.00  0.00    -0.034 A 
ATOM      5  C4  UNL d   1      -0.950  -0.326  -0.191  0.00  0.00     0.162 A 
ATOM      6  C5  UNL d   1      -1.436  -0.464   1.105  0.00  0.00     0.062 A 
ATOM      7  F   UNL d   1      -2.711  -0.830   1.305  0.00  0.00    -0.097 F 
ATOM      8  F1  UNL d   1      -1.775  -0.562  -1.223  0.00  0.00    -0.096 F 
ATOM      9  I   UNL d   1       1.105   0.264  -2.348  0.00  0.00    -0.060 I 
ATOM     10  F2  UNL d   1       2.482   0.660   0.514  0.00  0.00    -0.096 F 
ATOM     11  F3  UNL d   1       1.517   0.384   3.029  0.00  0.00    -0.097 F 
ATOM     12  F4  UNL d   1      -1.075  -0.360   3.438  0.00  0.00    -0.092 F 
ENDROOT
TORSDOF 0
ENDMDL
