MODEL 1
REMARK minimizedAffinity -4.21744633
REMARK minimizedRMSD -1
REMARK  0 active torsions:
REMARK  status: ('A' for Active; 'I' for Inactive)
ROOT
ATOM      1  C   UNL d   1      -0.981  -0.313   2.922  0.00  0.00     0.124 A 
ATOM      2  C1  UNL d   1       0.305   0.014   2.514  0.00  0.00     0.062 A 
ATOM      3  C2  UNL d   1       0.603   0.125   1.159  0.00  0.00     0.162 A 
ATOM      4  C3  UNL d   1      -0.388  -0.089   0.201  0.00  0.00    -0.034 A 
ATOM      5  C4  UNL d   1      -1.679  -0.418   0.618  0.00  0.00     0.162 A 
ATOM      6  C5  UNL d   1      -1.972  -0.528   1.974  0.00  0.00     0.062 A 
ATOM      7  F   UNL d   1      -3.215  -0.844   2.366  0.00  0.00    -0.097 F 
ATOM      8  F1  UNL d   1      -2.656  -0.630  -0.276  0.00  0.00    -0.096 F 
ATOM      9  I   UNL d   1       0.053   0.078  -1.826  0.00  0.00    -0.060 I 
ATOM     10  F2  UNL d   1       1.854   0.442   0.794  0.00  0.00    -0.096 F 
ATOM     11  F3  UNL d   1       1.264   0.221   3.428  0.00  0.00    -0.097 F 
ATOM     12  F4  UNL d   1      -1.265  -0.421   4.226  0.00  0.00    -0.092 F 
ENDROOT
TORSDOF 0
ENDMDL
