MODEL 1
REMARK minimizedAffinity -4.52656078
REMARK minimizedRMSD -1
REMARK  0 active torsions:
REMARK  status: ('A' for Active; 'I' for Inactive)
ROOT
ATOM      1  C   UNL d   1      -1.482  -0.356   2.600  0.00  0.00     0.124 A 
ATOM      2  C1  UNL d   1      -2.352   0.078   1.610  0.00  0.00     0.062 A 
ATOM      3  C2  UNL d   1      -1.874   0.365   0.335  0.00  0.00     0.162 A 
ATOM      4  C3  UNL d   1      -0.518   0.219   0.042  0.00  0.00    -0.034 A 
ATOM      5  C4  UNL d   1       0.351  -0.217   1.043  0.00  0.00     0.162 A 
ATOM      6  C5  UNL d   1      -0.131  -0.503   2.316  0.00  0.00     0.062 A 
ATOM      7  F   UNL d   1       0.711  -0.921   3.272  0.00  0.00    -0.097 F 
ATOM      8  F1  UNL d   1       1.661  -0.368   0.796  0.00  0.00    -0.096 F 
ATOM      9  I   UNL d   1       0.200   0.647  -1.864  0.00  0.00    -0.060 I 
ATOM     10  F2  UNL d   1      -2.738   0.782  -0.603  0.00  0.00    -0.096 F 
ATOM     11  F3  UNL d   1      -3.657   0.221   1.882  0.00  0.00    -0.097 F 
ATOM     12  F4  UNL d   1      -1.944  -0.631   3.827  0.00  0.00    -0.092 F 
ENDROOT
TORSDOF 0
ENDMDL
