MODEL 1
REMARK minimizedAffinity -2.49430633
REMARK minimizedRMSD -1
REMARK  0 active torsions:
REMARK  status: ('A' for Active; 'I' for Inactive)
ROOT
ATOM      1  C   UNL d   1      -1.425  -0.252   2.899  0.00  0.00     0.124 A 
ATOM      2  C1  UNL d   1      -0.079  -0.205   2.561  0.00  0.00     0.062 A 
ATOM      3  C2  UNL d   1       0.304  -0.029   1.234  0.00  0.00     0.162 A 
ATOM      4  C3  UNL d   1      -0.661   0.103   0.235  0.00  0.00    -0.034 A 
ATOM      5  C4  UNL d   1      -2.012   0.054   0.583  0.00  0.00     0.162 A 
ATOM      6  C5  UNL d   1      -2.389  -0.122   1.910  0.00  0.00     0.062 A 
ATOM      7  F   UNL d   1      -3.690  -0.167   2.234  0.00  0.00    -0.097 F 
ATOM      8  F1  UNL d   1      -2.965   0.177  -0.353  0.00  0.00    -0.096 F 
ATOM      9  I   UNL d   1      -0.092   0.367  -1.750  0.00  0.00    -0.060 I 
ATOM     10  F2  UNL d   1       1.611   0.013   0.937  0.00  0.00    -0.096 F 
ATOM     11  F3  UNL d   1       0.855  -0.331   3.515  0.00  0.00    -0.097 F 
ATOM     12  F4  UNL d   1      -1.790  -0.422   4.176  0.00  0.00    -0.092 F 
ENDROOT
TORSDOF 0
ENDMDL
