MODEL 1
REMARK minimizedAffinity -5.72562313
REMARK minimizedRMSD -1
REMARK  0 active torsions:
REMARK  status: ('A' for Active; 'I' for Inactive)
ROOT
ATOM      1  C   UNL d   1      -1.580  -0.034   2.447  0.00  0.00     0.124 A 
ATOM      2  C1  UNL d   1      -2.237   0.282   1.266  0.00  0.00     0.062 A 
ATOM      3  C2  UNL d   1      -1.544   0.286   0.059  0.00  0.00     0.162 A 
ATOM      4  C3  UNL d   1      -0.186  -0.030   0.027  0.00  0.00    -0.034 A 
ATOM      5  C4  UNL d   1       0.468  -0.346   1.219  0.00  0.00     0.162 A 
ATOM      6  C5  UNL d   1      -0.228  -0.348   2.423  0.00  0.00     0.062 A 
ATOM      7  F   UNL d   1       0.408  -0.654   3.563  0.00  0.00    -0.097 F 
ATOM      8  F1  UNL d   1       1.774  -0.654   1.223  0.00  0.00    -0.096 F 
ATOM      9  I   UNL d   1       0.854  -0.026  -1.776  0.00  0.00    -0.060 I 
ATOM     10  F2  UNL d   1      -2.204   0.595  -1.067  0.00  0.00    -0.096 F 
ATOM     11  F3  UNL d   1      -3.542   0.587   1.288  0.00  0.00    -0.097 F 
ATOM     12  F4  UNL d   1      -2.249  -0.036   3.608  0.00  0.00    -0.092 F 
ENDROOT
TORSDOF 0
ENDMDL
