MODEL 1
REMARK minimizedAffinity 4.56417322
REMARK minimizedRMSD -1
REMARK  0 active torsions:
REMARK  status: ('A' for Active; 'I' for Inactive)
ROOT
ATOM      1  C   UNL d   1       0.885  -1.008  -3.083  0.00  0.00     0.124 A 
ATOM      2  C1  UNL d   1      -0.215  -1.483  -2.382  0.00  0.00     0.062 A 
ATOM      3  C2  UNL d   1      -0.459  -1.046  -1.083  0.00  0.00     0.162 A 
ATOM      4  C3  UNL d   1       0.396  -0.126  -0.477  0.00  0.00    -0.034 A 
ATOM      5  C4  UNL d   1       1.500   0.347  -1.189  0.00  0.00     0.162 A 
ATOM      6  C5  UNL d   1       1.741  -0.093  -2.486  0.00  0.00     0.062 A 
ATOM      7  F   UNL d   1       2.803   0.368  -3.162  0.00  0.00    -0.097 F 
ATOM      8  F1  UNL d   1       2.343   1.233  -0.636  0.00  0.00    -0.096 F 
ATOM      9  I   UNL d   1       0.034   0.531   1.464  0.00  0.00    -0.060 I 
ATOM     10  F2  UNL d   1      -1.529  -1.523  -0.429  0.00  0.00    -0.096 F 
ATOM     11  F3  UNL d   1      -1.043  -2.368  -2.956  0.00  0.00    -0.097 F 
ATOM     12  F4  UNL d   1       1.118  -1.431  -4.332  0.00  0.00    -0.092 F 
ENDROOT
TORSDOF 0
ENDMDL
