MODEL 1
REMARK minimizedAffinity -1.88623333
REMARK minimizedRMSD -1
REMARK  0 active torsions:
REMARK  status: ('A' for Active; 'I' for Inactive)
ROOT
ATOM      1  C   UNL d   1      -1.316  -0.567   2.285  0.00  0.00     0.124 A 
ATOM      2  C1  UNL d   1      -2.088  -0.381   1.146  0.00  0.00     0.062 A 
ATOM      3  C2  UNL d   1      -1.478  -0.132  -0.080  0.00  0.00     0.162 A 
ATOM      4  C3  UNL d   1      -0.088  -0.068  -0.174  0.00  0.00    -0.034 A 
ATOM      5  C4  UNL d   1       0.682  -0.254   0.976  0.00  0.00     0.162 A 
ATOM      6  C5  UNL d   1       0.068  -0.503   2.199  0.00  0.00     0.062 A 
ATOM      7  F   UNL d   1       0.815  -0.681   3.298  0.00  0.00    -0.097 F 
ATOM      8  F1  UNL d   1       2.021  -0.199   0.921  0.00  0.00    -0.096 F 
ATOM      9  I   UNL d   1       0.828   0.304  -2.006  0.00  0.00    -0.060 I 
ATOM     10  F2  UNL d   1      -2.248   0.043  -1.164  0.00  0.00    -0.096 F 
ATOM     11  F3  UNL d   1      -3.425  -0.442   1.227  0.00  0.00    -0.097 F 
ATOM     12  F4  UNL d   1      -1.905  -0.805   3.463  0.00  0.00    -0.092 F 
ENDROOT
TORSDOF 0
ENDMDL
