MODEL 1
REMARK minimizedAffinity -4.46847105
REMARK minimizedRMSD -1
REMARK  0 active torsions:
REMARK  status: ('A' for Active; 'I' for Inactive)
ROOT
ATOM      1  C   UNL d   1      -1.674  -0.220   2.657  0.00  0.00     0.124 A 
ATOM      2  C1  UNL d   1      -2.568  -0.060   1.608  0.00  0.00     0.062 A 
ATOM      3  C2  UNL d   1      -2.100   0.154   0.315  0.00  0.00     0.162 A 
ATOM      4  C3  UNL d   1      -0.729   0.210   0.063  0.00  0.00    -0.034 A 
ATOM      5  C4  UNL d   1       0.165   0.050   1.124  0.00  0.00     0.162 A 
ATOM      6  C5  UNL d   1      -0.309  -0.165   2.414  0.00  0.00     0.062 A 
ATOM      7  F   UNL d   1       0.557  -0.318   3.426  0.00  0.00    -0.097 F 
ATOM      8  F1  UNL d   1       1.489   0.098   0.917  0.00  0.00    -0.096 F 
ATOM      9  I   UNL d   1      -0.025   0.531  -1.869  0.00  0.00    -0.060 I 
ATOM     10  F2  UNL d   1      -2.987   0.305  -0.679  0.00  0.00    -0.096 F 
ATOM     11  F3  UNL d   1      -3.888  -0.112   1.840  0.00  0.00    -0.097 F 
ATOM     12  F4  UNL d   1      -2.127  -0.425   3.900  0.00  0.00    -0.092 F 
ENDROOT
TORSDOF 0
ENDMDL
