MODEL 1
REMARK minimizedAffinity 3.65648174
REMARK minimizedRMSD -1
REMARK  0 active torsions:
REMARK  status: ('A' for Active; 'I' for Inactive)
ROOT
ATOM      1  C   UNL d   1      -1.245   0.492   2.161  0.00  0.00     0.124 A 
ATOM      2  C1  UNL d   1       0.104   0.172   2.088  0.00  0.00     0.062 A 
ATOM      3  C2  UNL d   1       0.711  -0.022   0.850  0.00  0.00     0.162 A 
ATOM      4  C3  UNL d   1      -0.030   0.105  -0.325  0.00  0.00    -0.034 A 
ATOM      5  C4  UNL d   1      -1.386   0.427  -0.243  0.00  0.00     0.162 A 
ATOM      6  C5  UNL d   1      -1.988   0.619   0.996  0.00  0.00     0.062 A 
ATOM      7  F   UNL d   1      -3.291   0.928   1.065  0.00  0.00    -0.097 F 
ATOM      8  F1  UNL d   1      -2.127   0.556  -1.353  0.00  0.00    -0.096 F 
ATOM      9  I   UNL d   1       0.875  -0.183  -2.177  0.00  0.00    -0.060 I 
ATOM     10  F2  UNL d   1       2.016  -0.330   0.809  0.00  0.00    -0.096 F 
ATOM     11  F3  UNL d   1       0.824   0.048   3.212  0.00  0.00    -0.097 F 
ATOM     12  F4  UNL d   1      -1.826   0.677   3.353  0.00  0.00    -0.092 F 
ENDROOT
TORSDOF 0
ENDMDL
