MODEL 1
REMARK minimizedAffinity -4.54840279
REMARK minimizedRMSD -1
REMARK  0 active torsions:
REMARK  status: ('A' for Active; 'I' for Inactive)
ROOT
ATOM      1  C   UNL d   1      -1.283  -0.603   1.585  0.00  0.00     0.124 A 
ATOM      2  C1  UNL d   1      -1.735   0.088   0.469  0.00  0.00     0.062 A 
ATOM      3  C2  UNL d   1      -0.985   0.092  -0.703  0.00  0.00     0.162 A 
ATOM      4  C3  UNL d   1       0.225  -0.599  -0.767  0.00  0.00    -0.034 A 
ATOM      5  C4  UNL d   1       0.674  -1.291   0.360  0.00  0.00     0.162 A 
ATOM      6  C5  UNL d   1      -0.079  -1.292   1.529  0.00  0.00     0.062 A 
ATOM      7  F   UNL d   1       0.359  -1.960   2.606  0.00  0.00    -0.097 F 
ATOM      8  F1  UNL d   1       1.833  -1.966   0.333  0.00  0.00    -0.096 F 
ATOM      9  I   UNL d   1       1.350  -0.596  -2.518  0.00  0.00    -0.060 I 
ATOM     10  F2  UNL d   1      -1.446   0.768  -1.766  0.00  0.00    -0.096 F 
ATOM     11  F3  UNL d   1      -2.897   0.755   0.521  0.00  0.00    -0.097 F 
ATOM     12  F4  UNL d   1      -2.006  -0.604   2.712  0.00  0.00    -0.092 F 
ENDROOT
TORSDOF 0
ENDMDL
