MODEL 1
REMARK minimizedAffinity 2.40711284
REMARK minimizedRMSD -1
REMARK  0 active torsions:
REMARK  status: ('A' for Active; 'I' for Inactive)
ROOT
ATOM      1  C   UNL d   1      -0.204   0.569   2.193  0.00  0.00     0.124 A 
ATOM      2  C1  UNL d   1      -1.097   0.738   1.144  0.00  0.00     0.062 A 
ATOM      3  C2  UNL d   1      -0.764   0.303  -0.135  0.00  0.00     0.162 A 
ATOM      4  C3  UNL d   1       0.468  -0.306  -0.373  0.00  0.00    -0.034 A 
ATOM      5  C4  UNL d   1       1.361  -0.472   0.687  0.00  0.00     0.162 A 
ATOM      6  C5  UNL d   1       1.024  -0.036   1.964  0.00  0.00     0.062 A 
ATOM      7  F   UNL d   1       1.888  -0.200   2.976  0.00  0.00    -0.097 F 
ATOM      8  F1  UNL d   1       2.554  -1.054   0.493  0.00  0.00    -0.096 F 
ATOM      9  I   UNL d   1       0.970  -0.958  -2.285  0.00  0.00    -0.060 I 
ATOM     10  F2  UNL d   1      -1.646   0.479  -1.130  0.00  0.00    -0.096 F 
ATOM     11  F3  UNL d   1      -2.283   1.323   1.363  0.00  0.00    -0.097 F 
ATOM     12  F4  UNL d   1      -0.527   0.990   3.423  0.00  0.00    -0.092 F 
ENDROOT
TORSDOF 0
ENDMDL
