MODEL 1
REMARK minimizedAffinity -1.29512966
REMARK minimizedRMSD -1
REMARK  0 active torsions:
REMARK  status: ('A' for Active; 'I' for Inactive)
ROOT
ATOM      1  C   UNL d   1       0.009  -0.982  -3.411  0.00  0.00     0.124 A 
ATOM      2  C1  UNL d   1      -0.920  -0.151  -2.800  0.00  0.00     0.062 A 
ATOM      3  C2  UNL d   1      -0.786   0.179  -1.455  0.00  0.00     0.162 A 
ATOM      4  C3  UNL d   1       0.282  -0.321  -0.711  0.00  0.00    -0.034 A 
ATOM      5  C4  UNL d   1       1.212  -1.157  -1.332  0.00  0.00     0.162 A 
ATOM      6  C5  UNL d   1       1.074  -1.484  -2.677  0.00  0.00     0.062 A 
ATOM      7  F   UNL d   1       1.972  -2.287  -3.265  0.00  0.00    -0.097 F 
ATOM      8  F1  UNL d   1       2.251  -1.655  -0.645  0.00  0.00    -0.096 F 
ATOM      9  I   UNL d   1       0.486   0.170   1.302  0.00  0.00    -0.060 I 
ATOM     10  F2  UNL d   1      -1.699   0.983  -0.891  0.00  0.00    -0.096 F 
ATOM     11  F3  UNL d   1      -1.951   0.334  -3.508  0.00  0.00    -0.097 F 
ATOM     12  F4  UNL d   1      -0.123  -1.299  -4.706  0.00  0.00    -0.092 F 
ENDROOT
TORSDOF 0
ENDMDL
