MODEL 1
REMARK minimizedAffinity -2.69363737
REMARK minimizedRMSD -1
REMARK  0 active torsions:
REMARK  status: ('A' for Active; 'I' for Inactive)
ROOT
ATOM      1  C   UNL d   1       0.551  -0.106   1.651  0.00  0.00     0.124 A 
ATOM      2  C1  UNL d   1      -0.325  -0.495   2.655  0.00  0.00     0.062 A 
ATOM      3  C2  UNL d   1      -1.697  -0.334   2.488  0.00  0.00     0.162 A 
ATOM      4  C3  UNL d   1      -2.203   0.219   1.311  0.00  0.00    -0.034 A 
ATOM      5  C4  UNL d   1      -1.316   0.609   0.306  0.00  0.00     0.162 A 
ATOM      6  C5  UNL d   1       0.055   0.446   0.478  0.00  0.00     0.062 A 
ATOM      7  F   UNL d   1       0.900   0.823  -0.493  0.00  0.00    -0.097 F 
ATOM      8  F1  UNL d   1      -1.768   1.144  -0.838  0.00  0.00    -0.096 F 
ATOM      9  I   UNL d   1      -4.254   0.462   1.057  0.00  0.00    -0.060 I 
ATOM     10  F2  UNL d   1      -2.520  -0.719   3.474  0.00  0.00    -0.096 F 
ATOM     11  F3  UNL d   1       0.152  -1.027   3.789  0.00  0.00    -0.097 F 
ATOM     12  F4  UNL d   1       1.871  -0.261   1.815  0.00  0.00    -0.092 F 
ENDROOT
TORSDOF 0
ENDMDL
