MODEL 1
REMARK minimizedAffinity -4.13302231
REMARK minimizedRMSD -1
REMARK  0 active torsions:
REMARK  status: ('A' for Active; 'I' for Inactive)
ROOT
ATOM      1  C   UNL d   1      -1.528  -0.164   2.678  0.00  0.00     0.124 A 
ATOM      2  C1  UNL d   1      -0.171  -0.165   2.385  0.00  0.00     0.062 A 
ATOM      3  C2  UNL d   1       0.261  -0.032   1.069  0.00  0.00     0.162 A 
ATOM      4  C3  UNL d   1      -0.665   0.106   0.035  0.00  0.00    -0.034 A 
ATOM      5  C4  UNL d   1      -2.028   0.105   0.337  0.00  0.00     0.162 A 
ATOM      6  C5  UNL d   1      -2.455  -0.029   1.654  0.00  0.00     0.062 A 
ATOM      7  F   UNL d   1      -3.766  -0.028   1.935  0.00  0.00    -0.097 F 
ATOM      8  F1  UNL d   1      -2.945   0.234  -0.633  0.00  0.00    -0.096 F 
ATOM      9  I   UNL d   1      -0.023   0.306  -1.935  0.00  0.00    -0.060 I 
ATOM     10  F2  UNL d   1       1.578  -0.036   0.815  0.00  0.00    -0.096 F 
ATOM     11  F3  UNL d   1       0.726  -0.297   3.373  0.00  0.00    -0.097 F 
ATOM     12  F4  UNL d   1      -1.941  -0.294   3.945  0.00  0.00    -0.092 F 
ENDROOT
TORSDOF 0
ENDMDL
