MODEL 1
REMARK minimizedAffinity -0.756056786
REMARK minimizedRMSD -1
REMARK  0 active torsions:
REMARK  status: ('A' for Active; 'I' for Inactive)
ROOT
ATOM      1  C   UNL d   1      -1.948  -0.044   1.240  0.00  0.00     0.124 A 
ATOM      2  C1  UNL d   1      -2.206   0.706   0.101  0.00  0.00     0.062 A 
ATOM      3  C2  UNL d   1      -1.334   0.657  -0.982  0.00  0.00     0.162 A 
ATOM      4  C3  UNL d   1      -0.195  -0.147  -0.933  0.00  0.00    -0.034 A 
ATOM      5  C4  UNL d   1       0.059  -0.898   0.216  0.00  0.00     0.162 A 
ATOM      6  C5  UNL d   1      -0.816  -0.845   1.296  0.00  0.00     0.062 A 
ATOM      7  F   UNL d   1      -0.565  -1.571   2.396  0.00  0.00    -0.097 F 
ATOM      8  F1  UNL d   1       1.145  -1.682   0.297  0.00  0.00    -0.096 F 
ATOM      9  I   UNL d   1       1.112  -0.223  -2.551  0.00  0.00    -0.060 I 
ATOM     10  F2  UNL d   1      -1.608   1.393  -2.070  0.00  0.00    -0.096 F 
ATOM     11  F3  UNL d   1      -3.298   1.482   0.045  0.00  0.00    -0.097 F 
ATOM     12  F4  UNL d   1      -2.788   0.006   2.281  0.00  0.00    -0.092 F 
ENDROOT
TORSDOF 0
ENDMDL
