MODEL 1
REMARK minimizedAffinity -2.94160748
REMARK minimizedRMSD -1
REMARK  0 active torsions:
REMARK  status: ('A' for Active; 'I' for Inactive)
ROOT
ATOM      1  C   UNL d   1      -0.554  -0.540   1.971  0.00  0.00     0.077 C 
ATOM      2  C1  UNL d   1      -0.249  -0.434   0.506  0.00  0.00    -0.074 A 
ATOM      3  C2  UNL d   1       0.313   0.729  -0.029  0.00  0.00    -0.005 A 
ATOM      4  C3  UNL d   1       0.600   0.809  -1.391  0.00  0.00     0.006 A 
ATOM      5  C4  UNL d   1       0.328  -0.271  -2.231  0.00  0.00    -0.005 A 
ATOM      6  C5  UNL d   1      -0.233  -1.443  -1.714  0.00  0.00    -0.074 A 
ATOM      7  C6  UNL d   1      -0.523  -2.617  -2.602  0.00  0.00     0.077 C 
ATOM      8  C7  UNL d   1      -0.512  -1.518  -0.343  0.00  0.00    -0.001 A 
ENDROOT
TORSDOF 0
ENDMDL
