MODEL 1
REMARK minimizedAffinity 2.60405397
REMARK minimizedRMSD -1
REMARK  0 active torsions:
REMARK  status: ('A' for Active; 'I' for Inactive)
ROOT
ATOM      1  C   UNL d   1       0.447  -0.028  -2.702  0.00  0.00     0.077 C 
ATOM      2  C1  UNL d   1      -0.134  -0.043  -1.320  0.00  0.00    -0.074 A 
ATOM      3  C2  UNL d   1      -0.198   1.126  -0.554  0.00  0.00    -0.005 A 
ATOM      4  C3  UNL d   1      -0.750   1.098   0.726  0.00  0.00     0.006 A 
ATOM      5  C4  UNL d   1      -1.242  -0.096   1.254  0.00  0.00    -0.005 A 
ATOM      6  C5  UNL d   1      -1.187  -1.275   0.503  0.00  0.00    -0.074 A 
ATOM      7  C6  UNL d   1      -1.720  -2.565   1.052  0.00  0.00     0.077 C 
ATOM      8  C7  UNL d   1      -0.637  -1.238  -0.785  0.00  0.00    -0.001 A 
ENDROOT
TORSDOF 0
ENDMDL
