MODEL 1
REMARK minimizedAffinity -2.26762319
REMARK minimizedRMSD -1
REMARK  0 active torsions:
REMARK  status: ('A' for Active; 'I' for Inactive)
ROOT
ATOM      1  C   UNL d   1      -2.171   0.409   1.281  0.00  0.00     0.077 C 
ATOM      2  C1  UNL d   1      -0.837   0.020   0.717  0.00  0.00    -0.074 A 
ATOM      3  C2  UNL d   1       0.194  -0.424   1.551  0.00  0.00    -0.005 A 
ATOM      4  C3  UNL d   1       1.427  -0.791   1.011  0.00  0.00     0.006 A 
ATOM      5  C4  UNL d   1       1.641  -0.717  -0.366  0.00  0.00    -0.005 A 
ATOM      6  C5  UNL d   1       0.621  -0.275  -1.215  0.00  0.00    -0.074 A 
ATOM      7  C6  UNL d   1       0.831  -0.199  -2.699  0.00  0.00     0.077 C 
ATOM      8  C7  UNL d   1      -0.617   0.085  -0.666  0.00  0.00    -0.001 A 
ENDROOT
TORSDOF 0
ENDMDL
