MODEL 1
REMARK minimizedAffinity -4.97689629
REMARK minimizedRMSD -1
REMARK  0 active torsions:
REMARK  status: ('A' for Active; 'I' for Inactive)
ROOT
ATOM      1  C   UNL d   1       0.368   2.549   0.156  0.00  0.00     0.077 C 
ATOM      2  C1  UNL d   1       0.150   1.184  -0.426  0.00  0.00    -0.074 A 
ATOM      3  C2  UNL d   1       0.435   0.921  -1.770  0.00  0.00    -0.005 A 
ATOM      4  C3  UNL d   1       0.236  -0.355  -2.295  0.00  0.00     0.006 A 
ATOM      5  C4  UNL d   1      -0.249  -1.381  -1.483  0.00  0.00    -0.005 A 
ATOM      6  C5  UNL d   1      -0.539  -1.138  -0.137  0.00  0.00    -0.074 A 
ATOM      7  C6  UNL d   1      -1.052  -2.231   0.752  0.00  0.00     0.077 C 
ATOM      8  C7  UNL d   1      -0.330   0.146   0.385  0.00  0.00    -0.001 A 
ENDROOT
TORSDOF 0
ENDMDL
