MODEL 1
REMARK minimizedAffinity -1.28278828
REMARK minimizedRMSD -1
REMARK  0 active torsions:
REMARK  status: ('A' for Active; 'I' for Inactive)
ROOT
ATOM      1  C   UNL d   1       0.519  -0.479  -3.090  0.00  0.00     0.077 C 
ATOM      2  C1  UNL d   1       0.408   0.058  -1.694  0.00  0.00    -0.074 A 
ATOM      3  C2  UNL d   1       1.457   0.782  -1.117  0.00  0.00    -0.005 A 
ATOM      4  C3  UNL d   1       1.336   1.284   0.179  0.00  0.00     0.006 A 
ATOM      5  C4  UNL d   1       0.168   1.066   0.910  0.00  0.00    -0.005 A 
ATOM      6  C5  UNL d   1      -0.891   0.345   0.350  0.00  0.00    -0.074 A 
ATOM      7  C6  UNL d   1      -2.157   0.110   1.119  0.00  0.00     0.077 C 
ATOM      8  C7  UNL d   1      -0.765  -0.150  -0.955  0.00  0.00    -0.001 A 
ENDROOT
TORSDOF 0
ENDMDL
