MODEL 1
REMARK minimizedAffinity 4.14429903
REMARK minimizedRMSD -1
REMARK  0 active torsions:
REMARK  status: ('A' for Active; 'I' for Inactive)
ROOT
ATOM      1  C   UNL d   1      -0.222   0.023  -1.009  0.00  0.00     0.077 C 
ATOM      2  C1  UNL d   1      -0.773  -0.114   0.379  0.00  0.00    -0.074 A 
ATOM      3  C2  UNL d   1      -0.049  -0.771   1.378  0.00  0.00    -0.005 A 
ATOM      4  C3  UNL d   1      -0.570  -0.882   2.667  0.00  0.00     0.006 A 
ATOM      5  C4  UNL d   1      -1.819  -0.338   2.969  0.00  0.00    -0.005 A 
ATOM      6  C5  UNL d   1      -2.558   0.323   1.983  0.00  0.00    -0.074 A 
ATOM      7  C6  UNL d   1      -3.897   0.922   2.293  0.00  0.00     0.077 C 
ATOM      8  C7  UNL d   1      -2.024   0.437   0.692  0.00  0.00    -0.001 A 
ENDROOT
TORSDOF 0
ENDMDL
