MODEL 1
REMARK minimizedAffinity -3.18632007
REMARK minimizedRMSD -1
REMARK  0 active torsions:
REMARK  status: ('A' for Active; 'I' for Inactive)
ROOT
ATOM      1  C   UNL d   1      -0.213  -1.212   1.232  0.00  0.00     0.077 C 
ATOM      2  C1  UNL d   1       0.060  -0.069   0.300  0.00  0.00    -0.074 A 
ATOM      3  C2  UNL d   1       0.154  -0.274  -1.080  0.00  0.00    -0.005 A 
ATOM      4  C3  UNL d   1       0.399   0.801  -1.936  0.00  0.00     0.006 A 
ATOM      5  C4  UNL d   1       0.552   2.088  -1.420  0.00  0.00    -0.005 A 
ATOM      6  C5  UNL d   1       0.460   2.312  -0.043  0.00  0.00    -0.074 A 
ATOM      7  C6  UNL d   1       0.612   3.691   0.527  0.00  0.00     0.077 C 
ATOM      8  C7  UNL d   1       0.207   1.228   0.809  0.00  0.00    -0.001 A 
ENDROOT
TORSDOF 0
ENDMDL
