MODEL 1
REMARK minimizedAffinity 0.310349494
REMARK minimizedRMSD -1
REMARK  0 active torsions:
REMARK  status: ('A' for Active; 'I' for Inactive)
ROOT
ATOM      1  C   UNL d   1       1.344   0.130  -1.878  0.00  0.00     0.077 C 
ATOM      2  C1  UNL d   1       0.331   0.367  -0.797  0.00  0.00    -0.074 A 
ATOM      3  C2  UNL d   1      -0.175   1.648  -0.554  0.00  0.00    -0.005 A 
ATOM      4  C3  UNL d   1      -1.123   1.851   0.449  0.00  0.00     0.006 A 
ATOM      5  C4  UNL d   1      -1.574   0.777   1.217  0.00  0.00    -0.005 A 
ATOM      6  C5  UNL d   1      -1.080  -0.511   0.988  0.00  0.00    -0.074 A 
ATOM      7  C6  UNL d   1      -1.561  -1.678   1.799  0.00  0.00     0.077 C 
ATOM      8  C7  UNL d   1      -0.132  -0.708  -0.025  0.00  0.00    -0.001 A 
ENDROOT
TORSDOF 0
ENDMDL
