MODEL 1
REMARK minimizedAffinity -2.64466429
REMARK minimizedRMSD -1
REMARK  0 active torsions:
REMARK  status: ('A' for Active; 'I' for Inactive)
ROOT
ATOM      1  C   UNL d   1      -0.802  -2.803  -2.255  0.00  0.00     0.077 C 
ATOM      2  C1  UNL d   1      -0.807  -1.991  -0.994  0.00  0.00    -0.074 A 
ATOM      3  C2  UNL d   1      -1.269  -2.534   0.209  0.00  0.00    -0.005 A 
ATOM      4  C3  UNL d   1      -1.258  -1.770   1.376  0.00  0.00     0.006 A 
ATOM      5  C4  UNL d   1      -0.786  -0.457   1.351  0.00  0.00    -0.005 A 
ATOM      6  C5  UNL d   1      -0.319   0.103   0.158  0.00  0.00    -0.074 A 
ATOM      7  C6  UNL d   1       0.201   1.509   0.117  0.00  0.00     0.077 C 
ATOM      8  C7  UNL d   1      -0.326  -0.674  -1.009  0.00  0.00    -0.001 A 
ENDROOT
TORSDOF 0
ENDMDL
