MODEL 1
REMARK minimizedAffinity 0.208345085
REMARK minimizedRMSD -1
REMARK  0 active torsions:
REMARK  status: ('A' for Active; 'I' for Inactive)
ROOT
ATOM      1  C   UNL d   1       0.091  -1.373   1.961  0.00  0.00     0.077 C 
ATOM      2  C1  UNL d   1      -0.037  -0.099   1.180  0.00  0.00    -0.074 A 
ATOM      3  C2  UNL d   1      -1.242   0.247   0.561  0.00  0.00    -0.005 A 
ATOM      4  C3  UNL d   1      -1.349   1.439  -0.154  0.00  0.00     0.006 A 
ATOM      5  C4  UNL d   1      -0.253   2.297  -0.257  0.00  0.00    -0.005 A 
ATOM      6  C5  UNL d   1       0.960   1.969   0.356  0.00  0.00    -0.074 A 
ATOM      7  C6  UNL d   1       2.144   2.884   0.263  0.00  0.00     0.077 C 
ATOM      8  C7  UNL d   1       1.057   0.772   1.079  0.00  0.00    -0.001 A 
ENDROOT
TORSDOF 0
ENDMDL
