MODEL 1
REMARK minimizedAffinity -4.02865887
REMARK minimizedRMSD -1
REMARK  0 active torsions:
REMARK  status: ('A' for Active; 'I' for Inactive)
ROOT
ATOM      1  C   UNL d   1       0.237   3.624   0.141  0.00  0.00     0.077 C 
ATOM      2  C1  UNL d   1       0.001   2.143   0.112  0.00  0.00    -0.074 A 
ATOM      3  C2  UNL d   1       0.361   1.379  -1.003  0.00  0.00    -0.005 A 
ATOM      4  C3  UNL d   1       0.145   0.001  -1.011  0.00  0.00     0.006 A 
ATOM      5  C4  UNL d   1      -0.433  -0.626   0.093  0.00  0.00    -0.005 A 
ATOM      6  C5  UNL d   1      -0.799   0.121   1.217  0.00  0.00    -0.074 A 
ATOM      7  C6  UNL d   1      -1.412  -0.539   2.417  0.00  0.00     0.077 C 
ATOM      8  C7  UNL d   1      -0.571   1.504   1.221  0.00  0.00    -0.001 A 
ENDROOT
TORSDOF 0
ENDMDL
