MODEL 1
REMARK minimizedAffinity -2.67478108
REMARK minimizedRMSD -1
REMARK  0 active torsions:
REMARK  status: ('A' for Active; 'I' for Inactive)
ROOT
ATOM      1  C   UNL d   1       1.165   3.054   0.702  0.00  0.00     0.077 C 
ATOM      2  C1  UNL d   1       0.511   1.741   0.388  0.00  0.00    -0.074 A 
ATOM      3  C2  UNL d   1       0.308   1.338  -0.936  0.00  0.00    -0.005 A 
ATOM      4  C3  UNL d   1      -0.293   0.110  -1.212  0.00  0.00     0.006 A 
ATOM      5  C4  UNL d   1      -0.697  -0.725  -0.170  0.00  0.00    -0.005 A 
ATOM      6  C5  UNL d   1      -0.501  -0.339   1.160  0.00  0.00    -0.074 A 
ATOM      7  C6  UNL d   1      -0.920  -1.230   2.291  0.00  0.00     0.077 C 
ATOM      8  C7  UNL d   1       0.110   0.893   1.429  0.00  0.00    -0.001 A 
ENDROOT
TORSDOF 0
ENDMDL
