MODEL 1
REMARK minimizedAffinity -5.27124834
REMARK minimizedRMSD -1
REMARK  0 active torsions:
REMARK  status: ('A' for Active; 'I' for Inactive)
ROOT
ATOM      1  C   UNL d   1      -0.080   1.398  -0.341  0.00  0.00     0.077 C 
ATOM      2  C1  UNL d   1      -0.352  -0.076  -0.363  0.00  0.00    -0.074 A 
ATOM      3  C2  UNL d   1      -0.914  -0.720   0.745  0.00  0.00    -0.005 A 
ATOM      4  C3  UNL d   1      -1.170  -2.090   0.707  0.00  0.00     0.006 A 
ATOM      5  C4  UNL d   1      -0.868  -2.830  -0.437  0.00  0.00    -0.005 A 
ATOM      6  C5  UNL d   1      -0.307  -2.204  -1.554  0.00  0.00    -0.074 A 
ATOM      7  C6  UNL d   1       0.015  -2.983  -2.795  0.00  0.00     0.077 C 
ATOM      8  C7  UNL d   1      -0.059  -0.825  -1.511  0.00  0.00    -0.001 A 
ENDROOT
TORSDOF 0
ENDMDL
