MODEL 1
REMARK minimizedAffinity -4.49785852
REMARK minimizedRMSD -1
REMARK  0 active torsions:
REMARK  status: ('A' for Active; 'I' for Inactive)
ROOT
ATOM      1  C   UNL d   1       1.330   2.953  -0.105  0.00  0.00     0.077 C 
ATOM      2  C1  UNL d   1       0.583   1.699   0.236  0.00  0.00    -0.074 A 
ATOM      3  C2  UNL d   1       1.168   0.441   0.055  0.00  0.00    -0.005 A 
ATOM      4  C3  UNL d   1       0.464  -0.716   0.385  0.00  0.00     0.006 A 
ATOM      5  C4  UNL d   1      -0.830  -0.629   0.899  0.00  0.00    -0.005 A 
ATOM      6  C5  UNL d   1      -1.432   0.619   1.087  0.00  0.00    -0.074 A 
ATOM      7  C6  UNL d   1      -2.819   0.731   1.648  0.00  0.00     0.077 C 
ATOM      8  C7  UNL d   1      -0.715   1.778   0.759  0.00  0.00    -0.001 A 
ENDROOT
TORSDOF 0
ENDMDL
