MODEL 1
REMARK minimizedAffinity -5.22842932
REMARK minimizedRMSD -1
REMARK  0 active torsions:
REMARK  status: ('A' for Active; 'I' for Inactive)
ROOT
ATOM      1  C   UNL d   1      -0.053   1.626  -0.247  0.00  0.00     0.077 C 
ATOM      2  C1  UNL d   1       0.038   0.196  -0.690  0.00  0.00    -0.074 A 
ATOM      3  C2  UNL d   1       0.107  -0.134  -2.047  0.00  0.00    -0.005 A 
ATOM      4  C3  UNL d   1       0.200  -1.468  -2.444  0.00  0.00     0.006 A 
ATOM      5  C4  UNL d   1       0.226  -2.484  -1.488  0.00  0.00    -0.005 A 
ATOM      6  C5  UNL d   1       0.160  -2.174  -0.126  0.00  0.00    -0.074 A 
ATOM      7  C6  UNL d   1       0.196  -3.254   0.914  0.00  0.00     0.077 C 
ATOM      8  C7  UNL d   1       0.073  -0.831   0.264  0.00  0.00    -0.001 A 
ENDROOT
TORSDOF 0
ENDMDL
