MODEL 1
REMARK minimizedAffinity -3.19891167
REMARK minimizedRMSD -1
REMARK  0 active torsions:
REMARK  status: ('A' for Active; 'I' for Inactive)
ROOT
ATOM      1  C   UNL d   1       0.416   1.399  -0.072  0.00  0.00     0.077 C 
ATOM      2  C1  UNL d   1      -0.024  -0.007   0.213  0.00  0.00    -0.074 A 
ATOM      3  C2  UNL d   1      -0.605  -0.343   1.440  0.00  0.00    -0.005 A 
ATOM      4  C3  UNL d   1      -1.018  -1.653   1.687  0.00  0.00     0.006 A 
ATOM      5  C4  UNL d   1      -0.854  -2.637   0.712  0.00  0.00    -0.005 A 
ATOM      6  C5  UNL d   1      -0.276  -2.319  -0.521  0.00  0.00    -0.074 A 
ATOM      7  C6  UNL d   1      -0.102  -3.363  -1.584  0.00  0.00     0.077 C 
ATOM      8  C7  UNL d   1       0.130  -1.000  -0.765  0.00  0.00    -0.001 A 
ENDROOT
TORSDOF 0
ENDMDL
