MODEL 1
REMARK minimizedAffinity -5.61915445
REMARK minimizedRMSD -1
REMARK  0 active torsions:
REMARK  status: ('A' for Active; 'I' for Inactive)
ROOT
ATOM      1  C   UNL d   1       0.017   1.046  -1.939  0.00  0.00     0.077 C 
ATOM      2  C1  UNL d   1      -0.173  -0.011  -0.892  0.00  0.00    -0.074 A 
ATOM      3  C2  UNL d   1      -0.720   0.304   0.356  0.00  0.00    -0.005 A 
ATOM      4  C3  UNL d   1      -0.900  -0.692   1.316  0.00  0.00     0.006 A 
ATOM      5  C4  UNL d   1      -0.536  -2.010   1.039  0.00  0.00    -0.005 A 
ATOM      6  C5  UNL d   1       0.011  -2.344  -0.204  0.00  0.00    -0.074 A 
ATOM      7  C6  UNL d   1       0.399  -3.757  -0.523  0.00  0.00     0.077 C 
ATOM      8  C7  UNL d   1       0.183  -1.339  -1.166  0.00  0.00    -0.001 A 
ENDROOT
TORSDOF 0
ENDMDL
