MODEL 1
REMARK minimizedAffinity -2.00452542
REMARK minimizedRMSD -1
REMARK  0 active torsions:
REMARK  status: ('A' for Active; 'I' for Inactive)
ROOT
ATOM      1  C   UNL d   1      -0.534  -2.797  -2.483  0.00  0.00     0.077 C 
ATOM      2  C1  UNL d   1      -0.647  -1.973  -1.235  0.00  0.00    -0.074 A 
ATOM      3  C2  UNL d   1      -1.171  -2.518  -0.058  0.00  0.00    -0.005 A 
ATOM      4  C3  UNL d   1      -1.261  -1.742   1.097  0.00  0.00     0.006 A 
ATOM      5  C4  UNL d   1      -0.828  -0.415   1.088  0.00  0.00    -0.005 A 
ATOM      6  C5  UNL d   1      -0.301   0.147  -0.079  0.00  0.00    -0.074 A 
ATOM      7  C6  UNL d   1       0.177   1.568  -0.103  0.00  0.00     0.077 C 
ATOM      8  C7  UNL d   1      -0.208  -0.642  -1.234  0.00  0.00    -0.001 A 
ENDROOT
TORSDOF 0
ENDMDL
