MODEL 1
REMARK minimizedAffinity -6.23723698
REMARK minimizedRMSD -1
REMARK  0 active torsions:
REMARK  status: ('A' for Active; 'I' for Inactive)
ROOT
ATOM      1  C1  DEN d   1       0.163   0.606  -0.975  0.00  0.00     0.130 A 
ATOM      2  C2  DEN d   1      -0.147   1.009   0.394  0.00  0.00    -0.031 A 
ATOM      3  C3  DEN d   1      -0.633  -0.180   1.121  0.00  0.00     0.027 A 
ATOM      4  C4  DEN d   1      -0.930  -2.596   0.267  0.00  0.00     0.027 A 
ATOM      5  C5  DEN d   1      -0.809  -3.422  -0.829  0.00  0.00    -0.003 A 
ATOM      6  C6  DEN d   1      -0.392  -2.960  -2.049  0.00  0.00     0.001 A 
ATOM      7  C7  DEN d   1      -0.037  -1.644  -2.191  0.00  0.00     0.017 A 
ATOM      8  C8  DEN d   1      -0.163  -0.804  -1.093  0.00  0.00    -0.094 A 
ATOM      9  C9  DEN d   1      -0.575  -1.292   0.135  0.00  0.00    -0.072 A 
ENDROOT
TORSDOF 0
ENDMDL
