MODEL 1
REMARK minimizedAffinity -1.39960301
REMARK minimizedRMSD -1
REMARK  0 active torsions:
REMARK  status: ('A' for Active; 'I' for Inactive)
ROOT
ATOM      1  C1  DEN d   1       0.341   0.758  -1.131  0.00  0.00     0.130 A 
ATOM      2  C2  DEN d   1       0.729   2.097  -0.698  0.00  0.00    -0.031 A 
ATOM      3  C3  DEN d   1       0.457   2.206   0.749  0.00  0.00     0.027 A 
ATOM      4  C4  DEN d   1      -0.517   0.439   2.355  0.00  0.00     0.027 A 
ATOM      5  C5  DEN d   1      -1.010  -0.844   2.447  0.00  0.00    -0.003 A 
ATOM      6  C6  DEN d   1      -1.118  -1.665   1.355  0.00  0.00     0.001 A 
ATOM      7  C7  DEN d   1      -0.685  -1.227   0.131  0.00  0.00     0.017 A 
ATOM      8  C8  DEN d   1      -0.194   0.068   0.030  0.00  0.00    -0.094 A 
ATOM      9  C9  DEN d   1      -0.082   0.878   1.147  0.00  0.00    -0.072 A 
ENDROOT
TORSDOF 0
ENDMDL
