MODEL 1
REMARK minimizedAffinity -1.96301305
REMARK minimizedRMSD -1
REMARK  0 active torsions:
REMARK  status: ('A' for Active; 'I' for Inactive)
ROOT
ATOM      1  C1  DEN d   1       0.404  -1.067  -2.513  0.00  0.00     0.130 A 
ATOM      2  C2  DEN d   1       0.154  -2.477  -2.802  0.00  0.00    -0.031 A 
ATOM      3  C3  DEN d   1      -0.458  -3.087  -1.605  0.00  0.00     0.027 A 
ATOM      4  C4  DEN d   1      -1.045  -1.990   0.655  0.00  0.00     0.027 A 
ATOM      5  C5  DEN d   1      -1.009  -0.817   1.376  0.00  0.00    -0.003 A 
ATOM      6  C6  DEN d   1      -0.473   0.336   0.868  0.00  0.00     0.001 A 
ATOM      7  C7  DEN d   1       0.008   0.354  -0.414  0.00  0.00     0.017 A 
ATOM      8  C8  DEN d   1      -0.018  -0.826  -1.145  0.00  0.00    -0.094 A 
ATOM      9  C9  DEN d   1      -0.575  -1.979  -0.618  0.00  0.00    -0.072 A 
ENDROOT
TORSDOF 0
ENDMDL
