MODEL 1
REMARK minimizedAffinity -3.91445756
REMARK minimizedRMSD -1
REMARK  0 active torsions:
REMARK  status: ('A' for Active; 'I' for Inactive)
ROOT
ATOM      1  C1  DEN d   1      -0.243   1.707  -0.469  0.00  0.00     0.130 A 
ATOM      2  C2  DEN d   1       0.629   2.543   0.352  0.00  0.00    -0.031 A 
ATOM      3  C3  DEN d   1       0.906   1.817   1.608  0.00  0.00     0.027 A 
ATOM      4  C4  DEN d   1       0.079  -0.509   2.354  0.00  0.00     0.027 A 
ATOM      5  C5  DEN d   1      -0.692  -1.594   1.999  0.00  0.00    -0.003 A 
ATOM      6  C6  DEN d   1      -1.389  -1.639   0.821  0.00  0.00     0.001 A 
ATOM      7  C7  DEN d   1      -1.293  -0.599  -0.065  0.00  0.00     0.017 A 
ATOM      8  C8  DEN d   1      -0.523   0.501   0.289  0.00  0.00    -0.094 A 
ATOM      9  C9  DEN d   1       0.184   0.523   1.479  0.00  0.00    -0.072 A 
ENDROOT
TORSDOF 0
ENDMDL
