MODEL 1
REMARK minimizedAffinity -1.43980587
REMARK minimizedRMSD -1
REMARK  0 active torsions:
REMARK  status: ('A' for Active; 'I' for Inactive)
ROOT
ATOM      1  C1  DEN d   1      -0.692   0.250   1.865  0.00  0.00     0.130 A 
ATOM      2  C2  DEN d   1      -0.055   1.365   1.169  0.00  0.00    -0.031 A 
ATOM      3  C3  DEN d   1       0.483   0.859  -0.110  0.00  0.00     0.027 A 
ATOM      4  C4  DEN d   1       0.388  -1.530  -1.077  0.00  0.00     0.027 A 
ATOM      5  C5  DEN d   1      -0.039  -2.819  -0.845  0.00  0.00    -0.003 A 
ATOM      6  C6  DEN d   1      -0.677  -3.180   0.312  0.00  0.00     0.001 A 
ATOM      7  C7  DEN d   1      -0.948  -2.231   1.262  0.00  0.00     0.017 A 
ATOM      8  C8  DEN d   1      -0.515  -0.931   1.038  0.00  0.00    -0.094 A 
ATOM      9  C9  DEN d   1       0.118  -0.583  -0.143  0.00  0.00    -0.072 A 
ENDROOT
TORSDOF 0
ENDMDL
