MODEL 1
REMARK minimizedAffinity -0.142996207
REMARK minimizedRMSD -1
REMARK  0 active torsions:
REMARK  status: ('A' for Active; 'I' for Inactive)
ROOT
ATOM      1  C1  DEN d   1       0.548   0.130  -0.423  0.00  0.00     0.130 A 
ATOM      2  C2  DEN d   1      -0.852  -0.008  -0.031  0.00  0.00    -0.031 A 
ATOM      3  C3  DEN d   1      -1.255   1.228   0.669  0.00  0.00     0.027 A 
ATOM      4  C4  DEN d   1       0.145   3.334   1.178  0.00  0.00     0.027 A 
ATOM      5  C5  DEN d   1       1.389   3.912   1.052  0.00  0.00    -0.003 A 
ATOM      6  C6  DEN d   1       2.440   3.263   0.461  0.00  0.00     0.001 A 
ATOM      7  C7  DEN d   1       2.255   2.012  -0.067  0.00  0.00     0.017 A 
ATOM      8  C8  DEN d   1       1.006   1.420   0.062  0.00  0.00    -0.094 A 
ATOM      9  C9  DEN d   1      -0.047   2.098   0.652  0.00  0.00    -0.072 A 
ENDROOT
TORSDOF 0
ENDMDL
