MODEL 1
REMARK minimizedAffinity 0.150323719
REMARK minimizedRMSD -1
REMARK  0 active torsions:
REMARK  status: ('A' for Active; 'I' for Inactive)
ROOT
ATOM      1  C1  DEN d   1       0.337  -1.550  -2.333  0.00  0.00     0.130 A 
ATOM      2  C2  DEN d   1      -0.296  -2.866  -2.376  0.00  0.00    -0.031 A 
ATOM      3  C3  DEN d   1      -1.011  -3.070  -1.100  0.00  0.00     0.027 A 
ATOM      4  C4  DEN d   1      -1.205  -1.482   0.923  0.00  0.00     0.027 A 
ATOM      5  C5  DEN d   1      -0.828  -0.258   1.430  0.00  0.00    -0.003 A 
ATOM      6  C6  DEN d   1      -0.015   0.600   0.737  0.00  0.00     0.001 A 
ATOM      7  C7  DEN d   1       0.411   0.264  -0.521  0.00  0.00     0.017 A 
ATOM      8  C8  DEN d   1       0.041  -0.971  -1.035  0.00  0.00    -0.094 A 
ATOM      9  C9  DEN d   1      -0.791  -1.819  -0.324  0.00  0.00    -0.072 A 
ENDROOT
TORSDOF 0
ENDMDL
