MODEL 1
REMARK minimizedAffinity -2.7560482
REMARK minimizedRMSD -1
REMARK  0 active torsions:
REMARK  status: ('A' for Active; 'I' for Inactive)
ROOT
ATOM      1  C1  DEN d   1       0.093   0.680  -0.945  0.00  0.00     0.130 A 
ATOM      2  C2  DEN d   1      -0.244   1.185   0.383  0.00  0.00    -0.031 A 
ATOM      3  C3  DEN d   1      -0.715   0.047   1.198  0.00  0.00     0.027 A 
ATOM      4  C4  DEN d   1      -0.950  -2.435   0.536  0.00  0.00     0.027 A 
ATOM      5  C5  DEN d   1      -0.797  -3.343  -0.488  0.00  0.00    -0.003 A 
ATOM      6  C6  DEN d   1      -0.372  -2.971  -1.736  0.00  0.00     0.001 A 
ATOM      7  C7  DEN d   1      -0.043  -1.664  -1.980  0.00  0.00     0.017 A 
ATOM      8  C8  DEN d   1      -0.202  -0.741  -0.954  0.00  0.00    -0.094 A 
ATOM      9  C9  DEN d   1      -0.620  -1.139   0.304  0.00  0.00    -0.072 A 
ENDROOT
TORSDOF 0
ENDMDL
