MODEL 1
REMARK minimizedAffinity -4.57856035
REMARK minimizedRMSD -1
REMARK  0 active torsions:
REMARK  status: ('A' for Active; 'I' for Inactive)
ROOT
ATOM      1  C1  DEN d   1       0.069   0.807  -0.655  0.00  0.00     0.130 A 
ATOM      2  C2  DEN d   1      -0.365   1.048   0.718  0.00  0.00    -0.031 A 
ATOM      3  C3  DEN d   1      -0.785  -0.244   1.297  0.00  0.00     0.027 A 
ATOM      4  C4  DEN d   1      -0.802  -2.582   0.208  0.00  0.00     0.027 A 
ATOM      5  C5  DEN d   1      -0.534  -3.285  -0.946  0.00  0.00    -0.003 A 
ATOM      6  C6  DEN d   1      -0.082  -2.673  -2.085  0.00  0.00     0.001 A 
ATOM      7  C7  DEN d   1       0.159  -1.324  -2.081  0.00  0.00     0.017 A 
ATOM      8  C8  DEN d   1      -0.116  -0.608  -0.924  0.00  0.00    -0.094 A 
ATOM      9  C9  DEN d   1      -0.561  -1.247   0.221  0.00  0.00    -0.072 A 
ENDROOT
TORSDOF 0
ENDMDL
