MODEL 1
REMARK minimizedAffinity -5.12870598
REMARK minimizedRMSD -1
REMARK  0 active torsions:
REMARK  status: ('A' for Active; 'I' for Inactive)
ROOT
ATOM      1  C1  DEN d   1       0.119  -1.557  -2.780  0.00  0.00     0.130 A 
ATOM      2  C2  DEN d   1      -0.122  -2.992  -2.895  0.00  0.00    -0.031 A 
ATOM      3  C3  DEN d   1      -0.614  -3.479  -1.590  0.00  0.00     0.027 A 
ATOM      4  C4  DEN d   1      -1.030  -2.155   0.584  0.00  0.00     0.027 A 
ATOM      5  C5  DEN d   1      -0.959  -0.911   1.171  0.00  0.00    -0.003 A 
ATOM      6  C6  DEN d   1      -0.495   0.189   0.499  0.00  0.00     0.001 A 
ATOM      7  C7  DEN d   1      -0.127   0.076  -0.816  0.00  0.00     0.017 A 
ATOM      8  C8  DEN d   1      -0.189  -1.176  -1.413  0.00  0.00    -0.094 A 
ATOM      9  C9  DEN d   1      -0.672  -2.274  -0.720  0.00  0.00    -0.072 A 
ENDROOT
TORSDOF 0
ENDMDL
