MODEL 1
REMARK minimizedAffinity -3.11595511
REMARK minimizedRMSD -1
REMARK  0 active torsions:
REMARK  status: ('A' for Active; 'I' for Inactive)
ROOT
ATOM      1  C1  DEN d   1      -0.842  -0.671   1.066  0.00  0.00     0.130 A 
ATOM      2  C2  DEN d   1      -0.159   0.592   0.801  0.00  0.00    -0.031 A 
ATOM      3  C3  DEN d   1       0.387   0.537  -0.570  0.00  0.00     0.027 A 
ATOM      4  C4  DEN d   1       0.237  -1.370  -2.300  0.00  0.00     0.027 A 
ATOM      5  C5  DEN d   1      -0.232  -2.645  -2.528  0.00  0.00    -0.003 A 
ATOM      6  C6  DEN d   1      -0.903  -3.358  -1.571  0.00  0.00     0.001 A 
ATOM      7  C7  DEN d   1      -1.163  -2.784  -0.354  0.00  0.00     0.017 A 
ATOM      8  C8  DEN d   1      -0.686  -1.502  -0.114  0.00  0.00    -0.094 A 
ATOM      9  C9  DEN d   1      -0.020  -0.792  -1.100  0.00  0.00    -0.072 A 
ENDROOT
TORSDOF 0
ENDMDL
