MODEL 1
REMARK minimizedAffinity -3.43368626
REMARK minimizedRMSD -1
REMARK  0 active torsions:
REMARK  status: ('A' for Active; 'I' for Inactive)
ROOT
ATOM      1  C1  DEN d   1      -0.304   0.121   0.639  0.00  0.00     0.130 A 
ATOM      2  C2  DEN d   1       0.272   1.158  -0.213  0.00  0.00    -0.031 A 
ATOM      3  C3  DEN d   1       0.565   0.557  -1.530  0.00  0.00     0.027 A 
ATOM      4  C4  DEN d   1       0.179  -1.865  -2.329  0.00  0.00     0.027 A 
ATOM      5  C5  DEN d   1      -0.276  -3.111  -1.957  0.00  0.00    -0.003 A 
ATOM      6  C6  DEN d   1      -0.736  -3.373  -0.694  0.00  0.00     0.001 A 
ATOM      7  C7  DEN d   1      -0.795  -2.364   0.230  0.00  0.00     0.017 A 
ATOM      8  C8  DEN d   1      -0.331  -1.107  -0.135  0.00  0.00    -0.094 A 
ATOM      9  C9  DEN d   1       0.120  -0.859  -1.421  0.00  0.00    -0.072 A 
ENDROOT
TORSDOF 0
ENDMDL
