MODEL 1
REMARK minimizedAffinity -0.492425859
REMARK minimizedRMSD -1
REMARK  0 active torsions:
REMARK  status: ('A' for Active; 'I' for Inactive)
ROOT
ATOM      1  C1  DEN d   1      -1.413  -2.099   1.121  0.00  0.00     0.130 A 
ATOM      2  C2  DEN d   1      -1.280  -0.867   1.893  0.00  0.00    -0.031 A 
ATOM      3  C3  DEN d   1      -0.687   0.161   1.014  0.00  0.00     0.027 A 
ATOM      4  C4  DEN d   1       0.031  -0.035  -1.456  0.00  0.00     0.027 A 
ATOM      5  C5  DEN d   1       0.124  -0.888  -2.534  0.00  0.00    -0.003 A 
ATOM      6  C6  DEN d   1      -0.255  -2.202  -2.459  0.00  0.00     0.001 A 
ATOM      7  C7  DEN d   1      -0.786  -2.691  -1.295  0.00  0.00     0.017 A 
ATOM      8  C8  DEN d   1      -0.875  -1.839  -0.202  0.00  0.00    -0.094 A 
ATOM      9  C9  DEN d   1      -0.499  -0.511  -0.300  0.00  0.00    -0.072 A 
ENDROOT
TORSDOF 0
ENDMDL
