MODEL 1
REMARK minimizedAffinity -3.47687912
REMARK minimizedRMSD -1
REMARK  0 active torsions:
REMARK  status: ('A' for Active; 'I' for Inactive)
ROOT
ATOM      1  C1  DEN d   1      -0.401  -3.386  -1.732  0.00  0.00     0.130 A 
ATOM      2  C2  DEN d   1      -0.102  -2.680  -2.976  0.00  0.00    -0.031 A 
ATOM      3  C3  DEN d   1       0.064  -1.248  -2.659  0.00  0.00     0.027 A 
ATOM      4  C4  DEN d   1      -0.105  -0.060  -0.376  0.00  0.00     0.027 A 
ATOM      5  C5  DEN d   1      -0.351  -0.240   0.968  0.00  0.00    -0.003 A 
ATOM      6  C6  DEN d   1      -0.662  -1.466   1.495  0.00  0.00     0.001 A 
ATOM      7  C7  DEN d   1      -0.691  -2.567   0.682  0.00  0.00     0.017 A 
ATOM      8  C8  DEN d   1      -0.451  -2.393  -0.675  0.00  0.00    -0.094 A 
ATOM      9  C9  DEN d   1      -0.126  -1.148  -1.187  0.00  0.00    -0.072 A 
ENDROOT
TORSDOF 0
ENDMDL
