MODEL 1
REMARK minimizedAffinity -4.50747442
REMARK minimizedRMSD -1
REMARK  0 active torsions:
REMARK  status: ('A' for Active; 'I' for Inactive)
ROOT
ATOM      1  C1  DEN d   1      -0.204  -1.030  -2.384  0.00  0.00     0.130 A 
ATOM      2  C2  DEN d   1      -0.549  -2.417  -2.682  0.00  0.00    -0.031 A 
ATOM      3  C3  DEN d   1      -1.013  -3.051  -1.432  0.00  0.00     0.027 A 
ATOM      4  C4  DEN d   1      -1.234  -2.023   0.924  0.00  0.00     0.027 A 
ATOM      5  C5  DEN d   1      -1.049  -0.881   1.672  0.00  0.00    -0.003 A 
ATOM      6  C6  DEN d   1      -0.542   0.271   1.133  0.00  0.00     0.001 A 
ATOM      7  C7  DEN d   1      -0.244   0.321  -0.203  0.00  0.00     0.017 A 
ATOM      8  C8  DEN d   1      -0.420  -0.828  -0.963  0.00  0.00    -0.094 A 
ATOM      9  C9  DEN d   1      -0.946  -1.979  -0.402  0.00  0.00    -0.072 A 
ENDROOT
TORSDOF 0
ENDMDL
