MODEL 1
REMARK minimizedAffinity 10.1636238
REMARK minimizedRMSD -1
REMARK  0 active torsions:
REMARK  status: ('A' for Active; 'I' for Inactive)
ROOT
ATOM      1  C   UNL d   1       2.395  -0.005  -0.231  0.00  0.00     0.020 A 
ATOM      2  C1  UNL d   1       1.433   0.067  -1.237  0.00  0.00     0.020 A 
ATOM      3  C2  UNL d   1       0.968  -1.102  -1.843  0.00  0.00     0.034 A 
ATOM      4  C3  UNL d   1       1.466  -2.348  -1.444  0.00  0.00     0.017 A 
ATOM      5  C4  UNL d   1       2.433  -2.419  -0.434  0.00  0.00     0.017 A 
ATOM      6  C5  UNL d   1       2.894  -1.245   0.169  0.00  0.00     0.034 A 
ATOM      7 Cl   UNL d   1       3.095  -3.919   0.112  0.00  0.00    -0.070 Cl
ATOM      8 Cl1  UNL d   1       0.847  -3.753  -2.237  0.00  0.00    -0.070 Cl
ENDROOT
TORSDOF 0
ENDMDL
