MODEL 1
REMARK minimizedAffinity 18.2756081
REMARK minimizedRMSD -1
REMARK  0 active torsions:
REMARK  status: ('A' for Active; 'I' for Inactive)
ROOT
ATOM      1  C   UNL d   1       4.497   1.643  -0.300  0.00  0.00     0.020 A 
ATOM      2  C1  UNL d   1       3.377   2.053  -1.022  0.00  0.00     0.020 A 
ATOM      3  C2  UNL d   1       2.418   1.116  -1.414  0.00  0.00     0.034 A 
ATOM      4  C3  UNL d   1       2.577  -0.234  -1.083  0.00  0.00     0.017 A 
ATOM      5  C4  UNL d   1       3.702  -0.645  -0.358  0.00  0.00     0.017 A 
ATOM      6  C5  UNL d   1       4.659   0.297   0.031  0.00  0.00     0.034 A 
ATOM      7 Cl   UNL d   1       3.967  -2.293   0.087  0.00  0.00    -0.070 Cl
ATOM      8 Cl1  UNL d   1       1.352  -1.338  -1.599  0.00  0.00    -0.070 Cl
ENDROOT
TORSDOF 0
ENDMDL
