MODEL 1
REMARK minimizedAffinity 11.6696739
REMARK minimizedRMSD -1
REMARK  0 active torsions:
REMARK  status: ('A' for Active; 'I' for Inactive)
ROOT
ATOM      1  C   UNL d   1       2.871   6.000  -2.099  0.00  0.00     0.020 A 
ATOM      2  C1  UNL d   1       1.484   5.997  -2.243  0.00  0.00     0.020 A 
ATOM      3  C2  UNL d   1       0.664   5.994  -1.112  0.00  0.00     0.034 A 
ATOM      4  C3  UNL d   1       1.231   5.994   0.168  0.00  0.00     0.017 A 
ATOM      5  C4  UNL d   1       2.623   5.996   0.311  0.00  0.00     0.017 A 
ATOM      6  C5  UNL d   1       3.439   6.000  -0.825  0.00  0.00     0.034 A 
ATOM      7 Cl   UNL d   1       3.396   5.997   1.857  0.00  0.00    -0.070 Cl
ATOM      8 Cl1  UNL d   1       0.158   5.990   1.522  0.00  0.00    -0.070 Cl
ENDROOT
TORSDOF 0
ENDMDL
