MODEL 1
REMARK minimizedAffinity 20.1746273
REMARK minimizedRMSD -1
REMARK  0 active torsions:
REMARK  status: ('A' for Active; 'I' for Inactive)
ROOT
ATOM      1  C   UNL d   1       2.741  -0.441  -0.668  0.00  0.00     0.020 A 
ATOM      2  C1  UNL d   1       2.011  -0.094  -1.804  0.00  0.00     0.020 A 
ATOM      3  C2  UNL d   1       1.272  -1.066  -2.483  0.00  0.00     0.034 A 
ATOM      4  C3  UNL d   1       1.263  -2.389  -2.026  0.00  0.00     0.017 A 
ATOM      5  C4  UNL d   1       1.996  -2.736  -0.886  0.00  0.00     0.017 A 
ATOM      6  C5  UNL d   1       2.734  -1.759  -0.210  0.00  0.00     0.034 A 
ATOM      7 Cl   UNL d   1       2.033  -4.348  -0.263  0.00  0.00    -0.070 Cl
ATOM      8 Cl1  UNL d   1       0.327  -3.539  -2.914  0.00  0.00    -0.070 Cl
ENDROOT
TORSDOF 0
ENDMDL
