MODEL 1
REMARK minimizedAffinity 2.35201788
REMARK minimizedRMSD -1
REMARK  0 active torsions:
REMARK  status: ('A' for Active; 'I' for Inactive)
ROOT
ATOM      1  C   UNL d   1       2.441   0.744  -0.661  0.00  0.00     0.020 A 
ATOM      2  C1  UNL d   1       1.914   0.761  -1.952  0.00  0.00     0.020 A 
ATOM      3  C2  UNL d   1       1.731  -0.437  -2.646  0.00  0.00     0.034 A 
ATOM      4  C3  UNL d   1       2.075  -1.656  -2.050  0.00  0.00     0.017 A 
ATOM      5  C4  UNL d   1       2.604  -1.671  -0.755  0.00  0.00     0.017 A 
ATOM      6  C5  UNL d   1       2.786  -0.469  -0.064  0.00  0.00     0.034 A 
ATOM      7 Cl   UNL d   1       3.053  -3.136   0.046  0.00  0.00    -0.070 Cl
ATOM      8 Cl1  UNL d   1       1.821  -3.098  -2.967  0.00  0.00    -0.070 Cl
ENDROOT
TORSDOF 0
ENDMDL
