MODEL 1
REMARK minimizedAffinity 23.095047
REMARK minimizedRMSD -1
REMARK  0 active torsions:
REMARK  status: ('A' for Active; 'I' for Inactive)
ROOT
ATOM      1  C   UNL d   1       1.626  -2.766   0.062  0.00  0.00     0.020 A 
ATOM      2  C1  UNL d   1       2.550  -1.722   0.102  0.00  0.00     0.020 A 
ATOM      3  C2  UNL d   1       3.894  -1.990   0.367  0.00  0.00     0.034 A 
ATOM      4  C3  UNL d   1       4.319  -3.304   0.593  0.00  0.00     0.017 A 
ATOM      5  C4  UNL d   1       3.392  -4.351   0.553  0.00  0.00     0.017 A 
ATOM      6  C5  UNL d   1       2.046  -4.077   0.287  0.00  0.00     0.034 A 
ATOM      7 Cl   UNL d   1       3.841  -5.998   0.821  0.00  0.00    -0.070 Cl
ATOM      8 Cl1  UNL d   1       5.997  -3.561   0.915  0.00  0.00    -0.070 Cl
ENDROOT
TORSDOF 0
ENDMDL
