MODEL 1
REMARK minimizedAffinity 19.1038418
REMARK minimizedRMSD -1
REMARK  0 active torsions:
REMARK  status: ('A' for Active; 'I' for Inactive)
ROOT
ATOM      1  C   UNL d   1       3.495   3.996  -1.685  0.00  0.00     0.020 A 
ATOM      2  C1  UNL d   1       2.455   4.923  -1.731  0.00  0.00     0.020 A 
ATOM      3  C2  UNL d   1       1.270   4.611  -2.401  0.00  0.00     0.034 A 
ATOM      4  C3  UNL d   1       1.122   3.368  -3.027  0.00  0.00     0.017 A 
ATOM      5  C4  UNL d   1       2.167   2.437  -2.980  0.00  0.00     0.017 A 
ATOM      6  C5  UNL d   1       3.351   2.755  -2.308  0.00  0.00     0.034 A 
ATOM      7 Cl   UNL d   1       2.058   0.883  -3.729  0.00  0.00    -0.070 Cl
ATOM      8 Cl1  UNL d   1      -0.371   3.048  -3.836  0.00  0.00    -0.070 Cl
ENDROOT
TORSDOF 0
ENDMDL
