MODEL 1
REMARK minimizedAffinity 16.3474445
REMARK minimizedRMSD -1
REMARK  0 active torsions:
REMARK  status: ('A' for Active; 'I' for Inactive)
ROOT
ATOM      1  C   UNL d   1       2.622   4.126  -0.714  0.00  0.00     0.020 A 
ATOM      2  C1  UNL d   1       2.950   3.422   0.444  0.00  0.00     0.020 A 
ATOM      3  C2  UNL d   1       3.011   2.027   0.420  0.00  0.00     0.034 A 
ATOM      4  C3  UNL d   1       2.743   1.331  -0.765  0.00  0.00     0.017 A 
ATOM      5  C4  UNL d   1       2.414   2.039  -1.927  0.00  0.00     0.017 A 
ATOM      6  C5  UNL d   1       2.355   3.436  -1.897  0.00  0.00     0.034 A 
ATOM      7 Cl   UNL d   1       2.070   1.251  -3.426  0.00  0.00    -0.070 Cl
ATOM      8 Cl1  UNL d   1       2.836  -0.393  -0.723  0.00  0.00    -0.070 Cl
ENDROOT
TORSDOF 0
ENDMDL
