MODEL 1
REMARK minimizedAffinity 22.4400387
REMARK minimizedRMSD -1
REMARK  0 active torsions:
REMARK  status: ('A' for Active; 'I' for Inactive)
ROOT
ATOM      1  C   UNL d   1       3.231  -0.110  -0.148  0.00  0.00     0.020 A 
ATOM      2  C1  UNL d   1       2.548   0.304  -1.291  0.00  0.00     0.020 A 
ATOM      3  C2  UNL d   1       1.851  -0.627  -2.064  0.00  0.00     0.034 A 
ATOM      4  C3  UNL d   1       1.836  -1.977  -1.695  0.00  0.00     0.017 A 
ATOM      5  C4  UNL d   1       2.522  -2.392  -0.548  0.00  0.00     0.017 A 
ATOM      6  C5  UNL d   1       3.217  -1.455   0.223  0.00  0.00     0.034 A 
ATOM      7 Cl   UNL d   1       2.548  -4.040  -0.029  0.00  0.00    -0.070 Cl
ATOM      8 Cl1  UNL d   1       0.954  -3.074  -2.697  0.00  0.00    -0.070 Cl
ENDROOT
TORSDOF 0
ENDMDL
