MODEL 1
REMARK minimizedAffinity 13.3161144
REMARK minimizedRMSD -1
REMARK  0 active torsions:
REMARK  status: ('A' for Active; 'I' for Inactive)
ROOT
ATOM      1  C   UNL d   1       0.229   0.966   2.011  0.00  0.00     0.020 A 
ATOM      2  C1  UNL d   1      -0.120   2.309   2.147  0.00  0.00     0.020 A 
ATOM      3  C2  UNL d   1      -1.429   2.658   2.486  0.00  0.00     0.034 A 
ATOM      4  C3  UNL d   1      -2.393   1.664   2.689  0.00  0.00     0.017 A 
ATOM      5  C4  UNL d   1      -2.041   0.317   2.552  0.00  0.00     0.017 A 
ATOM      6  C5  UNL d   1      -0.729  -0.028   2.213  0.00  0.00     0.034 A 
ATOM      7 Cl   UNL d   1      -3.176  -0.966   2.787  0.00  0.00    -0.070 Cl
ATOM      8 Cl1  UNL d   1      -3.992   2.169   3.106  0.00  0.00    -0.070 Cl
ENDROOT
TORSDOF 0
ENDMDL
