MODEL 1
REMARK minimizedAffinity -1.30906796
REMARK minimizedRMSD -1
REMARK  0 active torsions:
REMARK  status: ('A' for Active; 'I' for Inactive)
ROOT
ATOM      1  C   UNL d   1       2.834  -5.997  -2.025  0.00  0.00     0.020 A 
ATOM      2  C1  UNL d   1       1.911  -5.510  -2.950  0.00  0.00     0.020 A 
ATOM      3  C2  UNL d   1       1.621  -4.145  -2.994  0.00  0.00     0.034 A 
ATOM      4  C3  UNL d   1       2.253  -3.262  -2.111  0.00  0.00     0.017 A 
ATOM      5  C4  UNL d   1       3.180  -3.752  -1.183  0.00  0.00     0.017 A 
ATOM      6  C5  UNL d   1       3.467  -5.119  -1.144  0.00  0.00     0.034 A 
ATOM      7 Cl   UNL d   1       4.001  -2.724  -0.063  0.00  0.00    -0.070 Cl
ATOM      8 Cl1  UNL d   1       1.846  -1.586  -2.222  0.00  0.00    -0.070 Cl
ENDROOT
TORSDOF 0
ENDMDL
