MODEL 1
REMARK minimizedAffinity 16.3792419
REMARK minimizedRMSD -1
REMARK  0 active torsions:
REMARK  status: ('A' for Active; 'I' for Inactive)
ROOT
ATOM      1  C   UNL d   1      -0.941   2.411   2.319  0.00  0.00     0.020 A 
ATOM      2  C1  UNL d   1      -0.503   1.088   2.364  0.00  0.00     0.020 A 
ATOM      3  C2  UNL d   1      -1.395   0.068   2.700  0.00  0.00     0.034 A 
ATOM      4  C3  UNL d   1      -2.731   0.369   2.993  0.00  0.00     0.017 A 
ATOM      5  C4  UNL d   1      -3.170   1.697   2.946  0.00  0.00     0.017 A 
ATOM      6  C5  UNL d   1      -2.272   2.715   2.609  0.00  0.00     0.034 A 
ATOM      7 Cl   UNL d   1      -4.802   2.147   3.294  0.00  0.00    -0.070 Cl
ATOM      8 Cl1  UNL d   1      -3.779  -0.942   3.400  0.00  0.00    -0.070 Cl
ENDROOT
TORSDOF 0
ENDMDL
