MODEL 1
REMARK minimizedAffinity 12.3760042
REMARK minimizedRMSD -1
REMARK  0 active torsions:
REMARK  status: ('A' for Active; 'I' for Inactive)
ROOT
ATOM      1  C   UNL d   1       2.263   5.998   1.110  0.00  0.00     0.020 A 
ATOM      2  C1  UNL d   1       0.875   5.998   1.248  0.00  0.00     0.020 A 
ATOM      3  C2  UNL d   1       0.061   5.998   0.113  0.00  0.00     0.034 A 
ATOM      4  C3  UNL d   1       0.634   5.999  -1.164  0.00  0.00     0.017 A 
ATOM      5  C4  UNL d   1       2.027   5.999  -1.301  0.00  0.00     0.017 A 
ATOM      6  C5  UNL d   1       2.837   5.999  -0.162  0.00  0.00     0.034 A 
ATOM      7 Cl   UNL d   1       2.807   6.000  -2.844  0.00  0.00    -0.070 Cl
ATOM      8 Cl1  UNL d   1      -0.433   5.999  -2.523  0.00  0.00    -0.070 Cl
ENDROOT
TORSDOF 0
ENDMDL
