MODEL 1
REMARK minimizedAffinity 11.3965435
REMARK minimizedRMSD -1
REMARK  0 active torsions:
REMARK  status: ('A' for Active; 'I' for Inactive)
ROOT
ATOM      1  C   UNL d   1       1.419   0.245  -1.986  0.00  0.00     0.020 A 
ATOM      2  C1  UNL d   1       1.430  -1.133  -2.199  0.00  0.00     0.020 A 
ATOM      3  C2  UNL d   1       2.312  -1.943  -1.481  0.00  0.00     0.034 A 
ATOM      4  C3  UNL d   1       3.186  -1.377  -0.547  0.00  0.00     0.017 A 
ATOM      5  C4  UNL d   1       3.175   0.006  -0.334  0.00  0.00     0.017 A 
ATOM      6  C5  UNL d   1       2.289   0.813  -1.055  0.00  0.00     0.034 A 
ATOM      7 Cl   UNL d   1       4.224   0.778   0.802  0.00  0.00    -0.070 Cl
ATOM      8 Cl1  UNL d   1       4.250  -2.439   0.305  0.00  0.00    -0.070 Cl
ENDROOT
TORSDOF 0
ENDMDL
