MODEL 1
REMARK minimizedAffinity 9.70484257
REMARK minimizedRMSD -1
REMARK  0 active torsions:
REMARK  status: ('A' for Active; 'I' for Inactive)
ROOT
ATOM      1  C   UNL d   1      -1.687   1.943   2.882  0.00  0.00     0.020 A 
ATOM      2  C1  UNL d   1      -2.023   1.100   1.823  0.00  0.00     0.020 A 
ATOM      3  C2  UNL d   1      -1.018   0.536   1.034  0.00  0.00     0.034 A 
ATOM      4  C3  UNL d   1       0.327   0.814   1.303  0.00  0.00     0.017 A 
ATOM      5  C4  UNL d   1       0.663   1.660   2.366  0.00  0.00     0.017 A 
ATOM      6  C5  UNL d   1      -0.347   2.222   3.153  0.00  0.00     0.034 A 
ATOM      7 Cl   UNL d   1       2.300   2.051   2.758  0.00  0.00    -0.070 Cl
ATOM      8 Cl1  UNL d   1       1.517   0.082   0.286  0.00  0.00    -0.070 Cl
ENDROOT
TORSDOF 0
ENDMDL
