MODEL 1
REMARK minimizedAffinity 14.168932
REMARK minimizedRMSD -1
REMARK  0 active torsions:
REMARK  status: ('A' for Active; 'I' for Inactive)
ROOT
ATOM      1  C   UNL d   1      -5.013   3.010   5.404  0.00  0.00     0.020 A 
ATOM      2  C1  UNL d   1      -5.253   2.535   4.115  0.00  0.00     0.020 A 
ATOM      3  C2  UNL d   1      -4.219   1.941   3.387  0.00  0.00     0.034 A 
ATOM      4  C3  UNL d   1      -2.942   1.821   3.947  0.00  0.00     0.017 A 
ATOM      5  C4  UNL d   1      -2.703   2.298   5.241  0.00  0.00     0.017 A 
ATOM      6  C5  UNL d   1      -3.742   2.891   5.966  0.00  0.00     0.034 A 
ATOM      7 Cl   UNL d   1      -1.154   2.185   5.999  0.00  0.00    -0.070 Cl
ATOM      8 Cl1  UNL d   1      -1.712   1.075   2.990  0.00  0.00    -0.070 Cl
ENDROOT
TORSDOF 0
ENDMDL
