MODEL 1
REMARK minimizedAffinity 18.530138
REMARK minimizedRMSD -1
REMARK  0 active torsions:
REMARK  status: ('A' for Active; 'I' for Inactive)
ROOT
ATOM      1  C   UNL d   1      -2.961  -3.637  -5.999  0.00  0.00     0.020 A 
ATOM      2  C1  UNL d   1      -3.663  -3.318  -4.837  0.00  0.00     0.020 A 
ATOM      3  C2  UNL d   1      -3.063  -3.497  -3.588  0.00  0.00     0.034 A 
ATOM      4  C3  UNL d   1      -1.759  -3.995  -3.498  0.00  0.00     0.017 A 
ATOM      5  C4  UNL d   1      -1.055  -4.315  -4.665  0.00  0.00     0.017 A 
ATOM      6  C5  UNL d   1      -1.660  -4.134  -5.913  0.00  0.00     0.034 A 
ATOM      7 Cl   UNL d   1       0.558  -4.934  -4.634  0.00  0.00    -0.070 Cl
ATOM      8 Cl1  UNL d   1      -1.080  -4.190  -1.921  0.00  0.00    -0.070 Cl
ENDROOT
TORSDOF 0
ENDMDL
