MODEL 1
REMARK minimizedAffinity 11.4674377
REMARK minimizedRMSD -1
REMARK  0 active torsions:
REMARK  status: ('A' for Active; 'I' for Inactive)
ROOT
ATOM      1  C   UNL d   1      -5.216   3.731   4.028  0.00  0.00     0.020 A 
ATOM      2  C1  UNL d   1      -5.241   3.561   5.411  0.00  0.00     0.020 A 
ATOM      3  C2  UNL d   1      -4.521   2.519   6.000  0.00  0.00     0.034 A 
ATOM      4  C3  UNL d   1      -3.773   1.643   5.205  0.00  0.00     0.017 A 
ATOM      5  C4  UNL d   1      -3.749   1.814   3.816  0.00  0.00     0.017 A 
ATOM      6  C5  UNL d   1      -4.472   2.859   3.232  0.00  0.00     0.034 A 
ATOM      7 Cl   UNL d   1      -2.850   0.774   2.769  0.00  0.00    -0.070 Cl
ATOM      8 Cl1  UNL d   1      -2.907   0.377   6.000  0.00  0.00    -0.070 Cl
ENDROOT
TORSDOF 0
ENDMDL
