MODEL 1
REMARK minimizedAffinity 15.0390167
REMARK minimizedRMSD -1
REMARK  0 active torsions:
REMARK  status: ('A' for Active; 'I' for Inactive)
ROOT
ATOM      1  C   UNL d   1       2.799   1.520  -0.850  0.00  0.00     0.020 A 
ATOM      2  C1  UNL d   1       2.195   0.833   0.203  0.00  0.00     0.020 A 
ATOM      3  C2  UNL d   1       1.411  -0.293  -0.057  0.00  0.00     0.034 A 
ATOM      4  C3  UNL d   1       1.228  -0.736  -1.372  0.00  0.00     0.017 A 
ATOM      5  C4  UNL d   1       1.835  -0.046  -2.428  0.00  0.00     0.017 A 
ATOM      6  C5  UNL d   1       2.619   1.081  -2.162  0.00  0.00     0.034 A 
ATOM      7 Cl   UNL d   1       1.656  -0.532  -4.077  0.00  0.00    -0.070 Cl
ATOM      8 Cl1  UNL d   1       0.246  -2.136  -1.619  0.00  0.00    -0.070 Cl
ENDROOT
TORSDOF 0
ENDMDL
