MODEL 1
REMARK minimizedAffinity -1.62456226
REMARK minimizedRMSD -1
REMARK  0 active torsions:
REMARK  status: ('A' for Active; 'I' for Inactive)
ROOT
ATOM      1  C   UNL d   1      -4.170   4.498  -2.727  0.00  0.00     0.172 C 
ATOM      2  N   UNL d   1      -4.616   4.876  -4.047  0.00  0.00    -0.070 N 
ATOM      3  C1  UNL d   1      -4.231   6.000  -4.729  0.00  0.00    -0.004 A 
ATOM      4  C2  UNL d   1      -4.876   5.996  -5.947  0.00  0.00    -0.047 A 
ATOM      5  C3  UNL d   1      -5.677   4.831  -5.999  0.00  0.00    -0.047 A 
ATOM      6  C4  UNL d   1      -5.497   4.156  -4.810  0.00  0.00    -0.004 A 
ENDROOT
TORSDOF 0
ENDMDL
