MODEL 1
REMARK minimizedAffinity 1.93216038
REMARK minimizedRMSD -1
REMARK  0 active torsions:
REMARK  status: ('A' for Active; 'I' for Inactive)
ROOT
ATOM      1  C   UNL d   1       3.618  -5.233  -3.104  0.00  0.00     0.172 C 
ATOM      2  N   UNL d   1       4.196  -4.315  -2.151  0.00  0.00    -0.070 N 
ATOM      3  C1  UNL d   1       3.789  -3.024  -1.939  0.00  0.00    -0.004 A 
ATOM      4  C2  UNL d   1       4.589  -2.486  -0.954  0.00  0.00    -0.047 A 
ATOM      5  C3  UNL d   1       5.508  -3.488  -0.560  0.00  0.00    -0.047 A 
ATOM      6  C4  UNL d   1       5.242  -4.609  -1.318  0.00  0.00    -0.004 A 
ENDROOT
TORSDOF 0
ENDMDL
