MODEL 1
REMARK minimizedAffinity -0.685614347
REMARK minimizedRMSD -1
REMARK  0 active torsions:
REMARK  status: ('A' for Active; 'I' for Inactive)
ROOT
ATOM      1  C   UNL d   1       3.204  -4.192  -3.829  0.00  0.00     0.172 C 
ATOM      2  N   UNL d   1       3.922  -3.777  -2.647  0.00  0.00    -0.070 N 
ATOM      3  C1  UNL d   1       3.859  -2.538  -2.068  0.00  0.00    -0.004 A 
ATOM      4  C2  UNL d   1       4.686  -2.545  -0.965  0.00  0.00    -0.047 A 
ATOM      5  C3  UNL d   1       5.266  -3.832  -0.879  0.00  0.00    -0.047 A 
ATOM      6  C4  UNL d   1       4.777  -4.575  -1.932  0.00  0.00    -0.004 A 
ENDROOT
TORSDOF 0
ENDMDL
