MODEL 1
REMARK minimizedAffinity 1.18288255
REMARK minimizedRMSD -1
REMARK  0 active torsions:
REMARK  status: ('A' for Active; 'I' for Inactive)
ROOT
ATOM      1  C   UNL d   1       3.763  -5.231  -2.994  0.00  0.00     0.172 C 
ATOM      2  N   UNL d   1       4.146  -4.125  -2.149  0.00  0.00    -0.070 N 
ATOM      3  C1  UNL d   1       4.925  -4.210  -1.026  0.00  0.00    -0.004 A 
ATOM      4  C2  UNL d   1       5.058  -2.941  -0.507  0.00  0.00    -0.047 A 
ATOM      5  C3  UNL d   1       4.334  -2.062  -1.347  0.00  0.00    -0.047 A 
ATOM      6  C4  UNL d   1       3.779  -2.821  -2.355  0.00  0.00    -0.004 A 
ENDROOT
TORSDOF 0
ENDMDL
