MODEL 1
REMARK minimizedAffinity 3.41058326
REMARK minimizedRMSD -1
REMARK  0 active torsions:
REMARK  status: ('A' for Active; 'I' for Inactive)
ROOT
ATOM      1  C   UNL d   1       4.152  -1.884  -3.775  0.00  0.00     0.172 C 
ATOM      2  N   UNL d   1       3.918  -3.052  -2.959  0.00  0.00    -0.070 N 
ATOM      3  C1  UNL d   1       4.124  -4.349  -3.344  0.00  0.00    -0.004 A 
ATOM      4  C2  UNL d   1       3.785  -5.163  -2.285  0.00  0.00    -0.047 A 
ATOM      5  C3  UNL d   1       3.359  -4.326  -1.227  0.00  0.00    -0.047 A 
ATOM      6  C4  UNL d   1       3.451  -3.024  -1.671  0.00  0.00    -0.004 A 
ENDROOT
TORSDOF 0
ENDMDL
