MODEL 1
REMARK minimizedAffinity -0.0922998637
REMARK minimizedRMSD -1
REMARK  0 active torsions:
REMARK  status: ('A' for Active; 'I' for Inactive)
ROOT
ATOM      1  C   UNL d   1      -3.379   0.367  -1.527  0.00  0.00     0.172 C 
ATOM      2  N   UNL d   1      -4.205   1.500  -1.875  0.00  0.00    -0.070 N 
ATOM      3  C1  UNL d   1      -3.749   2.724  -2.285  0.00  0.00    -0.004 A 
ATOM      4  C2  UNL d   1      -4.845   3.525  -2.520  0.00  0.00    -0.047 A 
ATOM      5  C3  UNL d   1      -6.000   2.756  -2.240  0.00  0.00    -0.047 A 
ATOM      6  C4  UNL d   1      -5.574   1.506  -1.843  0.00  0.00    -0.004 A 
ENDROOT
TORSDOF 0
ENDMDL
