MODEL 1
REMARK minimizedAffinity 2.00316501
REMARK minimizedRMSD -1
REMARK  0 active torsions:
REMARK  status: ('A' for Active; 'I' for Inactive)
ROOT
ATOM      1  C   UNL d   1       3.127  -4.080   0.721  0.00  0.00     0.172 C 
ATOM      2  N   UNL d   1       3.935  -3.551  -0.353  0.00  0.00    -0.070 N 
ATOM      3  C1  UNL d   1       5.282  -3.745  -0.509  0.00  0.00    -0.004 A 
ATOM      4  C2  UNL d   1       5.674  -3.081  -1.651  0.00  0.00    -0.047 A 
ATOM      5  C3  UNL d   1       4.524  -2.466  -2.200  0.00  0.00    -0.047 A 
ATOM      6  C4  UNL d   1       3.461  -2.774  -1.376  0.00  0.00    -0.004 A 
ENDROOT
TORSDOF 0
ENDMDL
