MODEL 1
REMARK minimizedAffinity 2.92517066
REMARK minimizedRMSD -1
REMARK  0 active torsions:
REMARK  status: ('A' for Active; 'I' for Inactive)
ROOT
ATOM      1  C   UNL d   1       0.716   4.289  -0.775  0.00  0.00     0.172 C 
ATOM      2  N   UNL d   1       0.150   3.194  -0.024  0.00  0.00    -0.070 N 
ATOM      3  C1  UNL d   1       0.111   3.099   1.342  0.00  0.00    -0.004 A 
ATOM      4  C2  UNL d   1      -0.508   1.910   1.664  0.00  0.00    -0.047 A 
ATOM      5  C3  UNL d   1      -0.852   1.269   0.451  0.00  0.00    -0.047 A 
ATOM      6  C4  UNL d   1      -0.433   2.086  -0.578  0.00  0.00    -0.004 A 
ENDROOT
TORSDOF 0
ENDMDL
