MODEL 1
REMARK minimizedAffinity 4.64122677
REMARK minimizedRMSD -1
REMARK  0 active torsions:
REMARK  status: ('A' for Active; 'I' for Inactive)
ROOT
ATOM      1  C   UNL d   1       0.698   5.422  -0.965  0.00  0.00     0.172 C 
ATOM      2  N   UNL d   1       0.298   4.079  -0.617  0.00  0.00    -0.070 N 
ATOM      3  C1  UNL d   1      -0.073   3.102  -1.502  0.00  0.00    -0.004 A 
ATOM      4  C2  UNL d   1      -0.379   1.970  -0.777  0.00  0.00    -0.047 A 
ATOM      5  C3  UNL d   1      -0.186   2.277   0.590  0.00  0.00    -0.047 A 
ATOM      6  C4  UNL d   1       0.233   3.589   0.661  0.00  0.00    -0.004 A 
ENDROOT
TORSDOF 0
ENDMDL
