MODEL 1
REMARK minimizedAffinity -1.05821097
REMARK minimizedRMSD -1
REMARK  0 active torsions:
REMARK  status: ('A' for Active; 'I' for Inactive)
ROOT
ATOM      1  C   UNL d   1       4.167  -2.414  -0.470  0.00  0.00     0.172 C 
ATOM      2  N   UNL d   1       4.214  -3.701  -1.123  0.00  0.00    -0.070 N 
ATOM      3  C1  UNL d   1       5.086  -4.715  -0.827  0.00  0.00    -0.004 A 
ATOM      4  C2  UNL d   1       4.808  -5.770  -1.669  0.00  0.00    -0.047 A 
ATOM      5  C3  UNL d   1       3.733  -5.376  -2.501  0.00  0.00    -0.047 A 
ATOM      6  C4  UNL d   1       3.385  -4.091  -2.141  0.00  0.00    -0.004 A 
ENDROOT
TORSDOF 0
ENDMDL
