MODEL 1
REMARK minimizedAffinity -1.49128103
REMARK minimizedRMSD -1
REMARK  0 active torsions:
REMARK  status: ('A' for Active; 'I' for Inactive)
ROOT
ATOM      1  C4' PXY d   1      -4.759  -0.713  -5.640  0.00  0.00     0.077 C 
ATOM      2  C1' PXY d   1      -3.264   4.871  -5.624  0.00  0.00     0.077 C 
ATOM      3  C1  PXY d   1      -3.643   3.403  -5.630  0.00  0.00    -0.082 A 
ATOM      4  C2  PXY d   1      -4.863   3.044  -5.997  0.00  0.00     0.003 A 
ATOM      5  C3  PXY d   1      -5.233   1.724  -5.977  0.00  0.00     0.003 A 
ATOM      6  C4  PXY d   1      -4.329   0.756  -5.628  0.00  0.00    -0.082 A 
ATOM      7  C5  PXY d   1      -3.079   1.114  -5.263  0.00  0.00     0.003 A 
ATOM      8  C6  PXY d   1      -2.736   2.462  -5.250  0.00  0.00     0.003 A 
ENDROOT
TORSDOF 0
ENDMDL
