MODEL 1
REMARK minimizedAffinity -1.48856235
REMARK minimizedRMSD -1
REMARK  0 active torsions:
REMARK  status: ('A' for Active; 'I' for Inactive)
ROOT
ATOM      1  C4' PXY d   1      -2.249   4.770  -5.557  0.00  0.00     0.077 C 
ATOM      2  C1' PXY d   1      -4.391  -0.555  -4.873  0.00  0.00     0.077 C 
ATOM      3  C1  PXY d   1      -3.823   0.840  -5.041  0.00  0.00    -0.082 A 
ATOM      4  C2  PXY d   1      -4.451   1.714  -5.811  0.00  0.00     0.003 A 
ATOM      5  C3  PXY d   1      -3.935   2.970  -5.999  0.00  0.00     0.003 A 
ATOM      6  C4  PXY d   1      -2.791   3.353  -5.351  0.00  0.00    -0.082 A 
ATOM      7  C5  PXY d   1      -2.150   2.471  -4.555  0.00  0.00     0.003 A 
ATOM      8  C6  PXY d   1      -2.669   1.187  -4.409  0.00  0.00     0.003 A 
ENDROOT
TORSDOF 0
ENDMDL
