MODEL 1
REMARK minimizedAffinity -5.05085564
REMARK minimizedRMSD -1
REMARK  0 active torsions:
REMARK  status: ('A' for Active; 'I' for Inactive)
ROOT
ATOM      1  C4' PXY d   1       1.129   0.126  -0.487  0.00  0.00     0.077 C 
ATOM      2  C1' PXY d   1       5.512  -2.749  -2.923  0.00  0.00     0.077 C 
ATOM      3  C1  PXY d   1       4.371  -1.986  -2.280  0.00  0.00    -0.082 A 
ATOM      4  C2  PXY d   1       3.281  -2.634  -1.904  0.00  0.00     0.003 A 
ATOM      5  C3  PXY d   1       2.226  -1.954  -1.351  0.00  0.00     0.003 A 
ATOM      6  C4  PXY d   1       2.310  -0.605  -1.131  0.00  0.00    -0.082 A 
ATOM      7  C5  PXY d   1       3.423   0.061  -1.502  0.00  0.00     0.003 A 
ATOM      8  C6  PXY d   1       4.466  -0.640  -2.100  0.00  0.00     0.003 A 
ENDROOT
TORSDOF 0
ENDMDL
