MODEL 1
REMARK minimizedAffinity -3.56814861
REMARK minimizedRMSD -1
REMARK  0 active torsions:
REMARK  status: ('A' for Active; 'I' for Inactive)
ROOT
ATOM      1  C4' PXY d   1      -5.911  -0.190  -6.000  0.00  0.00     0.077 C 
ATOM      2  C1' PXY d   1      -2.703   4.575  -5.350  0.00  0.00     0.077 C 
ATOM      3  C1  PXY d   1      -3.555   3.332  -5.518  0.00  0.00    -0.082 A 
ATOM      4  C2  PXY d   1      -3.011   2.138  -5.346  0.00  0.00     0.003 A 
ATOM      5  C3  PXY d   1      -3.759   1.003  -5.525  0.00  0.00     0.003 A 
ATOM      6  C4  PXY d   1      -5.091   1.092  -5.831  0.00  0.00    -0.082 A 
ATOM      7  C5  PXY d   1      -5.656   2.307  -5.998  0.00  0.00     0.003 A 
ATOM      8  C6  PXY d   1      -4.869   3.446  -5.852  0.00  0.00     0.003 A 
ENDROOT
TORSDOF 0
ENDMDL
