MODEL 1
REMARK minimizedAffinity -2.84218526
REMARK minimizedRMSD -1
REMARK  0 active torsions:
REMARK  status: ('A' for Active; 'I' for Inactive)
ROOT
ATOM      1  C4' PXY d   1      -1.352  -1.826  -3.490  0.00  0.00     0.077 C 
ATOM      2  C1' PXY d   1       1.000   0.767   1.109  0.00  0.00     0.077 C 
ATOM      3  C1  PXY d   1       0.382   0.076  -0.090  0.00  0.00    -0.082 A 
ATOM      4  C2  PXY d   1       0.661   0.507  -1.310  0.00  0.00     0.003 A 
ATOM      5  C3  PXY d   1       0.086  -0.086  -2.404  0.00  0.00     0.003 A 
ATOM      6  C4  PXY d   1      -0.743  -1.165  -2.251  0.00  0.00    -0.082 A 
ATOM      7  C5  PXY d   1      -1.025  -1.617  -1.011  0.00  0.00     0.003 A 
ATOM      8  C6  PXY d   1      -0.463  -0.975   0.089  0.00  0.00     0.003 A 
ENDROOT
TORSDOF 0
ENDMDL
