MODEL 1
REMARK minimizedAffinity -1.42676246
REMARK minimizedRMSD -1
REMARK  0 active torsions:
REMARK  status: ('A' for Active; 'I' for Inactive)
ROOT
ATOM      1  C4' PXY d   1      -1.297   2.327  -5.257  0.00  0.00     0.077 C 
ATOM      2  C1' PXY d   1      -5.987   5.635  -5.948  0.00  0.00     0.077 C 
ATOM      3  C1  PXY d   1      -4.765   4.757  -5.765  0.00  0.00    -0.082 A 
ATOM      4  C2  PXY d   1      -3.620   5.300  -5.384  0.00  0.00     0.003 A 
ATOM      5  C3  PXY d   1      -2.497   4.526  -5.245  0.00  0.00     0.003 A 
ATOM      6  C4  PXY d   1      -2.559   3.173  -5.446  0.00  0.00    -0.082 A 
ATOM      7  C5  PXY d   1      -3.726   2.609  -5.824  0.00  0.00     0.003 A 
ATOM      8  C6  PXY d   1      -4.844   3.419  -6.000  0.00  0.00     0.003 A 
ENDROOT
TORSDOF 0
ENDMDL
