MODEL 1
REMARK minimizedAffinity 2.15166974
REMARK minimizedRMSD -1
REMARK  0 active torsions:
REMARK  status: ('A' for Active; 'I' for Inactive)
ROOT
ATOM      1  C4' PXY d   1       2.546   1.407  -0.989  0.00  0.00     0.077 C 
ATOM      2  C1' PXY d   1      -1.767  -1.730  -3.219  0.00  0.00     0.077 C 
ATOM      3  C1  PXY d   1      -0.638  -0.913  -2.623  0.00  0.00    -0.082 A 
ATOM      4  C2  PXY d   1      -0.287   0.230  -3.190  0.00  0.00     0.003 A 
ATOM      5  C3  PXY d   1       0.753   0.966  -2.682  0.00  0.00     0.003 A 
ATOM      6  C4  PXY d   1       1.405   0.554  -1.551  0.00  0.00    -0.082 A 
ATOM      7  C5  PXY d   1       1.046  -0.606  -0.961  0.00  0.00     0.003 A 
ATOM      8  C6  PXY d   1       0.015  -1.358  -1.515  0.00  0.00     0.003 A 
ENDROOT
TORSDOF 0
ENDMDL
