MODEL 1
REMARK minimizedAffinity -0.588040709
REMARK minimizedRMSD -1
REMARK  0 active torsions:
REMARK  status: ('A' for Active; 'I' for Inactive)
ROOT
ATOM      1  C4' PXY d   1      -5.995   5.201  -5.997  0.00  0.00     0.077 C 
ATOM      2  C1' PXY d   1      -0.705   2.872  -5.903  0.00  0.00     0.077 C 
ATOM      3  C1  PXY d   1      -2.097   3.472  -5.932  0.00  0.00    -0.082 A 
ATOM      4  C2  PXY d   1      -2.242   4.785  -6.000  0.00  0.00     0.003 A 
ATOM      5  C3  PXY d   1      -3.493   5.346  -5.995  0.00  0.00     0.003 A 
ATOM      6  C4  PXY d   1      -4.608   4.551  -5.975  0.00  0.00    -0.082 A 
ATOM      7  C5  PXY d   1      -4.468   3.210  -5.917  0.00  0.00     0.003 A 
ATOM      8  C6  PXY d   1      -3.189   2.662  -5.881  0.00  0.00     0.003 A 
ENDROOT
TORSDOF 0
ENDMDL
