MODEL 1
REMARK minimizedAffinity 0.156935245
REMARK minimizedRMSD -1
REMARK  0 active torsions:
REMARK  status: ('A' for Active; 'I' for Inactive)
ROOT
ATOM      1  C4' PXY d   1      -5.997   5.468  -5.999  0.00  0.00     0.077 C 
ATOM      2  C1' PXY d   1      -0.829   3.013  -5.175  0.00  0.00     0.077 C 
ATOM      3  C1  PXY d   1      -2.187   3.647  -5.399  0.00  0.00    -0.082 A 
ATOM      4  C2  PXY d   1      -2.341   4.948  -5.213  0.00  0.00     0.003 A 
ATOM      5  C3  PXY d   1      -3.570   5.532  -5.380  0.00  0.00     0.003 A 
ATOM      6  C4  PXY d   1      -4.641   4.786  -5.794  0.00  0.00    -0.082 A 
ATOM      7  C5  PXY d   1      -4.490   3.460  -5.996  0.00  0.00     0.003 A 
ATOM      8  C6  PXY d   1      -3.244   2.879  -5.781  0.00  0.00     0.003 A 
ENDROOT
TORSDOF 0
ENDMDL
