MODEL 1
REMARK minimizedAffinity -2.34935689
REMARK minimizedRMSD -1
REMARK  0 active torsions:
REMARK  status: ('A' for Active; 'I' for Inactive)
ROOT
ATOM      1  C4' PXY d   1      -4.683   5.817  -5.984  0.00  0.00     0.077 C 
ATOM      2  C1' PXY d   1      -4.850   0.039  -5.909  0.00  0.00     0.077 C 
ATOM      3  C1  PXY d   1      -4.818   1.555  -5.934  0.00  0.00    -0.082 A 
ATOM      4  C2  PXY d   1      -3.655   2.185  -5.916  0.00  0.00     0.003 A 
ATOM      5  C3  PXY d   1      -3.608   3.555  -5.906  0.00  0.00     0.003 A 
ATOM      6  C4  PXY d   1      -4.763   4.288  -5.969  0.00  0.00    -0.082 A 
ATOM      7  C5  PXY d   1      -5.954   3.652  -5.999  0.00  0.00     0.003 A 
ATOM      8  C6  PXY d   1      -5.981   2.261  -5.967  0.00  0.00     0.003 A 
ENDROOT
TORSDOF 0
ENDMDL
