MODEL 1
REMARK minimizedAffinity 4.10409737
REMARK minimizedRMSD -1
REMARK  0 active torsions:
REMARK  status: ('A' for Active; 'I' for Inactive)
ROOT
ATOM      1  C4' PXY d   1      -5.910   2.971  -5.910  0.00  0.00     0.077 C 
ATOM      2  C1' PXY d   1      -0.799   5.669  -5.826  0.00  0.00     0.077 C 
ATOM      3  C1  PXY d   1      -2.145   4.972  -5.843  0.00  0.00    -0.082 A 
ATOM      4  C2  PXY d   1      -2.201   3.654  -5.739  0.00  0.00     0.003 A 
ATOM      5  C3  PXY d   1      -3.408   3.006  -5.786  0.00  0.00     0.003 A 
ATOM      6  C4  PXY d   1      -4.574   3.717  -5.887  0.00  0.00    -0.082 A 
ATOM      7  C5  PXY d   1      -4.526   5.063  -5.983  0.00  0.00     0.003 A 
ATOM      8  C6  PXY d   1      -3.288   5.699  -5.975  0.00  0.00     0.003 A 
ENDROOT
TORSDOF 0
ENDMDL
