MODEL 1
REMARK minimizedAffinity -1.0172447
REMARK minimizedRMSD -1
REMARK  0 active torsions:
REMARK  status: ('A' for Active; 'I' for Inactive)
ROOT
ATOM      1  C4' PXY d   1      -0.796   2.741  -5.795  0.00  0.00     0.077 C 
ATOM      2  C1' PXY d   1      -5.995   5.260  -5.999  0.00  0.00     0.077 C 
ATOM      3  C1  PXY d   1      -4.626   4.610  -5.950  0.00  0.00    -0.082 A 
ATOM      4  C2  PXY d   1      -4.525   3.292  -6.000  0.00  0.00     0.003 A 
ATOM      5  C3  PXY d   1      -3.297   2.686  -5.924  0.00  0.00     0.003 A 
ATOM      6  C4  PXY d   1      -2.157   3.440  -5.851  0.00  0.00    -0.082 A 
ATOM      7  C5  PXY d   1      -2.250   4.786  -5.811  0.00  0.00     0.003 A 
ATOM      8  C6  PXY d   1      -3.509   5.380  -5.847  0.00  0.00     0.003 A 
ENDROOT
TORSDOF 0
ENDMDL
