MODEL 1
REMARK minimizedAffinity 5.88474751
REMARK minimizedRMSD -1
REMARK  0 active torsions:
REMARK  status: ('A' for Active; 'I' for Inactive)
ROOT
ATOM      1  C4' PXY d   1       5.898   2.248  -1.118  0.00  0.00     0.077 C 
ATOM      2  C1' PXY d   1       0.502   0.194  -0.835  0.00  0.00     0.077 C 
ATOM      3  C1  PXY d   1       1.922   0.721  -0.910  0.00  0.00    -0.082 A 
ATOM      4  C2  PXY d   1       2.198   1.925  -0.437  0.00  0.00     0.003 A 
ATOM      5  C3  PXY d   1       3.470   2.429  -0.525  0.00  0.00     0.003 A 
ATOM      6  C4  PXY d   1       4.480   1.672  -1.055  0.00  0.00    -0.082 A 
ATOM      7  C5  PXY d   1       4.208   0.438  -1.530  0.00  0.00     0.003 A 
ATOM      8  C6  PXY d   1       2.902  -0.039  -1.469  0.00  0.00     0.003 A 
ENDROOT
TORSDOF 0
ENDMDL
