MODEL 1
REMARK minimizedAffinity 3.99321294
REMARK minimizedRMSD -1
REMARK  0 active torsions:
REMARK  status: ('A' for Active; 'I' for Inactive)
ROOT
ATOM      1  C4' PXY d   1      -3.816   5.973  -5.998  0.00  0.00     0.077 C 
ATOM      2  C1' PXY d   1      -5.231   0.442  -5.092  0.00  0.00     0.077 C 
ATOM      3  C1  PXY d   1      -4.871   1.894  -5.338  0.00  0.00    -0.082 A 
ATOM      4  C2  PXY d   1      -3.614   2.286  -5.208  0.00  0.00     0.003 A 
ATOM      5  C3  PXY d   1      -3.275   3.602  -5.395  0.00  0.00     0.003 A 
ATOM      6  C4  PXY d   1      -4.224   4.515  -5.770  0.00  0.00    -0.082 A 
ATOM      7  C5  PXY d   1      -5.507   4.120  -5.915  0.00  0.00     0.003 A 
ATOM      8  C6  PXY d   1      -5.837   2.788  -5.680  0.00  0.00     0.003 A 
ENDROOT
TORSDOF 0
ENDMDL
