MODEL 1
REMARK minimizedAffinity -3.33761787
REMARK minimizedRMSD -1
REMARK  0 active torsions:
REMARK  status: ('A' for Active; 'I' for Inactive)
ROOT
ATOM      1  C4' PXY d   1      -2.936   4.181  -5.959  0.00  0.00     0.077 C 
ATOM      2  C1' PXY d   1      -4.799  -1.291  -6.000  0.00  0.00     0.077 C 
ATOM      3  C1  PXY d   1      -4.321   0.148  -5.994  0.00  0.00    -0.082 A 
ATOM      4  C2  PXY d   1      -3.024   0.407  -5.982  0.00  0.00     0.003 A 
ATOM      5  C3  PXY d   1      -2.575   1.702  -5.945  0.00  0.00     0.003 A 
ATOM      6  C4  PXY d   1      -3.463   2.744  -5.974  0.00  0.00    -0.082 A 
ATOM      7  C5  PXY d   1      -4.788   2.488  -5.998  0.00  0.00     0.003 A 
ATOM      8  C6  PXY d   1      -5.224   1.166  -5.993  0.00  0.00     0.003 A 
ENDROOT
TORSDOF 0
ENDMDL
