MODEL 1
REMARK minimizedAffinity -3.82682586
REMARK minimizedRMSD -1
REMARK  0 active torsions:
REMARK  status: ('A' for Active; 'I' for Inactive)
ROOT
ATOM      1  C4' PXY d   1       1.575  -0.408  -1.325  0.00  0.00     0.077 C 
ATOM      2  C1' PXY d   1       5.242  -2.711  -5.153  0.00  0.00     0.077 C 
ATOM      3  C1  PXY d   1       4.279  -2.119  -4.144  0.00  0.00    -0.082 A 
ATOM      4  C2  PXY d   1       3.597  -1.028  -4.452  0.00  0.00     0.003 A 
ATOM      5  C3  PXY d   1       2.746  -0.461  -3.539  0.00  0.00     0.003 A 
ATOM      6  C4  PXY d   1       2.551  -1.046  -2.317  0.00  0.00    -0.082 A 
ATOM      7  C5  PXY d   1       3.235  -2.165  -1.998  0.00  0.00     0.003 A 
ATOM      8  C6  PXY d   1       4.125  -2.702  -2.924  0.00  0.00     0.003 A 
ENDROOT
TORSDOF 0
ENDMDL
