MODEL 1
REMARK minimizedAffinity -0.573844969
REMARK minimizedRMSD -1
REMARK  0 active torsions:
REMARK  status: ('A' for Active; 'I' for Inactive)
ROOT
ATOM      1  C4' PXY d   1      -4.497   1.560  -5.770  0.00  0.00     0.077 C 
ATOM      2  C1' PXY d   1      -3.368  -4.109  -5.889  0.00  0.00     0.077 C 
ATOM      3  C1  PXY d   1      -3.653  -2.620  -5.851  0.00  0.00    -0.082 A 
ATOM      4  C2  PXY d   1      -4.895  -2.188  -6.000  0.00  0.00     0.003 A 
ATOM      5  C3  PXY d   1      -5.166  -0.844  -6.000  0.00  0.00     0.003 A 
ATOM      6  C4  PXY d   1      -4.164   0.065  -5.792  0.00  0.00    -0.082 A 
ATOM      7  C5  PXY d   1      -2.896  -0.368  -5.629  0.00  0.00     0.003 A 
ATOM      8  C6  PXY d   1      -2.635  -1.735  -5.673  0.00  0.00     0.003 A 
ENDROOT
TORSDOF 0
ENDMDL
