MODEL 1
REMARK minimizedAffinity -3.44255185
REMARK minimizedRMSD -1
REMARK  0 active torsions:
REMARK  status: ('A' for Active; 'I' for Inactive)
ROOT
ATOM      1  C4' PXY d   1      -3.002  -5.421  -6.000  0.00  0.00     0.077 C 
ATOM      2  C1' PXY d   1      -0.724  -0.720  -3.526  0.00  0.00     0.077 C 
ATOM      3  C1  PXY d   1      -1.309  -1.958  -4.176  0.00  0.00    -0.082 A 
ATOM      4  C2  PXY d   1      -2.505  -1.897  -4.739  0.00  0.00     0.003 A 
ATOM      5  C3  PXY d   1      -3.064  -3.015  -5.303  0.00  0.00     0.003 A 
ATOM      6  C4  PXY d   1      -2.368  -4.194  -5.340  0.00  0.00    -0.082 A 
ATOM      7  C5  PXY d   1      -1.142  -4.261  -4.778  0.00  0.00     0.003 A 
ATOM      8  C6  PXY d   1      -0.611  -3.125  -4.173  0.00  0.00     0.003 A 
ENDROOT
TORSDOF 0
ENDMDL
