MODEL 1
REMARK minimizedAffinity -5.56522989
REMARK minimizedRMSD -1
REMARK  0 active torsions:
REMARK  status: ('A' for Active; 'I' for Inactive)
ROOT
ATOM      1  C4' PXY d   1       1.478  -0.591  -1.349  0.00  0.00     0.077 C 
ATOM      2  C1' PXY d   1       5.188  -2.635  -5.282  0.00  0.00     0.077 C 
ATOM      3  C1  PXY d   1       4.213  -2.111  -4.246  0.00  0.00    -0.082 A 
ATOM      4  C2  PXY d   1       3.573  -0.975  -4.466  0.00  0.00     0.003 A 
ATOM      5  C3  PXY d   1       2.712  -0.470  -3.526  0.00  0.00     0.003 A 
ATOM      6  C4  PXY d   1       2.464  -1.163  -2.371  0.00  0.00    -0.082 A 
ATOM      7  C5  PXY d   1       3.105  -2.329  -2.144  0.00  0.00     0.003 A 
ATOM      8  C6  PXY d   1       4.006  -2.803  -3.093  0.00  0.00     0.003 A 
ENDROOT
TORSDOF 0
ENDMDL
