MODEL 1
REMARK minimizedAffinity -0.640399218
REMARK minimizedRMSD -1
REMARK  0 active torsions:
REMARK  status: ('A' for Active; 'I' for Inactive)
ROOT
ATOM      1  C4' PXY d   1      -4.875   4.288  -5.999  0.00  0.00     0.077 C 
ATOM      2  C1' PXY d   1      -2.877  -0.598  -3.642  0.00  0.00     0.077 C 
ATOM      3  C1  PXY d   1      -3.393   0.691  -4.252  0.00  0.00    -0.082 A 
ATOM      4  C2  PXY d   1      -4.561   0.697  -4.875  0.00  0.00     0.003 A 
ATOM      5  C3  PXY d   1      -5.028   1.846  -5.460  0.00  0.00     0.003 A 
ATOM      6  C4  PXY d   1      -4.319   3.012  -5.360  0.00  0.00    -0.082 A 
ATOM      7  C5  PXY d   1      -3.132   3.016  -4.717  0.00  0.00     0.003 A 
ATOM      8  C6  PXY d   1      -2.655   1.830  -4.165  0.00  0.00     0.003 A 
ENDROOT
TORSDOF 0
ENDMDL
