MODEL 1
REMARK minimizedAffinity -0.0142861959
REMARK minimizedRMSD -1
REMARK  0 active torsions:
REMARK  status: ('A' for Active; 'I' for Inactive)
ROOT
ATOM      1  C   UNL d   1       0.135   1.117   1.007  0.00  0.00     0.023 A 
ATOM      2  C1  UNL d   1       1.229   0.298   0.725  0.00  0.00     0.003 A 
ATOM      3  C2  UNL d   1       1.030  -0.966   0.165  0.00  0.00     0.048 A 
ATOM      4  C3  UNL d   1      -0.265  -1.403  -0.112  0.00  0.00     0.023 A 
ATOM      5  C4  UNL d   1      -1.362  -0.586   0.167  0.00  0.00     0.048 A 
ATOM      6  C5  UNL d   1      -1.158   0.676   0.728  0.00  0.00     0.003 A 
ATOM      7  I   UNL d   1      -0.563  -3.283  -0.947  0.00  0.00    -0.146 I 
ENDROOT
TORSDOF 0
ENDMDL
