MODEL 1
REMARK minimizedAffinity -0.879610896
REMARK minimizedRMSD -1
REMARK  0 active torsions:
REMARK  status: ('A' for Active; 'I' for Inactive)
ROOT
ATOM      1  C   UNL d   1      -0.616  -4.145  -2.119  0.00  0.00     0.023 A 
ATOM      2  C1  UNL d   1      -1.059  -4.003  -0.804  0.00  0.00     0.003 A 
ATOM      3  C2  UNL d   1      -0.800  -2.824  -0.102  0.00  0.00     0.048 A 
ATOM      4  C3  UNL d   1      -0.097  -1.791  -0.722  0.00  0.00     0.023 A 
ATOM      5  C4  UNL d   1       0.348  -1.929  -2.037  0.00  0.00     0.048 A 
ATOM      6  C5  UNL d   1       0.087  -3.110  -2.735  0.00  0.00     0.003 A 
ATOM      7  I   UNL d   1       0.291  -0.035   0.321  0.00  0.00    -0.146 I 
ENDROOT
TORSDOF 0
ENDMDL
