MODEL 1
REMARK minimizedAffinity -3.7248919
REMARK minimizedRMSD -1
REMARK  0 active torsions:
REMARK  status: ('A' for Active; 'I' for Inactive)
ROOT
ATOM      1  C   UNL d   1       0.035   3.073   0.305  0.00  0.00     0.023 A 
ATOM      2  C1  UNL d   1       1.046   2.407  -0.387  0.00  0.00     0.003 A 
ATOM      3  C2  UNL d   1       0.993   1.020  -0.541  0.00  0.00     0.048 A 
ATOM      4  C3  UNL d   1      -0.076   0.305  -0.001  0.00  0.00     0.023 A 
ATOM      5  C4  UNL d   1      -1.092   0.968   0.691  0.00  0.00     0.048 A 
ATOM      6  C5  UNL d   1      -1.033   2.354   0.843  0.00  0.00     0.003 A 
ATOM      7  I   UNL d   1      -0.159  -1.759  -0.229  0.00  0.00    -0.146 I 
ENDROOT
TORSDOF 0
ENDMDL
