MODEL 1
REMARK minimizedAffinity -2.82850862
REMARK minimizedRMSD -1
REMARK  0 active torsions:
REMARK  status: ('A' for Active; 'I' for Inactive)
ROOT
ATOM      1  C   UNL d   1       0.399   3.134   0.608  0.00  0.00     0.023 A 
ATOM      2  C1  UNL d   1       1.532   2.344   0.412  0.00  0.00     0.003 A 
ATOM      3  C2  UNL d   1       1.397   0.974   0.179  0.00  0.00     0.048 A 
ATOM      4  C3  UNL d   1       0.127   0.401   0.143  0.00  0.00     0.023 A 
ATOM      5  C4  UNL d   1      -1.010   1.187   0.337  0.00  0.00     0.048 A 
ATOM      6  C5  UNL d   1      -0.870   2.557   0.570  0.00  0.00     0.003 A 
ATOM      7  I   UNL d   1      -0.077  -1.639  -0.203  0.00  0.00    -0.146 I 
ENDROOT
TORSDOF 0
ENDMDL
