MODEL 1
REMARK minimizedAffinity 0.906397283
REMARK minimizedRMSD -1
REMARK  0 active torsions:
REMARK  status: ('A' for Active; 'I' for Inactive)
ROOT
ATOM      1  C   UNL d   1      -0.022  -1.524   0.106  0.00  0.00     0.023 A 
ATOM      2  C1  UNL d   1      -1.099  -0.673   0.355  0.00  0.00     0.003 A 
ATOM      3  C2  UNL d   1      -0.899   0.708   0.421  0.00  0.00     0.048 A 
ATOM      4  C3  UNL d   1       0.381   1.230   0.236  0.00  0.00     0.023 A 
ATOM      5  C4  UNL d   1       1.461   0.382  -0.014  0.00  0.00     0.048 A 
ATOM      6  C5  UNL d   1       1.256  -0.997  -0.078  0.00  0.00     0.003 A 
ATOM      7  I   UNL d   1       0.682   3.284   0.334  0.00  0.00    -0.146 I 
ENDROOT
TORSDOF 0
ENDMDL
