MODEL 1
REMARK minimizedAffinity -4.40589905
REMARK minimizedRMSD -1
REMARK  0 active torsions:
REMARK  status: ('A' for Active; 'I' for Inactive)
ROOT
ATOM      1  C   UNL d   1       1.985   3.458   0.509  0.00  0.00     0.023 A 
ATOM      2  C1  UNL d   1       0.625   3.356   0.217  0.00  0.00     0.003 A 
ATOM      3  C2  UNL d   1       0.026   2.100   0.105  0.00  0.00     0.048 A 
ATOM      4  C3  UNL d   1       0.792   0.950   0.288  0.00  0.00     0.023 A 
ATOM      5  C4  UNL d   1       2.154   1.047   0.582  0.00  0.00     0.048 A 
ATOM      6  C5  UNL d   1       2.748   2.305   0.691  0.00  0.00     0.003 A 
ATOM      7  I   UNL d   1      -0.097  -0.922   0.123  0.00  0.00    -0.146 I 
ENDROOT
TORSDOF 0
ENDMDL
