MODEL 1
REMARK minimizedAffinity -3.24988675
REMARK minimizedRMSD -1
REMARK  0 active torsions:
REMARK  status: ('A' for Active; 'I' for Inactive)
ROOT
ATOM      1  C   UNL d   1       0.292   3.366   0.706  0.00  0.00     0.023 A 
ATOM      2  C1  UNL d   1      -0.813   2.698   1.233  0.00  0.00     0.003 A 
ATOM      3  C2  UNL d   1      -0.998   1.338   0.973  0.00  0.00     0.048 A 
ATOM      4  C3  UNL d   1      -0.074   0.653   0.185  0.00  0.00     0.023 A 
ATOM      5  C4  UNL d   1       1.033   1.318  -0.345  0.00  0.00     0.048 A 
ATOM      6  C5  UNL d   1       1.214   2.677  -0.082  0.00  0.00     0.003 A 
ATOM      7  I   UNL d   1      -0.348  -1.370  -0.204  0.00  0.00    -0.146 I 
ENDROOT
TORSDOF 0
ENDMDL
