MODEL 1
REMARK minimizedAffinity -4.8807106
REMARK minimizedRMSD -1
REMARK  0 active torsions:
REMARK  status: ('A' for Active; 'I' for Inactive)
ROOT
ATOM      1  C   UNL d   1      -0.047   3.199   0.152  0.00  0.00     0.023 A 
ATOM      2  C1  UNL d   1      -1.216   2.476   0.388  0.00  0.00     0.003 A 
ATOM      3  C2  UNL d   1      -1.201   1.081   0.330  0.00  0.00     0.048 A 
ATOM      4  C3  UNL d   1      -0.013   0.415   0.035  0.00  0.00     0.023 A 
ATOM      5  C4  UNL d   1       1.161   1.133  -0.202  0.00  0.00     0.048 A 
ATOM      6  C5  UNL d   1       1.140   2.528  -0.143  0.00  0.00     0.003 A 
ATOM      7  I   UNL d   1       0.013  -1.662  -0.052  0.00  0.00    -0.146 I 
ENDROOT
TORSDOF 0
ENDMDL
