MODEL 1
REMARK minimizedAffinity -3.15904927
REMARK minimizedRMSD -1
REMARK  0 active torsions:
REMARK  status: ('A' for Active; 'I' for Inactive)
ROOT
ATOM      1  C   UNL d   1      -0.809   2.599   0.694  0.00  0.00     0.023 A 
ATOM      2  C1  UNL d   1       0.261   2.317  -0.155  0.00  0.00     0.003 A 
ATOM      3  C2  UNL d   1       0.523   0.999  -0.535  0.00  0.00     0.048 A 
ATOM      4  C3  UNL d   1      -0.289  -0.031  -0.063  0.00  0.00     0.023 A 
ATOM      5  C4  UNL d   1      -1.361   0.247   0.787  0.00  0.00     0.048 A 
ATOM      6  C5  UNL d   1      -1.619   1.566   1.165  0.00  0.00     0.003 A 
ATOM      7  I   UNL d   1       0.099  -1.994  -0.627  0.00  0.00    -0.146 I 
ENDROOT
TORSDOF 0
ENDMDL
