MODEL 1
REMARK minimizedAffinity -1.57135296
REMARK minimizedRMSD -1
REMARK  0 active torsions:
REMARK  status: ('A' for Active; 'I' for Inactive)
ROOT
ATOM      1  C   UNL d   1       1.890   2.688  -0.522  0.00  0.00     0.023 A 
ATOM      2  C1  UNL d   1       0.787   3.299   0.073  0.00  0.00     0.003 A 
ATOM      3  C2  UNL d   1      -0.329   2.537   0.427  0.00  0.00     0.048 A 
ATOM      4  C3  UNL d   1      -0.334   1.164   0.183  0.00  0.00     0.023 A 
ATOM      5  C4  UNL d   1       0.769   0.548  -0.411  0.00  0.00     0.048 A 
ATOM      6  C5  UNL d   1       1.881   1.314  -0.764  0.00  0.00     0.003 A 
ATOM      7  I   UNL d   1      -1.993   0.028   0.709  0.00  0.00    -0.146 I 
ENDROOT
TORSDOF 0
ENDMDL
