MODEL 1
REMARK minimizedAffinity -3.09415126
REMARK minimizedRMSD -1
REMARK  0 active torsions:
REMARK  status: ('A' for Active; 'I' for Inactive)
ROOT
ATOM      1  C   UNL d   1       1.175  -1.344   1.027  0.00  0.00     0.023 A 
ATOM      2  C1  UNL d   1      -0.138  -0.874   0.990  0.00  0.00     0.003 A 
ATOM      3  C2  UNL d   1      -0.392   0.472   0.719  0.00  0.00     0.048 A 
ATOM      4  C3  UNL d   1       0.672   1.342   0.484  0.00  0.00     0.023 A 
ATOM      5  C4  UNL d   1       1.987   0.876   0.519  0.00  0.00     0.048 A 
ATOM      6  C5  UNL d   1       2.236  -0.470   0.792  0.00  0.00     0.003 A 
ATOM      7  I   UNL d   1       0.296   3.346   0.080  0.00  0.00    -0.146 I 
ENDROOT
TORSDOF 0
ENDMDL
