MODEL 1
REMARK minimizedAffinity -3.59662032
REMARK minimizedRMSD -1
REMARK  0 active torsions:
REMARK  status: ('A' for Active; 'I' for Inactive)
ROOT
ATOM      1  C   UNL d   1       0.140   1.086  -0.031  0.00  0.00     0.172 C 
ATOM      2  N   UNL d   1       0.373  -0.270  -0.470  0.00  0.00    -0.070 N 
ATOM      3  C1  UNL d   1       1.059  -0.637  -1.597  0.00  0.00    -0.004 A 
ATOM      4  C2  UNL d   1       1.061  -2.013  -1.661  0.00  0.00    -0.047 A 
ATOM      5  C3  UNL d   1       0.350  -2.490  -0.534  0.00  0.00    -0.047 A 
ATOM      6  C4  UNL d   1      -0.064  -1.390   0.186  0.00  0.00    -0.004 A 
ENDROOT
TORSDOF 0
ENDMDL
