MODEL 1
REMARK minimizedAffinity -2.28138924
REMARK minimizedRMSD -1
REMARK  0 active torsions:
REMARK  status: ('A' for Active; 'I' for Inactive)
ROOT
ATOM      1  C   UNL d   1      -1.878  -4.212  -0.092  0.00  0.00     0.172 C 
ATOM      2  N   UNL d   1      -0.866  -3.196  -0.260  0.00  0.00    -0.070 N 
ATOM      3  C1  UNL d   1       0.383  -3.393  -0.785  0.00  0.00    -0.004 A 
ATOM      4  C2  UNL d   1       1.041  -2.182  -0.775  0.00  0.00    -0.047 A 
ATOM      5  C3  UNL d   1       0.157  -1.224  -0.223  0.00  0.00    -0.047 A 
ATOM      6  C4  UNL d   1      -1.016  -1.879   0.087  0.00  0.00    -0.004 A 
ENDROOT
TORSDOF 0
ENDMDL
