MODEL 1
REMARK minimizedAffinity 1.66367173
REMARK minimizedRMSD -1
REMARK  0 active torsions:
REMARK  status: ('A' for Active; 'I' for Inactive)
ROOT
ATOM      1  C   UNL d   1      -0.920  -3.678  -4.267  0.00  0.00     0.172 C 
ATOM      2  N   UNL d   1      -1.296  -3.041  -3.026  0.00  0.00    -0.070 N 
ATOM      3  C1  UNL d   1      -2.464  -3.253  -2.342  0.00  0.00    -0.004 A 
ATOM      4  C2  UNL d   1      -2.441  -2.462  -1.214  0.00  0.00    -0.047 A 
ATOM      5  C3  UNL d   1      -1.219  -1.749  -1.221  0.00  0.00    -0.047 A 
ATOM      6  C4  UNL d   1      -0.529  -2.127  -2.354  0.00  0.00    -0.004 A 
ENDROOT
TORSDOF 0
ENDMDL
