MODEL 1
REMARK minimizedAffinity -1.22629356
REMARK minimizedRMSD -1
REMARK  0 active torsions:
REMARK  status: ('A' for Active; 'I' for Inactive)
ROOT
ATOM      1  C   UNL d   1       0.533  -0.246  -2.170  0.00  0.00     0.172 C 
ATOM      2  N   UNL d   1      -0.065  -0.294  -0.857  0.00  0.00    -0.070 N 
ATOM      3  C1  UNL d   1      -0.474   0.790  -0.126  0.00  0.00    -0.004 A 
ATOM      4  C2  UNL d   1      -0.988   0.325   1.066  0.00  0.00    -0.047 A 
ATOM      5  C3  UNL d   1      -0.883  -1.086   1.051  0.00  0.00    -0.047 A 
ATOM      6  C4  UNL d   1      -0.308  -1.442  -0.151  0.00  0.00    -0.004 A 
ENDROOT
TORSDOF 0
ENDMDL
