MODEL 1
REMARK minimizedAffinity -4.14820623
REMARK minimizedRMSD -1
REMARK  0 active torsions:
REMARK  status: ('A' for Active; 'I' for Inactive)
ROOT
ATOM      1  C   UNL d   1       0.077   0.776  -0.364  0.00  0.00     0.172 C 
ATOM      2  N   UNL d   1       0.029  -0.667  -0.360  0.00  0.00    -0.070 N 
ATOM      3  C1  UNL d   1       0.376  -1.480  -1.405  0.00  0.00    -0.004 A 
ATOM      4  C2  UNL d   1       0.191  -2.786  -1.004  0.00  0.00    -0.047 A 
ATOM      5  C3  UNL d   1      -0.284  -2.756   0.329  0.00  0.00    -0.047 A 
ATOM      6  C4  UNL d   1      -0.376  -1.431   0.702  0.00  0.00    -0.004 A 
ENDROOT
TORSDOF 0
ENDMDL
