MODEL 1
REMARK minimizedAffinity -4.21655083
REMARK minimizedRMSD -1
REMARK  0 active torsions:
REMARK  status: ('A' for Active; 'I' for Inactive)
ROOT
ATOM      1  C   UNL d   1      -0.528  -0.439   0.713  0.00  0.00     0.172 C 
ATOM      2  N   UNL d   1      -0.249  -1.712   0.092  0.00  0.00    -0.070 N 
ATOM      3  C1  UNL d   1      -0.731  -2.926   0.506  0.00  0.00    -0.004 A 
ATOM      4  C2  UNL d   1      -0.236  -3.889  -0.347  0.00  0.00    -0.047 A 
ATOM      5  C3  UNL d   1       0.571  -3.232  -1.306  0.00  0.00    -0.047 A 
ATOM      6  C4  UNL d   1       0.546  -1.886  -1.011  0.00  0.00    -0.004 A 
ENDROOT
TORSDOF 0
ENDMDL
