MODEL 1
REMARK minimizedAffinity -3.80690575
REMARK minimizedRMSD -1
REMARK  0 active torsions:
REMARK  status: ('A' for Active; 'I' for Inactive)
ROOT
ATOM      1  C   UNL d   1       0.465  -2.258  -2.225  0.00  0.00     0.172 C 
ATOM      2  N   UNL d   1      -0.026  -1.715  -0.980  0.00  0.00    -0.070 N 
ATOM      3  C1  UNL d   1      -0.563  -2.439   0.050  0.00  0.00    -0.004 A 
ATOM      4  C2  UNL d   1      -0.908  -1.557   1.051  0.00  0.00    -0.047 A 
ATOM      5  C3  UNL d   1      -0.567  -0.258   0.607  0.00  0.00    -0.047 A 
ATOM      6  C4  UNL d   1      -0.022  -0.384  -0.653  0.00  0.00    -0.004 A 
ENDROOT
TORSDOF 0
ENDMDL
