MODEL 1
REMARK minimizedAffinity -3.71079254
REMARK minimizedRMSD -1
REMARK  0 active torsions:
REMARK  status: ('A' for Active; 'I' for Inactive)
ROOT
ATOM      1  C   UNL d   1       0.022  -1.457   0.237  0.00  0.00     0.172 C 
ATOM      2  N   UNL d   1       0.090  -2.604  -0.637  0.00  0.00    -0.070 N 
ATOM      3  C1  UNL d   1       0.657  -2.625  -1.883  0.00  0.00    -0.004 A 
ATOM      4  C2  UNL d   1       0.518  -3.900  -2.389  0.00  0.00    -0.047 A 
ATOM      5  C3  UNL d   1      -0.158  -4.671  -1.413  0.00  0.00    -0.047 A 
ATOM      6  C4  UNL d   1      -0.411  -3.844  -0.339  0.00  0.00    -0.004 A 
ENDROOT
TORSDOF 0
ENDMDL
