MODEL 1
REMARK minimizedAffinity -3.81162286
REMARK minimizedRMSD -1
REMARK  0 active torsions:
REMARK  status: ('A' for Active; 'I' for Inactive)
ROOT
ATOM      1  C   UNL d   1      -0.693   0.184   0.578  0.00  0.00     0.172 C 
ATOM      2  N   UNL d   1      -0.048  -1.008   0.080  0.00  0.00    -0.070 N 
ATOM      3  C1  UNL d   1       1.135  -1.047  -0.608  0.00  0.00    -0.004 A 
ATOM      4  C2  UNL d   1       1.408  -2.365  -0.904  0.00  0.00    -0.047 A 
ATOM      5  C3  UNL d   1       0.351  -3.145  -0.377  0.00  0.00    -0.047 A 
ATOM      6  C4  UNL d   1      -0.536  -2.279   0.227  0.00  0.00    -0.004 A 
ENDROOT
TORSDOF 0
ENDMDL
