MODEL 1
REMARK minimizedAffinity -3.98385859
REMARK minimizedRMSD -1
REMARK  0 active torsions:
REMARK  status: ('A' for Active; 'I' for Inactive)
ROOT
ATOM      1  C   UNL d   1      -0.272  -0.683   0.433  0.00  0.00     0.172 C 
ATOM      2  N   UNL d   1       0.062  -1.890  -0.286  0.00  0.00    -0.070 N 
ATOM      3  C1  UNL d   1       0.069  -2.032  -1.648  0.00  0.00    -0.004 A 
ATOM      4  C2  UNL d   1       0.441  -3.328  -1.935  0.00  0.00    -0.047 A 
ATOM      5  C3  UNL d   1       0.665  -3.987  -0.704  0.00  0.00    -0.047 A 
ATOM      6  C4  UNL d   1       0.423  -3.074   0.301  0.00  0.00    -0.004 A 
ENDROOT
TORSDOF 0
ENDMDL
