MODEL 1
REMARK minimizedAffinity -2.84667444
REMARK minimizedRMSD -1
REMARK  0 active torsions:
REMARK  status: ('A' for Active; 'I' for Inactive)
ROOT
ATOM      1  C   UNL d   1       1.145   3.252   0.474  0.00  0.00     0.172 C 
ATOM      2  N   UNL d   1       1.145   2.110  -0.411  0.00  0.00    -0.070 N 
ATOM      3  C1  UNL d   1       2.225   1.642  -1.110  0.00  0.00    -0.004 A 
ATOM      4  C2  UNL d   1       1.816   0.543  -1.833  0.00  0.00    -0.047 A 
ATOM      5  C3  UNL d   1       0.442   0.344  -1.561  0.00  0.00    -0.047 A 
ATOM      6  C4  UNL d   1       0.052   1.329  -0.677  0.00  0.00    -0.004 A 
ENDROOT
TORSDOF 0
ENDMDL
