MODEL 1
REMARK minimizedAffinity -4.0692873
REMARK minimizedRMSD -1
REMARK  0 active torsions:
REMARK  status: ('A' for Active; 'I' for Inactive)
ROOT
ATOM      1  C   UNL d   1       0.604   1.144  -0.340  0.00  0.00     0.172 C 
ATOM      2  N   UNL d   1       0.118  -0.168   0.018  0.00  0.00    -0.070 N 
ATOM      3  C1  UNL d   1      -0.974  -0.428   0.801  0.00  0.00    -0.004 A 
ATOM      4  C2  UNL d   1      -1.103  -1.796   0.904  0.00  0.00    -0.047 A 
ATOM      5  C3  UNL d   1      -0.051  -2.378   0.158  0.00  0.00    -0.047 A 
ATOM      6  C4  UNL d   1       0.690  -1.347  -0.380  0.00  0.00    -0.004 A 
ENDROOT
TORSDOF 0
ENDMDL
