MODEL 1
REMARK minimizedAffinity -3.17010999
REMARK minimizedRMSD -1
REMARK  0 active torsions:
REMARK  status: ('A' for Active; 'I' for Inactive)
ROOT
ATOM      1  C   UNL d   1       0.374  -0.002  -0.328  0.00  0.00     0.172 C 
ATOM      2  N   UNL d   1       0.195  -1.363  -0.777  0.00  0.00    -0.070 N 
ATOM      3  C1  UNL d   1       0.506  -1.840  -2.022  0.00  0.00    -0.004 A 
ATOM      4  C2  UNL d   1       0.189  -3.181  -2.051  0.00  0.00    -0.047 A 
ATOM      5  C3  UNL d   1      -0.332  -3.521  -0.780  0.00  0.00    -0.047 A 
ATOM      6  C4  UNL d   1      -0.317  -2.376  -0.011  0.00  0.00    -0.004 A 
ENDROOT
TORSDOF 0
ENDMDL
