MODEL 1
REMARK minimizedAffinity -2.70880985
REMARK minimizedRMSD -1
REMARK  0 active torsions:
REMARK  status: ('A' for Active; 'I' for Inactive)
ROOT
ATOM      1  C   UNL d   1       0.340  -0.617   0.004  0.00  0.00     0.172 C 
ATOM      2  N   UNL d   1       0.415  -1.875  -0.700  0.00  0.00    -0.070 N 
ATOM      3  C1  UNL d   1      -0.070  -3.074  -0.248  0.00  0.00    -0.004 A 
ATOM      4  C2  UNL d   1       0.197  -4.026  -1.208  0.00  0.00    -0.047 A 
ATOM      5  C3  UNL d   1       0.867  -3.378  -2.273  0.00  0.00    -0.047 A 
ATOM      6  C4  UNL d   1       0.988  -2.047  -1.933  0.00  0.00    -0.004 A 
ENDROOT
TORSDOF 0
ENDMDL
