MODEL 1
REMARK minimizedAffinity -3.43786478
REMARK minimizedRMSD -1
REMARK  0 active torsions:
REMARK  status: ('A' for Active; 'I' for Inactive)
ROOT
ATOM      1  C   UNL d   1       0.381  -0.230  -0.422  0.00  0.00     0.172 C 
ATOM      2  N   UNL d   1       0.166  -1.522  -1.030  0.00  0.00    -0.070 N 
ATOM      3  C1  UNL d   1      -0.333  -2.630  -0.397  0.00  0.00    -0.004 A 
ATOM      4  C2  UNL d   1      -0.385  -3.654  -1.318  0.00  0.00    -0.047 A 
ATOM      5  C3  UNL d   1       0.098  -3.144  -2.546  0.00  0.00    -0.047 A 
ATOM      6  C4  UNL d   1       0.432  -1.823  -2.340  0.00  0.00    -0.004 A 
ENDROOT
TORSDOF 0
ENDMDL
