MODEL 1
REMARK minimizedAffinity 2.81768656
REMARK minimizedRMSD -1
REMARK  0 active torsions:
REMARK  status: ('A' for Active; 'I' for Inactive)
ROOT
ATOM      1  C1  DEN d   1       1.124  -0.970   3.543  0.00  0.00     0.130 A 
ATOM      2  C2  DEN d   1       2.025  -0.425   2.530  0.00  0.00    -0.031 A 
ATOM      3  C3  DEN d   1       2.974  -1.489   2.145  0.00  0.00     0.027 A 
ATOM      4  C4  DEN d   1       3.133  -3.914   3.010  0.00  0.00     0.027 A 
ATOM      5  C5  DEN d   1       2.591  -4.832   3.881  0.00  0.00    -0.003 A 
ATOM      6  C6  DEN d   1       1.552  -4.521   4.718  0.00  0.00     0.001 A 
ATOM      7  C7  DEN d   1       0.993  -3.271   4.669  0.00  0.00     0.017 A 
ATOM      8  C8  DEN d   1       1.539  -2.337   3.799  0.00  0.00    -0.094 A 
ATOM      9  C9  DEN d   1       2.581  -2.675   2.952  0.00  0.00    -0.072 A 
ENDROOT
TORSDOF 0
ENDMDL
