MODEL 1
REMARK minimizedAffinity 6.08553314
REMARK minimizedRMSD -1
REMARK  0 active torsions:
REMARK  status: ('A' for Active; 'I' for Inactive)
ROOT
ATOM      1  C1  DEN d   1       2.592  -0.997   1.914  0.00  0.00     0.130 A 
ATOM      2  C2  DEN d   1       1.142  -1.167   1.918  0.00  0.00    -0.031 A 
ATOM      3  C3  DEN d   1       0.818  -2.306   2.800  0.00  0.00     0.027 A 
ATOM      4  C4  DEN d   1       2.413  -3.812   4.157  0.00  0.00     0.027 A 
ATOM      5  C5  DEN d   1       3.733  -4.062   4.463  0.00  0.00    -0.003 A 
ATOM      6  C6  DEN d   1       4.758  -3.335   3.919  0.00  0.00     0.001 A 
ATOM      7  C7  DEN d   1       4.478  -2.293   3.074  0.00  0.00     0.017 A 
ATOM      8  C8  DEN d   1       3.151  -2.040   2.755  0.00  0.00    -0.094 A 
ATOM      9  C9  DEN d   1       2.128  -2.779   3.325  0.00  0.00    -0.072 A 
ENDROOT
TORSDOF 0
ENDMDL
