MODEL 1
REMARK minimizedAffinity 9.59046078
REMARK minimizedRMSD -1
REMARK  0 active torsions:
REMARK  status: ('A' for Active; 'I' for Inactive)
ROOT
ATOM      1  C1  DEN d   1       0.965  -4.226   5.977  0.00  0.00     0.130 A 
ATOM      2  C2  DEN d   1       1.309  -5.645   6.000  0.00  0.00    -0.031 A 
ATOM      3  C3  DEN d   1       1.873  -5.999   4.682  0.00  0.00     0.027 A 
ATOM      4  C4  DEN d   1       2.251  -4.495   2.621  0.00  0.00     0.027 A 
ATOM      5  C5  DEN d   1       2.103  -3.221   2.119  0.00  0.00    -0.003 A 
ATOM      6  C6  DEN d   1       1.540  -2.209   2.850  0.00  0.00     0.001 A 
ATOM      7  C7  DEN d   1       1.144  -2.443   4.140  0.00  0.00     0.017 A 
ATOM      8  C8  DEN d   1       1.282  -3.727   4.651  0.00  0.00    -0.094 A 
ATOM      9  C9  DEN d   1       1.865  -4.734   3.900  0.00  0.00    -0.072 A 
ENDROOT
TORSDOF 0
ENDMDL
