MODEL 1
REMARK minimizedAffinity 4.19474745
REMARK minimizedRMSD -1
REMARK  0 active torsions:
REMARK  status: ('A' for Active; 'I' for Inactive)
ROOT
ATOM      1  C1  DEN d   1       1.287  -3.181   5.894  0.00  0.00     0.130 A 
ATOM      2  C2  DEN d   1       1.418  -4.632   6.000  0.00  0.00    -0.031 A 
ATOM      3  C3  DEN d   1       1.700  -5.164   4.652  0.00  0.00     0.027 A 
ATOM      4  C4  DEN d   1       1.951  -3.890   2.423  0.00  0.00     0.027 A 
ATOM      5  C5  DEN d   1       1.913  -2.648   1.830  0.00  0.00    -0.003 A 
ATOM      6  C6  DEN d   1       1.633  -1.509   2.538  0.00  0.00     0.001 A 
ATOM      7  C7  DEN d   1       1.423  -1.584   3.890  0.00  0.00     0.017 A 
ATOM      8  C8  DEN d   1       1.453  -2.835   4.494  0.00  0.00    -0.094 A 
ATOM      9  C9  DEN d   1       1.750  -3.972   3.763  0.00  0.00    -0.072 A 
ENDROOT
TORSDOF 0
ENDMDL
