MODEL 1
REMARK minimizedAffinity 14.5600586
REMARK minimizedRMSD -1
REMARK  0 active torsions:
REMARK  status: ('A' for Active; 'I' for Inactive)
ROOT
ATOM      1  C1  DEN d   1       2.627  -5.772  -1.779  0.00  0.00     0.130 A 
ATOM      2  C2  DEN d   1       3.897  -5.782  -1.057  0.00  0.00    -0.031 A 
ATOM      3  C3  DEN d   1       4.986  -5.863  -2.050  0.00  0.00     0.027 A 
ATOM      4  C4  DEN d   1       4.832  -5.969  -4.623  0.00  0.00     0.027 A 
ATOM      5  C5  DEN d   1       3.968  -5.999  -5.695  0.00  0.00    -0.003 A 
ATOM      6  C6  DEN d   1       2.608  -5.990  -5.537  0.00  0.00     0.001 A 
ATOM      7  C7  DEN d   1       2.071  -5.904  -4.280  0.00  0.00     0.017 A 
ATOM      8  C8  DEN d   1       2.935  -5.881  -3.194  0.00  0.00    -0.094 A 
ATOM      9  C9  DEN d   1       4.308  -5.878  -3.374  0.00  0.00    -0.072 A 
ENDROOT
TORSDOF 0
ENDMDL
