MODEL 1
REMARK minimizedAffinity -2.13725567
REMARK minimizedRMSD -1
REMARK  0 active torsions:
REMARK  status: ('A' for Active; 'I' for Inactive)
ROOT
ATOM      1  C1  DEN d   1       5.219  -5.998  -2.538  0.00  0.00     0.130 A 
ATOM      2  C2  DEN d   1       4.557  -5.961  -1.236  0.00  0.00    -0.031 A 
ATOM      3  C3  DEN d   1       3.099  -5.946  -1.466  0.00  0.00     0.027 A 
ATOM      4  C4  DEN d   1       1.807  -5.980  -3.698  0.00  0.00     0.027 A 
ATOM      5  C5  DEN d   1       1.935  -5.999  -5.069  0.00  0.00    -0.003 A 
ATOM      6  C6  DEN d   1       3.157  -5.985  -5.688  0.00  0.00     0.001 A 
ATOM      7  C7  DEN d   1       4.300  -5.997  -4.934  0.00  0.00     0.017 A 
ATOM      8  C8  DEN d   1       4.179  -5.969  -3.551  0.00  0.00    -0.094 A 
ATOM      9  C9  DEN d   1       2.935  -5.996  -2.944  0.00  0.00    -0.072 A 
ENDROOT
TORSDOF 0
ENDMDL
