MODEL 1
REMARK minimizedAffinity 3.31462765
REMARK minimizedRMSD -1
REMARK  0 active torsions:
REMARK  status: ('A' for Active; 'I' for Inactive)
ROOT
ATOM      1  C1  DEN d   1       3.748  -5.879  -1.960  0.00  0.00     0.130 A 
ATOM      2  C2  DEN d   1       5.204  -5.887  -2.077  0.00  0.00    -0.031 A 
ATOM      3  C3  DEN d   1       5.547  -5.913  -3.513  0.00  0.00     0.027 A 
ATOM      4  C4  DEN d   1       3.973  -5.935  -5.556  0.00  0.00     0.027 A 
ATOM      5  C5  DEN d   1       2.655  -5.947  -5.959  0.00  0.00    -0.003 A 
ATOM      6  C6  DEN d   1       1.619  -5.971  -5.063  0.00  0.00     0.001 A 
ATOM      7  C7  DEN d   1       1.882  -5.939  -3.719  0.00  0.00     0.017 A 
ATOM      8  C8  DEN d   1       3.208  -5.934  -3.306  0.00  0.00    -0.094 A 
ATOM      9  C9  DEN d   1       4.241  -5.897  -4.227  0.00  0.00    -0.072 A 
ENDROOT
TORSDOF 0
ENDMDL
