MODEL 1
REMARK minimizedAffinity 17.7317314
REMARK minimizedRMSD -1
REMARK  0 active torsions:
REMARK  status: ('A' for Active; 'I' for Inactive)
ROOT
ATOM      1  C1  DEN d   1       3.369  -5.954  -3.849  0.00  0.00     0.130 A 
ATOM      2  C2  DEN d   1       1.912  -5.976  -3.946  0.00  0.00    -0.031 A 
ATOM      3  C3  DEN d   1       1.363  -5.994  -2.575  0.00  0.00     0.027 A 
ATOM      4  C4  DEN d   1       2.621  -5.984  -0.324  0.00  0.00     0.027 A 
ATOM      5  C5  DEN d   1       3.865  -5.979   0.267  0.00  0.00    -0.003 A 
ATOM      6  C6  DEN d   1       5.022  -5.999  -0.466  0.00  0.00     0.001 A 
ATOM      7  C7  DEN d   1       4.958  -5.980  -1.835  0.00  0.00     0.017 A 
ATOM      8  C8  DEN d   1       3.707  -5.993  -2.437  0.00  0.00    -0.094 A 
ATOM      9  C9  DEN d   1       2.550  -5.959  -1.679  0.00  0.00    -0.072 A 
ENDROOT
TORSDOF 0
ENDMDL
