MODEL 1
REMARK minimizedAffinity 12.8460579
REMARK minimizedRMSD -1
REMARK  0 active torsions:
REMARK  status: ('A' for Active; 'I' for Inactive)
ROOT
ATOM      1  C1  DEN d   1      -3.798   1.457  -3.275  0.00  0.00     0.130 A 
ATOM      2  C2  DEN d   1      -3.193   2.329  -2.272  0.00  0.00    -0.031 A 
ATOM      3  C3  DEN d   1      -2.512   1.476  -1.277  0.00  0.00     0.027 A 
ATOM      4  C4  DEN d   1      -2.332  -1.095  -1.197  0.00  0.00     0.027 A 
ATOM      5  C5  DEN d   1      -2.694  -2.266  -1.825  0.00  0.00    -0.003 A 
ATOM      6  C6  DEN d   1      -3.471  -2.280  -2.953  0.00  0.00     0.001 A 
ATOM      7  C7  DEN d   1      -3.875  -1.096  -3.513  0.00  0.00     0.017 A 
ATOM      8  C8  DEN d   1      -3.520   0.088  -2.880  0.00  0.00    -0.094 A 
ATOM      9  C9  DEN d   1      -2.723   0.081  -1.748  0.00  0.00    -0.072 A 
ENDROOT
TORSDOF 0
ENDMDL
