MODEL 1
REMARK minimizedAffinity 9.83647156
REMARK minimizedRMSD -1
REMARK  0 active torsions:
REMARK  status: ('A' for Active; 'I' for Inactive)
ROOT
ATOM      1  C1  DEN d   1       1.227  -0.776   3.561  0.00  0.00     0.130 A 
ATOM      2  C2  DEN d   1       1.289  -1.704   2.435  0.00  0.00    -0.031 A 
ATOM      3  C3  DEN d   1       2.039  -1.049   1.344  0.00  0.00     0.027 A 
ATOM      4  C4  DEN d   1       3.107   1.298   1.291  0.00  0.00     0.027 A 
ATOM      5  C5  DEN d   1       3.306   2.457   2.008  0.00  0.00    -0.003 A 
ATOM      6  C6  DEN d   1       2.802   2.631   3.270  0.00  0.00     0.001 A 
ATOM      7  C7  DEN d   1       2.110   1.613   3.871  0.00  0.00     0.017 A 
ATOM      8  C8  DEN d   1       1.899   0.444   3.151  0.00  0.00    -0.094 A 
ATOM      9  C9  DEN d   1       2.428   0.282   1.882  0.00  0.00    -0.072 A 
ENDROOT
TORSDOF 0
ENDMDL
