MODEL 1
REMARK minimizedAffinity -3.67493129
REMARK minimizedRMSD -1
REMARK  0 active torsions:
REMARK  status: ('A' for Active; 'I' for Inactive)
ROOT
ATOM      1  N1  IND d   1       0.468  -2.017   1.888  0.00  0.00    -0.196 N 
ATOM      2  C2  IND d   1       1.602  -2.174   2.636  0.00  0.00     0.054 A 
ATOM      3  C3  IND d   1       2.444  -1.136   2.436  0.00  0.00    -0.031 A 
ATOM      4  C4  IND d   1       2.122   0.980   1.006  0.00  0.00     0.051 A 
ATOM      5  C5  IND d   1       1.263   1.556   0.112  0.00  0.00    -0.031 A 
ATOM      6  C6  IND d   1       0.070   0.959  -0.240  0.00  0.00     0.015 A 
ATOM      7  C7  IND d   1      -0.316  -0.236   0.299  0.00  0.00    -0.016 A 
ATOM      8  C8  IND d   1       0.557  -0.826   1.202  0.00  0.00    -0.047 A 
ATOM      9  C9  IND d   1       1.789  -0.246   1.531  0.00  0.00    -0.096 A 
ATOM     10  HN1 IND d   1      -0.190  -2.570   1.853  0.00  0.00     0.298 HD
ENDROOT
TORSDOF 0
ENDMDL
