MODEL 1
REMARK minimizedAffinity -2.47860694
REMARK minimizedRMSD -1
REMARK  0 active torsions:
REMARK  status: ('A' for Active; 'I' for Inactive)
ROOT
ATOM      1  N1  IND d   1       0.192  -2.107   2.261  0.00  0.00    -0.196 N 
ATOM      2  C2  IND d   1       1.257  -2.542   3.001  0.00  0.00     0.054 A 
ATOM      3  C3  IND d   1       2.355  -1.804   2.724  0.00  0.00    -0.031 A 
ATOM      4  C4  IND d   1       2.608   0.232   1.168  0.00  0.00     0.051 A 
ATOM      5  C5  IND d   1       1.922   0.980   0.253  0.00  0.00    -0.031 A 
ATOM      6  C6  IND d   1       0.597   0.734  -0.044  0.00  0.00     0.015 A 
ATOM      7  C7  IND d   1      -0.098  -0.266   0.575  0.00  0.00    -0.016 A 
ATOM      8  C8  IND d   1       0.597  -1.032   1.500  0.00  0.00    -0.047 A 
ATOM      9  C9  IND d   1       1.954  -0.815   1.774  0.00  0.00    -0.096 A 
ATOM     10  HN1 IND d   1      -0.598  -2.446   2.271  0.00  0.00     0.298 HD
ENDROOT
TORSDOF 0
ENDMDL
