MODEL 1
REMARK minimizedAffinity -0.725286782
REMARK minimizedRMSD -1
REMARK  0 active torsions:
REMARK  status: ('A' for Active; 'I' for Inactive)
ROOT
ATOM      1  N1  IND d   1      -0.976  -0.966   0.657  0.00  0.00    -0.196 N 
ATOM      2  C2  IND d   1      -1.784  -0.212  -0.147  0.00  0.00     0.054 A 
ATOM      3  C3  IND d   1      -1.169   0.945  -0.481  0.00  0.00    -0.031 A 
ATOM      4  C4  IND d   1       1.203   1.761   0.097  0.00  0.00     0.051 A 
ATOM      5  C5  IND d   1       2.305   1.434   0.837  0.00  0.00    -0.031 A 
ATOM      6  C6  IND d   1       2.371   0.265   1.568  0.00  0.00     0.015 A 
ATOM      7  C7  IND d   1       1.339  -0.629   1.576  0.00  0.00    -0.016 A 
ATOM      8  C8  IND d   1       0.216  -0.297   0.832  0.00  0.00    -0.047 A 
ATOM      9  C9  IND d   1       0.126   0.908   0.122  0.00  0.00    -0.096 A 
ATOM     10  HN1 IND d   1      -1.178  -1.729   0.997  0.00  0.00     0.298 HD
ENDROOT
TORSDOF 0
ENDMDL
