MODEL 1
REMARK minimizedAffinity 2.79880309
REMARK minimizedRMSD -1
REMARK  0 active torsions:
REMARK  status: ('A' for Active; 'I' for Inactive)
ROOT
ATOM      1  N1  IND d   1       0.217  -2.271   2.165  0.00  0.00    -0.196 N 
ATOM      2  C2  IND d   1       1.135  -2.569   3.133  0.00  0.00     0.054 A 
ATOM      3  C3  IND d   1       2.131  -1.654   3.134  0.00  0.00    -0.031 A 
ATOM      4  C4  IND d   1       2.402   0.470   1.705  0.00  0.00     0.051 A 
ATOM      5  C5  IND d   1       1.836   1.145   0.660  0.00  0.00    -0.031 A 
ATOM      6  C6  IND d   1       0.677   0.708   0.053  0.00  0.00     0.015 A 
ATOM      7  C7  IND d   1       0.031  -0.419   0.477  0.00  0.00    -0.016 A 
ATOM      8  C8  IND d   1       0.606  -1.110   1.534  0.00  0.00    -0.047 A 
ATOM      9  C9  IND d   1       1.806  -0.695   2.126  0.00  0.00    -0.096 A 
ATOM     10  HN1 IND d   1      -0.486  -2.731   1.982  0.00  0.00     0.298 HD
ENDROOT
TORSDOF 0
ENDMDL
