MODEL 1
REMARK minimizedAffinity -4.05490398
REMARK minimizedRMSD -1
REMARK  0 active torsions:
REMARK  status: ('A' for Active; 'I' for Inactive)
ROOT
ATOM      1  N1  IND d   1       0.669  -2.363   2.159  0.00  0.00    -0.196 N 
ATOM      2  C2  IND d   1       1.780  -2.248   2.948  0.00  0.00     0.054 A 
ATOM      3  C3  IND d   1       2.461  -1.121   2.638  0.00  0.00    -0.031 A 
ATOM      4  C4  IND d   1       1.880   0.728   0.945  0.00  0.00     0.051 A 
ATOM      5  C5  IND d   1       0.983   1.049  -0.035  0.00  0.00    -0.031 A 
ATOM      6  C6  IND d   1      -0.089   0.233  -0.338  0.00  0.00     0.015 A 
ATOM      7  C7  IND d   1      -0.309  -0.933   0.339  0.00  0.00    -0.016 A 
ATOM      8  C8  IND d   1       0.604  -1.265   1.330  0.00  0.00    -0.047 A 
ATOM      9  C9  IND d   1       1.717  -0.462   1.612  0.00  0.00    -0.096 A 
ATOM     10  HN1 IND d   1       0.105  -3.012   2.178  0.00  0.00     0.298 HD
ENDROOT
TORSDOF 0
ENDMDL
