MODEL 1
REMARK minimizedAffinity -1.16755319
REMARK minimizedRMSD -1
REMARK  0 active torsions:
REMARK  status: ('A' for Active; 'I' for Inactive)
ROOT
ATOM      1  N1  IND d   1       2.693  -1.066   2.265  0.00  0.00    -0.196 N 
ATOM      2  C2  IND d   1       3.516   0.025   2.271  0.00  0.00     0.054 A 
ATOM      3  C3  IND d   1       2.941   1.051   1.604  0.00  0.00    -0.031 A 
ATOM      4  C4  IND d   1       0.613   1.193   0.513  0.00  0.00     0.051 A 
ATOM      5  C5  IND d   1      -0.486   0.437   0.219  0.00  0.00    -0.031 A 
ATOM      6  C6  IND d   1      -0.586  -0.885   0.603  0.00  0.00     0.015 A 
ATOM      7  C7  IND d   1       0.410  -1.499   1.307  0.00  0.00    -0.016 A 
ATOM      8  C8  IND d   1       1.532  -0.736   1.601  0.00  0.00    -0.047 A 
ATOM      9  C9  IND d   1       1.657   0.593   1.178  0.00  0.00    -0.096 A 
ATOM     10  HN1 IND d   1       2.870  -1.830   2.617  0.00  0.00     0.298 HD
ENDROOT
TORSDOF 0
ENDMDL
