MODEL 1
REMARK minimizedAffinity 3.20940804
REMARK minimizedRMSD -1
REMARK  0 active torsions:
REMARK  status: ('A' for Active; 'I' for Inactive)
ROOT
ATOM      1  C   UNL d   1       0.901  -0.043  -0.319  0.00  0.00     0.023 A 
ATOM      2  C1  UNL d   1      -0.368  -0.221  -0.872  0.00  0.00     0.003 A 
ATOM      3  C2  UNL d   1      -1.431   0.584  -0.457  0.00  0.00     0.048 A 
ATOM      4  C3  UNL d   1      -1.217   1.566   0.510  0.00  0.00     0.023 A 
ATOM      5  C4  UNL d   1       0.051   1.748   1.065  0.00  0.00     0.048 A 
ATOM      6  C5  UNL d   1       1.110   0.940   0.648  0.00  0.00     0.003 A 
ATOM      7  I   UNL d   1      -2.797   2.767   1.129  0.00  0.00    -0.146 I 
ENDROOT
TORSDOF 0
ENDMDL
