MODEL 1
REMARK minimizedAffinity 8.54100132
REMARK minimizedRMSD -1
REMARK  0 active torsions:
REMARK  status: ('A' for Active; 'I' for Inactive)
ROOT
ATOM      1  C   UNL d   1      -2.384   2.808   2.633  0.00  0.00     0.023 A 
ATOM      2  C1  UNL d   1      -3.657   3.372   2.549  0.00  0.00     0.003 A 
ATOM      3  C2  UNL d   1      -4.667   2.718   1.840  0.00  0.00     0.048 A 
ATOM      4  C3  UNL d   1      -4.396   1.500   1.217  0.00  0.00     0.023 A 
ATOM      5  C4  UNL d   1      -3.124   0.931   1.299  0.00  0.00     0.048 A 
ATOM      6  C5  UNL d   1      -2.118   1.589   2.009  0.00  0.00     0.003 A 
ATOM      7  I   UNL d   1      -5.897   0.524   0.161  0.00  0.00    -0.146 I 
ENDROOT
TORSDOF 0
ENDMDL
