MODEL 1
REMARK minimizedAffinity 0.92486006
REMARK minimizedRMSD -1
REMARK  0 active torsions:
REMARK  status: ('A' for Active; 'I' for Inactive)
ROOT
ATOM      1  C   UNL d   1      -4.889   0.569   0.507  0.00  0.00     0.023 A 
ATOM      2  C1  UNL d   1      -4.308   1.373   1.487  0.00  0.00     0.003 A 
ATOM      3  C2  UNL d   1      -2.991   1.814   1.340  0.00  0.00     0.048 A 
ATOM      4  C3  UNL d   1      -2.262   1.448   0.209  0.00  0.00     0.023 A 
ATOM      5  C4  UNL d   1      -2.840   0.645  -0.775  0.00  0.00     0.048 A 
ATOM      6  C5  UNL d   1      -4.156   0.205  -0.623  0.00  0.00     0.003 A 
ATOM      7  I   UNL d   1      -0.302   2.103  -0.013  0.00  0.00    -0.146 I 
ENDROOT
TORSDOF 0
ENDMDL
