MODEL 1
REMARK minimizedAffinity 5.01684713
REMARK minimizedRMSD -1
REMARK  0 active torsions:
REMARK  status: ('A' for Active; 'I' for Inactive)
ROOT
ATOM      1  C   UNL d   1      -1.200   2.642   2.464  0.00  0.00     0.023 A 
ATOM      2  C1  UNL d   1      -0.397   1.602   2.933  0.00  0.00     0.003 A 
ATOM      3  C2  UNL d   1       0.752   1.235   2.231  0.00  0.00     0.048 A 
ATOM      4  C3  UNL d   1       1.094   1.913   1.061  0.00  0.00     0.023 A 
ATOM      5  C4  UNL d   1       0.294   2.955   0.588  0.00  0.00     0.048 A 
ATOM      6  C5  UNL d   1      -0.855   3.317   1.293  0.00  0.00     0.003 A 
ATOM      7  I   UNL d   1       2.805   1.369   0.014  0.00  0.00    -0.146 I 
ENDROOT
TORSDOF 0
ENDMDL
