MODEL 1
REMARK minimizedAffinity -1.93088317
REMARK minimizedRMSD -1
REMARK  0 active torsions:
REMARK  status: ('A' for Active; 'I' for Inactive)
ROOT
ATOM      1  C   UNL d   1      -4.075   1.587   1.695  0.00  0.00     0.023 A 
ATOM      2  C1  UNL d   1      -3.227   2.415   2.430  0.00  0.00     0.003 A 
ATOM      3  C2  UNL d   1      -1.887   2.546   2.063  0.00  0.00     0.048 A 
ATOM      4  C3  UNL d   1      -1.401   1.847   0.959  0.00  0.00     0.023 A 
ATOM      5  C4  UNL d   1      -2.246   1.018   0.219  0.00  0.00     0.048 A 
ATOM      6  C5  UNL d   1      -3.585   0.889   0.591  0.00  0.00     0.003 A 
ATOM      7  I   UNL d   1       0.595   2.041   0.410  0.00  0.00    -0.146 I 
ENDROOT
TORSDOF 0
ENDMDL
