MODEL 1
REMARK minimizedAffinity 1.54063237
REMARK minimizedRMSD -1
REMARK  0 active torsions:
REMARK  status: ('A' for Active; 'I' for Inactive)
ROOT
ATOM      1  C   UNL d   1      -3.815   2.465  -5.179  0.00  0.00     0.023 A 
ATOM      2  C1  UNL d   1      -2.948   1.630  -4.475  0.00  0.00     0.003 A 
ATOM      3  C2  UNL d   1      -3.405   0.933  -3.354  0.00  0.00     0.048 A 
ATOM      4  C3  UNL d   1      -4.730   1.075  -2.944  0.00  0.00     0.023 A 
ATOM      5  C4  UNL d   1      -5.601   1.909  -3.647  0.00  0.00     0.048 A 
ATOM      6  C5  UNL d   1      -5.140   2.604  -4.766  0.00  0.00     0.003 A 
ATOM      7  I   UNL d   1      -5.412   0.038  -1.277  0.00  0.00    -0.146 I 
ENDROOT
TORSDOF 0
ENDMDL
