MODEL 1
REMARK minimizedAffinity 7.32111263
REMARK minimizedRMSD -1
REMARK  0 active torsions:
REMARK  status: ('A' for Active; 'I' for Inactive)
ROOT
ATOM      1  C   UNL d   1       3.229  -2.277   1.036  0.00  0.00     0.023 A 
ATOM      2  C1  UNL d   1       3.169  -1.306   2.036  0.00  0.00     0.003 A 
ATOM      3  C2  UNL d   1       2.858   0.016   1.710  0.00  0.00     0.048 A 
ATOM      4  C3  UNL d   1       2.607   0.360   0.382  0.00  0.00     0.023 A 
ATOM      5  C4  UNL d   1       2.665  -0.608  -0.622  0.00  0.00     0.048 A 
ATOM      6  C5  UNL d   1       2.978  -1.928  -0.292  0.00  0.00     0.003 A 
ATOM      7  I   UNL d   1       2.144   2.326  -0.106  0.00  0.00    -0.146 I 
ENDROOT
TORSDOF 0
ENDMDL
