MODEL 1
REMARK minimizedAffinity 5.54609108
REMARK minimizedRMSD -1
REMARK  0 active torsions:
REMARK  status: ('A' for Active; 'I' for Inactive)
ROOT
ATOM      1  C   UNL d   1       3.697  -0.714   0.879  0.00  0.00     0.023 A 
ATOM      2  C1  UNL d   1       3.020  -1.481  -0.069  0.00  0.00     0.003 A 
ATOM      3  C2  UNL d   1       1.925  -0.945  -0.750  0.00  0.00     0.048 A 
ATOM      4  C3  UNL d   1       1.513   0.359  -0.479  0.00  0.00     0.023 A 
ATOM      5  C4  UNL d   1       2.187   1.131   0.469  0.00  0.00     0.048 A 
ATOM      6  C5  UNL d   1       3.281   0.591   1.148  0.00  0.00     0.003 A 
ATOM      7  I   UNL d   1      -0.117   1.159  -1.491  0.00  0.00    -0.146 I 
ENDROOT
TORSDOF 0
ENDMDL
