MODEL 1
REMARK minimizedAffinity 6.80430698
REMARK minimizedRMSD -1
REMARK  0 active torsions:
REMARK  status: ('A' for Active; 'I' for Inactive)
ROOT
ATOM      1  C   UNL d   1      -4.430   1.665  -5.560  0.00  0.00     0.023 A 
ATOM      2  C1  UNL d   1      -4.614   2.713  -4.657  0.00  0.00     0.003 A 
ATOM      3  C2  UNL d   1      -4.853   2.440  -3.308  0.00  0.00     0.048 A 
ATOM      4  C3  UNL d   1      -4.907   1.118  -2.869  0.00  0.00     0.023 A 
ATOM      5  C4  UNL d   1      -4.723   0.066  -3.769  0.00  0.00     0.048 A 
ATOM      6  C5  UNL d   1      -4.485   0.344  -5.116  0.00  0.00     0.003 A 
ATOM      7  I   UNL d   1      -5.263   0.710  -0.863  0.00  0.00    -0.146 I 
ENDROOT
TORSDOF 0
ENDMDL
