MODEL 1
REMARK minimizedAffinity 1.81067944
REMARK minimizedRMSD -1
REMARK  0 active torsions:
REMARK  status: ('A' for Active; 'I' for Inactive)
ROOT
ATOM      1  C   UNL d   1      -5.000   1.172  -4.856  0.00  0.00     0.023 A 
ATOM      2  C1  UNL d   1      -5.614   2.142  -4.064  0.00  0.00     0.003 A 
ATOM      3  C2  UNL d   1      -5.753   1.937  -2.690  0.00  0.00     0.048 A 
ATOM      4  C3  UNL d   1      -5.275   0.761  -2.114  0.00  0.00     0.023 A 
ATOM      5  C4  UNL d   1      -4.658  -0.212  -2.903  0.00  0.00     0.048 A 
ATOM      6  C5  UNL d   1      -4.523  -0.004  -4.277  0.00  0.00     0.003 A 
ATOM      7  I   UNL d   1      -5.480   0.454  -0.069  0.00  0.00    -0.146 I 
ENDROOT
TORSDOF 0
ENDMDL
