MODEL 1
REMARK minimizedAffinity 4.47387838
REMARK minimizedRMSD -1
REMARK  0 active torsions:
REMARK  status: ('A' for Active; 'I' for Inactive)
ROOT
ATOM      1  C   UNL d   1      -0.649  -3.413  -1.558  0.00  0.00     0.023 A 
ATOM      2  C1  UNL d   1      -0.164  -3.856  -0.327  0.00  0.00     0.003 A 
ATOM      3  C2  UNL d   1       0.876  -3.169   0.303  0.00  0.00     0.048 A 
ATOM      4  C3  UNL d   1       1.427  -2.041  -0.303  0.00  0.00     0.023 A 
ATOM      5  C4  UNL d   1       0.944  -1.594  -1.534  0.00  0.00     0.048 A 
ATOM      6  C5  UNL d   1      -0.095  -2.284  -2.161  0.00  0.00     0.003 A 
ATOM      7  I   UNL d   1       2.975  -1.017   0.632  0.00  0.00    -0.146 I 
ENDROOT
TORSDOF 0
ENDMDL
