MODEL 1
REMARK minimizedAffinity 4.7012763
REMARK minimizedRMSD -1
REMARK  0 active torsions:
REMARK  status: ('A' for Active; 'I' for Inactive)
ROOT
ATOM      1  C   UNL d   1      -5.892   1.361  -4.526  0.00  0.00     0.023 A 
ATOM      2  C1  UNL d   1      -5.266   0.277  -5.141  0.00  0.00     0.003 A 
ATOM      3  C2  UNL d   1      -4.105  -0.266  -4.587  0.00  0.00     0.048 A 
ATOM      4  C3  UNL d   1      -3.576   0.279  -3.418  0.00  0.00     0.023 A 
ATOM      5  C4  UNL d   1      -4.200   1.363  -2.799  0.00  0.00     0.048 A 
ATOM      6  C5  UNL d   1      -5.360   1.904  -3.357  0.00  0.00     0.003 A 
ATOM      7  I   UNL d   1      -1.848  -0.528  -2.591  0.00  0.00    -0.146 I 
ENDROOT
TORSDOF 0
ENDMDL
