MODEL 1
REMARK minimizedAffinity 4.99789429
REMARK minimizedRMSD -1
REMARK  0 active torsions:
REMARK  status: ('A' for Active; 'I' for Inactive)
ROOT
ATOM      1  C   UNL d   1       3.141  -0.919   0.424  0.00  0.00     0.023 A 
ATOM      2  C1  UNL d   1       2.418  -0.765  -0.759  0.00  0.00     0.003 A 
ATOM      3  C2  UNL d   1       1.418  -1.681  -1.092  0.00  0.00     0.048 A 
ATOM      4  C3  UNL d   1       1.146  -2.748  -0.237  0.00  0.00     0.023 A 
ATOM      5  C4  UNL d   1       1.866  -2.906   0.948  0.00  0.00     0.048 A 
ATOM      6  C5  UNL d   1       2.866  -1.988   1.276  0.00  0.00     0.003 A 
ATOM      7  I   UNL d   1      -0.342  -4.113  -0.730  0.00  0.00    -0.146 I 
ENDROOT
TORSDOF 0
ENDMDL
