MODEL 1
REMARK minimizedAffinity 15.8344746
REMARK minimizedRMSD -1
REMARK  0 active torsions:
REMARK  status: ('A' for Active; 'I' for Inactive)
ROOT
ATOM      1  C   UNL d   1      -5.205   3.119  -3.985  0.00  0.00     0.023 A 
ATOM      2  C1  UNL d   1      -4.866   1.766  -3.943  0.00  0.00     0.003 A 
ATOM      3  C2  UNL d   1      -4.975   1.055  -2.746  0.00  0.00     0.048 A 
ATOM      4  C3  UNL d   1      -5.425   1.702  -1.595  0.00  0.00     0.023 A 
ATOM      5  C4  UNL d   1      -5.765   3.055  -1.633  0.00  0.00     0.048 A 
ATOM      6  C5  UNL d   1      -5.654   3.762  -2.831  0.00  0.00     0.003 A 
ATOM      7  I   UNL d   1      -5.588   0.645   0.187  0.00  0.00    -0.146 I 
ENDROOT
TORSDOF 0
ENDMDL
