MODEL 1
REMARK minimizedAffinity -3.58756685
REMARK minimizedRMSD -1
REMARK  2 active torsions:
REMARK  status: ('A' for Active; 'I' for Inactive)
REMARK    1  A    between atoms: C1_2  and  C2_3 
REMARK    2  A    between atoms: C2_3  and  C3_4 
ROOT
ATOM      1  C3  UNL d   1      -0.311   0.060   0.713  0.00  0.00    -0.075 A 
ATOM      2  C4  UNL d   1      -0.917   1.314   0.878  0.00  0.00     0.002 A 
ATOM      3  C5  UNL d   1      -1.141   1.830   2.154  0.00  0.00     0.002 A 
ATOM      4  C6  UNL d   1      -0.771   1.098   3.280  0.00  0.00    -0.004 A 
ATOM      5  C7  UNL d   1      -0.183  -0.156   3.129  0.00  0.00     0.002 A 
ATOM      6  C8  UNL d   1       0.046  -0.674   1.852  0.00  0.00     0.002 A 
ENDROOT
BRANCH   1   7
ATOM      7  C2  UNL d   1      -0.039  -0.491  -0.666  0.00  0.00     0.056 C 
BRANCH   7   8
ATOM      8  C1  UNL d   1       0.356  -1.972  -0.679  0.00  0.00     0.007 C 
ATOM      9  C   UNL d   1      -0.242  -2.743  -1.849  0.00  0.00     0.009 C 
ENDBRANCH   7   8
ENDBRANCH   1   7
TORSDOF 2
ENDMDL
