MODEL 1
REMARK minimizedAffinity -5.31044102
REMARK minimizedRMSD -1
REMARK  2 active torsions:
REMARK  status: ('A' for Active; 'I' for Inactive)
REMARK    1  A    between atoms: C1_2  and  C2_3 
REMARK    2  A    between atoms: C2_3  and  C3_4 
ROOT
ATOM      1  C3  UNL d   1      -0.730  -0.285  -0.063  0.00  0.00    -0.075 A 
ATOM      2  C4  UNL d   1       0.254  -0.304   0.936  0.00  0.00     0.002 A 
ATOM      3  C5  UNL d   1       0.092   0.440   2.105  0.00  0.00     0.002 A 
ATOM      4  C6  UNL d   1      -1.049   1.220   2.285  0.00  0.00    -0.004 A 
ATOM      5  C7  UNL d   1      -2.025   1.260   1.293  0.00  0.00     0.002 A 
ATOM      6  C8  UNL d   1      -1.868   0.512   0.124  0.00  0.00     0.002 A 
ENDROOT
BRANCH   1   7
ATOM      7  C2  UNL d   1      -0.575  -1.111  -1.317  0.00  0.00     0.056 C 
BRANCH   7   8
ATOM      8  C1  UNL d   1       0.139  -2.449  -1.098  0.00  0.00     0.007 C 
ATOM      9  C   UNL d   1      -0.660  -3.645  -1.598  0.00  0.00     0.009 C 
ENDBRANCH   7   8
ENDBRANCH   1   7
TORSDOF 2
ENDMDL
