MODEL 1
REMARK minimizedAffinity -4.35641003
REMARK minimizedRMSD -1
REMARK  2 active torsions:
REMARK  status: ('A' for Active; 'I' for Inactive)
REMARK    1  A    between atoms: C1_2  and  C2_3 
REMARK    2  A    between atoms: C2_3  and  C3_4 
ROOT
ATOM      1  C3  UNL d   1      -0.620   0.778  -0.321  0.00  0.00    -0.075 A 
ATOM      2  C4  UNL d   1       0.035  -0.442  -0.100  0.00  0.00     0.002 A 
ATOM      3  C5  UNL d   1       1.324  -0.654  -0.592  0.00  0.00     0.002 A 
ATOM      4  C6  UNL d   1       1.969   0.345  -1.318  0.00  0.00    -0.004 A 
ATOM      5  C7  UNL d   1       1.321   1.555  -1.557  0.00  0.00     0.002 A 
ATOM      6  C8  UNL d   1       0.034   1.772  -1.063  0.00  0.00     0.002 A 
ENDROOT
BRANCH   1   7
ATOM      7  C2  UNL d   1      -2.002   1.024   0.233  0.00  0.00     0.056 C 
BRANCH   7   8
ATOM      8  C1  UNL d   1      -2.040   2.024   1.394  0.00  0.00     0.007 C 
ATOM      9  C   UNL d   1      -1.089   1.665   2.528  0.00  0.00     0.009 C 
ENDBRANCH   7   8
ENDBRANCH   1   7
TORSDOF 2
ENDMDL
