MODEL 1
REMARK minimizedAffinity -1.68004668
REMARK minimizedRMSD -1
REMARK  2 active torsions:
REMARK  status: ('A' for Active; 'I' for Inactive)
REMARK    1  A    between atoms: C1_2  and  C2_3 
REMARK    2  A    between atoms: C2_3  and  C3_4 
ROOT
ATOM      1  C3  UNL d   1      -0.327   0.329   0.672  0.00  0.00    -0.075 A 
ATOM      2  C4  UNL d   1       0.308  -0.850   0.254  0.00  0.00     0.002 A 
ATOM      3  C5  UNL d   1       1.061  -0.870  -0.920  0.00  0.00     0.002 A 
ATOM      4  C6  UNL d   1       1.181   0.282  -1.695  0.00  0.00    -0.004 A 
ATOM      5  C7  UNL d   1       0.541   1.454  -1.298  0.00  0.00     0.002 A 
ATOM      6  C8  UNL d   1      -0.210   1.478  -0.121  0.00  0.00     0.002 A 
ENDROOT
BRANCH   1   7
ATOM      7  C2  UNL d   1      -1.119   0.365   1.957  0.00  0.00     0.056 C 
BRANCH   7   8
ATOM      8  C1  UNL d   1      -1.318   1.773   2.528  0.00  0.00     0.007 C 
ATOM      9  C   UNL d   1      -2.486   2.518   1.895  0.00  0.00     0.009 C 
ENDBRANCH   7   8
ENDBRANCH   1   7
TORSDOF 2
ENDMDL
