MODEL 1
REMARK minimizedAffinity -3.88658452
REMARK minimizedRMSD -1
REMARK  2 active torsions:
REMARK  status: ('A' for Active; 'I' for Inactive)
REMARK    1  A    between atoms: C1_2  and  C2_3 
REMARK    2  A    between atoms: C2_3  and  C3_4 
ROOT
ATOM      1  C3  UNL d   1      -0.045  -0.083   0.594  0.00  0.00    -0.075 A 
ATOM      2  C4  UNL d   1      -0.758   0.767  -0.264  0.00  0.00     0.002 A 
ATOM      3  C5  UNL d   1      -1.581   1.767   0.254  0.00  0.00     0.002 A 
ATOM      4  C6  UNL d   1      -1.710   1.923   1.633  0.00  0.00    -0.004 A 
ATOM      5  C7  UNL d   1      -1.020   1.073   2.494  0.00  0.00     0.002 A 
ATOM      6  C8  UNL d   1      -0.191   0.075   1.978  0.00  0.00     0.002 A 
ENDROOT
BRANCH   1   7
ATOM      7  C2  UNL d   1       0.871  -1.148   0.040  0.00  0.00     0.056 C 
BRANCH   7   8
ATOM      8  C1  UNL d   1       0.488  -1.632  -1.363  0.00  0.00     0.007 C 
ATOM      9  C   UNL d   1       0.871  -3.083  -1.623  0.00  0.00     0.009 C 
ENDBRANCH   7   8
ENDBRANCH   1   7
TORSDOF 2
ENDMDL
