MODEL 1
REMARK minimizedAffinity -2.74555087
REMARK minimizedRMSD -1
REMARK  2 active torsions:
REMARK  status: ('A' for Active; 'I' for Inactive)
REMARK    1  A    between atoms: C1_2  and  C2_3 
REMARK    2  A    between atoms: C2_3  and  C3_4 
ROOT
ATOM      1  C3  UNL d   1       0.151  -0.148  -0.169  0.00  0.00    -0.075 A 
ATOM      2  C4  UNL d   1       0.562  -0.642   1.078  0.00  0.00     0.002 A 
ATOM      3  C5  UNL d   1       0.129  -0.035   2.257  0.00  0.00     0.002 A 
ATOM      4  C6  UNL d   1      -0.710   1.076   2.205  0.00  0.00    -0.004 A 
ATOM      5  C7  UNL d   1      -1.111   1.585   0.972  0.00  0.00     0.002 A 
ATOM      6  C8  UNL d   1      -0.682   0.977  -0.210  0.00  0.00     0.002 A 
ENDROOT
BRANCH   1   7
ATOM      7  C2  UNL d   1       0.593  -0.818  -1.448  0.00  0.00     0.056 C 
BRANCH   7   8
ATOM      8  C1  UNL d   1       0.955  -2.298  -1.285  0.00  0.00     0.007 C 
ATOM      9  C   UNL d   1       0.431  -3.173  -2.416  0.00  0.00     0.009 C 
ENDBRANCH   7   8
ENDBRANCH   1   7
TORSDOF 2
ENDMDL
