MODEL 1
REMARK minimizedAffinity -4.96386719
REMARK minimizedRMSD -1
REMARK  2 active torsions:
REMARK  status: ('A' for Active; 'I' for Inactive)
REMARK    1  A    between atoms: C1_2  and  C2_3 
REMARK    2  A    between atoms: C2_3  and  C3_4 
ROOT
ATOM      1  C3  UNL d   1      -0.141   0.517   0.293  0.00  0.00    -0.075 A 
ATOM      2  C4  UNL d   1      -1.326   0.960  -0.312  0.00  0.00     0.002 A 
ATOM      3  C5  UNL d   1      -2.442   1.277   0.463  0.00  0.00     0.002 A 
ATOM      4  C6  UNL d   1      -2.391   1.147   1.849  0.00  0.00    -0.004 A 
ATOM      5  C7  UNL d   1      -1.224   0.692   2.460  0.00  0.00     0.002 A 
ATOM      6  C8  UNL d   1      -0.105   0.378   1.687  0.00  0.00     0.002 A 
ENDROOT
BRANCH   1   7
ATOM      7  C2  UNL d   1       1.079   0.200  -0.538  0.00  0.00     0.056 C 
BRANCH   7   8
ATOM      8  C1  UNL d   1       1.607  -1.227  -0.352  0.00  0.00     0.007 C 
ATOM      9  C   UNL d   1       1.265  -2.149  -1.515  0.00  0.00     0.009 C 
ENDBRANCH   7   8
ENDBRANCH   1   7
TORSDOF 2
ENDMDL
