MODEL 1
REMARK minimizedAffinity -2.74233913
REMARK minimizedRMSD -1
REMARK  2 active torsions:
REMARK  status: ('A' for Active; 'I' for Inactive)
REMARK    1  A    between atoms: C1_2  and  C2_3 
REMARK    2  A    between atoms: C2_3  and  C3_4 
ROOT
ATOM      1  C3  UNL d   1       0.109  -1.051  -0.533  0.00  0.00    -0.075 A 
ATOM      2  C4  UNL d   1      -1.083  -0.349  -0.763  0.00  0.00     0.002 A 
ATOM      3  C5  UNL d   1      -1.450   0.715   0.061  0.00  0.00     0.002 A 
ATOM      4  C6  UNL d   1      -0.636   1.085   1.129  0.00  0.00    -0.004 A 
ATOM      5  C7  UNL d   1       0.542   0.385   1.378  0.00  0.00     0.002 A 
ATOM      6  C8  UNL d   1       0.914  -0.678   0.553  0.00  0.00     0.002 A 
ENDROOT
BRANCH   1   7
ATOM      7  C2  UNL d   1       0.526  -2.185  -1.438  0.00  0.00     0.056 C 
BRANCH   7   8
ATOM      8  C1  UNL d   1      -0.637  -3.059  -1.919  0.00  0.00     0.007 C 
ATOM      9  C   UNL d   1      -0.502  -3.491  -3.373  0.00  0.00     0.009 C 
ENDBRANCH   7   8
ENDBRANCH   1   7
TORSDOF 2
ENDMDL
