MODEL 1
REMARK minimizedAffinity -5.39455891
REMARK minimizedRMSD -1
REMARK  2 active torsions:
REMARK  status: ('A' for Active; 'I' for Inactive)
REMARK    1  A    between atoms: C1_2  and  C2_3 
REMARK    2  A    between atoms: C2_3  and  C3_4 
ROOT
ATOM      1  C3  UNL d   1      -0.097  -0.008   0.218  0.00  0.00    -0.075 A 
ATOM      2  C4  UNL d   1      -0.251  -0.114   1.608  0.00  0.00     0.002 A 
ATOM      3  C5  UNL d   1      -1.010   0.824   2.309  0.00  0.00     0.002 A 
ATOM      4  C6  UNL d   1      -1.613   1.882   1.633  0.00  0.00    -0.004 A 
ATOM      5  C7  UNL d   1      -1.452   2.006   0.255  0.00  0.00     0.002 A 
ATOM      6  C8  UNL d   1      -0.698   1.067  -0.450  0.00  0.00     0.002 A 
ENDROOT
BRANCH   1   7
ATOM      7  C2  UNL d   1       0.698  -1.036  -0.551  0.00  0.00     0.056 C 
BRANCH   7   8
ATOM      8  C1  UNL d   1      -0.057  -1.652  -1.733  0.00  0.00     0.007 C 
ATOM      9  C   UNL d   1      -0.034  -3.175  -1.732  0.00  0.00     0.009 C 
ENDBRANCH   7   8
ENDBRANCH   1   7
TORSDOF 2
ENDMDL
