MODEL 1
REMARK minimizedAffinity -5.43421125
REMARK minimizedRMSD -1
REMARK  2 active torsions:
REMARK  status: ('A' for Active; 'I' for Inactive)
REMARK    1  A    between atoms: C1_2  and  C2_3 
REMARK    2  A    between atoms: C2_3  and  C3_4 
ROOT
ATOM      1  C3  UNL d   1      -0.075   0.836  -0.822  0.00  0.00    -0.075 A 
ATOM      2  C4  UNL d   1      -0.569  -0.465  -0.643  0.00  0.00     0.002 A 
ATOM      3  C5  UNL d   1       0.275  -1.568  -0.781  0.00  0.00     0.002 A 
ATOM      4  C6  UNL d   1       1.617  -1.385  -1.109  0.00  0.00    -0.004 A 
ATOM      5  C7  UNL d   1       2.114  -0.099  -1.305  0.00  0.00     0.002 A 
ATOM      6  C8  UNL d   1       1.273   1.007  -1.164  0.00  0.00     0.002 A 
ENDROOT
BRANCH   1   7
ATOM      7  C2  UNL d   1      -0.976   2.035  -0.645  0.00  0.00     0.056 C 
BRANCH   7   8
ATOM      8  C1  UNL d   1      -1.867   1.967   0.600  0.00  0.00     0.007 C 
ATOM      9  C   UNL d   1      -1.080   2.009   1.903  0.00  0.00     0.009 C 
ENDBRANCH   7   8
ENDBRANCH   1   7
TORSDOF 2
ENDMDL
