MODEL 1
REMARK minimizedAffinity -5.37016535
REMARK minimizedRMSD -1
REMARK  2 active torsions:
REMARK  status: ('A' for Active; 'I' for Inactive)
REMARK    1  A    between atoms: C1_2  and  C2_3 
REMARK    2  A    between atoms: C2_3  and  C3_4 
ROOT
ATOM      1  C3  UNL d   1      -0.148  -0.172   0.331  0.00  0.00    -0.075 A 
ATOM      2  C4  UNL d   1      -0.152  -0.093   1.731  0.00  0.00     0.002 A 
ATOM      3  C5  UNL d   1      -0.799   0.959   2.380  0.00  0.00     0.002 A 
ATOM      4  C6  UNL d   1      -1.441   1.949   1.639  0.00  0.00    -0.004 A 
ATOM      5  C7  UNL d   1      -1.429   1.890   0.247  0.00  0.00     0.002 A 
ATOM      6  C8  UNL d   1      -0.786   0.836  -0.404  0.00  0.00     0.002 A 
ENDROOT
BRANCH   1   7
ATOM      7  C2  UNL d   1       0.525  -1.323  -0.376  0.00  0.00     0.056 C 
BRANCH   7   8
ATOM      8  C1  UNL d   1      -0.331  -1.970  -1.470  0.00  0.00     0.007 C 
ATOM      9  C   UNL d   1      -0.261  -3.491  -1.468  0.00  0.00     0.009 C 
ENDBRANCH   7   8
ENDBRANCH   1   7
TORSDOF 2
ENDMDL
