MODEL 1
REMARK minimizedAffinity -3.09274936
REMARK minimizedRMSD -1
REMARK  2 active torsions:
REMARK  status: ('A' for Active; 'I' for Inactive)
REMARK    1  A    between atoms: C1_2  and  C2_3 
REMARK    2  A    between atoms: C2_3  and  C3_4 
ROOT
ATOM      1  C3  UNL d   1       0.331  -0.098   0.265  0.00  0.00    -0.075 A 
ATOM      2  C4  UNL d   1       0.291  -0.773   1.494  0.00  0.00     0.002 A 
ATOM      3  C5  UNL d   1      -0.493  -0.291   2.542  0.00  0.00     0.002 A 
ATOM      4  C6  UNL d   1      -1.237   0.875   2.380  0.00  0.00    -0.004 A 
ATOM      5  C7  UNL d   1      -1.193   1.563   1.169  0.00  0.00     0.002 A 
ATOM      6  C8  UNL d   1      -0.412   1.080   0.117  0.00  0.00     0.002 A 
ENDROOT
BRANCH   1   7
ATOM      7  C2  UNL d   1       1.154  -0.631  -0.883  0.00  0.00     0.056 C 
BRANCH   7   8
ATOM      8  C1  UNL d   1       1.181  -2.160  -0.974  0.00  0.00     0.007 C 
ATOM      9  C   UNL d   1       0.457  -2.701  -2.200  0.00  0.00     0.009 C 
ENDBRANCH   7   8
ENDBRANCH   1   7
TORSDOF 2
ENDMDL
