MODEL 1
REMARK minimizedAffinity -3.63110256
REMARK minimizedRMSD -1
REMARK  2 active torsions:
REMARK  status: ('A' for Active; 'I' for Inactive)
REMARK    1  A    between atoms: C1_2  and  C2_3 
REMARK    2  A    between atoms: C2_3  and  C3_4 
ROOT
ATOM      1  C3  UNL d   1       0.011  -0.090   0.034  0.00  0.00    -0.075 A 
ATOM      2  C4  UNL d   1      -0.031   1.312   0.058  0.00  0.00     0.002 A 
ATOM      3  C5  UNL d   1      -0.672   1.983   1.099  0.00  0.00     0.002 A 
ATOM      4  C6  UNL d   1      -1.287   1.264   2.122  0.00  0.00    -0.004 A 
ATOM      5  C7  UNL d   1      -1.266  -0.129   2.099  0.00  0.00     0.002 A 
ATOM      6  C8  UNL d   1      -0.621  -0.803   1.061  0.00  0.00     0.002 A 
ENDROOT
BRANCH   1   7
ATOM      7  C2  UNL d   1       0.729  -0.822  -1.074  0.00  0.00     0.056 C 
BRANCH   7   8
ATOM      8  C1  UNL d   1       0.328  -2.295  -1.211  0.00  0.00     0.007 C 
ATOM      9  C   UNL d   1      -0.037  -2.688  -2.636  0.00  0.00     0.009 C 
ENDBRANCH   7   8
ENDBRANCH   1   7
TORSDOF 2
ENDMDL
