MODEL 1
REMARK minimizedAffinity -3.10822678
REMARK minimizedRMSD -1
REMARK  2 active torsions:
REMARK  status: ('A' for Active; 'I' for Inactive)
REMARK    1  A    between atoms: C1_2  and  C2_3 
REMARK    2  A    between atoms: C2_3  and  C3_4 
ROOT
ATOM      1  C3  UNL d   1      -0.460   0.812   0.888  0.00  0.00    -0.075 A 
ATOM      2  C4  UNL d   1       0.090  -0.475   0.972  0.00  0.00     0.002 A 
ATOM      3  C5  UNL d   1       0.863  -0.984  -0.072  0.00  0.00     0.002 A 
ATOM      4  C6  UNL d   1       1.086  -0.219  -1.215  0.00  0.00    -0.004 A 
ATOM      5  C7  UNL d   1       0.530   1.055  -1.315  0.00  0.00     0.002 A 
ATOM      6  C8  UNL d   1      -0.240   1.568  -0.270  0.00  0.00     0.002 A 
ENDROOT
BRANCH   1   7
ATOM      7  C2  UNL d   1      -1.273   1.380   2.027  0.00  0.00     0.056 C 
BRANCH   7   8
ATOM      8  C1  UNL d   1      -0.711   1.059   3.416  0.00  0.00     0.007 C 
ATOM      9  C   UNL d   1       0.182   2.161   3.971  0.00  0.00     0.009 C 
ENDBRANCH   7   8
ENDBRANCH   1   7
TORSDOF 2
ENDMDL
