MODEL 1
REMARK minimizedAffinity 3.19990683
REMARK minimizedRMSD -1
REMARK  0 active torsions:
REMARK  status: ('A' for Active; 'I' for Inactive)
ROOT
ATOM      1  C4' PXY d   1       1.768  -0.095   2.385  0.00  0.00     0.077 C 
ATOM      2  C1' PXY d   1      -3.670   1.583   1.366  0.00  0.00     0.077 C 
ATOM      3  C1  PXY d   1      -2.241   1.155   1.637  0.00  0.00    -0.082 A 
ATOM      4  C2  PXY d   1      -1.749   0.091   1.024  0.00  0.00     0.003 A 
ATOM      5  C3  PXY d   1      -0.469  -0.329   1.281  0.00  0.00     0.003 A 
ATOM      6  C4  PXY d   1       0.333   0.379   2.135  0.00  0.00    -0.082 A 
ATOM      7  C5  PXY d   1      -0.157   1.473   2.757  0.00  0.00     0.003 A 
ATOM      8  C6  PXY d   1      -1.473   1.858   2.513  0.00  0.00     0.003 A 
ENDROOT
TORSDOF 0
ENDMDL
