MODEL 1
REMARK minimizedAffinity 3.14302015
REMARK minimizedRMSD -1
REMARK  0 active torsions:
REMARK  status: ('A' for Active; 'I' for Inactive)
ROOT
ATOM      1  C4' PXY d   1      -3.826   1.111   1.352  0.00  0.00     0.077 C 
ATOM      2  C1' PXY d   1       1.751  -0.352   1.769  0.00  0.00     0.077 C 
ATOM      3  C1  PXY d   1       0.285   0.020   1.665  0.00  0.00    -0.082 A 
ATOM      4  C2  PXY d   1      -0.091   0.965   0.818  0.00  0.00     0.003 A 
ATOM      5  C3  PXY d   1      -1.408   1.336   0.734  0.00  0.00     0.003 A 
ATOM      6  C4  PXY d   1      -2.358   0.697   1.485  0.00  0.00    -0.082 A 
ATOM      7  C5  PXY d   1      -1.984  -0.276   2.343  0.00  0.00     0.003 A 
ATOM      8  C6  PXY d   1      -0.636  -0.609   2.444  0.00  0.00     0.003 A 
ENDROOT
TORSDOF 0
ENDMDL
