MODEL 1
REMARK minimizedAffinity 12.8522863
REMARK minimizedRMSD -1
REMARK  0 active torsions:
REMARK  status: ('A' for Active; 'I' for Inactive)
ROOT
ATOM      1  C4' PXY d   1       6.000  -0.239   3.368  0.00  0.00     0.077 C 
ATOM      2  C1' PXY d   1       1.553   1.865   0.333  0.00  0.00     0.077 C 
ATOM      3  C1  PXY d   1       2.711   1.311   1.139  0.00  0.00    -0.082 A 
ATOM      4  C2  PXY d   1       3.948   1.675   0.842  0.00  0.00     0.003 A 
ATOM      5  C3  PXY d   1       5.010   1.159   1.540  0.00  0.00     0.003 A 
ATOM      6  C4  PXY d   1       4.799   0.302   2.587  0.00  0.00    -0.082 A 
ATOM      7  C5  PXY d   1       3.540  -0.066   2.903  0.00  0.00     0.003 A 
ATOM      8  C6  PXY d   1       2.479   0.437   2.156  0.00  0.00     0.003 A 
ENDROOT
TORSDOF 0
ENDMDL
