MODEL 1
REMARK minimizedAffinity 13.2604961
REMARK minimizedRMSD -1
REMARK  0 active torsions:
REMARK  status: ('A' for Active; 'I' for Inactive)
ROOT
ATOM      1  C4' PXY d   1      -3.956   4.850   5.997  0.00  0.00     0.077 C 
ATOM      2  C1' PXY d   1       1.142   4.335   3.321  0.00  0.00     0.077 C 
ATOM      3  C1  PXY d   1      -0.192   4.461   4.031  0.00  0.00    -0.082 A 
ATOM      4  C2  PXY d   1      -1.237   4.945   3.379  0.00  0.00     0.003 A 
ATOM      5  C3  PXY d   1      -2.442   5.095   4.016  0.00  0.00     0.003 A 
ATOM      6  C4  PXY d   1      -2.593   4.697   5.317  0.00  0.00    -0.082 A 
ATOM      7  C5  PXY d   1      -1.534   4.192   5.985  0.00  0.00     0.003 A 
ATOM      8  C6  PXY d   1      -0.309   4.086   5.334  0.00  0.00     0.003 A 
ENDROOT
TORSDOF 0
ENDMDL
