MODEL 1
REMARK minimizedAffinity -0.618898511
REMARK minimizedRMSD -1
REMARK  0 active torsions:
REMARK  status: ('A' for Active; 'I' for Inactive)
ROOT
ATOM      1  C4' PXY d   1      -5.555  -5.055   2.630  0.00  0.00     0.077 C 
ATOM      2  C1' PXY d   1      -3.102  -1.049   6.000  0.00  0.00     0.077 C 
ATOM      3  C1  PXY d   1      -3.747  -2.091   5.107  0.00  0.00    -0.082 A 
ATOM      4  C2  PXY d   1      -4.310  -3.159   5.648  0.00  0.00     0.003 A 
ATOM      5  C3  PXY d   1      -4.869  -4.126   4.854  0.00  0.00     0.003 A 
ATOM      6  C4  PXY d   1      -4.900  -3.973   3.494  0.00  0.00    -0.082 A 
ATOM      7  C5  PXY d   1      -4.338  -2.881   2.934  0.00  0.00     0.003 A 
ATOM      8  C6  PXY d   1      -3.738  -1.931   3.756  0.00  0.00     0.003 A 
ENDROOT
TORSDOF 0
ENDMDL
