MODEL 1
REMARK minimizedAffinity 5.60587263
REMARK minimizedRMSD -1
REMARK  0 active torsions:
REMARK  status: ('A' for Active; 'I' for Inactive)
ROOT
ATOM      1  C4' PXY d   1       3.455  -2.865  -2.816  0.00  0.00     0.077 C 
ATOM      2  C1' PXY d   1       3.151   2.298  -5.398  0.00  0.00     0.077 C 
ATOM      3  C1  PXY d   1       3.218   0.941  -4.725  0.00  0.00    -0.082 A 
ATOM      4  C2  PXY d   1       4.098   0.734  -3.758  0.00  0.00     0.003 A 
ATOM      5  C3  PXY d   1       4.194  -0.496  -3.160  0.00  0.00     0.003 A 
ATOM      6  C4  PXY d   1       3.345  -1.509  -3.518  0.00  0.00    -0.082 A 
ATOM      7  C5  PXY d   1       2.438  -1.302  -4.496  0.00  0.00     0.003 A 
ATOM      8  C6  PXY d   1       2.384  -0.059  -5.119  0.00  0.00     0.003 A 
ENDROOT
TORSDOF 0
ENDMDL
