MODEL 1
REMARK minimizedAffinity -0.531019151
REMARK minimizedRMSD -1
REMARK  0 active torsions:
REMARK  status: ('A' for Active; 'I' for Inactive)
ROOT
ATOM      1  C4' PXY d   1      -5.538   5.194   6.000  0.00  0.00     0.077 C 
ATOM      2  C1' PXY d   1      -6.000   0.433   2.754  0.00  0.00     0.077 C 
ATOM      3  C1  PXY d   1      -5.884   1.676   3.615  0.00  0.00    -0.082 A 
ATOM      4  C2  PXY d   1      -5.786   2.863   3.040  0.00  0.00     0.003 A 
ATOM      5  C3  PXY d   1      -5.649   3.994   3.804  0.00  0.00     0.003 A 
ATOM      6  C4  PXY d   1      -5.666   3.914   5.170  0.00  0.00    -0.082 A 
ATOM      7  C5  PXY d   1      -5.777   2.707   5.765  0.00  0.00     0.003 A 
ATOM      8  C6  PXY d   1      -5.873   1.567   4.972  0.00  0.00     0.003 A 
ENDROOT
TORSDOF 0
ENDMDL
