MODEL 1
REMARK minimizedAffinity -2.24085522
REMARK minimizedRMSD -1
REMARK  0 active torsions:
REMARK  status: ('A' for Active; 'I' for Inactive)
ROOT
ATOM      1  C4' PXY d   1      -6.000   1.682   2.991  0.00  0.00     0.077 C 
ATOM      2  C1' PXY d   1      -0.346   0.705   2.290  0.00  0.00     0.077 C 
ATOM      3  C1  PXY d   1      -1.830   0.964   2.461  0.00  0.00    -0.082 A 
ATOM      4  C2  PXY d   1      -2.305   1.278   3.655  0.00  0.00     0.003 A 
ATOM      5  C3  PXY d   1      -3.649   1.484   3.834  0.00  0.00     0.003 A 
ATOM      6  C4  PXY d   1      -4.508   1.421   2.770  0.00  0.00    -0.082 A 
ATOM      7  C5  PXY d   1      -4.028   1.111   1.546  0.00  0.00     0.003 A 
ATOM      8  C6  PXY d   1      -2.667   0.865   1.394  0.00  0.00     0.003 A 
ENDROOT
TORSDOF 0
ENDMDL
