MODEL 1
REMARK minimizedAffinity -0.264807016
REMARK minimizedRMSD -1
REMARK  0 active torsions:
REMARK  status: ('A' for Active; 'I' for Inactive)
ROOT
ATOM      1  C4' PXY d   1      -2.908  -0.589  -0.594  0.00  0.00     0.077 C 
ATOM      2  C1' PXY d   1      -0.373   2.372   3.675  0.00  0.00     0.077 C 
ATOM      3  C1  PXY d   1      -1.049   1.598   2.560  0.00  0.00    -0.082 A 
ATOM      4  C2  PXY d   1      -0.382   0.649   1.924  0.00  0.00     0.003 A 
ATOM      5  C3  PXY d   1      -0.968  -0.039   0.893  0.00  0.00     0.003 A 
ATOM      6  C4  PXY d   1      -2.268   0.211   0.544  0.00  0.00    -0.082 A 
ATOM      7  C5  PXY d   1      -2.959   1.171   1.195  0.00  0.00     0.003 A 
ATOM      8  C6  PXY d   1      -2.333   1.886   2.212  0.00  0.00     0.003 A 
ENDROOT
TORSDOF 0
ENDMDL
