MODEL 1
REMARK minimizedAffinity 9.7293911
REMARK minimizedRMSD -1
REMARK  0 active torsions:
REMARK  status: ('A' for Active; 'I' for Inactive)
ROOT
ATOM      1  C4' PXY d   1      -6.000   2.629   4.873  0.00  0.00     0.077 C 
ATOM      2  C1' PXY d   1      -2.644   0.599   0.626  0.00  0.00     0.077 C 
ATOM      3  C1  PXY d   1      -3.534   1.134   1.731  0.00  0.00    -0.082 A 
ATOM      4  C2  PXY d   1      -2.988   1.597   2.844  0.00  0.00     0.003 A 
ATOM      5  C3  PXY d   1      -3.779   2.054   3.866  0.00  0.00     0.003 A 
ATOM      6  C4  PXY d   1      -5.140   2.088   3.727  0.00  0.00    -0.082 A 
ATOM      7  C5  PXY d   1      -5.705   1.627   2.590  0.00  0.00     0.003 A 
ATOM      8  C6  PXY d   1      -4.886   1.129   1.581  0.00  0.00     0.003 A 
ENDROOT
TORSDOF 0
ENDMDL
