MODEL 1
REMARK minimizedAffinity 7.53654575
REMARK minimizedRMSD -1
REMARK  0 active torsions:
REMARK  status: ('A' for Active; 'I' for Inactive)
ROOT
ATOM      1  C4' PXY d   1      -3.741   0.961   1.107  0.00  0.00     0.077 C 
ATOM      2  C1' PXY d   1       1.049   2.152   4.115  0.00  0.00     0.077 C 
ATOM      3  C1  PXY d   1      -0.200   1.838   3.316  0.00  0.00    -0.082 A 
ATOM      4  C2  PXY d   1      -1.371   2.297   3.725  0.00  0.00     0.003 A 
ATOM      5  C3  PXY d   1      -2.515   1.996   3.032  0.00  0.00     0.003 A 
ATOM      6  C4  PXY d   1      -2.452   1.261   1.878  0.00  0.00    -0.082 A 
ATOM      7  C5  PXY d   1      -1.259   0.799   1.447  0.00  0.00     0.003 A 
ATOM      8  C6  PXY d   1      -0.115   1.081   2.188  0.00  0.00     0.003 A 
ENDROOT
TORSDOF 0
ENDMDL
