MODEL 1
REMARK minimizedAffinity 3.34645438
REMARK minimizedRMSD -1
REMARK  0 active torsions:
REMARK  status: ('A' for Active; 'I' for Inactive)
ROOT
ATOM      1  C4' PXY d   1       0.263   3.350  -5.687  0.00  0.00     0.077 C 
ATOM      2  C1' PXY d   1       5.999   2.638  -5.656  0.00  0.00     0.077 C 
ATOM      3  C1  PXY d   1       4.497   2.837  -5.663  0.00  0.00    -0.082 A 
ATOM      4  C2  PXY d   1       3.701   1.826  -5.353  0.00  0.00     0.003 A 
ATOM      5  C3  PXY d   1       2.339   1.981  -5.385  0.00  0.00     0.003 A 
ATOM      6  C4  PXY d   1       1.786   3.197  -5.685  0.00  0.00    -0.082 A 
ATOM      7  C5  PXY d   1       2.592   4.236  -5.991  0.00  0.00     0.003 A 
ATOM      8  C6  PXY d   1       3.971   4.048  -5.993  0.00  0.00     0.003 A 
ENDROOT
TORSDOF 0
ENDMDL
