MODEL 1
REMARK minimizedAffinity 0.813890398
REMARK minimizedRMSD -1
REMARK  0 active torsions:
REMARK  status: ('A' for Active; 'I' for Inactive)
ROOT
ATOM      1  C4' PXY d   1      -3.111   1.816   2.768  0.00  0.00     0.077 C 
ATOM      2  C1' PXY d   1       1.678  -0.532   0.541  0.00  0.00     0.077 C 
ATOM      3  C1  PXY d   1       0.428   0.083   1.137  0.00  0.00    -0.082 A 
ATOM      4  C2  PXY d   1      -0.731  -0.060   0.515  0.00  0.00     0.003 A 
ATOM      5  C3  PXY d   1      -1.867   0.518   1.024  0.00  0.00     0.003 A 
ATOM      6  C4  PXY d   1      -1.825   1.203   2.208  0.00  0.00    -0.082 A 
ATOM      7  C5  PXY d   1      -0.648   1.344   2.854  0.00  0.00     0.003 A 
ATOM      8  C6  PXY d   1       0.501   0.785   2.300  0.00  0.00     0.003 A 
ENDROOT
TORSDOF 0
ENDMDL
