MODEL 1
REMARK minimizedAffinity 3.7536881
REMARK minimizedRMSD -1
REMARK  0 active torsions:
REMARK  status: ('A' for Active; 'I' for Inactive)
ROOT
ATOM      1  C4' PXY d   1      -2.189   1.476   3.043  0.00  0.00     0.077 C 
ATOM      2  C1' PXY d   1       2.555  -0.065   0.122  0.00  0.00     0.077 C 
ATOM      3  C1  PXY d   1       1.318   0.342   0.899  0.00  0.00    -0.082 A 
ATOM      4  C2  PXY d   1       0.132  -0.108   0.522  0.00  0.00     0.003 A 
ATOM      5  C3  PXY d   1      -1.000   0.275   1.193  0.00  0.00     0.003 A 
ATOM      6  C4  PXY d   1      -0.912   1.084   2.295  0.00  0.00    -0.082 A 
ATOM      7  C5  PXY d   1       0.295   1.538   2.692  0.00  0.00     0.003 A 
ATOM      8  C6  PXY d   1       1.428   1.171   1.972  0.00  0.00     0.003 A 
ENDROOT
TORSDOF 0
ENDMDL
