MODEL 1
REMARK minimizedAffinity 5.32983637
REMARK minimizedRMSD -1
REMARK  0 active torsions:
REMARK  status: ('A' for Active; 'I' for Inactive)
ROOT
ATOM      1  C4' PXY d   1       0.759   0.098   0.385  0.00  0.00     0.077 C 
ATOM      2  C1' PXY d   1      -4.470   1.560   2.370  0.00  0.00     0.077 C 
ATOM      3  C1  PXY d   1      -3.093   1.186   1.858  0.00  0.00    -0.082 A 
ATOM      4  C2  PXY d   1      -2.968   0.633   0.662  0.00  0.00     0.003 A 
ATOM      5  C3  PXY d   1      -1.734   0.259   0.196  0.00  0.00     0.003 A 
ATOM      6  C4  PXY d   1      -0.610   0.501   0.940  0.00  0.00    -0.082 A 
ATOM      7  C5  PXY d   1      -0.728   1.074   2.156  0.00  0.00     0.003 A 
ATOM      8  C6  PXY d   1      -1.994   1.409   2.628  0.00  0.00     0.003 A 
ENDROOT
TORSDOF 0
ENDMDL
