MODEL 1
REMARK minimizedAffinity 8.52586079
REMARK minimizedRMSD -1
REMARK  0 active torsions:
REMARK  status: ('A' for Active; 'I' for Inactive)
ROOT
ATOM      1  C4' PXY d   1      -2.724   1.458   3.034  0.00  0.00     0.077 C 
ATOM      2  C1' PXY d   1       2.271   0.074   0.476  0.00  0.00     0.077 C 
ATOM      3  C1  PXY d   1       0.968   0.443   1.156  0.00  0.00    -0.082 A 
ATOM      4  C2  PXY d   1      -0.120  -0.271   0.916  0.00  0.00     0.003 A 
ATOM      5  C3  PXY d   1      -1.314   0.068   1.498  0.00  0.00     0.003 A 
ATOM      6  C4  PXY d   1      -1.384   1.116   2.376  0.00  0.00    -0.082 A 
ATOM      7  C5  PXY d   1      -0.276   1.843   2.634  0.00  0.00     0.003 A 
ATOM      8  C6  PXY d   1       0.917   1.507   2.002  0.00  0.00     0.003 A 
ENDROOT
TORSDOF 0
ENDMDL
