MODEL 1
REMARK minimizedAffinity 6.03161955
REMARK minimizedRMSD -1
REMARK  0 active torsions:
REMARK  status: ('A' for Active; 'I' for Inactive)
ROOT
ATOM      1  C4' PXY d   1       0.041   2.409   3.337  0.00  0.00     0.077 C 
ATOM      2  C1' PXY d   1      -2.842  -1.106  -0.234  0.00  0.00     0.077 C 
ATOM      3  C1  PXY d   1      -2.096  -0.175   0.701  0.00  0.00    -0.082 A 
ATOM      4  C2  PXY d   1      -0.789  -0.316   0.859  0.00  0.00     0.003 A 
ATOM      5  C3  PXY d   1      -0.104   0.497   1.725  0.00  0.00     0.003 A 
ATOM      6  C4  PXY d   1      -0.753   1.498   2.396  0.00  0.00    -0.082 A 
ATOM      7  C5  PXY d   1      -2.083   1.655   2.232  0.00  0.00     0.003 A 
ATOM      8  C6  PXY d   1      -2.768   0.794   1.380  0.00  0.00     0.003 A 
ENDROOT
TORSDOF 0
ENDMDL
