MODEL 1
REMARK minimizedAffinity 0.296106547
REMARK minimizedRMSD -1
REMARK  0 active torsions:
REMARK  status: ('A' for Active; 'I' for Inactive)
ROOT
ATOM      1  C4' PXY d   1      -2.091   6.000  -5.641  0.00  0.00     0.077 C 
ATOM      2  C1' PXY d   1       2.610   2.921  -4.284  0.00  0.00     0.077 C 
ATOM      3  C1  PXY d   1       1.378   3.735  -4.628  0.00  0.00    -0.082 A 
ATOM      4  C2  PXY d   1       0.508   3.264  -5.507  0.00  0.00     0.003 A 
ATOM      5  C3  PXY d   1      -0.595   4.001  -5.854  0.00  0.00     0.003 A 
ATOM      6  C4  PXY d   1      -0.838   5.209  -5.256  0.00  0.00    -0.082 A 
ATOM      7  C5  PXY d   1       0.040   5.690  -4.350  0.00  0.00     0.003 A 
ATOM      8  C6  PXY d   1       1.174   4.946  -4.042  0.00  0.00     0.003 A 
ENDROOT
TORSDOF 0
ENDMDL
