MODEL 1
REMARK minimizedAffinity -0.386854082
REMARK minimizedRMSD -1
REMARK  0 active torsions:
REMARK  status: ('A' for Active; 'I' for Inactive)
ROOT
ATOM      1  C   UNL d   1       0.873  -4.351  -0.090  0.00  0.00     0.020 A 
ATOM      2  C1  UNL d   1       0.316  -3.727  -1.205  0.00  0.00     0.020 A 
ATOM      3  C2  UNL d   1      -0.589  -2.677  -1.039  0.00  0.00     0.034 A 
ATOM      4  C3  UNL d   1      -0.940  -2.247   0.246  0.00  0.00     0.017 A 
ATOM      5  C4  UNL d   1      -0.381  -2.874   1.366  0.00  0.00     0.017 A 
ATOM      6  C5  UNL d   1       0.525  -3.925   1.193  0.00  0.00     0.034 A 
ATOM      7 Cl   UNL d   1      -0.765  -2.400   2.983  0.00  0.00    -0.070 Cl
ATOM      8 Cl1  UNL d   1      -2.065  -0.942   0.378  0.00  0.00    -0.070 Cl
ENDROOT
TORSDOF 0
ENDMDL
