MODEL 1
REMARK minimizedAffinity 1.21685457
REMARK minimizedRMSD -1
REMARK  0 active torsions:
REMARK  status: ('A' for Active; 'I' for Inactive)
ROOT
ATOM      1  C   UNL d   1      -1.248  -1.739   2.484  0.00  0.00     0.020 A 
ATOM      2  C1  UNL d   1      -0.709  -2.874   1.880  0.00  0.00     0.020 A 
ATOM      3  C2  UNL d   1      -0.379  -2.853   0.523  0.00  0.00     0.034 A 
ATOM      4  C3  UNL d   1      -0.588  -1.695  -0.234  0.00  0.00     0.017 A 
ATOM      5  C4  UNL d   1      -1.129  -0.556   0.373  0.00  0.00     0.017 A 
ATOM      6  C5  UNL d   1      -1.457  -0.582   1.732  0.00  0.00     0.034 A 
ATOM      7 Cl   UNL d   1      -1.416   0.910  -0.496  0.00  0.00    -0.070 Cl
ATOM      8 Cl1  UNL d   1      -0.157  -1.740  -1.907  0.00  0.00    -0.070 Cl
ENDROOT
TORSDOF 0
ENDMDL
