MODEL 1
REMARK minimizedAffinity 4.99243164
REMARK minimizedRMSD -1
REMARK  0 active torsions:
REMARK  status: ('A' for Active; 'I' for Inactive)
ROOT
ATOM      1  C   UNL d   1      -3.629   4.097  -1.525  0.00  0.00     0.020 A 
ATOM      2  C1  UNL d   1      -3.345   5.048  -0.546  0.00  0.00     0.020 A 
ATOM      3  C2  UNL d   1      -2.187   4.931   0.226  0.00  0.00     0.034 A 
ATOM      4  C3  UNL d   1      -1.309   3.861   0.020  0.00  0.00     0.017 A 
ATOM      5  C4  UNL d   1      -1.595   2.907  -0.964  0.00  0.00     0.017 A 
ATOM      6  C5  UNL d   1      -2.756   3.029  -1.734  0.00  0.00     0.034 A 
ATOM      7 Cl   UNL d   1      -0.559   1.559  -1.277  0.00  0.00    -0.070 Cl
ATOM      8 Cl1  UNL d   1       0.105   3.779   1.010  0.00  0.00    -0.070 Cl
ENDROOT
TORSDOF 0
ENDMDL
