MODEL 1
REMARK minimizedAffinity -1.72330344
REMARK minimizedRMSD -1
REMARK  0 active torsions:
REMARK  status: ('A' for Active; 'I' for Inactive)
ROOT
ATOM      1  C   UNL d   1       0.848  -2.629  -3.650  0.00  0.00     0.020 A 
ATOM      2  C1  UNL d   1       0.607  -3.747  -2.852  0.00  0.00     0.020 A 
ATOM      3  C2  UNL d   1       0.103  -3.586  -1.560  0.00  0.00     0.034 A 
ATOM      4  C3  UNL d   1      -0.161  -2.305  -1.062  0.00  0.00     0.017 A 
ATOM      5  C4  UNL d   1       0.082  -1.184  -1.864  0.00  0.00     0.017 A 
ATOM      6  C5  UNL d   1       0.586  -1.351  -3.157  0.00  0.00     0.034 A 
ATOM      7 Cl   UNL d   1      -0.219   0.429  -1.318  0.00  0.00    -0.070 Cl
ATOM      8 Cl1  UNL d   1      -0.784  -2.180   0.545  0.00  0.00    -0.070 Cl
ENDROOT
TORSDOF 0
ENDMDL
