MODEL 1
REMARK minimizedAffinity -3.06882644
REMARK minimizedRMSD -1
REMARK  0 active torsions:
REMARK  status: ('A' for Active; 'I' for Inactive)
ROOT
ATOM      1  C   UNL d   1      -0.429  -2.617   1.878  0.00  0.00     0.020 A 
ATOM      2  C1  UNL d   1      -0.670  -1.454   1.148  0.00  0.00     0.020 A 
ATOM      3  C2  UNL d   1      -0.456  -1.438  -0.232  0.00  0.00     0.034 A 
ATOM      4  C3  UNL d   1       0.001  -2.588  -0.886  0.00  0.00     0.017 A 
ATOM      5  C4  UNL d   1       0.242  -3.755  -0.153  0.00  0.00     0.017 A 
ATOM      6  C5  UNL d   1       0.026  -3.765   1.229  0.00  0.00     0.034 A 
ATOM      7 Cl   UNL d   1       0.806  -5.213  -0.890  0.00  0.00    -0.070 Cl
ATOM      8 Cl1  UNL d   1       0.244  -2.497  -2.594  0.00  0.00    -0.070 Cl
ENDROOT
TORSDOF 0
ENDMDL
