MODEL 1
REMARK minimizedAffinity 1.87477541
REMARK minimizedRMSD -1
REMARK  0 active torsions:
REMARK  status: ('A' for Active; 'I' for Inactive)
ROOT
ATOM      1  C   UNL d   1       0.047  -3.355   0.457  0.00  0.00     0.020 A 
ATOM      2  C1  UNL d   1       0.328  -4.375  -0.452  0.00  0.00     0.020 A 
ATOM      3  C2  UNL d   1       0.594  -4.066  -1.787  0.00  0.00     0.034 A 
ATOM      4  C3  UNL d   1       0.579  -2.735  -2.219  0.00  0.00     0.017 A 
ATOM      5  C4  UNL d   1       0.296  -1.712  -1.306  0.00  0.00     0.017 A 
ATOM      6  C5  UNL d   1       0.031  -2.026   0.030  0.00  0.00     0.034 A 
ATOM      7 Cl   UNL d   1       0.260  -0.045  -1.764  0.00  0.00    -0.070 Cl
ATOM      8 Cl1  UNL d   1       0.917  -2.426  -3.885  0.00  0.00    -0.070 Cl
ENDROOT
TORSDOF 0
ENDMDL
