MODEL 1
REMARK minimizedAffinity 4.40015125
REMARK minimizedRMSD -1
REMARK  0 active torsions:
REMARK  status: ('A' for Active; 'I' for Inactive)
ROOT
ATOM      1  C   UNL d   1      -0.221  -2.342  -0.343  0.00  0.00     0.020 A 
ATOM      2  C1  UNL d   1      -0.493  -3.373  -1.242  0.00  0.00     0.020 A 
ATOM      3  C2  UNL d   1      -0.353  -3.157  -2.615  0.00  0.00     0.034 A 
ATOM      4  C3  UNL d   1       0.061  -1.908  -3.092  0.00  0.00     0.017 A 
ATOM      5  C4  UNL d   1       0.335  -0.875  -2.189  0.00  0.00     0.017 A 
ATOM      6  C5  UNL d   1       0.192  -1.096  -0.816  0.00  0.00     0.034 A 
ATOM      7 Cl   UNL d   1       0.850   0.693  -2.703  0.00  0.00    -0.070 Cl
ATOM      8 Cl1  UNL d   1       0.215  -1.712  -4.802  0.00  0.00    -0.070 Cl
ENDROOT
TORSDOF 0
ENDMDL
