MODEL 1
REMARK minimizedAffinity 4.70109892
REMARK minimizedRMSD -1
REMARK  0 active torsions:
REMARK  status: ('A' for Active; 'I' for Inactive)
ROOT
ATOM      1  C   UNL d   1      -1.049  -2.450   1.123  0.00  0.00     0.020 A 
ATOM      2  C1  UNL d   1      -0.236  -3.112   0.204  0.00  0.00     0.020 A 
ATOM      3  C2  UNL d   1       0.224  -2.442  -0.932  0.00  0.00     0.034 A 
ATOM      4  C3  UNL d   1      -0.130  -1.106  -1.152  0.00  0.00     0.017 A 
ATOM      5  C4  UNL d   1      -0.946  -0.442  -0.229  0.00  0.00     0.017 A 
ATOM      6  C5  UNL d   1      -1.403  -1.118   0.907  0.00  0.00     0.034 A 
ATOM      7 Cl   UNL d   1      -1.423   1.207  -0.432  0.00  0.00    -0.070 Cl
ATOM      8 Cl1  UNL d   1       0.475  -0.339  -2.577  0.00  0.00    -0.070 Cl
ENDROOT
TORSDOF 0
ENDMDL
