MODEL 1
REMARK minimizedAffinity 3.73439121
REMARK minimizedRMSD -1
REMARK  0 active torsions:
REMARK  status: ('A' for Active; 'I' for Inactive)
ROOT
ATOM      1  C   UNL d   1      -0.362  -3.147  -0.287  0.00  0.00     0.020 A 
ATOM      2  C1  UNL d   1      -0.275  -3.675  -1.575  0.00  0.00     0.020 A 
ATOM      3  C2  UNL d   1       0.251  -2.901  -2.612  0.00  0.00     0.034 A 
ATOM      4  C3  UNL d   1       0.691  -1.596  -2.364  0.00  0.00     0.017 A 
ATOM      5  C4  UNL d   1       0.603  -1.067  -1.071  0.00  0.00     0.017 A 
ATOM      6  C5  UNL d   1       0.076  -1.846  -0.036  0.00  0.00     0.034 A 
ATOM      7 Cl   UNL d   1       1.126   0.535  -0.687  0.00  0.00    -0.070 Cl
ATOM      8 Cl1  UNL d   1       1.330  -0.697  -3.694  0.00  0.00    -0.070 Cl
ENDROOT
TORSDOF 0
ENDMDL
