MODEL 1
REMARK minimizedAffinity 7.07891798
REMARK minimizedRMSD -1
REMARK  0 active torsions:
REMARK  status: ('A' for Active; 'I' for Inactive)
ROOT
ATOM      1  C   UNL d   1      -3.530   5.574  -0.398  0.00  0.00     0.020 A 
ATOM      2  C1  UNL d   1      -4.073   4.577  -1.208  0.00  0.00     0.020 A 
ATOM      3  C2  UNL d   1      -3.644   3.256  -1.071  0.00  0.00     0.034 A 
ATOM      4  C3  UNL d   1      -2.670   2.927  -0.121  0.00  0.00     0.017 A 
ATOM      5  C4  UNL d   1      -2.126   3.928   0.692  0.00  0.00     0.017 A 
ATOM      6  C5  UNL d   1      -2.559   5.250   0.550  0.00  0.00     0.034 A 
ATOM      7 Cl   UNL d   1      -0.920   3.600   1.886  0.00  0.00    -0.070 Cl
ATOM      8 Cl1  UNL d   1      -2.186   1.272  -0.005  0.00  0.00    -0.070 Cl
ENDROOT
TORSDOF 0
ENDMDL
