MODEL 1
REMARK minimizedAffinity 9.67963696
REMARK minimizedRMSD -1
REMARK  0 active torsions:
REMARK  status: ('A' for Active; 'I' for Inactive)
ROOT
ATOM      1  C   UNL d   1       2.967   1.740  -0.813  0.00  0.00     0.020 A 
ATOM      2  C1  UNL d   1       1.881   1.603  -1.677  0.00  0.00     0.020 A 
ATOM      3  C2  UNL d   1       1.169   0.403  -1.717  0.00  0.00     0.034 A 
ATOM      4  C3  UNL d   1       1.541  -0.665  -0.892  0.00  0.00     0.017 A 
ATOM      5  C4  UNL d   1       2.631  -0.526  -0.025  0.00  0.00     0.017 A 
ATOM      6  C5  UNL d   1       3.341   0.678   0.011  0.00  0.00     0.034 A 
ATOM      7 Cl   UNL d   1       3.150  -1.798   1.023  0.00  0.00    -0.070 Cl
ATOM      8 Cl1  UNL d   1       0.615  -2.120  -0.993  0.00  0.00    -0.070 Cl
ENDROOT
TORSDOF 0
ENDMDL
