MODEL 1
REMARK minimizedAffinity 7.19595718
REMARK minimizedRMSD -1
REMARK  0 active torsions:
REMARK  status: ('A' for Active; 'I' for Inactive)
ROOT
ATOM      1  C   UNL d   1       2.657   1.270  -0.093  0.00  0.00     0.020 A 
ATOM      2  C1  UNL d   1       1.476   1.411  -0.821  0.00  0.00     0.020 A 
ATOM      3  C2  UNL d   1       1.146   0.476  -1.804  0.00  0.00     0.034 A 
ATOM      4  C3  UNL d   1       1.998  -0.604  -2.063  0.00  0.00     0.017 A 
ATOM      5  C4  UNL d   1       3.184  -0.744  -1.332  0.00  0.00     0.017 A 
ATOM      6  C5  UNL d   1       3.509   0.195  -0.349  0.00  0.00     0.034 A 
ATOM      7 Cl   UNL d   1       4.285  -2.050  -1.594  0.00  0.00    -0.070 Cl
ATOM      8 Cl1  UNL d   1       1.527  -1.722  -3.293  0.00  0.00    -0.070 Cl
ENDROOT
TORSDOF 0
ENDMDL
