MODEL 1
REMARK minimizedAffinity 7.83426189
REMARK minimizedRMSD -1
REMARK  0 active torsions:
REMARK  status: ('A' for Active; 'I' for Inactive)
ROOT
ATOM      1  C   UNL d   1       2.753   0.975  -0.868  0.00  0.00     0.020 A 
ATOM      2  C1  UNL d   1       3.293   1.028  -2.153  0.00  0.00     0.020 A 
ATOM      3  C2  UNL d   1       2.882   0.110  -3.121  0.00  0.00     0.034 A 
ATOM      4  C3  UNL d   1       1.928  -0.865  -2.807  0.00  0.00     0.017 A 
ATOM      5  C4  UNL d   1       1.387  -0.917  -1.518  0.00  0.00     0.017 A 
ATOM      6  C5  UNL d   1       1.802   0.004  -0.552  0.00  0.00     0.034 A 
ATOM      7 Cl   UNL d   1       0.206  -2.092  -1.056  0.00  0.00    -0.070 Cl
ATOM      8 Cl1  UNL d   1       1.466  -1.968  -4.055  0.00  0.00    -0.070 Cl
ENDROOT
TORSDOF 0
ENDMDL
