MODEL 1
REMARK minimizedAffinity 9.7439146
REMARK minimizedRMSD -1
REMARK  0 active torsions:
REMARK  status: ('A' for Active; 'I' for Inactive)
ROOT
ATOM      1  C   UNL d   1       0.520  -1.731  -4.393  0.00  0.00     0.020 A 
ATOM      2  C1  UNL d   1      -0.343  -2.777  -4.070  0.00  0.00     0.020 A 
ATOM      3  C2  UNL d   1      -0.654  -3.039  -2.734  0.00  0.00     0.034 A 
ATOM      4  C3  UNL d   1      -0.101  -2.254  -1.716  0.00  0.00     0.017 A 
ATOM      5  C4  UNL d   1       0.765  -1.204  -2.041  0.00  0.00     0.017 A 
ATOM      6  C5  UNL d   1       1.073  -0.946  -3.381  0.00  0.00     0.034 A 
ATOM      7 Cl   UNL d   1       1.486  -0.191  -0.840  0.00  0.00    -0.070 Cl
ATOM      8 Cl1  UNL d   1      -0.529  -2.634  -0.086  0.00  0.00    -0.070 Cl
ENDROOT
TORSDOF 0
ENDMDL
