MODEL 1
REMARK minimizedAffinity 2.16406989
REMARK minimizedRMSD -1
REMARK  0 active torsions:
REMARK  status: ('A' for Active; 'I' for Inactive)
ROOT
ATOM      1  C   UNL d   1      -0.830  -3.859   1.138  0.00  0.00     0.020 A 
ATOM      2  C1  UNL d   1      -1.226  -3.561  -0.165  0.00  0.00     0.020 A 
ATOM      3  C2  UNL d   1      -1.611  -2.260  -0.498  0.00  0.00     0.034 A 
ATOM      4  C3  UNL d   1      -1.600  -1.253   0.474  0.00  0.00     0.017 A 
ATOM      5  C4  UNL d   1      -1.203  -1.553   1.782  0.00  0.00     0.017 A 
ATOM      6  C5  UNL d   1      -0.818  -2.857   2.109  0.00  0.00     0.034 A 
ATOM      7 Cl   UNL d   1      -1.164  -0.363   3.035  0.00  0.00    -0.070 Cl
ATOM      8 Cl1  UNL d   1      -2.088   0.333  -0.007  0.00  0.00    -0.070 Cl
ENDROOT
TORSDOF 0
ENDMDL
