MODEL 1
REMARK minimizedAffinity 17.2178822
REMARK minimizedRMSD -1
REMARK  0 active torsions:
REMARK  status: ('A' for Active; 'I' for Inactive)
ROOT
ATOM      1  C   UNL d   1      -3.425   6.000  -0.072  0.00  0.00     0.020 A 
ATOM      2  C1  UNL d   1      -4.119   5.146  -0.928  0.00  0.00     0.020 A 
ATOM      3  C2  UNL d   1      -3.831   3.779  -0.935  0.00  0.00     0.034 A 
ATOM      4  C3  UNL d   1      -2.848   3.263  -0.084  0.00  0.00     0.017 A 
ATOM      5  C4  UNL d   1      -2.152   4.121   0.776  0.00  0.00     0.017 A 
ATOM      6  C5  UNL d   1      -2.444   5.488   0.779  0.00  0.00     0.034 A 
ATOM      7 Cl   UNL d   1      -0.925   3.557   1.855  0.00  0.00    -0.070 Cl
ATOM      8 Cl1  UNL d   1      -2.544   1.563  -0.145  0.00  0.00    -0.070 Cl
ENDROOT
TORSDOF 0
ENDMDL
