MODEL 1
REMARK minimizedAffinity 0.744090497
REMARK minimizedRMSD -1
REMARK  0 active torsions:
REMARK  status: ('A' for Active; 'I' for Inactive)
ROOT
ATOM      1  C   UNL d   1      -4.022   5.204  -1.378  0.00  0.00     0.020 A 
ATOM      2  C1  UNL d   1      -3.808   6.000  -0.254  0.00  0.00     0.020 A 
ATOM      3  C2  UNL d   1      -2.929   5.575   0.745  0.00  0.00     0.034 A 
ATOM      4  C3  UNL d   1      -2.262   4.351   0.621  0.00  0.00     0.017 A 
ATOM      5  C4  UNL d   1      -2.477   3.553  -0.508  0.00  0.00     0.017 A 
ATOM      6  C5  UNL d   1      -3.358   3.983  -1.505  0.00  0.00     0.034 A 
ATOM      7 Cl   UNL d   1      -1.690   2.031  -0.731  0.00  0.00    -0.070 Cl
ATOM      8 Cl1  UNL d   1      -1.189   3.889   1.895  0.00  0.00    -0.070 Cl
ENDROOT
TORSDOF 0
ENDMDL
