MODEL 1
REMARK minimizedAffinity 7.71753597
REMARK minimizedRMSD -1
REMARK  0 active torsions:
REMARK  status: ('A' for Active; 'I' for Inactive)
ROOT
ATOM      1  C   UNL d   1       0.189  -3.403  -0.672  0.00  0.00     0.020 A 
ATOM      2  C1  UNL d   1      -0.397  -3.034  -1.882  0.00  0.00     0.020 A 
ATOM      3  C2  UNL d   1       0.085  -1.926  -2.581  0.00  0.00     0.034 A 
ATOM      4  C3  UNL d   1       1.155  -1.182  -2.071  0.00  0.00     0.017 A 
ATOM      5  C4  UNL d   1       1.742  -1.553  -0.855  0.00  0.00     0.017 A 
ATOM      6  C5  UNL d   1       1.255  -2.664  -0.159  0.00  0.00     0.034 A 
ATOM      7 Cl   UNL d   1       3.065  -0.684  -0.162  0.00  0.00    -0.070 Cl
ATOM      8 Cl1  UNL d   1       1.699   0.177  -2.989  0.00  0.00    -0.070 Cl
ENDROOT
TORSDOF 0
ENDMDL
