MODEL 1
REMARK minimizedAffinity -4.22743273
REMARK minimizedRMSD -1
REMARK  0 active torsions:
REMARK  status: ('A' for Active; 'I' for Inactive)
ROOT
ATOM      1  N1  IND d   1       0.125  -2.464   1.158  0.00  0.00    -0.196 N 
ATOM      2  C2  IND d   1       1.390  -2.981   1.171  0.00  0.00     0.054 A 
ATOM      3  C3  IND d   1       2.254  -2.127   0.578  0.00  0.00    -0.031 A 
ATOM      4  C4  IND d   1       1.826   0.219  -0.392  0.00  0.00     0.051 A 
ATOM      5  C5  IND d   1       0.823   1.106  -0.665  0.00  0.00    -0.031 A 
ATOM      6  C6  IND d   1      -0.491   0.843  -0.335  0.00  0.00     0.015 A 
ATOM      7  C7  IND d   1      -0.850  -0.316   0.293  0.00  0.00    -0.016 A 
ATOM      8  C8  IND d   1       0.165  -1.221   0.565  0.00  0.00    -0.047 A 
ATOM      9  C9  IND d   1       1.494  -0.979   0.195  0.00  0.00    -0.096 A 
ATOM     10  HN1 IND d   1      -0.578  -2.851   1.467  0.00  0.00     0.298 HD
ENDROOT
TORSDOF 0
ENDMDL
