MODEL 1
REMARK minimizedAffinity -2.77386069
REMARK minimizedRMSD -1
REMARK  0 active torsions:
REMARK  status: ('A' for Active; 'I' for Inactive)
ROOT
ATOM      1  N1  IND d   1       1.633  -2.714   0.323  0.00  0.00    -0.196 N 
ATOM      2  C2  IND d   1       1.675  -2.820   1.685  0.00  0.00     0.054 A 
ATOM      3  C3  IND d   1       0.947  -1.834   2.256  0.00  0.00    -0.031 A 
ATOM      4  C4  IND d   1      -0.477   0.001   1.146  0.00  0.00     0.051 A 
ATOM      5  C5  IND d   1      -0.796   0.525  -0.075  0.00  0.00    -0.031 A 
ATOM      6  C6  IND d   1      -0.315  -0.016  -1.250  0.00  0.00     0.015 A 
ATOM      7  C7  IND d   1       0.498  -1.114  -1.248  0.00  0.00    -0.016 A 
ATOM      8  C8  IND d   1       0.831  -1.644  -0.009  0.00  0.00    -0.047 A 
ATOM      9  C9  IND d   1       0.380  -1.074   1.188  0.00  0.00    -0.096 A 
ATOM     10  HN1 IND d   1       2.040  -3.229  -0.233  0.00  0.00     0.298 HD
ENDROOT
TORSDOF 0
ENDMDL
