MODEL 1
REMARK minimizedAffinity -4.33620834
REMARK minimizedRMSD -1
REMARK  0 active torsions:
REMARK  status: ('A' for Active; 'I' for Inactive)
ROOT
ATOM      1  N1  IND d   1      -0.611   0.339   0.363  0.00  0.00    -0.196 N 
ATOM      2  C2  IND d   1       0.184   0.617  -0.714  0.00  0.00     0.054 A 
ATOM      3  C3  IND d   1       1.317  -0.121  -0.665  0.00  0.00    -0.031 A 
ATOM      4  C4  IND d   1       2.026  -1.919   1.035  0.00  0.00     0.051 A 
ATOM      5  C5  IND d   1       1.646  -2.496   2.213  0.00  0.00    -0.031 A 
ATOM      6  C6  IND d   1       0.469  -2.154   2.847  0.00  0.00     0.015 A 
ATOM      7  C7  IND d   1      -0.381  -1.224   2.317  0.00  0.00    -0.016 A 
ATOM      8  C8  IND d   1       0.005  -0.631   1.124  0.00  0.00    -0.047 A 
ATOM      9  C9  IND d   1       1.219  -0.944   0.498  0.00  0.00    -0.096 A 
ATOM     10  HN1 IND d   1      -1.368   0.707   0.536  0.00  0.00     0.298 HD
ENDROOT
TORSDOF 0
ENDMDL
