MODEL 1
REMARK minimizedAffinity -5.19455338
REMARK minimizedRMSD -1
REMARK  0 active torsions:
REMARK  status: ('A' for Active; 'I' for Inactive)
ROOT
ATOM      1  N1  IND d   1      -0.747   0.299   0.398  0.00  0.00    -0.196 N 
ATOM      2  C2  IND d   1      -0.032   0.623  -0.721  0.00  0.00     0.054 A 
ATOM      3  C3  IND d   1       1.049  -0.181  -0.837  0.00  0.00    -0.031 A 
ATOM      4  C4  IND d   1       1.780  -2.162   0.636  0.00  0.00     0.051 A 
ATOM      5  C5  IND d   1       1.465  -2.817   1.793  0.00  0.00    -0.031 A 
ATOM      6  C6  IND d   1       0.373  -2.462   2.558  0.00  0.00     0.015 A 
ATOM      7  C7  IND d   1      -0.455  -1.441   2.187  0.00  0.00    -0.016 A 
ATOM      8  C8  IND d   1      -0.134  -0.768   1.017  0.00  0.00    -0.047 A 
ATOM      9  C9  IND d   1       0.997  -1.097   0.258  0.00  0.00    -0.096 A 
ATOM     10  HN1 IND d   1      -1.460   0.696   0.670  0.00  0.00     0.298 HD
ENDROOT
TORSDOF 0
ENDMDL
