MODEL 1
REMARK minimizedAffinity -6.25160646
REMARK minimizedRMSD -1
REMARK  0 active torsions:
REMARK  status: ('A' for Active; 'I' for Inactive)
ROOT
ATOM      1  N1  IND d   1      -0.276   0.359   0.427  0.00  0.00    -0.196 N 
ATOM      2  C2  IND d   1       0.511   0.600  -0.665  0.00  0.00     0.054 A 
ATOM      3  C3  IND d   1       1.434  -0.377  -0.804  0.00  0.00    -0.031 A 
ATOM      4  C4  IND d   1       1.770  -2.519   0.585  0.00  0.00     0.051 A 
ATOM      5  C5  IND d   1       1.318  -3.159   1.704  0.00  0.00    -0.031 A 
ATOM      6  C6  IND d   1       0.289  -2.650   2.470  0.00  0.00     0.015 A 
ATOM      7  C7  IND d   1      -0.337  -1.482   2.135  0.00  0.00    -0.016 A 
ATOM      8  C8  IND d   1       0.124  -0.826   1.003  0.00  0.00    -0.047 A 
ATOM      9  C9  IND d   1       1.197  -1.316   0.246  0.00  0.00    -0.096 A 
ATOM     10  HN1 IND d   1      -0.914   0.864   0.707  0.00  0.00     0.298 HD
ENDROOT
TORSDOF 0
ENDMDL
