MODEL 1
REMARK minimizedAffinity -4.24043894
REMARK minimizedRMSD -1
REMARK  0 active torsions:
REMARK  status: ('A' for Active; 'I' for Inactive)
ROOT
ATOM      1  N1  IND d   1      -0.350  -0.698  -0.691  0.00  0.00    -0.196 N 
ATOM      2  C2  IND d   1      -0.042   0.173   0.317  0.00  0.00     0.054 A 
ATOM      3  C3  IND d   1      -0.526   1.404   0.039  0.00  0.00    -0.031 A 
ATOM      4  C4  IND d   1      -1.939   2.193  -1.964  0.00  0.00     0.051 A 
ATOM      5  C5  IND d   1      -2.443   1.767  -3.160  0.00  0.00    -0.031 A 
ATOM      6  C6  IND d   1      -2.274   0.471  -3.603  0.00  0.00     0.015 A 
ATOM      7  C7  IND d   1      -1.601  -0.455  -2.856  0.00  0.00    -0.016 A 
ATOM      8  C8  IND d   1      -1.082  -0.024  -1.644  0.00  0.00    -0.047 A 
ATOM      9  C9  IND d   1      -1.213   1.301  -1.209  0.00  0.00    -0.096 A 
ATOM     10  HN1 IND d   1      -0.124  -1.527  -0.724  0.00  0.00     0.298 HD
ENDROOT
TORSDOF 0
ENDMDL
