MODEL 1
REMARK minimizedAffinity -5.1020751
REMARK minimizedRMSD -1
REMARK  0 active torsions:
REMARK  status: ('A' for Active; 'I' for Inactive)
ROOT
ATOM      1  N1  IND d   1      -0.478   0.298   0.709  0.00  0.00    -0.196 N 
ATOM      2  C2  IND d   1       0.135   0.648  -0.462  0.00  0.00     0.054 A 
ATOM      3  C3  IND d   1       1.109  -0.238  -0.766  0.00  0.00    -0.031 A 
ATOM      4  C4  IND d   1       1.803  -2.391   0.462  0.00  0.00     0.051 A 
ATOM      5  C5  IND d   1       1.558  -3.110   1.598  0.00  0.00    -0.031 A 
ATOM      6  C6  IND d   1       0.601  -2.723   2.514  0.00  0.00     0.015 A 
ATOM      7  C7  IND d   1      -0.158  -1.603   2.320  0.00  0.00    -0.016 A 
ATOM      8  C8  IND d   1       0.092  -0.868   1.171  0.00  0.00    -0.047 A 
ATOM      9  C9  IND d   1       1.092  -1.232   0.259  0.00  0.00    -0.096 A 
ATOM     10  HN1 IND d   1      -1.112   0.734   1.093  0.00  0.00     0.298 HD
ENDROOT
TORSDOF 0
ENDMDL
