MODEL 1
REMARK minimizedAffinity -1.49543393
REMARK minimizedRMSD -1
REMARK  0 active torsions:
REMARK  status: ('A' for Active; 'I' for Inactive)
ROOT
ATOM      1  N1  IND d   1      -2.679  -0.117  -3.349  0.00  0.00    -0.196 N 
ATOM      2  C2  IND d   1      -3.300   1.056  -3.676  0.00  0.00     0.054 A 
ATOM      3  C3  IND d   1      -3.000   2.015  -2.771  0.00  0.00    -0.031 A 
ATOM      4  C4  IND d   1      -1.429   1.908  -0.734  0.00  0.00     0.051 A 
ATOM      5  C5  IND d   1      -0.663   1.039  -0.009  0.00  0.00    -0.031 A 
ATOM      6  C6  IND d   1      -0.525  -0.286  -0.369  0.00  0.00     0.015 A 
ATOM      7  C7  IND d   1      -1.142  -0.791  -1.479  0.00  0.00    -0.016 A 
ATOM      8  C8  IND d   1      -1.926   0.087  -2.214  0.00  0.00    -0.047 A 
ATOM      9  C9  IND d   1      -2.104   1.423  -1.829  0.00  0.00    -0.096 A 
ATOM     10  HN1 IND d   1      -2.747  -0.858  -3.780  0.00  0.00     0.298 HD
ENDROOT
TORSDOF 0
ENDMDL
