MODEL 1
REMARK minimizedAffinity -5.88401794
REMARK minimizedRMSD -1
REMARK  0 active torsions:
REMARK  status: ('A' for Active; 'I' for Inactive)
ROOT
ATOM      1  N1  IND d   1      -0.465   0.475   0.440  0.00  0.00    -0.196 N 
ATOM      2  C2  IND d   1       0.475   0.904  -0.455  0.00  0.00     0.054 A 
ATOM      3  C3  IND d   1       1.547   0.080  -0.443  0.00  0.00    -0.031 A 
ATOM      4  C4  IND d   1       1.927  -2.089   0.889  0.00  0.00     0.051 A 
ATOM      5  C5  IND d   1       1.367  -2.868   1.863  0.00  0.00    -0.031 A 
ATOM      6  C6  IND d   1       0.141  -2.567   2.421  0.00  0.00     0.015 A 
ATOM      7  C7  IND d   1      -0.578  -1.478   2.017  0.00  0.00    -0.016 A 
ATOM      8  C8  IND d   1      -0.009  -0.682   1.033  0.00  0.00    -0.047 A 
ATOM      9  C9  IND d   1       1.254  -0.958   0.493  0.00  0.00    -0.096 A 
ATOM     10  HN1 IND d   1      -1.215   0.861   0.604  0.00  0.00     0.298 HD
ENDROOT
TORSDOF 0
ENDMDL
