MODEL 1
REMARK minimizedAffinity 1.4024955
REMARK minimizedRMSD -1
REMARK  0 active torsions:
REMARK  status: ('A' for Active; 'I' for Inactive)
ROOT
ATOM      1  N1  IND d   1      -1.819   3.040  -4.507  0.00  0.00    -0.196 N 
ATOM      2  C2  IND d   1      -0.630   3.482  -3.997  0.00  0.00     0.054 A 
ATOM      3  C3  IND d   1      -0.209   2.663  -3.008  0.00  0.00    -0.031 A 
ATOM      4  C4  IND d   1      -1.260   0.482  -2.131  0.00  0.00     0.051 A 
ATOM      5  C5  IND d   1      -2.368  -0.308  -2.261  0.00  0.00    -0.031 A 
ATOM      6  C6  IND d   1      -3.368  -0.018  -3.166  0.00  0.00     0.015 A 
ATOM      7  C7  IND d   1      -3.292   1.072  -3.987  0.00  0.00    -0.016 A 
ATOM      8  C8  IND d   1      -2.172   1.880  -3.853  0.00  0.00    -0.047 A 
ATOM      9  C9  IND d   1      -1.174   1.614  -2.907  0.00  0.00    -0.096 A 
ATOM     10  HN1 IND d   1      -2.271   3.422  -5.131  0.00  0.00     0.298 HD
ENDROOT
TORSDOF 0
ENDMDL
