MODEL 1
REMARK minimizedAffinity -2.43563986
REMARK minimizedRMSD -1
REMARK  0 active torsions:
REMARK  status: ('A' for Active; 'I' for Inactive)
ROOT
ATOM      1  N1  IND d   1       1.996   0.257  -0.115  0.00  0.00    -0.196 N 
ATOM      2  C2  IND d   1       0.851   1.003  -0.117  0.00  0.00     0.054 A 
ATOM      3  C3  IND d   1      -0.140   0.345   0.525  0.00  0.00    -0.031 A 
ATOM      4  C4  IND d   1      -0.077  -1.922   1.744  0.00  0.00     0.051 A 
ATOM      5  C5  IND d   1       0.738  -2.992   1.987  0.00  0.00    -0.031 A 
ATOM      6  C6  IND d   1       2.041  -3.033   1.534  0.00  0.00     0.015 A 
ATOM      7  C7  IND d   1       2.584  -1.997   0.829  0.00  0.00    -0.016 A 
ATOM      8  C8  IND d   1       1.757  -0.911   0.575  0.00  0.00    -0.047 A 
ATOM      9  C9  IND d   1       0.421  -0.882   0.995  0.00  0.00    -0.096 A 
ATOM     10  HN1 IND d   1       2.741   0.480  -0.483  0.00  0.00     0.298 HD
ENDROOT
TORSDOF 0
ENDMDL
