MODEL 1
REMARK minimizedAffinity -5.01956224
REMARK minimizedRMSD -1
REMARK  0 active torsions:
REMARK  status: ('A' for Active; 'I' for Inactive)
ROOT
ATOM      1  N1  IND d   1       0.526  -1.204  -1.640  0.00  0.00    -0.196 N 
ATOM      2  C2  IND d   1       1.174  -1.106  -0.440  0.00  0.00     0.054 A 
ATOM      3  C3  IND d   1       0.660  -0.092   0.291  0.00  0.00    -0.031 A 
ATOM      4  C4  IND d   1      -1.315   1.471  -0.243  0.00  0.00     0.051 A 
ATOM      5  C5  IND d   1      -2.199   1.790  -1.235  0.00  0.00    -0.031 A 
ATOM      6  C6  IND d   1      -2.222   1.111  -2.437  0.00  0.00     0.015 A 
ATOM      7  C7  IND d   1      -1.365   0.077  -2.687  0.00  0.00    -0.016 A 
ATOM      8  C8  IND d   1      -0.462  -0.245  -1.684  0.00  0.00    -0.047 A 
ATOM      9  C9  IND d   1      -0.405   0.468  -0.479  0.00  0.00    -0.096 A 
ATOM     10  HN1 IND d   1       0.706  -1.770  -2.262  0.00  0.00     0.298 HD
ENDROOT
TORSDOF 0
ENDMDL
