MODEL 1
REMARK minimizedAffinity -5.77619648
REMARK minimizedRMSD -1
REMARK  0 active torsions:
REMARK  status: ('A' for Active; 'I' for Inactive)
ROOT
ATOM      1  N1  IND d   1      -0.724   0.242   0.215  0.00  0.00    -0.196 N 
ATOM      2  C2  IND d   1       0.261   0.761  -0.579  0.00  0.00     0.054 A 
ATOM      3  C3  IND d   1       1.378   0.005  -0.498  0.00  0.00    -0.031 A 
ATOM      4  C4  IND d   1       1.782  -2.184   0.796  0.00  0.00     0.051 A 
ATOM      5  C5  IND d   1       1.192  -3.030   1.692  0.00  0.00    -0.031 A 
ATOM      6  C6  IND d   1      -0.095  -2.826   2.149  0.00  0.00     0.015 A 
ATOM      7  C7  IND d   1      -0.846  -1.770   1.716  0.00  0.00    -0.016 A 
ATOM      8  C8  IND d   1      -0.246  -0.905   0.811  0.00  0.00    -0.047 A 
ATOM      9  C9  IND d   1       1.073  -1.083   0.377  0.00  0.00    -0.096 A 
ATOM     10  HN1 IND d   1      -1.509   0.575   0.324  0.00  0.00     0.298 HD
ENDROOT
TORSDOF 0
ENDMDL
