MODEL 1
REMARK minimizedAffinity -3.1003623
REMARK minimizedRMSD -1
REMARK  0 active torsions:
REMARK  status: ('A' for Active; 'I' for Inactive)
ROOT
ATOM      1  N1  IND d   1      -1.996   2.355  -2.563  0.00  0.00    -0.196 N 
ATOM      2  C2  IND d   1      -2.534   1.638  -3.595  0.00  0.00     0.054 A 
ATOM      3  C3  IND d   1      -2.288   0.319  -3.428  0.00  0.00    -0.031 A 
ATOM      4  C4  IND d   1      -1.110  -0.893  -1.486  0.00  0.00     0.051 A 
ATOM      5  C5  IND d   1      -0.419  -0.659  -0.331  0.00  0.00    -0.031 A 
ATOM      6  C6  IND d   1      -0.216   0.619   0.150  0.00  0.00     0.015 A 
ATOM      7  C7  IND d   1      -0.709   1.713  -0.502  0.00  0.00    -0.016 A 
ATOM      8  C8  IND d   1      -1.406   1.478  -1.680  0.00  0.00    -0.047 A 
ATOM      9  C9  IND d   1      -1.578   0.188  -2.196  0.00  0.00    -0.096 A 
ATOM     10  HN1 IND d   1      -2.022   3.211  -2.480  0.00  0.00     0.298 HD
ENDROOT
TORSDOF 0
ENDMDL
