MODEL 1
REMARK minimizedAffinity -1.47251523
REMARK minimizedRMSD -1
REMARK  0 active torsions:
REMARK  status: ('A' for Active; 'I' for Inactive)
ROOT
ATOM      1  N1  IND d   1      -1.863   0.735  -3.640  0.00  0.00    -0.196 N 
ATOM      2  C2  IND d   1      -2.853   1.660  -3.459  0.00  0.00     0.054 A 
ATOM      3  C3  IND d   1      -2.784   2.185  -2.215  0.00  0.00    -0.031 A 
ATOM      4  C4  IND d   1      -1.066   1.749  -0.348  0.00  0.00     0.051 A 
ATOM      5  C5  IND d   1       0.004   0.960  -0.032  0.00  0.00    -0.031 A 
ATOM      6  C6  IND d   1       0.519   0.039  -0.922  0.00  0.00     0.015 A 
ATOM      7  C7  IND d   1      -0.013  -0.120  -2.170  0.00  0.00    -0.016 A 
ATOM      8  C8  IND d   1      -1.104   0.675  -2.492  0.00  0.00    -0.047 A 
ATOM      9  C9  IND d   1      -1.657   1.581  -1.578  0.00  0.00    -0.096 A 
ATOM     10  HN1 IND d   1      -1.735   0.270  -4.352  0.00  0.00     0.298 HD
ENDROOT
TORSDOF 0
ENDMDL
