MODEL 1
REMARK minimizedAffinity -0.362362862
REMARK minimizedRMSD -1
REMARK  0 active torsions:
REMARK  status: ('A' for Active; 'I' for Inactive)
ROOT
ATOM      1  N1  IND d   1      -2.633   0.793  -1.003  0.00  0.00    -0.196 N 
ATOM      2  C2  IND d   1      -2.285   1.875  -1.762  0.00  0.00     0.054 A 
ATOM      3  C3  IND d   1      -0.943   2.042  -1.756  0.00  0.00    -0.031 A 
ATOM      4  C4  IND d   1       0.879   0.599  -0.651  0.00  0.00     0.051 A 
ATOM      5  C5  IND d   1       1.048  -0.474   0.179  0.00  0.00    -0.031 A 
ATOM      6  C6  IND d   1      -0.023  -1.196   0.665  0.00  0.00     0.015 A 
ATOM      7  C7  IND d   1      -1.308  -0.877   0.328  0.00  0.00    -0.016 A 
ATOM      8  C8  IND d   1      -1.484   0.216  -0.508  0.00  0.00    -0.047 A 
ATOM      9  C9  IND d   1      -0.403   0.978  -0.970  0.00  0.00    -0.096 A 
ATOM     10  HN1 IND d   1      -3.435   0.518  -0.858  0.00  0.00     0.298 HD
ENDROOT
TORSDOF 0
ENDMDL
