MODEL 1
REMARK minimizedAffinity -3.67612243
REMARK minimizedRMSD -1
REMARK  1 active torsions:
REMARK  status: ('A' for Active; 'I' for Inactive)
REMARK    1  A    between atoms: C3_4  and  O_7 
ROOT
ATOM      1  C   UNL d   1      -4.107  -3.506  -4.827  0.00  0.00    -0.033 A 
ATOM      2  C1  UNL d   1      -3.603  -4.064  -3.650  0.00  0.00     0.039 A 
ATOM      3  C2  UNL d   1      -2.336  -4.650  -3.640  0.00  0.00    -0.080 A 
ATOM      4  C3  UNL d   1      -1.583  -4.671  -4.811  0.00  0.00     0.150 A 
ATOM      5  C4  UNL d   1      -2.077  -4.114  -5.986  0.00  0.00    -0.007 A 
ATOM      6  C5  UNL d   1      -3.343  -3.529  -5.994  0.00  0.00     0.039 A 
ENDROOT
BRANCH   4   7
ATOM      7  O   UNL d   1      -0.343  -5.236  -4.851  0.00  0.00    -0.526 OA
ATOM      8  H5  UNL d   1      -0.145  -5.606  -3.974  0.00  0.00     0.418 HD
ENDBRANCH   4   7
TORSDOF 1
ENDMDL
