MODEL 1
REMARK minimizedAffinity -2.91844964
REMARK minimizedRMSD -1
REMARK  1 active torsions:
REMARK  status: ('A' for Active; 'I' for Inactive)
REMARK    1  A    between atoms: C3_4  and  O_7 
ROOT
ATOM      1  C   UNL d   1      -4.244  -2.639  -4.342  0.00  0.00    -0.033 A 
ATOM      2  C1  UNL d   1      -3.811  -3.631  -3.461  0.00  0.00     0.039 A 
ATOM      3  C2  UNL d   1      -2.688  -4.401  -3.771  0.00  0.00    -0.080 A 
ATOM      4  C3  UNL d   1      -2.008  -4.168  -4.963  0.00  0.00     0.150 A 
ATOM      5  C4  UNL d   1      -2.432  -3.179  -5.844  0.00  0.00    -0.007 A 
ATOM      6  C5  UNL d   1      -3.554  -2.412  -5.533  0.00  0.00     0.039 A 
ENDROOT
BRANCH   4   7
ATOM      7  O   UNL d   1      -0.910  -4.897  -5.311  0.00  0.00    -0.526 OA
ATOM      8  H5  UNL d   1      -0.751  -5.563  -4.621  0.00  0.00     0.418 HD
ENDBRANCH   4   7
TORSDOF 1
ENDMDL
