MODEL 1
REMARK minimizedAffinity -2.32904434
REMARK minimizedRMSD -1
REMARK  1 active torsions:
REMARK  status: ('A' for Active; 'I' for Inactive)
REMARK    1  A    between atoms: C3_4  and  O_7 
ROOT
ATOM      1  C   UNL d   1      -5.978  -4.798  -5.653  0.00  0.00    -0.033 A 
ATOM      2  C1  UNL d   1      -5.290  -3.610  -5.906  0.00  0.00     0.039 A 
ATOM      3  C2  UNL d   1      -3.897  -3.613  -6.000  0.00  0.00    -0.080 A 
ATOM      4  C3  UNL d   1      -3.205  -4.810  -5.840  0.00  0.00     0.150 A 
ATOM      5  C4  UNL d   1      -3.883  -5.999  -5.592  0.00  0.00    -0.007 A 
ATOM      6  C5  UNL d   1      -5.274  -5.993  -5.498  0.00  0.00     0.039 A 
ENDROOT
BRANCH   4   7
ATOM      7  O   UNL d   1      -1.845  -4.862  -5.918  0.00  0.00    -0.526 OA
ATOM      8  H5  UNL d   1      -1.510  -3.962  -6.065  0.00  0.00     0.418 HD
ENDBRANCH   4   7
TORSDOF 1
ENDMDL
