MODEL 1
REMARK minimizedAffinity -4.05046034
REMARK minimizedRMSD -1
REMARK  1 active torsions:
REMARK  status: ('A' for Active; 'I' for Inactive)
REMARK    1  A    between atoms: C3_4  and  O_7 
ROOT
ATOM      1  C   UNL d   1      -4.748  -3.364  -4.782  0.00  0.00    -0.033 A 
ATOM      2  C1  UNL d   1      -4.156  -3.743  -3.576  0.00  0.00     0.039 A 
ATOM      3  C2  UNL d   1      -2.975  -4.487  -3.579  0.00  0.00    -0.080 A 
ATOM      4  C3  UNL d   1      -2.396  -4.844  -4.794  0.00  0.00     0.150 A 
ATOM      5  C4  UNL d   1      -2.978  -4.467  -5.999  0.00  0.00    -0.007 A 
ATOM      6  C5  UNL d   1      -4.158  -3.724  -5.994  0.00  0.00     0.039 A 
ENDROOT
BRANCH   4   7
ATOM      7  O   UNL d   1      -1.246  -5.574  -4.848  0.00  0.00    -0.526 OA
ATOM      8  H5  UNL d   1      -0.974  -5.788  -3.940  0.00  0.00     0.418 HD
ENDBRANCH   4   7
TORSDOF 1
ENDMDL
