MODEL 1
REMARK minimizedAffinity -3.32499099
REMARK minimizedRMSD -1
REMARK  1 active torsions:
REMARK  status: ('A' for Active; 'I' for Inactive)
REMARK    1  A    between atoms: C3_4  and  O_7 
ROOT
ATOM      1  C   UNL d   1      -4.939  -4.067  -4.704  0.00  0.00    -0.033 A 
ATOM      2  C1  UNL d   1      -4.383  -5.211  -4.128  0.00  0.00     0.039 A 
ATOM      3  C2  UNL d   1      -3.098  -5.622  -4.487  0.00  0.00    -0.080 A 
ATOM      4  C3  UNL d   1      -2.379  -4.880  -5.420  0.00  0.00     0.150 A 
ATOM      5  C4  UNL d   1      -2.926  -3.737  -5.995  0.00  0.00    -0.007 A 
ATOM      6  C5  UNL d   1      -4.210  -3.329  -5.637  0.00  0.00     0.039 A 
ENDROOT
BRANCH   4   7
ATOM      7  O   UNL d   1      -1.123  -5.243  -5.806  0.00  0.00    -0.526 OA
ATOM      8  H5  UNL d   1      -0.888  -6.067  -5.348  0.00  0.00     0.418 HD
ENDBRANCH   4   7
TORSDOF 1
ENDMDL
