MODEL 1
REMARK minimizedAffinity -1.41347182
REMARK minimizedRMSD -1
REMARK  1 active torsions:
REMARK  status: ('A' for Active; 'I' for Inactive)
REMARK    1  A    between atoms: C3_4  and  O_7 
ROOT
ATOM      1  C   UNL d   1      -4.654  -4.831  -5.171  0.00  0.00    -0.033 A 
ATOM      2  C1  UNL d   1      -3.895  -3.945  -5.939  0.00  0.00     0.039 A 
ATOM      3  C2  UNL d   1      -2.507  -4.084  -5.999  0.00  0.00    -0.080 A 
ATOM      4  C3  UNL d   1      -1.892  -5.112  -5.290  0.00  0.00     0.150 A 
ATOM      5  C4  UNL d   1      -2.642  -6.000  -4.526  0.00  0.00    -0.007 A 
ATOM      6  C5  UNL d   1      -4.028  -5.859  -4.466  0.00  0.00     0.039 A 
ENDROOT
BRANCH   4   7
ATOM      7  O   UNL d   1      -0.540  -5.285  -5.314  0.00  0.00    -0.526 OA
ATOM      8  H5  UNL d   1      -0.149  -4.581  -5.859  0.00  0.00     0.418 HD
ENDBRANCH   4   7
TORSDOF 1
ENDMDL
