MODEL 1
REMARK minimizedAffinity -1.36606908
REMARK minimizedRMSD -1
REMARK  1 active torsions:
REMARK  status: ('A' for Active; 'I' for Inactive)
REMARK    1  A    between atoms: C3_4  and  O_7 
ROOT
ATOM      1  C   UNL d   1      -5.993  -4.482  -5.616  0.00  0.00    -0.033 A 
ATOM      2  C1  UNL d   1      -5.519  -5.740  -5.994  0.00  0.00     0.039 A 
ATOM      3  C2  UNL d   1      -4.147  -6.000  -5.998  0.00  0.00    -0.080 A 
ATOM      4  C3  UNL d   1      -3.261  -4.995  -5.621  0.00  0.00     0.150 A 
ATOM      5  C4  UNL d   1      -3.726  -3.741  -5.239  0.00  0.00    -0.007 A 
ATOM      6  C5  UNL d   1      -5.096  -3.483  -5.237  0.00  0.00     0.039 A 
ENDROOT
BRANCH   4   7
ATOM      7  O   UNL d   1      -1.913  -5.200  -5.613  0.00  0.00    -0.526 OA
ATOM      8  H5  UNL d   1      -1.737  -6.102  -5.928  0.00  0.00     0.418 HD
ENDBRANCH   4   7
TORSDOF 1
ENDMDL
