MODEL 1
REMARK minimizedAffinity -3.34805107
REMARK minimizedRMSD -1
REMARK  1 active torsions:
REMARK  status: ('A' for Active; 'I' for Inactive)
REMARK    1  A    between atoms: C3_4  and  O_7 
ROOT
ATOM      1  C   UNL d   1      -5.583  -4.488  -4.702  0.00  0.00    -0.033 A 
ATOM      2  C1  UNL d   1      -4.435  -3.965  -4.103  0.00  0.00     0.039 A 
ATOM      3  C2  UNL d   1      -3.177  -4.461  -4.449  0.00  0.00    -0.080 A 
ATOM      4  C3  UNL d   1      -3.080  -5.477  -5.395  0.00  0.00     0.150 A 
ATOM      5  C4  UNL d   1      -4.219  -6.000  -6.000  0.00  0.00    -0.007 A 
ATOM      6  C5  UNL d   1      -5.474  -5.504  -5.652  0.00  0.00     0.039 A 
ENDROOT
BRANCH   4   7
ATOM      7  O   UNL d   1      -1.874  -5.997  -5.762  0.00  0.00    -0.526 OA
ATOM      8  H5  UNL d   1      -1.179  -5.559  -5.242  0.00  0.00     0.418 HD
ENDBRANCH   4   7
TORSDOF 1
ENDMDL
