MODEL 1
REMARK minimizedAffinity -2.17013049
REMARK minimizedRMSD -1
REMARK  1 active torsions:
REMARK  status: ('A' for Active; 'I' for Inactive)
REMARK    1  A    between atoms: C3_4  and  O_7 
ROOT
ATOM      1  C   UNL d   1      -0.770  -5.590  -4.913  0.00  0.00    -0.033 A 
ATOM      2  C1  UNL d   1      -1.314  -4.876  -5.982  0.00  0.00     0.039 A 
ATOM      3  C2  UNL d   1      -2.676  -4.573  -6.000  0.00  0.00    -0.080 A 
ATOM      4  C3  UNL d   1      -3.483  -4.989  -4.944  0.00  0.00     0.150 A 
ATOM      5  C4  UNL d   1      -2.947  -5.697  -3.874  0.00  0.00    -0.007 A 
ATOM      6  C5  UNL d   1      -1.586  -6.000  -3.858  0.00  0.00     0.039 A 
ENDROOT
BRANCH   4   7
ATOM      7  O   UNL d   1      -4.819  -4.721  -4.920  0.00  0.00    -0.526 OA
ATOM      8  H5  UNL d   1      -5.054  -4.250  -5.737  0.00  0.00     0.418 HD
ENDBRANCH   4   7
TORSDOF 1
ENDMDL
