MODEL 1
REMARK minimizedAffinity -3.77657151
REMARK minimizedRMSD -1
REMARK  1 active torsions:
REMARK  status: ('A' for Active; 'I' for Inactive)
REMARK    1  A    between atoms: C3_4  and  O_7 
ROOT
ATOM      1  C   UNL d   1      -5.155  -3.453  -4.995  0.00  0.00    -0.033 A 
ATOM      2  C1  UNL d   1      -4.934  -4.151  -3.807  0.00  0.00     0.039 A 
ATOM      3  C2  UNL d   1      -3.745  -4.859  -3.621  0.00  0.00    -0.080 A 
ATOM      4  C3  UNL d   1      -2.786  -4.859  -4.630  0.00  0.00     0.150 A 
ATOM      5  C4  UNL d   1      -2.998  -4.163  -5.815  0.00  0.00    -0.007 A 
ATOM      6  C5  UNL d   1      -4.186  -3.457  -5.999  0.00  0.00     0.039 A 
ENDROOT
BRANCH   4   7
ATOM      7  O   UNL d   1      -1.612  -5.539  -4.497  0.00  0.00    -0.526 OA
ATOM      8  H5  UNL d   1      -1.617  -5.996  -3.639  0.00  0.00     0.418 HD
ENDBRANCH   4   7
TORSDOF 1
ENDMDL
