MODEL 1
REMARK minimizedAffinity -3.2904973
REMARK minimizedRMSD -1
REMARK  1 active torsions:
REMARK  status: ('A' for Active; 'I' for Inactive)
REMARK    1  A    between atoms: C3_4  and  O_7 
ROOT
ATOM      1  C   UNL d   1      -4.975  -4.831  -5.267  0.00  0.00    -0.033 A 
ATOM      2  C1  UNL d   1      -4.326  -5.853  -5.962  0.00  0.00     0.039 A 
ATOM      3  C2  UNL d   1      -2.941  -5.998  -5.862  0.00  0.00    -0.080 A 
ATOM      4  C3  UNL d   1      -2.218  -5.116  -5.064  0.00  0.00     0.150 A 
ATOM      5  C4  UNL d   1      -2.858  -4.098  -4.365  0.00  0.00    -0.007 A 
ATOM      6  C5  UNL d   1      -4.241  -3.955  -4.467  0.00  0.00     0.039 A 
ENDROOT
BRANCH   4   7
ATOM      7  O   UNL d   1      -0.864  -5.215  -4.939  0.00  0.00    -0.526 OA
ATOM      8  H5  UNL d   1      -0.555  -5.946  -5.500  0.00  0.00     0.418 HD
ENDBRANCH   4   7
TORSDOF 1
ENDMDL
