MODEL 1
REMARK minimizedAffinity -3.81770682
REMARK minimizedRMSD -1
REMARK  1 active torsions:
REMARK  status: ('A' for Active; 'I' for Inactive)
REMARK    1  A    between atoms: C3_4  and  O_7 
ROOT
ATOM      1  C   UNL d   1      -5.002  -3.888  -3.556  0.00  0.00    -0.033 A 
ATOM      2  C1  UNL d   1      -4.412  -5.152  -3.616  0.00  0.00     0.039 A 
ATOM      3  C2  UNL d   1      -3.226  -5.338  -4.331  0.00  0.00    -0.080 A 
ATOM      4  C3  UNL d   1      -2.642  -4.253  -4.979  0.00  0.00     0.150 A 
ATOM      5  C4  UNL d   1      -3.223  -2.990  -4.920  0.00  0.00    -0.007 A 
ATOM      6  C5  UNL d   1      -4.407  -2.807  -4.207  0.00  0.00     0.039 A 
ENDROOT
BRANCH   4   7
ATOM      7  O   UNL d   1      -1.488  -4.386  -5.692  0.00  0.00    -0.526 OA
ATOM      8  H5  UNL d   1      -1.218  -5.319  -5.668  0.00  0.00     0.418 HD
ENDBRANCH   4   7
TORSDOF 1
ENDMDL
