MODEL 1
REMARK minimizedAffinity -2.60792041
REMARK minimizedRMSD -1
REMARK  1 active torsions:
REMARK  status: ('A' for Active; 'I' for Inactive)
REMARK    1  A    between atoms: C3_4  and  O_7 
ROOT
ATOM      1  C   UNL d   1      -5.588  -4.154  -5.252  0.00  0.00    -0.033 A 
ATOM      2  C1  UNL d   1      -5.111  -5.241  -5.988  0.00  0.00     0.039 A 
ATOM      3  C2  UNL d   1      -3.747  -5.537  -5.995  0.00  0.00    -0.080 A 
ATOM      4  C3  UNL d   1      -2.871  -4.740  -5.263  0.00  0.00     0.150 A 
ATOM      5  C4  UNL d   1      -3.339  -3.658  -4.525  0.00  0.00    -0.007 A 
ATOM      6  C5  UNL d   1      -4.702  -3.363  -4.520  0.00  0.00     0.039 A 
ENDROOT
BRANCH   4   7
ATOM      7  O   UNL d   1      -1.530  -4.987  -5.243  0.00  0.00    -0.526 OA
ATOM      8  H5  UNL d   1      -1.349  -5.747  -5.821  0.00  0.00     0.418 HD
ENDBRANCH   4   7
TORSDOF 1
ENDMDL
