MODEL 1
REMARK minimizedAffinity -3.19232345
REMARK minimizedRMSD -1
REMARK  1 active torsions:
REMARK  status: ('A' for Active; 'I' for Inactive)
REMARK    1  A    between atoms: C3_4  and  O_7 
ROOT
ATOM      1  C   UNL d   1      -4.816  -4.955  -5.241  0.00  0.00    -0.033 A 
ATOM      2  C1  UNL d   1      -4.049  -5.843  -5.999  0.00  0.00     0.039 A 
ATOM      3  C2  UNL d   1      -2.666  -5.904  -5.818  0.00  0.00    -0.080 A 
ATOM      4  C3  UNL d   1      -2.062  -5.073  -4.878  0.00  0.00     0.150 A 
ATOM      5  C4  UNL d   1      -2.820  -4.189  -4.117  0.00  0.00    -0.007 A 
ATOM      6  C5  UNL d   1      -4.201  -4.129  -4.299  0.00  0.00     0.039 A 
ENDROOT
BRANCH   4   7
ATOM      7  O   UNL d   1      -0.715  -5.094  -4.670  0.00  0.00    -0.526 OA
ATOM      8  H5  UNL d   1      -0.318  -5.732  -5.286  0.00  0.00     0.418 HD
ENDBRANCH   4   7
TORSDOF 1
ENDMDL
