MODEL 1
REMARK minimizedAffinity 0.218477309
REMARK minimizedRMSD -1
REMARK  1 active torsions:
REMARK  status: ('A' for Active; 'I' for Inactive)
REMARK    1  A    between atoms: C3_4  and  O_7 
ROOT
ATOM      1  C   UNL d   1      -2.742  -5.991  -5.990  0.00  0.00    -0.033 A 
ATOM      2  C1  UNL d   1      -1.990  -5.447  -4.948  0.00  0.00     0.039 A 
ATOM      3  C2  UNL d   1      -2.626  -4.764  -3.909  0.00  0.00    -0.080 A 
ATOM      4  C3  UNL d   1      -4.011  -4.634  -3.924  0.00  0.00     0.150 A 
ATOM      5  C4  UNL d   1      -4.767  -5.177  -4.957  0.00  0.00    -0.007 A 
ATOM      6  C5  UNL d   1      -4.131  -5.858  -5.994  0.00  0.00     0.039 A 
ENDROOT
BRANCH   4   7
ATOM      7  O   UNL d   1      -4.676  -3.972  -2.934  0.00  0.00    -0.526 OA
ATOM      8  H5  UNL d   1      -4.023  -3.625  -2.303  0.00  0.00     0.418 HD
ENDBRANCH   4   7
TORSDOF 1
ENDMDL
