MODEL 1
REMARK minimizedAffinity -3.99426794
REMARK minimizedRMSD -1
REMARK  1 active torsions:
REMARK  status: ('A' for Active; 'I' for Inactive)
REMARK    1  A    between atoms: C3_4  and  O_7 
ROOT
ATOM      1  C   UNL d   1      -5.052  -2.914  -4.885  0.00  0.00    -0.033 A 
ATOM      2  C1  UNL d   1      -4.816  -3.722  -3.771  0.00  0.00     0.039 A 
ATOM      3  C2  UNL d   1      -3.746  -4.619  -3.770  0.00  0.00    -0.080 A 
ATOM      4  C3  UNL d   1      -2.920  -4.698  -4.888  0.00  0.00     0.150 A 
ATOM      5  C4  UNL d   1      -3.147  -3.893  -6.000  0.00  0.00    -0.007 A 
ATOM      6  C5  UNL d   1      -4.216  -2.999  -5.999  0.00  0.00     0.039 A 
ENDROOT
BRANCH   4   7
ATOM      7  O   UNL d   1      -1.867  -5.561  -4.936  0.00  0.00    -0.526 OA
ATOM      8  H5  UNL d   1      -1.850  -6.073  -4.110  0.00  0.00     0.418 HD
ENDBRANCH   4   7
TORSDOF 1
ENDMDL
