MODEL 1
REMARK minimizedAffinity -3.58950639
REMARK minimizedRMSD -1
REMARK  1 active torsions:
REMARK  status: ('A' for Active; 'I' for Inactive)
REMARK    1  A    between atoms: C3_4  and  O_7 
ROOT
ATOM      1  C   UNL d   1      -5.653  -4.580  -5.246  0.00  0.00    -0.033 A 
ATOM      2  C1  UNL d   1      -4.836  -3.867  -4.366  0.00  0.00     0.039 A 
ATOM      3  C2  UNL d   1      -3.489  -4.208  -4.229  0.00  0.00    -0.080 A 
ATOM      4  C3  UNL d   1      -2.971  -5.261  -4.978  0.00  0.00     0.150 A 
ATOM      5  C4  UNL d   1      -3.778  -5.973  -5.859  0.00  0.00    -0.007 A 
ATOM      6  C5  UNL d   1      -5.123  -5.632  -5.994  0.00  0.00     0.039 A 
ENDROOT
BRANCH   4   7
ATOM      7  O   UNL d   1      -1.664  -5.633  -4.875  0.00  0.00    -0.526 OA
ATOM      8  H5  UNL d   1      -1.236  -5.071  -4.207  0.00  0.00     0.418 HD
ENDBRANCH   4   7
TORSDOF 1
ENDMDL
