MODEL 1
REMARK minimizedAffinity -2.38281131
REMARK minimizedRMSD -1
REMARK  1 active torsions:
REMARK  status: ('A' for Active; 'I' for Inactive)
REMARK    1  A    between atoms: C3_4  and  O_7 
ROOT
ATOM      1  C   UNL d   1      -5.997  -0.492  -2.958  0.00  0.00    -0.033 A 
ATOM      2  C1  UNL d   1      -5.990  -1.849  -2.632  0.00  0.00     0.039 A 
ATOM      3  C2  UNL d   1      -5.989  -2.812  -3.644  0.00  0.00    -0.080 A 
ATOM      4  C3  UNL d   1      -5.992  -2.404  -4.975  0.00  0.00     0.150 A 
ATOM      5  C4  UNL d   1      -5.995  -1.054  -5.307  0.00  0.00    -0.007 A 
ATOM      6  C5  UNL d   1      -5.998  -0.094  -4.296  0.00  0.00     0.039 A 
ENDROOT
BRANCH   4   7
ATOM      7  O   UNL d   1      -5.996  -3.307  -5.997  0.00  0.00    -0.526 OA
ATOM      8  H5  UNL d   1      -6.023  -4.201  -5.617  0.00  0.00     0.418 HD
ENDBRANCH   4   7
TORSDOF 1
ENDMDL
