MODEL 1
REMARK minimizedAffinity -5.14760447
REMARK minimizedRMSD -1
REMARK  1 active torsions:
REMARK  status: ('A' for Active; 'I' for Inactive)
REMARK    1  A    between atoms: C1_2  and  C2_3 
ROOT
ATOM      1  C2  UNL d   1       0.191   0.312   0.427  0.00  0.00    -0.073 A 
ATOM      2  C3  UNL d   1       0.254   1.278  -0.582  0.00  0.00    -0.002 A 
ATOM      3  C4  UNL d   1       0.544   0.908  -1.896  0.00  0.00     0.004 A 
ATOM      4  C5  UNL d   1       0.768  -0.432  -2.214  0.00  0.00    -0.004 A 
ATOM      5  C6  UNL d   1       0.698  -1.414  -1.221  0.00  0.00    -0.075 A 
ATOM      6  C7  UNL d   1       0.938  -2.859  -1.547  0.00  0.00     0.076 C 
ATOM      7  C8  UNL d   1       0.408  -1.034   0.096  0.00  0.00     0.001 A 
ENDROOT
BRANCH   1   8
ATOM      8  C1  UNL d   1      -0.129   0.706   1.846  0.00  0.00     0.053 C 
ATOM      9  C   UNL d   1      -1.021   1.936   1.908  0.00  0.00     0.018 C 
ENDBRANCH   1   8
TORSDOF 1
ENDMDL
