MODEL 1
REMARK minimizedAffinity -2.8824234
REMARK minimizedRMSD -1
REMARK  1 active torsions:
REMARK  status: ('A' for Active; 'I' for Inactive)
REMARK    1  A    between atoms: C1_2  and  C2_3 
ROOT
ATOM      1  C2  UNL d   1       0.034  -0.584  -0.641  0.00  0.00    -0.073 A 
ATOM      2  C3  UNL d   1       0.601   0.103  -1.720  0.00  0.00    -0.002 A 
ATOM      3  C4  UNL d   1       0.322   1.456  -1.921  0.00  0.00     0.004 A 
ATOM      4  C5  UNL d   1      -0.521   2.136  -1.042  0.00  0.00    -0.004 A 
ATOM      5  C6  UNL d   1      -1.089   1.470   0.049  0.00  0.00    -0.075 A 
ATOM      6  C7  UNL d   1      -1.999   2.187   1.002  0.00  0.00     0.076 C 
ATOM      7  C8  UNL d   1      -0.805   0.111   0.242  0.00  0.00     0.001 A 
ENDROOT
BRANCH   1   8
ATOM      8  C1  UNL d   1       0.338  -2.042  -0.417  0.00  0.00     0.053 C 
ATOM      9  C   UNL d   1      -0.589  -2.947  -1.214  0.00  0.00     0.018 C 
ENDBRANCH   1   8
TORSDOF 1
ENDMDL
