MODEL 1
REMARK minimizedAffinity -5.79946899
REMARK minimizedRMSD -1
REMARK  1 active torsions:
REMARK  status: ('A' for Active; 'I' for Inactive)
REMARK    1  A    between atoms: C1_2  and  C2_3 
ROOT
ATOM      1  C2  UNL d   1       0.048  -0.143   0.193  0.00  0.00    -0.073 A 
ATOM      2  C3  UNL d   1      -0.331   1.203   0.128  0.00  0.00    -0.002 A 
ATOM      3  C4  UNL d   1      -0.734   1.878   1.281  0.00  0.00     0.004 A 
ATOM      4  C5  UNL d   1      -0.756   1.218   2.510  0.00  0.00    -0.004 A 
ATOM      5  C6  UNL d   1      -0.370  -0.124   2.597  0.00  0.00    -0.075 A 
ATOM      6  C7  UNL d   1      -0.390  -0.849   3.911  0.00  0.00     0.076 C 
ATOM      7  C8  UNL d   1       0.031  -0.796   1.434  0.00  0.00     0.001 A 
ENDROOT
BRANCH   1   8
ATOM      8  C1  UNL d   1       0.490  -0.874  -1.048  0.00  0.00     0.053 C 
ATOM      9  C   UNL d   1      -0.016  -2.308  -1.075  0.00  0.00     0.018 C 
ENDBRANCH   1   8
TORSDOF 1
ENDMDL
