MODEL 1
REMARK minimizedAffinity -6.408288
REMARK minimizedRMSD -1
REMARK  1 active torsions:
REMARK  status: ('A' for Active; 'I' for Inactive)
REMARK    1  A    between atoms: C1_2  and  C2_3 
ROOT
ATOM      1  C2  UNL d   1       1.181  -0.175   1.788  0.00  0.00    -0.073 A 
ATOM      2  C3  UNL d   1       1.324  -0.520   0.439  0.00  0.00    -0.002 A 
ATOM      3  C4  UNL d   1       0.484   0.040  -0.524  0.00  0.00     0.004 A 
ATOM      4  C5  UNL d   1      -0.500   0.954  -0.152  0.00  0.00    -0.004 A 
ATOM      5  C6  UNL d   1      -0.651   1.321   1.189  0.00  0.00    -0.075 A 
ATOM      6  C7  UNL d   1      -1.707   2.302   1.607  0.00  0.00     0.076 C 
ATOM      7  C8  UNL d   1       0.194   0.752   2.152  0.00  0.00     0.001 A 
ENDROOT
BRANCH   1   8
ATOM      8  C1  UNL d   1       2.089  -0.772   2.832  0.00  0.00     0.053 C 
ATOM      9  C   UNL d   1       3.471  -1.078   2.277  0.00  0.00     0.018 C 
ENDBRANCH   1   8
TORSDOF 1
ENDMDL
