MODEL 1
REMARK minimizedAffinity -4.54207563
REMARK minimizedRMSD -1
REMARK  1 active torsions:
REMARK  status: ('A' for Active; 'I' for Inactive)
REMARK    1  A    between atoms: C1_2  and  C2_3 
ROOT
ATOM      1  C2  UNL d   1       0.149  -0.417  -0.582  0.00  0.00    -0.073 A 
ATOM      2  C3  UNL d   1      -0.186   0.387  -1.678  0.00  0.00    -0.002 A 
ATOM      3  C4  UNL d   1      -0.668   1.682  -1.480  0.00  0.00     0.004 A 
ATOM      4  C5  UNL d   1      -0.812   2.188  -0.189  0.00  0.00    -0.004 A 
ATOM      5  C6  UNL d   1      -0.471   1.404   0.918  0.00  0.00    -0.075 A 
ATOM      6  C7  UNL d   1      -0.622   1.933   2.314  0.00  0.00     0.076 C 
ATOM      7  C8  UNL d   1       0.009   0.104   0.712  0.00  0.00     0.001 A 
ENDROOT
BRANCH   1   8
ATOM      8  C1  UNL d   1       0.675  -1.814  -0.791  0.00  0.00     0.053 C 
ATOM      9  C   UNL d   1      -0.365  -2.726  -1.423  0.00  0.00     0.018 C 
ENDBRANCH   1   8
TORSDOF 1
ENDMDL
