MODEL 1
REMARK minimizedAffinity -3.09348512
REMARK minimizedRMSD -1
REMARK  1 active torsions:
REMARK  status: ('A' for Active; 'I' for Inactive)
REMARK    1  A    between atoms: C1_2  and  C2_3 
ROOT
ATOM      1  C2  UNL d   1       0.371  -0.120   0.681  0.00  0.00    -0.073 A 
ATOM      2  C3  UNL d   1       0.205   0.813  -0.349  0.00  0.00    -0.002 A 
ATOM      3  C4  UNL d   1       0.309   0.416  -1.683  0.00  0.00     0.004 A 
ATOM      4  C5  UNL d   1       0.574  -0.916  -2.000  0.00  0.00    -0.004 A 
ATOM      5  C6  UNL d   1       0.731  -1.865  -0.985  0.00  0.00    -0.075 A 
ATOM      6  C7  UNL d   1       1.018  -3.302  -1.310  0.00  0.00     0.076 C 
ATOM      7  C8  UNL d   1       0.627  -1.459   0.352  0.00  0.00     0.001 A 
ENDROOT
BRANCH   1   8
ATOM      8  C1  UNL d   1       0.252   0.303   2.122  0.00  0.00     0.053 C 
ATOM      9  C   UNL d   1       0.019   1.799   2.261  0.00  0.00     0.018 C 
ENDBRANCH   1   8
TORSDOF 1
ENDMDL
