MODEL 1
REMARK minimizedAffinity -2.28520226
REMARK minimizedRMSD -1
REMARK  0 active torsions:
REMARK  status: ('A' for Active; 'I' for Inactive)
ROOT
ATOM      1  C4' PXY d   1       1.421  -4.908  -5.996  0.00  0.00     0.077 C 
ATOM      2  C1' PXY d   1       6.000  -5.999  -2.642  0.00  0.00     0.077 C 
ATOM      3  C1  PXY d   1       4.807  -5.707  -3.530  0.00  0.00    -0.082 A 
ATOM      4  C2  PXY d   1       3.589  -5.711  -3.012  0.00  0.00     0.003 A 
ATOM      5  C3  PXY d   1       2.496  -5.480  -3.807  0.00  0.00     0.003 A 
ATOM      6  C4  PXY d   1       2.655  -5.189  -5.136  0.00  0.00    -0.082 A 
ATOM      7  C5  PXY d   1       3.895  -5.171  -5.669  0.00  0.00     0.003 A 
ATOM      8  C6  PXY d   1       4.988  -5.449  -4.854  0.00  0.00     0.003 A 
ENDROOT
TORSDOF 0
ENDMDL
