MODEL 1
REMARK minimizedAffinity -1.17785943
REMARK minimizedRMSD -1
REMARK  0 active torsions:
REMARK  status: ('A' for Active; 'I' for Inactive)
ROOT
ATOM      1  C4' PXY d   1       1.544  -5.975  -6.000  0.00  0.00     0.077 C 
ATOM      2  C1' PXY d   1       5.977  -5.991  -2.290  0.00  0.00     0.077 C 
ATOM      3  C1  PXY d   1       4.822  -5.982  -3.272  0.00  0.00    -0.082 A 
ATOM      4  C2  PXY d   1       3.579  -5.964  -2.820  0.00  0.00     0.003 A 
ATOM      5  C3  PXY d   1       2.523  -5.988  -3.693  0.00  0.00     0.003 A 
ATOM      6  C4  PXY d   1       2.741  -5.975  -5.045  0.00  0.00    -0.082 A 
ATOM      7  C5  PXY d   1       4.007  -5.982  -5.514  0.00  0.00     0.003 A 
ATOM      8  C6  PXY d   1       5.065  -6.000  -4.611  0.00  0.00     0.003 A 
ENDROOT
TORSDOF 0
ENDMDL
