MODEL 1
REMARK minimizedAffinity -0.569317937
REMARK minimizedRMSD -1
REMARK  0 active torsions:
REMARK  status: ('A' for Active; 'I' for Inactive)
ROOT
ATOM      1  C4' PXY d   1       1.795  -4.977  -1.747  0.00  0.00     0.077 C 
ATOM      2  C1' PXY d   1       5.708  -5.140  -5.999  0.00  0.00     0.077 C 
ATOM      3  C1  PXY d   1       4.673  -5.103  -4.892  0.00  0.00    -0.082 A 
ATOM      4  C2  PXY d   1       4.776  -4.200  -3.930  0.00  0.00     0.003 A 
ATOM      5  C3  PXY d   1       3.867  -4.174  -2.904  0.00  0.00     0.003 A 
ATOM      6  C4  PXY d   1       2.812  -5.045  -2.890  0.00  0.00    -0.082 A 
ATOM      7  C5  PXY d   1       2.693  -5.962  -3.874  0.00  0.00     0.003 A 
ATOM      8  C6  PXY d   1       3.650  -6.000  -4.884  0.00  0.00     0.003 A 
ENDROOT
TORSDOF 0
ENDMDL
