MODEL 1
REMARK minimizedAffinity -3.23218799
REMARK minimizedRMSD -1
REMARK  0 active torsions:
REMARK  status: ('A' for Active; 'I' for Inactive)
ROOT
ATOM      1  C4' PXY d   1       5.993  -5.481  -5.997  0.00  0.00     0.077 C 
ATOM      2  C1' PXY d   1       2.381  -5.991  -1.512  0.00  0.00     0.077 C 
ATOM      3  C1  PXY d   1       3.319  -5.861  -2.696  0.00  0.00    -0.082 A 
ATOM      4  C2  PXY d   1       4.627  -5.917  -2.504  0.00  0.00     0.003 A 
ATOM      5  C3  PXY d   1       5.490  -5.769  -3.559  0.00  0.00     0.003 A 
ATOM      6  C4  PXY d   1       5.008  -5.616  -4.832  0.00  0.00    -0.082 A 
ATOM      7  C5  PXY d   1       3.675  -5.569  -5.037  0.00  0.00     0.003 A 
ATOM      8  C6  PXY d   1       2.816  -5.680  -3.947  0.00  0.00     0.003 A 
ENDROOT
TORSDOF 0
ENDMDL
