MODEL 1
REMARK minimizedAffinity -1.43546963
REMARK minimizedRMSD -1
REMARK  0 active torsions:
REMARK  status: ('A' for Active; 'I' for Inactive)
ROOT
ATOM      1  C4' PXY d   1       2.037  -4.719  -1.892  0.00  0.00     0.077 C 
ATOM      2  C1' PXY d   1       5.899  -5.999  -5.999  0.00  0.00     0.077 C 
ATOM      3  C1  PXY d   1       4.877  -5.663  -4.931  0.00  0.00    -0.082 A 
ATOM      4  C2  PXY d   1       5.268  -5.073  -3.813  0.00  0.00     0.003 A 
ATOM      5  C3  PXY d   1       4.362  -4.792  -2.823  0.00  0.00     0.003 A 
ATOM      6  C4  PXY d   1       3.033  -5.068  -3.002  0.00  0.00    -0.082 A 
ATOM      7  C5  PXY d   1       2.624  -5.659  -4.144  0.00  0.00     0.003 A 
ATOM      8  C6  PXY d   1       3.566  -5.975  -5.119  0.00  0.00     0.003 A 
ENDROOT
TORSDOF 0
ENDMDL
