MODEL 1
REMARK minimizedAffinity 0.121875681
REMARK minimizedRMSD -1
REMARK  0 active torsions:
REMARK  status: ('A' for Active; 'I' for Inactive)
ROOT
ATOM      1  C4' PXY d   1       2.618  -5.451  -1.193  0.00  0.00     0.077 C 
ATOM      2  C1' PXY d   1       5.782  -5.998  -5.999  0.00  0.00     0.077 C 
ATOM      3  C1  PXY d   1       4.943  -5.848  -4.745  0.00  0.00    -0.082 A 
ATOM      4  C2  PXY d   1       5.529  -5.874  -3.559  0.00  0.00     0.003 A 
ATOM      5  C3  PXY d   1       4.781  -5.772  -2.414  0.00  0.00     0.003 A 
ATOM      6  C4  PXY d   1       3.426  -5.589  -2.485  0.00  0.00    -0.082 A 
ATOM      7  C5  PXY d   1       2.823  -5.551  -3.692  0.00  0.00     0.003 A 
ATOM      8  C6  PXY d   1       3.594  -5.697  -4.841  0.00  0.00     0.003 A 
ENDROOT
TORSDOF 0
ENDMDL
