MODEL 1
REMARK minimizedAffinity -2.90383029
REMARK minimizedRMSD -1
REMARK  0 active torsions:
REMARK  status: ('A' for Active; 'I' for Inactive)
ROOT
ATOM      1  C4' PXY d   1       5.997  -5.574  -1.523  0.00  0.00     0.077 C 
ATOM      2  C1' PXY d   1       2.361  -5.965  -6.000  0.00  0.00     0.077 C 
ATOM      3  C1  PXY d   1       3.305  -5.856  -4.819  0.00  0.00    -0.082 A 
ATOM      4  C2  PXY d   1       4.609  -5.981  -5.010  0.00  0.00     0.003 A 
ATOM      5  C3  PXY d   1       5.475  -5.916  -3.950  0.00  0.00     0.003 A 
ATOM      6  C4  PXY d   1       5.007  -5.668  -2.687  0.00  0.00    -0.082 A 
ATOM      7  C5  PXY d   1       3.679  -5.528  -2.485  0.00  0.00     0.003 A 
ATOM      8  C6  PXY d   1       2.813  -5.638  -3.569  0.00  0.00     0.003 A 
ENDROOT
TORSDOF 0
ENDMDL
