MODEL 1
REMARK minimizedAffinity -2.51565814
REMARK minimizedRMSD -1
REMARK  0 active torsions:
REMARK  status: ('A' for Active; 'I' for Inactive)
ROOT
ATOM      1  C4' PXY d   1       5.988  -5.954  -5.999  0.00  0.00     0.077 C 
ATOM      2  C1' PXY d   1       2.630  -5.936  -1.294  0.00  0.00     0.077 C 
ATOM      3  C1  PXY d   1       3.521  -5.935  -2.521  0.00  0.00    -0.082 A 
ATOM      4  C2  PXY d   1       2.974  -5.968  -3.726  0.00  0.00     0.003 A 
ATOM      5  C3  PXY d   1       3.765  -6.000  -4.845  0.00  0.00     0.003 A 
ATOM      6  C4  PXY d   1       5.128  -5.944  -4.732  0.00  0.00    -0.082 A 
ATOM      7  C5  PXY d   1       5.693  -5.900  -3.507  0.00  0.00     0.003 A 
ATOM      8  C6  PXY d   1       4.874  -5.910  -2.382  0.00  0.00     0.003 A 
ENDROOT
TORSDOF 0
ENDMDL
