MODEL 1
REMARK minimizedAffinity -3.42421198
REMARK minimizedRMSD -1
REMARK  0 active torsions:
REMARK  status: ('A' for Active; 'I' for Inactive)
ROOT
ATOM      1  C4' PXY d   1       2.504  -4.538  -1.625  0.00  0.00     0.077 C 
ATOM      2  C1' PXY d   1       6.000  -5.972  -6.000  0.00  0.00     0.077 C 
ATOM      3  C1  PXY d   1       5.093  -5.594  -4.845  0.00  0.00    -0.082 A 
ATOM      4  C2  PXY d   1       3.830  -5.987  -4.849  0.00  0.00     0.003 A 
ATOM      5  C3  PXY d   1       2.988  -5.627  -3.829  0.00  0.00     0.003 A 
ATOM      6  C4  PXY d   1       3.458  -4.903  -2.766  0.00  0.00    -0.082 A 
ATOM      7  C5  PXY d   1       4.748  -4.508  -2.748  0.00  0.00     0.003 A 
ATOM      8  C6  PXY d   1       5.576  -4.849  -3.814  0.00  0.00     0.003 A 
ENDROOT
TORSDOF 0
ENDMDL
