MODEL 1
REMARK minimizedAffinity -2.4625504
REMARK minimizedRMSD -1
REMARK  0 active torsions:
REMARK  status: ('A' for Active; 'I' for Inactive)
ROOT
ATOM      1  C4' PXY d   1       2.609  -5.983  -1.505  0.00  0.00     0.077 C 
ATOM      2  C1' PXY d   1       5.999  -4.672  -6.000  0.00  0.00     0.077 C 
ATOM      3  C1  PXY d   1       5.100  -5.009  -4.826  0.00  0.00    -0.082 A 
ATOM      4  C2  PXY d   1       5.639  -5.350  -3.667  0.00  0.00     0.003 A 
ATOM      5  C3  PXY d   1       4.841  -5.688  -2.604  0.00  0.00     0.003 A 
ATOM      6  C4  PXY d   1       3.477  -5.626  -2.715  0.00  0.00    -0.082 A 
ATOM      7  C5  PXY d   1       2.921  -5.268  -3.891  0.00  0.00     0.003 A 
ATOM      8  C6  PXY d   1       3.748  -4.969  -4.970  0.00  0.00     0.003 A 
ENDROOT
TORSDOF 0
ENDMDL
