MODEL 1
REMARK minimizedAffinity -3.53672886
REMARK minimizedRMSD -1
REMARK  0 active torsions:
REMARK  status: ('A' for Active; 'I' for Inactive)
ROOT
ATOM      1  C4' PXY d   1       5.327   4.165   3.726  0.00  0.00     0.077 C 
ATOM      2  C1' PXY d   1       1.486   1.426   0.385  0.00  0.00     0.077 C 
ATOM      3  C1  PXY d   1       2.491   2.136   1.271  0.00  0.00    -0.082 A 
ATOM      4  C2  PXY d   1       2.725   3.426   1.092  0.00  0.00     0.003 A 
ATOM      5  C3  PXY d   1       3.654   4.076   1.863  0.00  0.00     0.003 A 
ATOM      6  C4  PXY d   1       4.313   3.410   2.861  0.00  0.00    -0.082 A 
ATOM      7  C5  PXY d   1       4.073   2.096   3.057  0.00  0.00     0.003 A 
ATOM      8  C6  PXY d   1       3.156   1.446   2.237  0.00  0.00     0.003 A 
ENDROOT
TORSDOF 0
ENDMDL
