MODEL 1
REMARK minimizedAffinity -3.12483168
REMARK minimizedRMSD -1
REMARK  0 active torsions:
REMARK  status: ('A' for Active; 'I' for Inactive)
ROOT
ATOM      1  C4' PXY d   1       1.629  -5.202  -2.276  0.00  0.00     0.077 C 
ATOM      2  C1' PXY d   1       5.999  -5.909  -5.994  0.00  0.00     0.077 C 
ATOM      3  C1  PXY d   1       4.861  -5.725  -5.009  0.00  0.00    -0.082 A 
ATOM      4  C2  PXY d   1       3.622  -5.996  -5.384  0.00  0.00     0.003 A 
ATOM      5  C3  PXY d   1       2.577  -5.805  -4.516  0.00  0.00     0.003 A 
ATOM      6  C4  PXY d   1       2.810  -5.382  -3.234  0.00  0.00    -0.082 A 
ATOM      7  C5  PXY d   1       4.073  -5.114  -2.841  0.00  0.00     0.003 A 
ATOM      8  C6  PXY d   1       5.115  -5.275  -3.750  0.00  0.00     0.003 A 
ENDROOT
TORSDOF 0
ENDMDL
