MODEL 1
REMARK minimizedAffinity -1.46951759
REMARK minimizedRMSD -1
REMARK  0 active torsions:
REMARK  status: ('A' for Active; 'I' for Inactive)
ROOT
ATOM      1  C4' PXY d   1       0.830   2.783   0.858  0.00  0.00     0.077 C 
ATOM      2  C1' PXY d   1       6.000   3.725   3.266  0.00  0.00     0.077 C 
ATOM      3  C1  PXY d   1       4.647   3.466   2.633  0.00  0.00    -0.082 A 
ATOM      4  C2  PXY d   1       3.994   4.460   2.053  0.00  0.00     0.003 A 
ATOM      5  C3  PXY d   1       2.756   4.250   1.504  0.00  0.00     0.003 A 
ATOM      6  C4  PXY d   1       2.202   2.997   1.501  0.00  0.00    -0.082 A 
ATOM      7  C5  PXY d   1       2.867   1.975   2.081  0.00  0.00     0.003 A 
ATOM      8  C6  PXY d   1       4.105   2.218   2.669  0.00  0.00     0.003 A 
ENDROOT
TORSDOF 0
ENDMDL
