MODEL 1
REMARK minimizedAffinity -0.890612841
REMARK minimizedRMSD -1
REMARK  0 active torsions:
REMARK  status: ('A' for Active; 'I' for Inactive)
ROOT
ATOM      1  C4' PXY d   1       2.148  -5.991  -0.929  0.00  0.00     0.077 C 
ATOM      2  C1' PXY d   1       4.923  -5.951  -6.000  0.00  0.00     0.077 C 
ATOM      3  C1  PXY d   1       4.184  -5.956  -4.676  0.00  0.00    -0.082 A 
ATOM      4  C2  PXY d   1       4.870  -5.927  -3.544  0.00  0.00     0.003 A 
ATOM      5  C3  PXY d   1       4.219  -5.964  -2.338  0.00  0.00     0.003 A 
ATOM      6  C4  PXY d   1       2.851  -5.977  -2.289  0.00  0.00    -0.082 A 
ATOM      7  C5  PXY d   1       2.144  -5.996  -3.439  0.00  0.00     0.003 A 
ATOM      8  C6  PXY d   1       2.825  -6.000  -4.653  0.00  0.00     0.003 A 
ENDROOT
TORSDOF 0
ENDMDL
