MODEL 1
REMARK minimizedAffinity 0.0578137822
REMARK minimizedRMSD -1
REMARK  0 active torsions:
REMARK  status: ('A' for Active; 'I' for Inactive)
ROOT
ATOM      1  C4' PXY d   1       1.512  -5.990  -5.998  0.00  0.00     0.077 C 
ATOM      2  C1' PXY d   1       5.999  -4.917  -2.515  0.00  0.00     0.077 C 
ATOM      3  C1  PXY d   1       4.829  -5.193  -3.439  0.00  0.00    -0.082 A 
ATOM      4  C2  PXY d   1       3.612  -5.313  -2.934  0.00  0.00     0.003 A 
ATOM      5  C3  PXY d   1       2.547  -5.594  -3.751  0.00  0.00     0.003 A 
ATOM      6  C4  PXY d   1       2.721  -5.702  -5.105  0.00  0.00    -0.082 A 
ATOM      7  C5  PXY d   1       3.959  -5.570  -5.628  0.00  0.00     0.003 A 
ATOM      8  C6  PXY d   1       5.033  -5.326  -4.777  0.00  0.00     0.003 A 
ENDROOT
TORSDOF 0
ENDMDL
