MODEL 1
REMARK minimizedAffinity -1.98299503
REMARK minimizedRMSD -1
REMARK  0 active torsions:
REMARK  status: ('A' for Active; 'I' for Inactive)
ROOT
ATOM      1  C4' PXY d   1       6.000  -5.261  -5.990  0.00  0.00     0.077 C 
ATOM      2  C1' PXY d   1       2.933  -5.976  -1.142  0.00  0.00     0.077 C 
ATOM      3  C1  PXY d   1       3.745  -5.780  -2.407  0.00  0.00    -0.082 A 
ATOM      4  C2  PXY d   1       3.184  -6.000  -3.585  0.00  0.00     0.003 A 
ATOM      5  C3  PXY d   1       3.914  -5.859  -4.738  0.00  0.00     0.003 A 
ATOM      6  C4  PXY d   1       5.215  -5.437  -4.687  0.00  0.00    -0.082 A 
ATOM      7  C5  PXY d   1       5.791  -5.201  -3.489  0.00  0.00     0.003 A 
ATOM      8  C6  PXY d   1       5.046  -5.390  -2.329  0.00  0.00     0.003 A 
ENDROOT
TORSDOF 0
ENDMDL
