MODEL 1
REMARK minimizedAffinity -2.56920195
REMARK minimizedRMSD -1
REMARK  0 active torsions:
REMARK  status: ('A' for Active; 'I' for Inactive)
ROOT
ATOM      1  C4' PXY d   1       0.789   3.000   0.697  0.00  0.00     0.077 C 
ATOM      2  C1' PXY d   1       6.000   2.036   3.008  0.00  0.00     0.077 C 
ATOM      3  C1  PXY d   1       4.632   2.276   2.400  0.00  0.00    -0.082 A 
ATOM      4  C2  PXY d   1       4.358   3.446   1.846  0.00  0.00     0.003 A 
ATOM      5  C3  PXY d   1       3.116   3.691   1.320  0.00  0.00     0.003 A 
ATOM      6  C4  PXY d   1       2.160   2.710   1.314  0.00  0.00    -0.082 A 
ATOM      7  C5  PXY d   1       2.435   1.510   1.868  0.00  0.00     0.003 A 
ATOM      8  C6  PXY d   1       3.689   1.296   2.433  0.00  0.00     0.003 A 
ENDROOT
TORSDOF 0
ENDMDL
