MODEL 1
REMARK minimizedAffinity -3.1270113
REMARK minimizedRMSD -1
REMARK  0 active torsions:
REMARK  status: ('A' for Active; 'I' for Inactive)
ROOT
ATOM      1  C4' PXY d   1       6.000  -4.531  -1.876  0.00  0.00     0.077 C 
ATOM      2  C1' PXY d   1       1.623  -5.999  -5.355  0.00  0.00     0.077 C 
ATOM      3  C1  PXY d   1       2.779  -5.622  -4.450  0.00  0.00    -0.082 A 
ATOM      4  C2  PXY d   1       2.537  -5.223  -3.211  0.00  0.00     0.003 A 
ATOM      5  C3  PXY d   1       3.568  -4.848  -2.390  0.00  0.00     0.003 A 
ATOM      6  C4  PXY d   1       4.865  -4.931  -2.822  0.00  0.00    -0.082 A 
ATOM      7  C5  PXY d   1       5.120  -5.347  -4.081  0.00  0.00     0.003 A 
ATOM      8  C6  PXY d   1       4.057  -5.684  -4.913  0.00  0.00     0.003 A 
ENDROOT
TORSDOF 0
ENDMDL
