MODEL 1
REMARK minimizedAffinity -3.59317946
REMARK minimizedRMSD -1
REMARK  0 active torsions:
REMARK  status: ('A' for Active; 'I' for Inactive)
ROOT
ATOM      1  C4' PXY d   1       6.000  -5.813  -5.991  0.00  0.00     0.077 C 
ATOM      2  C1' PXY d   1       2.417  -5.076  -1.515  0.00  0.00     0.077 C 
ATOM      3  C1  PXY d   1       3.364  -5.260  -2.685  0.00  0.00    -0.082 A 
ATOM      4  C2  PXY d   1       2.919  -5.797  -3.809  0.00  0.00     0.003 A 
ATOM      5  C3  PXY d   1       3.770  -6.000  -4.865  0.00  0.00     0.003 A 
ATOM      6  C4  PXY d   1       5.077  -5.600  -4.788  0.00  0.00    -0.082 A 
ATOM      7  C5  PXY d   1       5.536  -5.041  -3.648  0.00  0.00     0.003 A 
ATOM      8  C6  PXY d   1       4.666  -4.882  -2.573  0.00  0.00     0.003 A 
ENDROOT
TORSDOF 0
ENDMDL
