MODEL 1
REMARK minimizedAffinity -3.45876575
REMARK minimizedRMSD -1
REMARK  0 active torsions:
REMARK  status: ('A' for Active; 'I' for Inactive)
ROOT
ATOM      1  C4' PXY d   1       5.994  -5.647  -5.998  0.00  0.00     0.077 C 
ATOM      2  C1' PXY d   1       1.981  -4.817  -1.921  0.00  0.00     0.077 C 
ATOM      3  C1  PXY d   1       3.027  -5.046  -2.994  0.00  0.00    -0.082 A 
ATOM      4  C2  PXY d   1       4.242  -4.545  -2.840  0.00  0.00     0.003 A 
ATOM      5  C3  PXY d   1       5.191  -4.715  -3.815  0.00  0.00     0.003 A 
ATOM      6  C4  PXY d   1       4.909  -5.450  -4.936  0.00  0.00    -0.082 A 
ATOM      7  C5  PXY d   1       3.675  -5.973  -5.095  0.00  0.00     0.003 A 
ATOM      8  C6  PXY d   1       2.714  -5.754  -4.112  0.00  0.00     0.003 A 
ENDROOT
TORSDOF 0
ENDMDL
