MODEL 1
REMARK minimizedAffinity -3.68633175
REMARK minimizedRMSD -1
REMARK  0 active torsions:
REMARK  status: ('A' for Active; 'I' for Inactive)
ROOT
ATOM      1  C   UNL d   1      -0.019   3.613  -0.876  0.00  0.00     0.172 C 
ATOM      2  N   UNL d   1      -0.640   2.632  -0.017  0.00  0.00    -0.070 N 
ATOM      3  C1  UNL d   1      -0.466   1.276  -0.098  0.00  0.00    -0.004 A 
ATOM      4  C2  UNL d   1      -1.226   0.693   0.894  0.00  0.00    -0.047 A 
ATOM      5  C3  UNL d   1      -1.880   1.735   1.593  0.00  0.00    -0.047 A 
ATOM      6  C4  UNL d   1      -1.500   2.924   1.008  0.00  0.00    -0.004 A 
ENDROOT
TORSDOF 0
ENDMDL
