MODEL 1
REMARK minimizedAffinity -3.96781993
REMARK minimizedRMSD -1
REMARK  0 active torsions:
REMARK  status: ('A' for Active; 'I' for Inactive)
ROOT
ATOM      1  C   UNL d   1       0.868  -0.343  -0.555  0.00  0.00     0.172 C 
ATOM      2  N   UNL d   1      -0.026   0.353   0.342  0.00  0.00    -0.070 N 
ATOM      3  C1  UNL d   1      -0.885   1.360  -0.010  0.00  0.00    -0.004 A 
ATOM      4  C2  UNL d   1      -1.558   1.756   1.126  0.00  0.00    -0.047 A 
ATOM      5  C3  UNL d   1      -1.087   0.960   2.197  0.00  0.00    -0.047 A 
ATOM      6  C4  UNL d   1      -0.139   0.100   1.683  0.00  0.00    -0.004 A 
ENDROOT
TORSDOF 0
ENDMDL
