MODEL 1
REMARK minimizedAffinity -4.2310524
REMARK minimizedRMSD -1
REMARK  0 active torsions:
REMARK  status: ('A' for Active; 'I' for Inactive)
ROOT
ATOM      1  C   UNL d   1      -0.320   3.451  -0.553  0.00  0.00     0.172 C 
ATOM      2  N   UNL d   1      -0.759   2.411   0.348  0.00  0.00    -0.070 N 
ATOM      3  C1  UNL d   1      -1.599   2.582   1.416  0.00  0.00    -0.004 A 
ATOM      4  C2  UNL d   1      -1.770   1.354   2.018  0.00  0.00    -0.047 A 
ATOM      5  C3  UNL d   1      -1.006   0.413   1.287  0.00  0.00    -0.047 A 
ATOM      6  C4  UNL d   1      -0.390   1.095   0.259  0.00  0.00    -0.004 A 
ENDROOT
TORSDOF 0
ENDMDL
