MODEL 1
REMARK minimizedAffinity -3.87682939
REMARK minimizedRMSD -1
REMARK  0 active torsions:
REMARK  status: ('A' for Active; 'I' for Inactive)
ROOT
ATOM      1  C   UNL d   1      -0.323  -0.490   0.826  0.00  0.00     0.172 C 
ATOM      2  N   UNL d   1      -0.634   0.917   0.722  0.00  0.00    -0.070 N 
ATOM      3  C1  UNL d   1      -0.587   1.662  -0.425  0.00  0.00    -0.004 A 
ATOM      4  C2  UNL d   1      -0.953   2.952  -0.106  0.00  0.00    -0.047 A 
ATOM      5  C3  UNL d   1      -1.229   2.982   1.282  0.00  0.00    -0.047 A 
ATOM      6  C4  UNL d   1      -1.024   1.709   1.770  0.00  0.00    -0.004 A 
ENDROOT
TORSDOF 0
ENDMDL
