MODEL 1
REMARK minimizedAffinity -4.26481771
REMARK minimizedRMSD -1
REMARK  0 active torsions:
REMARK  status: ('A' for Active; 'I' for Inactive)
ROOT
ATOM      1  C   UNL d   1      -0.032   0.065   0.015  0.00  0.00     0.172 C 
ATOM      2  N   UNL d   1      -0.608   1.359   0.293  0.00  0.00    -0.070 N 
ATOM      3  C1  UNL d   1      -1.580   1.617   1.223  0.00  0.00    -0.004 A 
ATOM      4  C2  UNL d   1      -1.855   2.967   1.182  0.00  0.00    -0.047 A 
ATOM      5  C3  UNL d   1      -1.020   3.540   0.194  0.00  0.00    -0.047 A 
ATOM      6  C4  UNL d   1      -0.258   2.522  -0.341  0.00  0.00    -0.004 A 
ENDROOT
TORSDOF 0
ENDMDL
