MODEL 1
REMARK minimizedAffinity -2.08047462
REMARK minimizedRMSD -1
REMARK  0 active torsions:
REMARK  status: ('A' for Active; 'I' for Inactive)
ROOT
ATOM      1  C   UNL d   1      -0.910   2.552   2.169  0.00  0.00     0.172 C 
ATOM      2  N   UNL d   1      -0.768   1.530   1.159  0.00  0.00    -0.070 N 
ATOM      3  C1  UNL d   1      -1.132   1.650  -0.156  0.00  0.00    -0.004 A 
ATOM      4  C2  UNL d   1      -0.834   0.462  -0.787  0.00  0.00    -0.047 A 
ATOM      5  C3  UNL d   1      -0.272  -0.403   0.182  0.00  0.00    -0.047 A 
ATOM      6  C4  UNL d   1      -0.243   0.283   1.378  0.00  0.00    -0.004 A 
ENDROOT
TORSDOF 0
ENDMDL
