MODEL 1
REMARK minimizedAffinity -4.01665831
REMARK minimizedRMSD -1
REMARK  0 active torsions:
REMARK  status: ('A' for Active; 'I' for Inactive)
ROOT
ATOM      1  C   UNL d   1       0.615  -0.024   0.000  0.00  0.00     0.172 C 
ATOM      2  N   UNL d   1      -0.286   1.102   0.078  0.00  0.00    -0.070 N 
ATOM      3  C1  UNL d   1      -1.376   1.196   0.902  0.00  0.00    -0.004 A 
ATOM      4  C2  UNL d   1      -1.970   2.419   0.677  0.00  0.00    -0.047 A 
ATOM      5  C3  UNL d   1      -1.212   3.082  -0.316  0.00  0.00    -0.047 A 
ATOM      6  C4  UNL d   1      -0.175   2.245  -0.669  0.00  0.00    -0.004 A 
ENDROOT
TORSDOF 0
ENDMDL
