MODEL 1
REMARK minimizedAffinity -2.64611435
REMARK minimizedRMSD -1
REMARK  0 active torsions:
REMARK  status: ('A' for Active; 'I' for Inactive)
ROOT
ATOM      1  C   UNL d   1       0.582   2.860  -1.192  0.00  0.00     0.172 C 
ATOM      2  N   UNL d   1       0.563   1.561  -0.561  0.00  0.00    -0.070 N 
ATOM      3  C1  UNL d   1       1.395   0.516  -0.860  0.00  0.00    -0.004 A 
ATOM      4  C2  UNL d   1       1.058  -0.539  -0.040  0.00  0.00    -0.047 A 
ATOM      5  C3  UNL d   1      -0.014  -0.114   0.779  0.00  0.00    -0.047 A 
ATOM      6  C4  UNL d   1      -0.301   1.190   0.436  0.00  0.00    -0.004 A 
ENDROOT
TORSDOF 0
ENDMDL
