MODEL 1
REMARK minimizedAffinity -2.61928034
REMARK minimizedRMSD -1
REMARK  0 active torsions:
REMARK  status: ('A' for Active; 'I' for Inactive)
ROOT
ATOM      1  C   UNL d   1      -1.515   1.546   1.581  0.00  0.00     0.172 C 
ATOM      2  N   UNL d   1      -0.597   0.746   0.806  0.00  0.00    -0.070 N 
ATOM      3  C1  UNL d   1      -0.220   0.990  -0.487  0.00  0.00    -0.004 A 
ATOM      4  C2  UNL d   1       0.665   0.003  -0.863  0.00  0.00    -0.047 A 
ATOM      5  C3  UNL d   1       0.824  -0.867   0.242  0.00  0.00    -0.047 A 
ATOM      6  C4  UNL d   1       0.031  -0.383   1.262  0.00  0.00    -0.004 A 
ENDROOT
TORSDOF 0
ENDMDL
