MODEL 1
REMARK minimizedAffinity -3.81801128
REMARK minimizedRMSD -1
REMARK  0 active torsions:
REMARK  status: ('A' for Active; 'I' for Inactive)
ROOT
ATOM      1  C   UNL d   1       0.337  -0.403  -0.309  0.00  0.00     0.172 C 
ATOM      2  N   UNL d   1      -0.473   0.522   0.448  0.00  0.00    -0.070 N 
ATOM      3  C1  UNL d   1      -1.458   1.324  -0.065  0.00  0.00    -0.004 A 
ATOM      4  C2  UNL d   1      -1.991   2.054   0.976  0.00  0.00    -0.047 A 
ATOM      5  C3  UNL d   1      -1.303   1.678   2.153  0.00  0.00    -0.047 A 
ATOM      6  C4  UNL d   1      -0.369   0.728   1.798  0.00  0.00    -0.004 A 
ENDROOT
TORSDOF 0
ENDMDL
