MODEL 1
REMARK minimizedAffinity -3.47652292
REMARK minimizedRMSD -1
REMARK  0 active torsions:
REMARK  status: ('A' for Active; 'I' for Inactive)
ROOT
ATOM      1  C   UNL d   1       0.280   2.898  -1.001  0.00  0.00     0.172 C 
ATOM      2  N   UNL d   1      -0.424   2.171   0.028  0.00  0.00    -0.070 N 
ATOM      3  C1  UNL d   1      -1.213   2.726   1.000  0.00  0.00    -0.004 A 
ATOM      4  C2  UNL d   1      -1.702   1.702   1.783  0.00  0.00    -0.047 A 
ATOM      5  C3  UNL d   1      -1.188   0.490   1.264  0.00  0.00    -0.047 A 
ATOM      6  C4  UNL d   1      -0.400   0.809   0.178  0.00  0.00    -0.004 A 
ENDROOT
TORSDOF 0
ENDMDL
