MODEL 1
REMARK minimizedAffinity -4.05075455
REMARK minimizedRMSD -1
REMARK  0 active torsions:
REMARK  status: ('A' for Active; 'I' for Inactive)
ROOT
ATOM      1  C   UNL d   1       0.410  -0.388  -0.442  0.00  0.00     0.172 C 
ATOM      2  N   UNL d   1      -0.465   0.519   0.263  0.00  0.00    -0.070 N 
ATOM      3  C1  UNL d   1      -1.340   0.172   1.258  0.00  0.00    -0.004 A 
ATOM      4  C2  UNL d   1      -1.986   1.318   1.669  0.00  0.00    -0.047 A 
ATOM      5  C3  UNL d   1      -1.484   2.389   0.893  0.00  0.00    -0.047 A 
ATOM      6  C4  UNL d   1      -0.543   1.866   0.031  0.00  0.00    -0.004 A 
ENDROOT
TORSDOF 0
ENDMDL
