MODEL 1
REMARK minimizedAffinity -3.79414701
REMARK minimizedRMSD -1
REMARK  0 active torsions:
REMARK  status: ('A' for Active; 'I' for Inactive)
ROOT
ATOM      1  C   UNL d   1      -1.972   2.433   1.353  0.00  0.00     0.172 C 
ATOM      2  N   UNL d   1      -0.975   1.525   0.837  0.00  0.00    -0.070 N 
ATOM      3  C1  UNL d   1      -0.316   1.657  -0.356  0.00  0.00    -0.004 A 
ATOM      4  C2  UNL d   1       0.550   0.592  -0.480  0.00  0.00    -0.047 A 
ATOM      5  C3  UNL d   1       0.406  -0.208   0.678  0.00  0.00    -0.047 A 
ATOM      6  C4  UNL d   1      -0.544   0.393   1.477  0.00  0.00    -0.004 A 
ENDROOT
TORSDOF 0
ENDMDL
