MODEL 1
REMARK minimizedAffinity -4.00431633
REMARK minimizedRMSD -1
REMARK  0 active torsions:
REMARK  status: ('A' for Active; 'I' for Inactive)
ROOT
ATOM      1  C   UNL d   1       0.187   2.645  -1.046  0.00  0.00     0.172 C 
ATOM      2  N   UNL d   1      -0.287   1.763  -0.005  0.00  0.00    -0.070 N 
ATOM      3  C1  UNL d   1       0.079   0.454   0.160  0.00  0.00    -0.004 A 
ATOM      4  C2  UNL d   1      -0.589  -0.035   1.262  0.00  0.00    -0.047 A 
ATOM      5  C3  UNL d   1      -1.384   1.016   1.776  0.00  0.00    -0.047 A 
ATOM      6  C4  UNL d   1      -1.178   2.118   0.973  0.00  0.00    -0.004 A 
ENDROOT
TORSDOF 0
ENDMDL
