MODEL 1
REMARK minimizedAffinity -4.15934038
REMARK minimizedRMSD -1
REMARK  0 active torsions:
REMARK  status: ('A' for Active; 'I' for Inactive)
ROOT
ATOM      1  C   UNL d   1       0.713  -0.206  -0.371  0.00  0.00     0.172 C 
ATOM      2  N   UNL d   1      -0.175   0.638   0.393  0.00  0.00    -0.070 N 
ATOM      3  C1  UNL d   1      -0.785   1.775  -0.064  0.00  0.00    -0.004 A 
ATOM      4  C2  UNL d   1      -1.547   2.287   0.963  0.00  0.00    -0.047 A 
ATOM      5  C3  UNL d   1      -1.389   1.429   2.077  0.00  0.00    -0.047 A 
ATOM      6  C4  UNL d   1      -0.534   0.416   1.696  0.00  0.00    -0.004 A 
ENDROOT
TORSDOF 0
ENDMDL
