MODEL 1
REMARK minimizedAffinity -2.49626589
REMARK minimizedRMSD -1
REMARK  0 active torsions:
REMARK  status: ('A' for Active; 'I' for Inactive)
ROOT
ATOM      1  C   UNL d   1      -1.086   1.681   2.005  0.00  0.00     0.172 C 
ATOM      2  N   UNL d   1      -0.416   0.794   1.084  0.00  0.00    -0.070 N 
ATOM      3  C1  UNL d   1      -0.017  -0.487   1.357  0.00  0.00    -0.004 A 
ATOM      4  C2  UNL d   1       0.580  -0.994   0.223  0.00  0.00    -0.047 A 
ATOM      5  C3  UNL d   1       0.539   0.018  -0.766  0.00  0.00    -0.047 A 
ATOM      6  C4  UNL d   1      -0.083   1.114  -0.206  0.00  0.00    -0.004 A 
ENDROOT
TORSDOF 0
ENDMDL
