MODEL 1
REMARK minimizedAffinity 5.03714705
REMARK minimizedRMSD -1
REMARK  1 active torsions:
REMARK  status: ('A' for Active; 'I' for Inactive)
REMARK    1  A    between atoms: C1_2  and  C2_3 
ROOT
ATOM      1  C2  UNL d   1       1.627  -1.237  -0.374  0.00  0.00    -0.081 A 
ATOM      2  C3  UNL d   1       1.108  -1.337  -1.671  0.00  0.00     0.006 A 
ATOM      3  C4  UNL d   1       0.175  -2.329  -1.985  0.00  0.00     0.002 A 
ATOM      4  C5  UNL d   1      -0.260  -3.230  -1.008  0.00  0.00    -0.080 A 
ATOM      5  C6  UNL d   1      -1.283  -4.279  -1.324  0.00  0.00     0.076 C 
ATOM      6  C7  UNL d   1       0.272  -3.140   0.283  0.00  0.00     0.002 A 
ATOM      7  C8  UNL d   1       1.205  -2.150   0.598  0.00  0.00     0.006 A 
ENDROOT
BRANCH   1   8
ATOM      8  C1  UNL d   1       2.584  -0.129  -0.015  0.00  0.00     0.054 C 
ATOM      9  C   UNL d   1       1.841   1.151   0.342  0.00  0.00     0.018 C 
ENDBRANCH   1   8
TORSDOF 1
ENDMDL
