MODEL 1
REMARK minimizedAffinity 4.55043221
REMARK minimizedRMSD -1
REMARK  1 active torsions:
REMARK  status: ('A' for Active; 'I' for Inactive)
REMARK    1  A    between atoms: C1_2  and  C2_3 
ROOT
ATOM      1  C2  UNL d   1      -2.009   2.710   1.944  0.00  0.00    -0.081 A 
ATOM      2  C3  UNL d   1      -1.404   3.438   0.912  0.00  0.00     0.006 A 
ATOM      3  C4  UNL d   1      -0.049   3.262   0.621  0.00  0.00     0.002 A 
ATOM      4  C5  UNL d   1       0.721   2.350   1.351  0.00  0.00    -0.080 A 
ATOM      5  C6  UNL d   1       2.169   2.129   1.029  0.00  0.00     0.076 C 
ATOM      6  C7  UNL d   1       0.121   1.636   2.394  0.00  0.00     0.002 A 
ATOM      7  C8  UNL d   1      -1.233   1.812   2.686  0.00  0.00     0.006 A 
ENDROOT
BRANCH   1   8
ATOM      8  C1  UNL d   1      -3.484   2.850   2.218  0.00  0.00     0.054 C 
ATOM      9  C   UNL d   1      -4.274   1.708   1.596  0.00  0.00     0.018 C 
ENDBRANCH   1   8
TORSDOF 1
ENDMDL
