MODEL 1
REMARK minimizedAffinity 1.51596904
REMARK minimizedRMSD -1
REMARK  1 active torsions:
REMARK  status: ('A' for Active; 'I' for Inactive)
REMARK    1  A    between atoms: C1_2  and  C2_3 
ROOT
ATOM      1  C2  UNL d   1      -5.145   0.643  -1.711  0.00  0.00    -0.081 A 
ATOM      2  C3  UNL d   1      -4.038  -0.114  -2.113  0.00  0.00     0.006 A 
ATOM      3  C4  UNL d   1      -3.453   0.097  -3.365  0.00  0.00     0.002 A 
ATOM      4  C5  UNL d   1      -3.961   1.072  -4.230  0.00  0.00    -0.080 A 
ATOM      5  C6  UNL d   1      -3.324   1.329  -5.563  0.00  0.00     0.076 C 
ATOM      6  C7  UNL d   1      -5.078   1.816  -3.835  0.00  0.00     0.002 A 
ATOM      7  C8  UNL d   1      -5.663   1.605  -2.584  0.00  0.00     0.006 A 
ENDROOT
BRANCH   1   8
ATOM      8  C1  UNL d   1      -5.737   0.462  -0.336  0.00  0.00     0.054 C 
ATOM      9  C   UNL d   1      -4.874   1.124   0.729  0.00  0.00     0.018 C 
ENDBRANCH   1   8
TORSDOF 1
ENDMDL
