MODEL 1
REMARK minimizedAffinity 1.82796943
REMARK minimizedRMSD -1
REMARK  1 active torsions:
REMARK  status: ('A' for Active; 'I' for Inactive)
REMARK    1  A    between atoms: C1_2  and  C2_3 
ROOT
ATOM      1  C2  UNL d   1       1.516  -0.114  -0.234  0.00  0.00    -0.081 A 
ATOM      2  C3  UNL d   1       0.321  -0.495  -0.857  0.00  0.00     0.006 A 
ATOM      3  C4  UNL d   1       0.029  -1.845  -1.064  0.00  0.00     0.002 A 
ATOM      4  C5  UNL d   1       0.922  -2.837  -0.644  0.00  0.00    -0.080 A 
ATOM      5  C6  UNL d   1       0.606  -4.291  -0.833  0.00  0.00     0.076 C 
ATOM      6  C7  UNL d   1       2.123  -2.456  -0.037  0.00  0.00     0.002 A 
ATOM      7  C8  UNL d   1       2.416  -1.107   0.170  0.00  0.00     0.006 A 
ENDROOT
BRANCH   1   8
ATOM      8  C1  UNL d   1       1.804   1.338   0.049  0.00  0.00     0.054 C 
ATOM      9  C   UNL d   1       0.519   2.126   0.263  0.00  0.00     0.018 C 
ENDBRANCH   1   8
TORSDOF 1
ENDMDL
