MODEL 1
REMARK minimizedAffinity 8.31942177
REMARK minimizedRMSD -1
REMARK  1 active torsions:
REMARK  status: ('A' for Active; 'I' for Inactive)
REMARK    1  A    between atoms: C1_2  and  C2_3 
ROOT
ATOM      1  C2  UNL d   1      -2.461   1.562   1.572  0.00  0.00    -0.081 A 
ATOM      2  C3  UNL d   1      -1.854   1.068   2.733  0.00  0.00     0.006 A 
ATOM      3  C4  UNL d   1      -0.528   1.392   3.031  0.00  0.00     0.002 A 
ATOM      4  C5  UNL d   1       0.209   2.222   2.180  0.00  0.00    -0.080 A 
ATOM      5  C6  UNL d   1       1.623   2.602   2.504  0.00  0.00     0.076 C 
ATOM      6  C7  UNL d   1      -0.392   2.702   1.011  0.00  0.00     0.002 A 
ATOM      7  C8  UNL d   1      -1.717   2.377   0.712  0.00  0.00     0.006 A 
ENDROOT
BRANCH   1   8
ATOM      8  C1  UNL d   1      -3.910   1.267   1.280  0.00  0.00     0.054 C 
ATOM      9  C   UNL d   1      -4.064   0.464  -0.003  0.00  0.00     0.018 C 
ENDBRANCH   1   8
TORSDOF 1
ENDMDL
