MODEL 1
REMARK minimizedAffinity 3.20119762
REMARK minimizedRMSD -1
REMARK  0 active torsions:
REMARK  status: ('A' for Active; 'I' for Inactive)
ROOT
ATOM      1  C1  BNZ d   1      -2.090  -0.809  -2.879  0.00  0.00     0.000 A 
ATOM      2  C2  BNZ d   1      -2.015  -0.558  -1.535  0.00  0.00     0.000 A 
ATOM      3  C3  BNZ d   1      -2.440   0.634  -1.020  0.00  0.00     0.000 A 
ATOM      4  C4  BNZ d   1      -2.902   1.589  -1.854  0.00  0.00     0.000 A 
ATOM      5  C5  BNZ d   1      -2.975   1.355  -3.212  0.00  0.00     0.000 A 
ATOM      6  C6  BNZ d   1      -2.583   0.139  -3.722  0.00  0.00     0.000 A 
ENDROOT
TORSDOF 0
ENDMDL
