MODEL 1
REMARK minimizedAffinity 1.8009907
REMARK minimizedRMSD -1
REMARK  0 active torsions:
REMARK  status: ('A' for Active; 'I' for Inactive)
ROOT
ATOM      1  C1  BNZ d   1      -1.998  -1.349  -2.071  0.00  0.00     0.000 A 
ATOM      2  C2  BNZ d   1      -2.025  -0.253  -1.250  0.00  0.00     0.000 A 
ATOM      3  C3  BNZ d   1      -2.447   0.961  -1.717  0.00  0.00     0.000 A 
ATOM      4  C4  BNZ d   1      -2.801   1.086  -3.013  0.00  0.00     0.000 A 
ATOM      5  C5  BNZ d   1      -2.770  -0.007  -3.855  0.00  0.00     0.000 A 
ATOM      6  C6  BNZ d   1      -2.382  -1.236  -3.372  0.00  0.00     0.000 A 
ENDROOT
TORSDOF 0
ENDMDL
