MODEL 1
REMARK minimizedAffinity 8.26665306
REMARK minimizedRMSD -1
REMARK  0 active torsions:
REMARK  status: ('A' for Active; 'I' for Inactive)
ROOT
ATOM      1  C1  BNZ d   1      -1.899   0.725   0.196  0.00  0.00     0.000 A 
ATOM      2  C2  BNZ d   1      -2.379   1.585  -0.756  0.00  0.00     0.000 A 
ATOM      3  C3  BNZ d   1      -2.572   1.167  -2.043  0.00  0.00     0.000 A 
ATOM      4  C4  BNZ d   1      -2.247  -0.096  -2.385  0.00  0.00     0.000 A 
ATOM      5  C5  BNZ d   1      -1.754  -0.972  -1.439  0.00  0.00     0.000 A 
ATOM      6  C6  BNZ d   1      -1.598  -0.560  -0.136  0.00  0.00     0.000 A 
ENDROOT
TORSDOF 0
ENDMDL
