MODEL 1
REMARK minimizedAffinity 15.0624762
REMARK minimizedRMSD -1
REMARK  0 active torsions:
REMARK  status: ('A' for Active; 'I' for Inactive)
ROOT
ATOM      1  C1  BNZ d   1      -2.914   1.595  -3.695  0.00  0.00     0.000 A 
ATOM      2  C2  BNZ d   1      -2.721   0.334  -4.192  0.00  0.00     0.000 A 
ATOM      3  C3  BNZ d   1      -2.334  -0.690  -3.372  0.00  0.00     0.000 A 
ATOM      4  C4  BNZ d   1      -2.103  -0.443  -2.066  0.00  0.00     0.000 A 
ATOM      5  C5  BNZ d   1      -2.285   0.825  -1.552  0.00  0.00     0.000 A 
ATOM      6  C6  BNZ d   1      -2.712   1.845  -2.372  0.00  0.00     0.000 A 
ENDROOT
TORSDOF 0
ENDMDL
