MODEL 1
REMARK minimizedAffinity 7.75866175
REMARK minimizedRMSD -1
REMARK  0 active torsions:
REMARK  status: ('A' for Active; 'I' for Inactive)
ROOT
ATOM      1  C1  BNZ d   1       1.925   0.177   3.638  0.00  0.00     0.000 A 
ATOM      2  C2  BNZ d   1       1.926  -1.192   3.655  0.00  0.00     0.000 A 
ATOM      3  C3  BNZ d   1       1.879  -1.877   4.837  0.00  0.00     0.000 A 
ATOM      4  C4  BNZ d   1       1.873  -1.194   6.000  0.00  0.00     0.000 A 
ATOM      5  C5  BNZ d   1       1.881   0.187   5.999  0.00  0.00     0.000 A 
ATOM      6  C6  BNZ d   1       1.888   0.873   4.807  0.00  0.00     0.000 A 
ENDROOT
TORSDOF 0
ENDMDL
