MODEL 1
REMARK minimizedAffinity 9.67785358
REMARK minimizedRMSD -1
REMARK  0 active torsions:
REMARK  status: ('A' for Active; 'I' for Inactive)
ROOT
ATOM      1  C1  BNZ d   1       1.695  -1.461   4.171  0.00  0.00     0.000 A 
ATOM      2  C2  BNZ d   1       1.950  -0.926   5.405  0.00  0.00     0.000 A 
ATOM      3  C3  BNZ d   1       1.904   0.425   5.606  0.00  0.00     0.000 A 
ATOM      4  C4  BNZ d   1       1.643   1.242   4.565  0.00  0.00     0.000 A 
ATOM      5  C5  BNZ d   1       1.393   0.718   3.312  0.00  0.00     0.000 A 
ATOM      6  C6  BNZ d   1       1.402  -0.644   3.122  0.00  0.00     0.000 A 
ENDROOT
TORSDOF 0
ENDMDL
