MODEL 1
REMARK minimizedAffinity 8.14035034
REMARK minimizedRMSD -1
REMARK  0 active torsions:
REMARK  status: ('A' for Active; 'I' for Inactive)
ROOT
ATOM      1  C1  BNZ d   1      -2.233   1.625  -3.398  0.00  0.00     0.000 A 
ATOM      2  C2  BNZ d   1      -2.211   0.575  -4.276  0.00  0.00     0.000 A 
ATOM      3  C3  BNZ d   1      -2.231  -0.716  -3.826  0.00  0.00     0.000 A 
ATOM      4  C4  BNZ d   1      -2.231  -0.954  -2.498  0.00  0.00     0.000 A 
ATOM      5  C5  BNZ d   1      -2.243   0.094  -1.599  0.00  0.00     0.000 A 
ATOM      6  C6  BNZ d   1      -2.263   1.391  -2.057  0.00  0.00     0.000 A 
ENDROOT
TORSDOF 0
ENDMDL
