MODEL 1
REMARK minimizedAffinity 6.28931761
REMARK minimizedRMSD -1
REMARK  0 active torsions:
REMARK  status: ('A' for Active; 'I' for Inactive)
ROOT
ATOM      1  C1  BNZ d   1      -1.639  -0.719  -2.343  0.00  0.00     0.000 A 
ATOM      2  C2  BNZ d   1      -1.591   0.623  -2.612  0.00  0.00     0.000 A 
ATOM      3  C3  BNZ d   1      -2.327   1.160  -3.631  0.00  0.00     0.000 A 
ATOM      4  C4  BNZ d   1      -3.079   0.350  -4.403  0.00  0.00     0.000 A 
ATOM      5  C5  BNZ d   1      -3.132  -1.007  -4.151  0.00  0.00     0.000 A 
ATOM      6  C6  BNZ d   1      -2.419  -1.537  -3.100  0.00  0.00     0.000 A 
ENDROOT
TORSDOF 0
ENDMDL
