MODEL 1
REMARK minimizedAffinity 2.04470301
REMARK minimizedRMSD -1
REMARK  0 active torsions:
REMARK  status: ('A' for Active; 'I' for Inactive)
ROOT
ATOM      1  C1  BNZ d   1      -1.610   0.002  -2.174  0.00  0.00     0.000 A 
ATOM      2  C2  BNZ d   1      -1.927   1.199  -1.590  0.00  0.00     0.000 A 
ATOM      3  C3  BNZ d   1      -2.627   2.151  -2.278  0.00  0.00     0.000 A 
ATOM      4  C4  BNZ d   1      -2.974   1.920  -3.560  0.00  0.00     0.000 A 
ATOM      5  C5  BNZ d   1      -2.654   0.722  -4.166  0.00  0.00     0.000 A 
ATOM      6  C6  BNZ d   1      -1.984  -0.249  -3.458  0.00  0.00     0.000 A 
ENDROOT
TORSDOF 0
ENDMDL
