MODEL 1
REMARK minimizedAffinity -1.39185774
REMARK minimizedRMSD -1
REMARK  0 active torsions:
REMARK  status: ('A' for Active; 'I' for Inactive)
ROOT
ATOM      1  C   UNL d   1      -2.092  -2.834   1.929  0.00  0.00     0.023 A 
ATOM      2  C1  UNL d   1      -1.326  -2.982   0.772  0.00  0.00     0.003 A 
ATOM      3  C2  UNL d   1      -0.639  -1.887   0.244  0.00  0.00     0.048 A 
ATOM      4  C3  UNL d   1      -0.721  -0.648   0.878  0.00  0.00     0.023 A 
ATOM      5  C4  UNL d   1      -1.486  -0.496   2.035  0.00  0.00     0.048 A 
ATOM      6  C5  UNL d   1      -2.172  -1.593   2.559  0.00  0.00     0.003 A 
ATOM      7  I   UNL d   1       0.301   0.983   0.093  0.00  0.00    -0.146 I 
ENDROOT
TORSDOF 0
ENDMDL
