MODEL 1
REMARK minimizedAffinity -2.20657754
REMARK minimizedRMSD -1
REMARK  0 active torsions:
REMARK  status: ('A' for Active; 'I' for Inactive)
ROOT
ATOM      1  C   UNL d   1      -0.093  -3.403   0.441  0.00  0.00     0.023 A 
ATOM      2  C1  UNL d   1       1.141  -2.849   0.100  0.00  0.00     0.003 A 
ATOM      3  C2  UNL d   1       1.264  -1.469  -0.076  0.00  0.00     0.048 A 
ATOM      4  C3  UNL d   1       0.149  -0.649   0.092  0.00  0.00     0.023 A 
ATOM      5  C4  UNL d   1      -1.088  -1.198   0.435  0.00  0.00     0.048 A 
ATOM      6  C5  UNL d   1      -1.206  -2.579   0.608  0.00  0.00     0.003 A 
ATOM      7  I   UNL d   1       0.329   1.405  -0.168  0.00  0.00    -0.146 I 
ENDROOT
TORSDOF 0
ENDMDL
