MODEL 1
REMARK minimizedAffinity -2.06493139
REMARK minimizedRMSD -1
REMARK  0 active torsions:
REMARK  status: ('A' for Active; 'I' for Inactive)
ROOT
ATOM      1  C   UNL d   1       0.617  -3.505  -1.143  0.00  0.00     0.023 A 
ATOM      2  C1  UNL d   1      -0.598  -3.625  -0.468  0.00  0.00     0.003 A 
ATOM      3  C2  UNL d   1      -1.214  -2.492   0.069  0.00  0.00     0.048 A 
ATOM      4  C3  UNL d   1      -0.611  -1.243  -0.075  0.00  0.00     0.023 A 
ATOM      5  C4  UNL d   1       0.605  -1.119  -0.750  0.00  0.00     0.048 A 
ATOM      6  C5  UNL d   1       1.218  -2.254  -1.284  0.00  0.00     0.003 A 
ATOM      7  I   UNL d   1      -1.526   0.444   0.723  0.00  0.00    -0.146 I 
ENDROOT
TORSDOF 0
ENDMDL
