MODEL 1
REMARK minimizedAffinity -2.51390791
REMARK minimizedRMSD -1
REMARK  0 active torsions:
REMARK  status: ('A' for Active; 'I' for Inactive)
ROOT
ATOM      1  C   UNL d   1       2.658   4.292   1.153  0.00  0.00     0.023 A 
ATOM      2  C1  UNL d   1       3.153   3.135   0.551  0.00  0.00     0.003 A 
ATOM      3  C2  UNL d   1       2.281   2.102   0.201  0.00  0.00     0.048 A 
ATOM      4  C3  UNL d   1       0.916   2.233   0.454  0.00  0.00     0.023 A 
ATOM      5  C4  UNL d   1       0.417   3.389   1.055  0.00  0.00     0.048 A 
ATOM      6  C5  UNL d   1       1.292   4.419   1.405  0.00  0.00     0.003 A 
ATOM      7  I   UNL d   1      -0.383   0.696  -0.067  0.00  0.00    -0.146 I 
ENDROOT
TORSDOF 0
ENDMDL
