MODEL 1
REMARK minimizedAffinity -1.46784616
REMARK minimizedRMSD -1
REMARK  0 active torsions:
REMARK  status: ('A' for Active; 'I' for Inactive)
ROOT
ATOM      1  C   UNL d   1       0.449   0.790  -0.023  0.00  0.00     0.023 A 
ATOM      2  C1  UNL d   1      -0.696   0.811   0.773  0.00  0.00     0.003 A 
ATOM      3  C2  UNL d   1      -1.477  -0.339   0.905  0.00  0.00     0.048 A 
ATOM      4  C3  UNL d   1      -1.105  -1.507   0.240  0.00  0.00     0.023 A 
ATOM      5  C4  UNL d   1       0.040  -1.533  -0.557  0.00  0.00     0.048 A 
ATOM      6  C5  UNL d   1       0.817  -0.380  -0.687  0.00  0.00     0.003 A 
ATOM      7  I   UNL d   1      -2.265  -3.221   0.435  0.00  0.00    -0.146 I 
ENDROOT
TORSDOF 0
ENDMDL
