MODEL 1
REMARK minimizedAffinity -4.26001072
REMARK minimizedRMSD -1
REMARK  0 active torsions:
REMARK  status: ('A' for Active; 'I' for Inactive)
ROOT
ATOM      1  C   UNL d   1      -1.045  -2.451   0.885  0.00  0.00     0.023 A 
ATOM      2  C1  UNL d   1       0.025  -2.246   0.013  0.00  0.00     0.003 A 
ATOM      3  C2  UNL d   1       0.463  -0.949  -0.264  0.00  0.00     0.048 A 
ATOM      4  C3  UNL d   1      -0.174   0.138   0.335  0.00  0.00     0.023 A 
ATOM      5  C4  UNL d   1      -1.244  -0.063   1.208  0.00  0.00     0.048 A 
ATOM      6  C5  UNL d   1      -1.678  -1.361   1.481  0.00  0.00     0.003 A 
ATOM      7  I   UNL d   1       0.476   2.069  -0.076  0.00  0.00    -0.146 I 
ENDROOT
TORSDOF 0
ENDMDL
