MODEL 1
REMARK minimizedAffinity -3.50622249
REMARK minimizedRMSD -1
REMARK  0 active torsions:
REMARK  status: ('A' for Active; 'I' for Inactive)
ROOT
ATOM      1  C   UNL d   1      -0.986  -2.408   0.442  0.00  0.00     0.023 A 
ATOM      2  C1  UNL d   1       0.045  -2.214  -0.477  0.00  0.00     0.003 A 
ATOM      3  C2  UNL d   1       0.518  -0.926  -0.737  0.00  0.00     0.048 A 
ATOM      4  C3  UNL d   1      -0.044   0.163  -0.074  0.00  0.00     0.023 A 
ATOM      5  C4  UNL d   1      -1.076  -0.026   0.848  0.00  0.00     0.048 A 
ATOM      6  C5  UNL d   1      -1.546  -1.315   1.104  0.00  0.00     0.003 A 
ATOM      7  I   UNL d   1       0.658   2.081  -0.459  0.00  0.00    -0.146 I 
ENDROOT
TORSDOF 0
ENDMDL
