MODEL 1
REMARK minimizedAffinity -4.56377554
REMARK minimizedRMSD -1
REMARK  0 active torsions:
REMARK  status: ('A' for Active; 'I' for Inactive)
ROOT
ATOM      1  C   UNL d   1      -0.558  -3.343   0.659  0.00  0.00     0.023 A 
ATOM      2  C1  UNL d   1      -1.299  -2.422   1.401  0.00  0.00     0.003 A 
ATOM      3  C2  UNL d   1      -1.132  -1.053   1.183  0.00  0.00     0.048 A 
ATOM      4  C3  UNL d   1      -0.223  -0.611   0.222  0.00  0.00     0.023 A 
ATOM      5  C4  UNL d   1       0.519  -1.529  -0.523  0.00  0.00     0.048 A 
ATOM      6  C5  UNL d   1       0.350  -2.897  -0.301  0.00  0.00     0.003 A 
ATOM      7  I   UNL d   1       0.026   1.426  -0.105  0.00  0.00    -0.146 I 
ENDROOT
TORSDOF 0
ENDMDL
