MODEL 1
REMARK minimizedAffinity -4.0930953
REMARK minimizedRMSD -1
REMARK  0 active torsions:
REMARK  status: ('A' for Active; 'I' for Inactive)
ROOT
ATOM      1  C   UNL d   1      -0.534  -3.214   0.013  0.00  0.00     0.023 A 
ATOM      2  C1  UNL d   1       0.437  -2.660  -0.822  0.00  0.00     0.003 A 
ATOM      3  C2  UNL d   1       0.685  -1.286  -0.791  0.00  0.00     0.048 A 
ATOM      4  C3  UNL d   1      -0.041  -0.472   0.077  0.00  0.00     0.023 A 
ATOM      5  C4  UNL d   1      -1.013  -1.022   0.915  0.00  0.00     0.048 A 
ATOM      6  C5  UNL d   1      -1.258  -2.396   0.880  0.00  0.00     0.003 A 
ATOM      7  I   UNL d   1       0.326   1.573   0.125  0.00  0.00    -0.146 I 
ENDROOT
TORSDOF 0
ENDMDL
