MODEL 1
REMARK minimizedAffinity -3.78794813
REMARK minimizedRMSD -1
REMARK  0 active torsions:
REMARK  status: ('A' for Active; 'I' for Inactive)
ROOT
ATOM      1  C   UNL d   1      -0.740  -3.905  -0.064  0.00  0.00     0.023 A 
ATOM      2  C1  UNL d   1      -0.170  -3.311  -1.190  0.00  0.00     0.003 A 
ATOM      3  C2  UNL d   1       0.108  -1.942  -1.193  0.00  0.00     0.048 A 
ATOM      4  C3  UNL d   1      -0.186  -1.175  -0.067  0.00  0.00     0.023 A 
ATOM      5  C4  UNL d   1      -0.756  -1.765   1.062  0.00  0.00     0.048 A 
ATOM      6  C5  UNL d   1      -1.033  -3.134   1.060  0.00  0.00     0.003 A 
ATOM      7  I   UNL d   1       0.227   0.862  -0.069  0.00  0.00    -0.146 I 
ENDROOT
TORSDOF 0
ENDMDL
