MODEL 1
REMARK minimizedAffinity -3.81967664
REMARK minimizedRMSD -1
REMARK  0 active torsions:
REMARK  status: ('A' for Active; 'I' for Inactive)
ROOT
ATOM      1  C   UNL d   1      -1.115  -2.724   0.679  0.00  0.00     0.023 A 
ATOM      2  C1  UNL d   1      -0.277  -2.550  -0.422  0.00  0.00     0.003 A 
ATOM      3  C2  UNL d   1       0.284  -1.298  -0.684  0.00  0.00     0.048 A 
ATOM      4  C3  UNL d   1       0.003  -0.225   0.160  0.00  0.00     0.023 A 
ATOM      5  C4  UNL d   1      -0.834  -0.394   1.264  0.00  0.00     0.048 A 
ATOM      6  C5  UNL d   1      -1.394  -1.647   1.521  0.00  0.00     0.003 A 
ATOM      7  I   UNL d   1       0.837   1.639  -0.227  0.00  0.00    -0.146 I 
ENDROOT
TORSDOF 0
ENDMDL
