MODEL 1
REMARK minimizedAffinity -3.88941288
REMARK minimizedRMSD -1
REMARK  1 active torsions:
REMARK  status: ('A' for Active; 'I' for Inactive)
REMARK    1  A    between atoms: C1_2  and  C2_3 
ROOT
ATOM      1  C2  UNL d   1       1.299   0.160  -1.816  0.00  0.00    -0.081 A 
ATOM      2  C3  UNL d   1       1.876  -0.905  -1.113  0.00  0.00     0.006 A 
ATOM      3  C4  UNL d   1       1.949  -0.876   0.282  0.00  0.00     0.002 A 
ATOM      4  C5  UNL d   1       1.439   0.213   0.997  0.00  0.00    -0.080 A 
ATOM      5  C6  UNL d   1       1.483   0.242   2.496  0.00  0.00     0.076 C 
ATOM      6  C7  UNL d   1       0.878   1.284   0.294  0.00  0.00     0.002 A 
ATOM      7  C8  UNL d   1       0.806   1.257  -1.100  0.00  0.00     0.006 A 
ENDROOT
BRANCH   1   8
ATOM      8  C1  UNL d   1       1.161   0.103  -3.316  0.00  0.00     0.054 C 
ATOM      9  C   UNL d   1       1.417   1.463  -3.947  0.00  0.00     0.018 C 
ENDBRANCH   1   8
TORSDOF 1
ENDMDL
