MODEL 1
REMARK minimizedAffinity -3.96427417
REMARK minimizedRMSD -1
REMARK  1 active torsions:
REMARK  status: ('A' for Active; 'I' for Inactive)
REMARK    1  A    between atoms: C1_2  and  C2_3 
ROOT
ATOM      1  C2  UNL d   1      -1.074  -0.826  -0.490  0.00  0.00    -0.081 A 
ATOM      2  C3  UNL d   1       0.149  -0.152  -0.394  0.00  0.00     0.006 A 
ATOM      3  C4  UNL d   1       0.447   0.620   0.731  0.00  0.00     0.002 A 
ATOM      4  C5  UNL d   1      -0.469   0.724   1.783  0.00  0.00    -0.080 A 
ATOM      5  C6  UNL d   1      -0.149   1.525   3.010  0.00  0.00     0.076 C 
ATOM      6  C7  UNL d   1      -1.699   0.065   1.680  0.00  0.00     0.002 A 
ATOM      7  C8  UNL d   1      -1.998  -0.706   0.555  0.00  0.00     0.006 A 
ENDROOT
BRANCH   1   8
ATOM      8  C1  UNL d   1      -1.372  -1.711  -1.673  0.00  0.00     0.054 C 
ATOM      9  C   UNL d   1      -2.421  -2.759  -1.330  0.00  0.00     0.018 C 
ENDBRANCH   1   8
TORSDOF 1
ENDMDL
