MODEL 1
REMARK minimizedAffinity -1.96655381
REMARK minimizedRMSD -1
REMARK  1 active torsions:
REMARK  status: ('A' for Active; 'I' for Inactive)
REMARK    1  A    between atoms: C1_2  and  C2_3 
ROOT
ATOM      1  C2  UNL d   1       0.709   0.132   0.164  0.00  0.00    -0.081 A 
ATOM      2  C3  UNL d   1       1.524   0.403   1.270  0.00  0.00     0.006 A 
ATOM      3  C4  UNL d   1       0.977   0.938   2.439  0.00  0.00     0.002 A 
ATOM      4  C5  UNL d   1      -0.394   1.204   2.524  0.00  0.00    -0.080 A 
ATOM      5  C6  UNL d   1      -0.999   1.750   3.783  0.00  0.00     0.076 C 
ATOM      6  C7  UNL d   1      -1.206   0.949   1.413  0.00  0.00     0.002 A 
ATOM      7  C8  UNL d   1      -0.659   0.415   0.244  0.00  0.00     0.006 A 
ENDROOT
BRANCH   1   8
ATOM      8  C1  UNL d   1       1.285  -0.505  -1.074  0.00  0.00     0.054 C 
ATOM      9  C   UNL d   1       0.999   0.334  -2.312  0.00  0.00     0.018 C 
ENDBRANCH   1   8
TORSDOF 1
ENDMDL
