MODEL 1
REMARK minimizedAffinity -0.218408912
REMARK minimizedRMSD -1
REMARK  1 active torsions:
REMARK  status: ('A' for Active; 'I' for Inactive)
REMARK    1  A    between atoms: C1_2  and  C2_3 
ROOT
ATOM      1  C2  UNL d   1       0.453   0.583  -2.148  0.00  0.00    -0.081 A 
ATOM      2  C3  UNL d   1       0.062   1.741  -1.465  0.00  0.00     0.006 A 
ATOM      3  C4  UNL d   1      -0.061   1.736  -0.074  0.00  0.00     0.002 A 
ATOM      4  C5  UNL d   1       0.213   0.575   0.658  0.00  0.00    -0.080 A 
ATOM      5  C6  UNL d   1       0.115   0.564   2.155  0.00  0.00     0.076 C 
ATOM      6  C7  UNL d   1       0.587  -0.587  -0.026  0.00  0.00     0.002 A 
ATOM      7  C8  UNL d   1       0.708  -0.582  -1.417  0.00  0.00     0.006 A 
ENDROOT
BRANCH   1   8
ATOM      8  C1  UNL d   1       0.648   0.604  -3.643  0.00  0.00     0.054 C 
ATOM      9  C   UNL d   1       1.647   1.676  -4.055  0.00  0.00     0.018 C 
ENDBRANCH   1   8
TORSDOF 1
ENDMDL
