MODEL 1
REMARK minimizedAffinity -2.55729818
REMARK minimizedRMSD -1
REMARK  1 active torsions:
REMARK  status: ('A' for Active; 'I' for Inactive)
REMARK    1  A    between atoms: C1_2  and  C2_3 
ROOT
ATOM      1  C2  UNL d   1       1.438   0.512  -3.936  0.00  0.00    -0.081 A 
ATOM      2  C3  UNL d   1       0.584  -0.461  -3.401  0.00  0.00     0.006 A 
ATOM      3  C4  UNL d   1      -0.627  -0.763  -4.029  0.00  0.00     0.002 A 
ATOM      4  C5  UNL d   1      -1.000  -0.104  -5.205  0.00  0.00    -0.080 A 
ATOM      5  C6  UNL d   1      -2.283  -0.440  -5.906  0.00  0.00     0.076 C 
ATOM      6  C7  UNL d   1      -0.155   0.880  -5.731  0.00  0.00     0.002 A 
ATOM      7  C8  UNL d   1       1.055   1.183  -5.103  0.00  0.00     0.006 A 
ENDROOT
BRANCH   1   8
ATOM      8  C1  UNL d   1       2.774   0.794  -3.298  0.00  0.00     0.054 C 
ATOM      9  C   UNL d   1       3.675  -0.432  -3.335  0.00  0.00     0.018 C 
ENDBRANCH   1   8
TORSDOF 1
ENDMDL
