MODEL 1
REMARK minimizedAffinity 8.27787399
REMARK minimizedRMSD -1
REMARK  0 active torsions:
REMARK  status: ('A' for Active; 'I' for Inactive)
ROOT
ATOM      1  N1  IND d   1       1.356   0.567   2.965  0.00  0.00    -0.196 N 
ATOM      2  C2  IND d   1       0.579   1.483   2.312  0.00  0.00     0.054 A 
ATOM      3  C3  IND d   1       1.280   2.073   1.319  0.00  0.00    -0.031 A 
ATOM      4  C4  IND d   1       3.685   1.616   0.521  0.00  0.00     0.051 A 
ATOM      5  C5  IND d   1       4.803   0.894   0.829  0.00  0.00    -0.031 A 
ATOM      6  C6  IND d   1       4.829   0.005   1.885  0.00  0.00     0.015 A 
ATOM      7  C7  IND d   1       3.730  -0.203   2.668  0.00  0.00    -0.016 A 
ATOM      8  C8  IND d   1       2.594   0.534   2.362  0.00  0.00    -0.047 A 
ATOM      9  C9  IND d   1       2.575   1.468   1.319  0.00  0.00    -0.096 A 
ATOM     10  HN1 IND d   1       1.112   0.091   3.638  0.00  0.00     0.298 HD
ENDROOT
TORSDOF 0
ENDMDL
