MODEL 1
REMARK minimizedAffinity -1.18324184
REMARK minimizedRMSD -1
REMARK  0 active torsions:
REMARK  status: ('A' for Active; 'I' for Inactive)
ROOT
ATOM      1  N1  IND d   1      -4.744   4.291   5.788  0.00  0.00    -0.196 N 
ATOM      2  C2  IND d   1      -5.299   5.523   5.997  0.00  0.00     0.054 A 
ATOM      3  C3  IND d   1      -5.833   6.000   4.851  0.00  0.00    -0.031 A 
ATOM      4  C4  IND d   1      -6.000   4.884   2.536  0.00  0.00     0.051 A 
ATOM      5  C5  IND d   1      -5.605   3.774   1.845  0.00  0.00    -0.031 A 
ATOM      6  C6  IND d   1      -4.890   2.757   2.445  0.00  0.00     0.015 A 
ATOM      7  C7  IND d   1      -4.553   2.808   3.768  0.00  0.00    -0.016 A 
ATOM      8  C8  IND d   1      -4.946   3.938   4.472  0.00  0.00    -0.047 A 
ATOM      9  C9  IND d   1      -5.635   4.992   3.858  0.00  0.00    -0.096 A 
ATOM     10  HN1 IND d   1      -4.337   3.817   6.378  0.00  0.00     0.298 HD
ENDROOT
TORSDOF 0
ENDMDL
