MODEL 1
REMARK minimizedAffinity 22.4868164
REMARK minimizedRMSD -1
REMARK  0 active torsions:
REMARK  status: ('A' for Active; 'I' for Inactive)
ROOT
ATOM      1  N1  IND d   1      -0.656  -0.660   3.796  0.00  0.00    -0.196 N 
ATOM      2  C2  IND d   1       0.396   0.163   4.088  0.00  0.00     0.054 A 
ATOM      3  C3  IND d   1       0.039   1.457   3.929  0.00  0.00    -0.031 A 
ATOM      4  C4  IND d   1      -2.247   2.458   3.297  0.00  0.00     0.051 A 
ATOM      5  C5  IND d   1      -3.506   2.103   2.901  0.00  0.00    -0.031 A 
ATOM      6  C6  IND d   1      -3.888   0.782   2.784  0.00  0.00     0.015 A 
ATOM      7  C7  IND d   1      -3.025  -0.237   3.070  0.00  0.00    -0.016 A 
ATOM      8  C8  IND d   1      -1.743   0.120   3.466  0.00  0.00    -0.047 A 
ATOM      9  C9  IND d   1      -1.337   1.458   3.545  0.00  0.00    -0.096 A 
ATOM     10  HN1 IND d   1      -0.642  -1.519   3.817  0.00  0.00     0.298 HD
ENDROOT
TORSDOF 0
ENDMDL
