MODEL 1
REMARK minimizedAffinity 19.8523617
REMARK minimizedRMSD -1
REMARK  0 active torsions:
REMARK  status: ('A' for Active; 'I' for Inactive)
ROOT
ATOM      1  N1  IND d   1      -4.229   3.010   4.938  0.00  0.00    -0.196 N 
ATOM      2  C2  IND d   1      -4.353   3.877   5.989  0.00  0.00     0.054 A 
ATOM      3  C3  IND d   1      -4.948   5.021   5.586  0.00  0.00    -0.031 A 
ATOM      4  C4  IND d   1      -5.895   5.648   3.275  0.00  0.00     0.051 A 
ATOM      5  C5  IND d   1      -5.984   5.195   1.989  0.00  0.00    -0.031 A 
ATOM      6  C6  IND d   1      -5.485   3.965   1.613  0.00  0.00     0.015 A 
ATOM      7  C7  IND d   1      -4.886   3.133   2.516  0.00  0.00    -0.016 A 
ATOM      8  C8  IND d   1      -4.787   3.592   3.822  0.00  0.00    -0.047 A 
ATOM      9  C9  IND d   1      -5.254   4.858   4.200  0.00  0.00    -0.096 A 
ATOM     10  HN1 IND d   1      -3.864   2.232   4.970  0.00  0.00     0.298 HD
ENDROOT
TORSDOF 0
ENDMDL
