MODEL 1
REMARK minimizedAffinity 11.7542191
REMARK minimizedRMSD -1
REMARK  0 active torsions:
REMARK  status: ('A' for Active; 'I' for Inactive)
ROOT
ATOM      1  N1  IND d   1       2.390   4.843   2.263  0.00  0.00    -0.196 N 
ATOM      2  C2  IND d   1       3.717   5.111   2.073  0.00  0.00     0.054 A 
ATOM      3  C3  IND d   1       4.383   3.980   1.748  0.00  0.00    -0.031 A 
ATOM      4  C4  IND d   1       3.479   1.599   1.373  0.00  0.00     0.051 A 
ATOM      5  C5  IND d   1       2.337   0.854   1.466  0.00  0.00    -0.031 A 
ATOM      6  C6  IND d   1       1.130   1.411   1.834  0.00  0.00     0.015 A 
ATOM      7  C7  IND d   1       1.017   2.744   2.113  0.00  0.00    -0.016 A 
ATOM      8  C8  IND d   1       2.175   3.503   2.027  0.00  0.00    -0.047 A 
ATOM      9  C9  IND d   1       3.412   2.934   1.695  0.00  0.00    -0.096 A 
ATOM     10  HN1 IND d   1       1.790   5.415   2.491  0.00  0.00     0.298 HD
ENDROOT
TORSDOF 0
ENDMDL
