MODEL 1
REMARK minimizedAffinity 18.426878
REMARK minimizedRMSD -1
REMARK  0 active torsions:
REMARK  status: ('A' for Active; 'I' for Inactive)
ROOT
ATOM      1  N1  IND d   1      -3.509  -1.829  -0.337  0.00  0.00    -0.196 N 
ATOM      2  C2  IND d   1      -2.899  -2.325   0.782  0.00  0.00     0.054 A 
ATOM      3  C3  IND d   1      -2.572  -3.625   0.602  0.00  0.00    -0.031 A 
ATOM      4  C4  IND d   1      -2.851  -5.108  -1.484  0.00  0.00     0.051 A 
ATOM      5  C5  IND d   1      -3.389  -5.109  -2.741  0.00  0.00    -0.031 A 
ATOM      6  C6  IND d   1      -4.004  -3.994  -3.272  0.00  0.00     0.015 A 
ATOM      7  C7  IND d   1      -4.094  -2.827  -2.567  0.00  0.00    -0.016 A 
ATOM      8  C8  IND d   1      -3.556  -2.824  -1.288  0.00  0.00    -0.047 A 
ATOM      9  C9  IND d   1      -2.968  -3.965  -0.728  0.00  0.00    -0.096 A 
ATOM     10  HN1 IND d   1      -3.812  -1.030  -0.430  0.00  0.00     0.298 HD
ENDROOT
TORSDOF 0
ENDMDL
