MODEL 1
REMARK minimizedAffinity 13.4098825
REMARK minimizedRMSD -1
REMARK  0 active torsions:
REMARK  status: ('A' for Active; 'I' for Inactive)
ROOT
ATOM      1  N1  IND d   1       1.591   1.309   2.512  0.00  0.00    -0.196 N 
ATOM      2  C2  IND d   1       2.318   1.400   1.359  0.00  0.00     0.054 A 
ATOM      3  C3  IND d   1       1.959   0.422   0.498  0.00  0.00    -0.031 A 
ATOM      4  C4  IND d   1       0.130  -1.375   0.734  0.00  0.00     0.051 A 
ATOM      5  C5  IND d   1      -0.775  -1.880   1.625  0.00  0.00    -0.031 A 
ATOM      6  C6  IND d   1      -0.943  -1.335   2.882  0.00  0.00     0.015 A 
ATOM      7  C7  IND d   1      -0.217  -0.253   3.292  0.00  0.00    -0.016 A 
ATOM      8  C8  IND d   1       0.708   0.258   2.392  0.00  0.00    -0.047 A 
ATOM      9  C9  IND d   1       0.913  -0.317   1.132  0.00  0.00    -0.096 A 
ATOM     10  HN1 IND d   1       1.671   1.822   3.198  0.00  0.00     0.298 HD
ENDROOT
TORSDOF 0
ENDMDL
