MODEL 1
REMARK minimizedAffinity 5.22301626
REMARK minimizedRMSD -1
REMARK  0 active torsions:
REMARK  status: ('A' for Active; 'I' for Inactive)
ROOT
ATOM      1  N1  IND d   1       5.783   4.963  -4.678  0.00  0.00    -0.196 N 
ATOM      2  C2  IND d   1       5.625   5.819  -5.732  0.00  0.00     0.054 A 
ATOM      3  C3  IND d   1       4.313   6.000  -5.999  0.00  0.00    -0.031 A 
ATOM      4  C4  IND d   1       2.250   5.068  -4.772  0.00  0.00     0.051 A 
ATOM      5  C5  IND d   1       1.889   4.210  -3.771  0.00  0.00    -0.031 A 
ATOM      6  C6  IND d   1       2.825   3.548  -3.004  0.00  0.00     0.015 A 
ATOM      7  C7  IND d   1       4.165   3.729  -3.203  0.00  0.00    -0.016 A 
ATOM      8  C8  IND d   1       4.536   4.594  -4.223  0.00  0.00    -0.047 A 
ATOM      9  C9  IND d   1       3.590   5.236  -5.033  0.00  0.00    -0.096 A 
ATOM     10  HN1 IND d   1       6.534   4.698  -4.354  0.00  0.00     0.298 HD
ENDROOT
TORSDOF 0
ENDMDL
