MODEL 1
REMARK minimizedAffinity 12.3250628
REMARK minimizedRMSD -1
REMARK  0 active torsions:
REMARK  status: ('A' for Active; 'I' for Inactive)
ROOT
ATOM      1  N1  IND d   1      -0.633   5.423  -1.810  0.00  0.00    -0.196 N 
ATOM      2  C2  IND d   1      -1.808   5.044  -1.223  0.00  0.00     0.054 A 
ATOM      3  C3  IND d   1      -1.932   3.698  -1.243  0.00  0.00    -0.031 A 
ATOM      4  C4  IND d   1      -0.282   1.917  -2.098  0.00  0.00     0.051 A 
ATOM      5  C5  IND d   1       0.910   1.778  -2.752  0.00  0.00    -0.031 A 
ATOM      6  C6  IND d   1       1.665   2.869  -3.131  0.00  0.00     0.015 A 
ATOM      7  C7  IND d   1       1.260   4.145  -2.858  0.00  0.00    -0.016 A 
ATOM      8  C8  IND d   1       0.047   4.290  -2.201  0.00  0.00    -0.047 A 
ATOM      9  C9  IND d   1      -0.744   3.188  -1.852  0.00  0.00    -0.096 A 
ATOM     10  HN1 IND d   1      -0.363   6.232  -1.918  0.00  0.00     0.298 HD
ENDROOT
TORSDOF 0
ENDMDL
