MODEL 1
REMARK minimizedAffinity 8.82271099
REMARK minimizedRMSD -1
REMARK  0 active torsions:
REMARK  status: ('A' for Active; 'I' for Inactive)
ROOT
ATOM      1  N1  IND d   1       4.432   4.077   1.627  0.00  0.00    -0.196 N 
ATOM      2  C2  IND d   1       4.628   5.372   2.017  0.00  0.00     0.054 A 
ATOM      3  C3  IND d   1       3.441   6.000   2.177  0.00  0.00    -0.031 A 
ATOM      4  C4  IND d   1       1.053   5.064   1.955  0.00  0.00     0.051 A 
ATOM      5  C5  IND d   1       0.366   3.943   1.583  0.00  0.00    -0.031 A 
ATOM      6  C6  IND d   1       1.012   2.784   1.203  0.00  0.00     0.015 A 
ATOM      7  C7  IND d   1       2.376   2.700   1.190  0.00  0.00    -0.016 A 
ATOM      8  C8  IND d   1       3.077   3.839   1.560  0.00  0.00    -0.047 A 
ATOM      9  C9  IND d   1       2.427   5.031   1.906  0.00  0.00    -0.096 A 
ATOM     10  HN1 IND d   1       5.051   3.506   1.454  0.00  0.00     0.298 HD
ENDROOT
TORSDOF 0
ENDMDL
