MODEL 1
REMARK minimizedAffinity -0.0219149869
REMARK minimizedRMSD -1
REMARK  0 active torsions:
REMARK  status: ('A' for Active; 'I' for Inactive)
ROOT
ATOM      1  N1  IND d   1       2.255   6.000  -5.999  0.00  0.00    -0.196 N 
ATOM      2  C2  IND d   1       1.301   5.147  -5.519  0.00  0.00     0.054 A 
ATOM      3  C3  IND d   1       1.879   4.104  -4.884  0.00  0.00    -0.031 A 
ATOM      4  C4  IND d   1       4.370   3.645  -4.424  0.00  0.00     0.051 A 
ATOM      5  C5  IND d   1       5.621   4.121  -4.698  0.00  0.00    -0.031 A 
ATOM      6  C6  IND d   1       5.819   5.272  -5.433  0.00  0.00     0.015 A 
ATOM      7  C7  IND d   1       4.767   6.000  -5.913  0.00  0.00    -0.016 A 
ATOM      8  C8  IND d   1       3.495   5.516  -5.642  0.00  0.00    -0.047 A 
ATOM      9  C9  IND d   1       3.289   4.325  -4.934  0.00  0.00    -0.096 A 
ATOM     10  HN1 IND d   1       2.107   6.717  -6.449  0.00  0.00     0.298 HD
ENDROOT
TORSDOF 0
ENDMDL
