MODEL 1
REMARK minimizedAffinity 20.3587475
REMARK minimizedRMSD -1
REMARK  0 active torsions:
REMARK  status: ('A' for Active; 'I' for Inactive)
ROOT
ATOM      1  N1  IND d   1       1.540   0.271   4.214  0.00  0.00    -0.196 N 
ATOM      2  C2  IND d   1       0.357   0.642   4.788  0.00  0.00     0.054 A 
ATOM      3  C3  IND d   1      -0.221   1.635   4.076  0.00  0.00    -0.031 A 
ATOM      4  C4  IND d   1       0.550   2.734   1.879  0.00  0.00     0.051 A 
ATOM      5  C5  IND d   1       1.590   2.755   0.992  0.00  0.00    -0.031 A 
ATOM      6  C6  IND d   1       2.687   1.930   1.135  0.00  0.00     0.015 A 
ATOM      7  C7  IND d   1       2.780   1.041   2.168  0.00  0.00    -0.016 A 
ATOM      8  C8  IND d   1       1.730   1.023   3.075  0.00  0.00    -0.047 A 
ATOM      9  C9  IND d   1       0.634   1.887   2.959  0.00  0.00    -0.096 A 
ATOM     10  HN1 IND d   1       2.077  -0.331   4.513  0.00  0.00     0.298 HD
ENDROOT
TORSDOF 0
ENDMDL
