MODEL 1
REMARK minimizedAffinity 5.01427317
REMARK minimizedRMSD -1
REMARK  0 active torsions:
REMARK  status: ('A' for Active; 'I' for Inactive)
ROOT
ATOM      1  N1  IND d   1       0.815  -3.177  -1.233  0.00  0.00    -0.196 N 
ATOM      2  C2  IND d   1       0.590  -2.559  -0.035  0.00  0.00     0.054 A 
ATOM      3  C3  IND d   1      -0.667  -2.063   0.011  0.00  0.00    -0.031 A 
ATOM      4  C4  IND d   1      -2.559  -2.241  -1.726  0.00  0.00     0.051 A 
ATOM      5  C5  IND d   1      -2.820  -2.681  -2.993  0.00  0.00    -0.031 A 
ATOM      6  C6  IND d   1      -1.864  -3.325  -3.753  0.00  0.00     0.015 A 
ATOM      7  C7  IND d   1      -0.610  -3.563  -3.267  0.00  0.00    -0.016 A 
ATOM      8  C8  IND d   1      -0.339  -3.111  -1.983  0.00  0.00    -0.047 A 
ATOM      9  C9  IND d   1      -1.291  -2.420  -1.224  0.00  0.00    -0.096 A 
ATOM     10  HN1 IND d   1       1.552  -3.546  -1.477  0.00  0.00     0.298 HD
ENDROOT
TORSDOF 0
ENDMDL
