MODEL 1
REMARK minimizedAffinity 12.8017998
REMARK minimizedRMSD -1
REMARK  0 active torsions:
REMARK  status: ('A' for Active; 'I' for Inactive)
ROOT
ATOM      1  N1  IND d   1      -2.659  -2.627  -3.588  0.00  0.00    -0.196 N 
ATOM      2  C2  IND d   1      -1.372  -3.025  -3.820  0.00  0.00     0.054 A 
ATOM      3  C3  IND d   1      -1.182  -4.287  -3.374  0.00  0.00    -0.031 A 
ATOM      4  C4  IND d   1      -2.871  -5.922  -2.324  0.00  0.00     0.051 A 
ATOM      5  C5  IND d   1      -4.160  -5.999  -1.877  0.00  0.00    -0.031 A 
ATOM      6  C6  IND d   1      -5.033  -4.936  -1.983  0.00  0.00     0.015 A 
ATOM      7  C7  IND d   1      -4.652  -3.754  -2.552  0.00  0.00    -0.016 A 
ATOM      8  C8  IND d   1      -3.341  -3.669  -3.000  0.00  0.00    -0.047 A 
ATOM      9  C9  IND d   1      -2.438  -4.731  -2.857  0.00  0.00    -0.096 A 
ATOM     10  HN1 IND d   1      -2.988  -1.855  -3.778  0.00  0.00     0.298 HD
ENDROOT
TORSDOF 0
ENDMDL
