MODEL 1
REMARK minimizedAffinity 13.4122066
REMARK minimizedRMSD -1
REMARK  0 active torsions:
REMARK  status: ('A' for Active; 'I' for Inactive)
ROOT
ATOM      1  N1  IND d   1      -1.361  -1.821  -3.176  0.00  0.00    -0.196 N 
ATOM      2  C2  IND d   1      -2.588  -2.335  -3.493  0.00  0.00     0.054 A 
ATOM      3  C3  IND d   1      -3.159  -2.893  -2.402  0.00  0.00    -0.031 A 
ATOM      4  C4  IND d   1      -2.305  -2.988   0.025  0.00  0.00     0.051 A 
ATOM      5  C5  IND d   1      -1.219  -2.685   0.797  0.00  0.00    -0.031 A 
ATOM      6  C6  IND d   1      -0.103  -2.064   0.274  0.00  0.00     0.015 A 
ATOM      7  C7  IND d   1      -0.036  -1.711  -1.044  0.00  0.00    -0.016 A 
ATOM      8  C8  IND d   1      -1.134  -2.023  -1.833  0.00  0.00    -0.047 A 
ATOM      9  C9  IND d   1      -2.252  -2.691  -1.317  0.00  0.00    -0.096 A 
ATOM     10  HN1 IND d   1      -0.822  -1.437  -3.725  0.00  0.00     0.298 HD
ENDROOT
TORSDOF 0
ENDMDL
