MODEL 1
REMARK minimizedAffinity 14.0115099
REMARK minimizedRMSD -1
REMARK  0 active torsions:
REMARK  status: ('A' for Active; 'I' for Inactive)
ROOT
ATOM      1  N1  IND d   1      -1.874  -3.272  -5.804  0.00  0.00    -0.196 N 
ATOM      2  C2  IND d   1      -0.787  -2.466  -6.000  0.00  0.00     0.054 A 
ATOM      3  C3  IND d   1      -0.440  -1.855  -4.845  0.00  0.00    -0.031 A 
ATOM      4  C4  IND d   1      -1.452  -2.111  -2.491  0.00  0.00     0.051 A 
ATOM      5  C5  IND d   1      -2.483  -2.707  -1.821  0.00  0.00    -0.031 A 
ATOM      6  C6  IND d   1      -3.381  -3.541  -2.457  0.00  0.00     0.015 A 
ATOM      7  C7  IND d   1      -3.273  -3.820  -3.790  0.00  0.00    -0.016 A 
ATOM      8  C8  IND d   1      -2.231  -3.211  -4.475  0.00  0.00    -0.047 A 
ATOM      9  C9  IND d   1      -1.343  -2.330  -3.844  0.00  0.00    -0.096 A 
ATOM     10  HN1 IND d   1      -2.268  -3.739  -6.409  0.00  0.00     0.298 HD
ENDROOT
TORSDOF 0
ENDMDL
