MODEL 1
REMARK minimizedAffinity -5.91006517
REMARK minimizedRMSD -1
REMARK  1 active torsions:
REMARK  status: ('A' for Active; 'I' for Inactive)
REMARK    1  A    between atoms: C1_2  and  C2_3 
ROOT
ATOM      1  C2  UNL d   1       0.611   0.139   1.228  0.00  0.00    -0.077 A 
ATOM      2  C3  UNL d   1       1.385   0.316   2.383  0.00  0.00     0.002 A 
ATOM      3  C4  UNL d   1       0.839   0.931   3.511  0.00  0.00     0.002 A 
ATOM      4  C5  UNL d   1      -0.484   1.369   3.497  0.00  0.00    -0.004 A 
ATOM      5  C6  UNL d   1      -1.261   1.199   2.352  0.00  0.00     0.002 A 
ATOM      6  C7  UNL d   1      -0.716   0.585   1.223  0.00  0.00     0.002 A 
ENDROOT
BRANCH   1   7
ATOM      7  C1  UNL d   1       1.183  -0.568   0.027  0.00  0.00     0.055 C 
ATOM      8  C   UNL d   1       0.112  -0.835  -1.021  0.00  0.00     0.019 C 
ENDBRANCH   1   7
TORSDOF 1
ENDMDL
