MODEL 1
REMARK minimizedAffinity -4.33322334
REMARK minimizedRMSD -1
REMARK  1 active torsions:
REMARK  status: ('A' for Active; 'I' for Inactive)
REMARK    1  A    between atoms: C1_2  and  C2_3 
ROOT
ATOM      1  C2  UNL d   1       0.182   0.827   1.338  0.00  0.00    -0.077 A 
ATOM      2  C3  UNL d   1       1.371   0.163   1.671  0.00  0.00     0.002 A 
ATOM      3  C4  UNL d   1       1.866  -0.853   0.852  0.00  0.00     0.002 A 
ATOM      4  C5  UNL d   1       1.181  -1.211  -0.308  0.00  0.00    -0.004 A 
ATOM      5  C6  UNL d   1      -0.003  -0.558  -0.647  0.00  0.00     0.002 A 
ATOM      6  C7  UNL d   1      -0.500   0.457   0.172  0.00  0.00     0.002 A 
ENDROOT
BRANCH   1   7
ATOM      7  C1  UNL d   1      -0.327   1.957   2.195  0.00  0.00     0.055 C 
ATOM      8  C   UNL d   1      -1.433   1.488   3.130  0.00  0.00     0.019 C 
ENDBRANCH   1   7
TORSDOF 1
ENDMDL
