MODEL 1
REMARK minimizedAffinity -2.58919811
REMARK minimizedRMSD -1
REMARK  1 active torsions:
REMARK  status: ('A' for Active; 'I' for Inactive)
REMARK    1  A    between atoms: C1_2  and  C2_3 
ROOT
ATOM      1  C2  UNL d   1      -1.159   0.315   1.188  0.00  0.00    -0.077 A 
ATOM      2  C3  UNL d   1       0.208   0.143   0.927  0.00  0.00     0.002 A 
ATOM      3  C4  UNL d   1       1.159   0.483   1.891  0.00  0.00     0.002 A 
ATOM      4  C5  UNL d   1       0.754   0.994   3.122  0.00  0.00    -0.004 A 
ATOM      5  C6  UNL d   1      -0.603   1.171   3.390  0.00  0.00     0.002 A 
ATOM      6  C7  UNL d   1      -1.555   0.832   2.428  0.00  0.00     0.002 A 
ENDROOT
BRANCH   1   7
ATOM      7  C1  UNL d   1      -2.188  -0.098   0.169  0.00  0.00     0.055 C 
ATOM      8  C   UNL d   1      -1.774  -1.373  -0.551  0.00  0.00     0.019 C 
ENDBRANCH   1   7
TORSDOF 1
ENDMDL
