MODEL 1
REMARK minimizedAffinity 5.92438507
REMARK minimizedRMSD -1
REMARK  1 active torsions:
REMARK  status: ('A' for Active; 'I' for Inactive)
REMARK    1  A    between atoms: C1_2  and  C2_3 
ROOT
ATOM      1  C2  UNL d   1       2.418  -0.841  -1.597  0.00  0.00    -0.077 A 
ATOM      2  C3  UNL d   1       1.648   0.098  -2.297  0.00  0.00     0.002 A 
ATOM      3  C4  UNL d   1       2.177   0.755  -3.410  0.00  0.00     0.002 A 
ATOM      4  C5  UNL d   1       3.475   0.479  -3.833  0.00  0.00    -0.004 A 
ATOM      5  C6  UNL d   1       4.249  -0.452  -3.142  0.00  0.00     0.002 A 
ATOM      6  C7  UNL d   1       3.723  -1.109  -2.029  0.00  0.00     0.002 A 
ENDROOT
BRANCH   1   7
ATOM      7  C1  UNL d   1       1.833  -1.588  -0.426  0.00  0.00     0.055 C 
ATOM      8  C   UNL d   1       1.967  -0.789   0.862  0.00  0.00     0.019 C 
ENDBRANCH   1   7
TORSDOF 1
ENDMDL
