MODEL 1
REMARK minimizedAffinity 7.68352127
REMARK minimizedRMSD -1
REMARK  0 active torsions:
REMARK  status: ('A' for Active; 'I' for Inactive)
ROOT
ATOM      1  C   UNL d   1       5.975   5.999  -1.915  0.00  0.00     0.172 C 
ATOM      2  N   UNL d   1       5.983   4.610  -1.523  0.00  0.00    -0.070 N 
ATOM      3  C1  UNL d   1       5.982   3.539  -2.377  0.00  0.00    -0.004 A 
ATOM      4  C2  UNL d   1       5.992   2.391  -1.615  0.00  0.00    -0.047 A 
ATOM      5  C3  UNL d   1       5.999   2.785  -0.256  0.00  0.00    -0.047 A 
ATOM      6  C4  UNL d   1       5.993   4.164  -0.228  0.00  0.00    -0.004 A 
ENDROOT
TORSDOF 0
ENDMDL
