MODEL 1
REMARK minimizedAffinity 5.81907558
REMARK minimizedRMSD -1
REMARK  0 active torsions:
REMARK  status: ('A' for Active; 'I' for Inactive)
ROOT
ATOM      1  C   UNL d   1       1.826   3.101   3.218  0.00  0.00     0.172 C 
ATOM      2  N   UNL d   1       1.975   2.199   2.101  0.00  0.00    -0.070 N 
ATOM      3  C1  UNL d   1       2.447   0.915   2.168  0.00  0.00    -0.004 A 
ATOM      4  C2  UNL d   1       2.434   0.393   0.893  0.00  0.00    -0.047 A 
ATOM      5  C3  UNL d   1       1.938   1.398   0.029  0.00  0.00    -0.047 A 
ATOM      6  C4  UNL d   1       1.662   2.505   0.803  0.00  0.00    -0.004 A 
ENDROOT
TORSDOF 0
ENDMDL
