MODEL 1
REMARK minimizedAffinity -2.44079709
REMARK minimizedRMSD -1
REMARK  0 active torsions:
REMARK  status: ('A' for Active; 'I' for Inactive)
ROOT
ATOM      1  C   UNL d   1      -5.177   2.264  -1.985  0.00  0.00     0.172 C 
ATOM      2  N   UNL d   1      -4.127   1.889  -2.902  0.00  0.00    -0.070 N 
ATOM      3  C1  UNL d   1      -4.087   2.191  -4.237  0.00  0.00    -0.004 A 
ATOM      4  C2  UNL d   1      -2.927   1.657  -4.757  0.00  0.00    -0.047 A 
ATOM      5  C3  UNL d   1      -2.248   1.010  -3.697  0.00  0.00    -0.047 A 
ATOM      6  C4  UNL d   1      -3.013   1.168  -2.561  0.00  0.00    -0.004 A 
ENDROOT
TORSDOF 0
ENDMDL
