MODEL 1
REMARK minimizedAffinity 0.524938643
REMARK minimizedRMSD -1
REMARK  0 active torsions:
REMARK  status: ('A' for Active; 'I' for Inactive)
ROOT
ATOM      1  C   UNL d   1      -0.848   1.529  -0.853  0.00  0.00     0.172 C 
ATOM      2  N   UNL d   1       0.435   1.814  -0.254  0.00  0.00    -0.070 N 
ATOM      3  C1  UNL d   1       1.363   0.882   0.126  0.00  0.00    -0.004 A 
ATOM      4  C2  UNL d   1       2.446   1.554   0.651  0.00  0.00    -0.047 A 
ATOM      5  C3  UNL d   1       2.158   2.938   0.585  0.00  0.00    -0.047 A 
ATOM      6  C4  UNL d   1       0.907   3.070   0.020  0.00  0.00    -0.004 A 
ENDROOT
TORSDOF 0
ENDMDL
