MODEL 1
REMARK minimizedAffinity 1.12687099
REMARK minimizedRMSD -1
REMARK  0 active torsions:
REMARK  status: ('A' for Active; 'I' for Inactive)
ROOT
ATOM      1  C   UNL d   1       0.593   1.527   0.059  0.00  0.00     0.172 C 
ATOM      2  N   UNL d   1       0.031   0.971  -1.150  0.00  0.00    -0.070 N 
ATOM      3  C1  UNL d   1      -0.981   1.524  -1.888  0.00  0.00    -0.004 A 
ATOM      4  C2  UNL d   1      -1.226   0.692  -2.959  0.00  0.00    -0.047 A 
ATOM      5  C3  UNL d   1      -0.330  -0.399  -2.861  0.00  0.00    -0.047 A 
ATOM      6  C4  UNL d   1       0.436  -0.201  -1.731  0.00  0.00    -0.004 A 
ENDROOT
TORSDOF 0
ENDMDL
