MODEL 1
REMARK minimizedAffinity -1.26526797
REMARK minimizedRMSD -1
REMARK  0 active torsions:
REMARK  status: ('A' for Active; 'I' for Inactive)
ROOT
ATOM      1  C   UNL d   1       2.031  -1.972  -0.094  0.00  0.00     0.172 C 
ATOM      2  N   UNL d   1       2.616  -0.652  -0.112  0.00  0.00    -0.070 N 
ATOM      3  C1  UNL d   1       3.885  -0.346  -0.526  0.00  0.00    -0.004 A 
ATOM      4  C2  UNL d   1       4.057   1.014  -0.390  0.00  0.00    -0.047 A 
ATOM      5  C3  UNL d   1       2.850   1.544   0.125  0.00  0.00    -0.047 A 
ATOM      6  C4  UNL d   1       1.975   0.491   0.287  0.00  0.00    -0.004 A 
ENDROOT
TORSDOF 0
ENDMDL
