MODEL 1
REMARK minimizedAffinity 0.7421332
REMARK minimizedRMSD -1
REMARK  0 active torsions:
REMARK  status: ('A' for Active; 'I' for Inactive)
ROOT
ATOM      1  C   UNL d   1      -2.227   1.844   4.569  0.00  0.00     0.020 A 
ATOM      2  C1  UNL d   1      -1.491   2.580   3.641  0.00  0.00     0.020 A 
ATOM      3  C2  UNL d   1      -1.419   2.156   2.313  0.00  0.00     0.034 A 
ATOM      4  C3  UNL d   1      -2.084   0.992   1.908  0.00  0.00     0.017 A 
ATOM      5  C4  UNL d   1      -2.822   0.254   2.840  0.00  0.00     0.017 A 
ATOM      6  C5  UNL d   1      -2.891   0.684   4.169  0.00  0.00     0.034 A 
ATOM      7 Cl   UNL d   1      -3.669  -1.191   2.416  0.00  0.00    -0.070 Cl
ATOM      8 Cl1  UNL d   1      -1.951   0.527   0.250  0.00  0.00    -0.070 Cl
ENDROOT
TORSDOF 0
ENDMDL
