MODEL 1
REMARK minimizedAffinity -3.16600466
REMARK minimizedRMSD -1
REMARK  0 active torsions:
REMARK  status: ('A' for Active; 'I' for Inactive)
ROOT
ATOM      1  C   UNL d   1       2.640  -1.270  -1.219  0.00  0.00     0.020 A 
ATOM      2  C1  UNL d   1       2.587   0.081  -0.877  0.00  0.00     0.020 A 
ATOM      3  C2  UNL d   1       1.404   0.629  -0.378  0.00  0.00     0.034 A 
ATOM      4  C3  UNL d   1       0.269  -0.174  -0.219  0.00  0.00     0.017 A 
ATOM      5  C4  UNL d   1       0.323  -1.530  -0.562  0.00  0.00     0.017 A 
ATOM      6  C5  UNL d   1       1.511  -2.074  -1.061  0.00  0.00     0.034 A 
ATOM      7 Cl   UNL d   1      -1.036  -2.584  -0.393  0.00  0.00    -0.070 Cl
ATOM      8 Cl1  UNL d   1      -1.161   0.570   0.404  0.00  0.00    -0.070 Cl
ENDROOT
TORSDOF 0
ENDMDL
