MODEL 1
REMARK minimizedAffinity -2.59058166
REMARK minimizedRMSD -1
REMARK  0 active torsions:
REMARK  status: ('A' for Active; 'I' for Inactive)
ROOT
ATOM      1  C   UNL d   1      -0.141   0.712   0.239  0.00  0.00     0.020 A 
ATOM      2  C1  UNL d   1      -1.054   0.226   1.174  0.00  0.00     0.020 A 
ATOM      3  C2  UNL d   1      -1.366  -1.135   1.202  0.00  0.00     0.034 A 
ATOM      4  C3  UNL d   1      -0.765  -2.014   0.294  0.00  0.00     0.017 A 
ATOM      5  C4  UNL d   1       0.152  -1.525  -0.644  0.00  0.00     0.017 A 
ATOM      6  C5  UNL d   1       0.461  -0.162  -0.668  0.00  0.00     0.034 A 
ATOM      7 Cl   UNL d   1       0.934  -2.549  -1.796  0.00  0.00    -0.070 Cl
ATOM      8 Cl1  UNL d   1      -1.198  -3.685   0.386  0.00  0.00    -0.070 Cl
ENDROOT
TORSDOF 0
ENDMDL
