MODEL 1
REMARK minimizedAffinity -3.04555559
REMARK minimizedRMSD -1
REMARK  0 active torsions:
REMARK  status: ('A' for Active; 'I' for Inactive)
ROOT
ATOM      1  C   UNL d   1      -0.025  -1.130   0.611  0.00  0.00     0.020 A 
ATOM      2  C1  UNL d   1      -0.775   0.045   0.619  0.00  0.00     0.020 A 
ATOM      3  C2  UNL d   1      -0.394   1.122  -0.184  0.00  0.00     0.034 A 
ATOM      4  C3  UNL d   1       0.739   1.026  -0.999  0.00  0.00     0.017 A 
ATOM      5  C4  UNL d   1       1.492  -0.154  -1.007  0.00  0.00     0.017 A 
ATOM      6  C5  UNL d   1       1.106  -1.229  -0.200  0.00  0.00     0.034 A 
ATOM      7 Cl   UNL d   1       2.903  -0.347  -1.986  0.00  0.00    -0.070 Cl
ATOM      8 Cl1  UNL d   1       1.151   2.397  -1.967  0.00  0.00    -0.070 Cl
ENDROOT
TORSDOF 0
ENDMDL
