MODEL 1
REMARK minimizedAffinity -4.32425594
REMARK minimizedRMSD -1
REMARK  0 active torsions:
REMARK  status: ('A' for Active; 'I' for Inactive)
ROOT
ATOM      1  C   UNL d   1       2.140   0.851  -1.613  0.00  0.00     0.020 A 
ATOM      2  C1  UNL d   1       2.638  -0.439  -1.787  0.00  0.00     0.020 A 
ATOM      3  C2  UNL d   1       2.002  -1.522  -1.175  0.00  0.00     0.034 A 
ATOM      4  C3  UNL d   1       0.864  -1.315  -0.387  0.00  0.00     0.017 A 
ATOM      5  C4  UNL d   1       0.365  -0.020  -0.213  0.00  0.00     0.017 A 
ATOM      6  C5  UNL d   1       1.006   1.060  -0.828  0.00  0.00     0.034 A 
ATOM      7 Cl   UNL d   1      -1.035   0.313   0.745  0.00  0.00    -0.070 Cl
ATOM      8 Cl1  UNL d   1       0.128  -2.700   0.339  0.00  0.00    -0.070 Cl
ENDROOT
TORSDOF 0
ENDMDL
