MODEL 1
REMARK minimizedAffinity -4.9006629
REMARK minimizedRMSD -1
REMARK  0 active torsions:
REMARK  status: ('A' for Active; 'I' for Inactive)
ROOT
ATOM      1  C   UNL d   1      -0.535   0.017   0.165  0.00  0.00     0.020 A 
ATOM      2  C1  UNL d   1       0.690  -0.094   0.822  0.00  0.00     0.020 A 
ATOM      3  C2  UNL d   1       0.800   0.284   2.162  0.00  0.00     0.034 A 
ATOM      4  C3  UNL d   1      -0.316   0.776   2.849  0.00  0.00     0.017 A 
ATOM      5  C4  UNL d   1      -1.545   0.888   2.188  0.00  0.00     0.017 A 
ATOM      6  C5  UNL d   1      -1.650   0.508   0.846  0.00  0.00     0.034 A 
ATOM      7 Cl   UNL d   1      -2.966   1.486   2.969  0.00  0.00    -0.070 Cl
ATOM      8 Cl1  UNL d   1      -0.107   1.225   4.504  0.00  0.00    -0.070 Cl
ENDROOT
TORSDOF 0
ENDMDL
