MODEL 1
REMARK minimizedAffinity -3.76463246
REMARK minimizedRMSD -1
REMARK  0 active torsions:
REMARK  status: ('A' for Active; 'I' for Inactive)
ROOT
ATOM      1  C   UNL d   1      -0.405  -1.506   0.322  0.00  0.00     0.020 A 
ATOM      2  C1  UNL d   1      -0.434  -0.203   0.818  0.00  0.00     0.020 A 
ATOM      3  C2  UNL d   1       0.390   0.776   0.258  0.00  0.00     0.034 A 
ATOM      4  C3  UNL d   1       1.246   0.453  -0.802  0.00  0.00     0.017 A 
ATOM      5  C4  UNL d   1       1.274  -0.855  -1.299  0.00  0.00     0.017 A 
ATOM      6  C5  UNL d   1       0.447  -1.831  -0.734  0.00  0.00     0.034 A 
ATOM      7 Cl   UNL d   1       2.304  -1.328  -2.604  0.00  0.00    -0.070 Cl
ATOM      8 Cl1  UNL d   1       2.237   1.714  -1.446  0.00  0.00    -0.070 Cl
ENDROOT
TORSDOF 0
ENDMDL
