MODEL 1
REMARK minimizedAffinity -1.24844825
REMARK minimizedRMSD -1
REMARK  0 active torsions:
REMARK  status: ('A' for Active; 'I' for Inactive)
ROOT
ATOM      1  C   UNL d   1      -2.574   1.418   0.051  0.00  0.00     0.020 A 
ATOM      2  C1  UNL d   1      -1.487   1.286  -0.812  0.00  0.00     0.020 A 
ATOM      3  C2  UNL d   1      -0.354   0.580  -0.405  0.00  0.00     0.034 A 
ATOM      4  C3  UNL d   1      -0.304   0.002   0.869  0.00  0.00     0.017 A 
ATOM      5  C4  UNL d   1      -1.395   0.135   1.735  0.00  0.00     0.017 A 
ATOM      6  C5  UNL d   1      -2.528   0.843   1.322  0.00  0.00     0.034 A 
ATOM      7 Cl   UNL d   1      -1.407  -0.550   3.322  0.00  0.00    -0.070 Cl
ATOM      8 Cl1  UNL d   1       1.130  -0.857   1.306  0.00  0.00    -0.070 Cl
ENDROOT
TORSDOF 0
ENDMDL
