MODEL 1
REMARK minimizedAffinity -3.2326324
REMARK minimizedRMSD -1
REMARK  0 active torsions:
REMARK  status: ('A' for Active; 'I' for Inactive)
ROOT
ATOM      1  C   UNL d   1       1.711  -0.894  -0.835  0.00  0.00     0.020 A 
ATOM      2  C1  UNL d   1       1.989  -1.123   0.511  0.00  0.00     0.020 A 
ATOM      3  C2  UNL d   1       1.139  -0.614   1.496  0.00  0.00     0.034 A 
ATOM      4  C3  UNL d   1       0.008   0.126   1.135  0.00  0.00     0.017 A 
ATOM      5  C4  UNL d   1      -0.271   0.356  -0.217  0.00  0.00     0.017 A 
ATOM      6  C5  UNL d   1       0.584  -0.156  -1.199  0.00  0.00     0.034 A 
ATOM      7 Cl   UNL d   1      -1.648   1.260  -0.739  0.00  0.00    -0.070 Cl
ATOM      8 Cl1  UNL d   1      -0.999   0.725   2.406  0.00  0.00    -0.070 Cl
ENDROOT
TORSDOF 0
ENDMDL
