MODEL 1
REMARK minimizedAffinity -4.5068202
REMARK minimizedRMSD -1
REMARK  0 active torsions:
REMARK  status: ('A' for Active; 'I' for Inactive)
ROOT
ATOM      1  C   UNL d   1       2.940   0.292  -2.433  0.00  0.00     0.020 A 
ATOM      2  C1  UNL d   1       2.257   1.374  -2.987  0.00  0.00     0.020 A 
ATOM      3  C2  UNL d   1       0.968   1.684  -2.548  0.00  0.00     0.034 A 
ATOM      4  C3  UNL d   1       0.358   0.911  -1.553  0.00  0.00     0.017 A 
ATOM      5  C4  UNL d   1       1.045  -0.174  -0.998  0.00  0.00     0.017 A 
ATOM      6  C5  UNL d   1       2.336  -0.480  -1.441  0.00  0.00     0.034 A 
ATOM      7 Cl   UNL d   1       0.358  -1.173   0.234  0.00  0.00    -0.070 Cl
ATOM      8 Cl1  UNL d   1      -1.238   1.352  -1.058  0.00  0.00    -0.070 Cl
ENDROOT
TORSDOF 0
ENDMDL
