MODEL 1
REMARK minimizedAffinity -1.50993741
REMARK minimizedRMSD -1
REMARK  0 active torsions:
REMARK  status: ('A' for Active; 'I' for Inactive)
ROOT
ATOM      1  C   UNL d   1      -0.952  -0.981   0.110  0.00  0.00     0.020 A 
ATOM      2  C1  UNL d   1      -1.543   0.264  -0.100  0.00  0.00     0.020 A 
ATOM      3  C2  UNL d   1      -0.934   1.192  -0.948  0.00  0.00     0.034 A 
ATOM      4  C3  UNL d   1       0.270   0.876  -1.588  0.00  0.00     0.017 A 
ATOM      5  C4  UNL d   1       0.862  -0.374  -1.376  0.00  0.00     0.017 A 
ATOM      6  C5  UNL d   1       0.248  -1.299  -0.526  0.00  0.00     0.034 A 
ATOM      7 Cl   UNL d   1       2.347  -0.835  -2.131  0.00  0.00    -0.070 Cl
ATOM      8 Cl1  UNL d   1       0.967   2.072  -2.623  0.00  0.00    -0.070 Cl
ENDROOT
TORSDOF 0
ENDMDL
