MODEL 1
REMARK minimizedAffinity -3.91020656
REMARK minimizedRMSD -1
REMARK  0 active torsions:
REMARK  status: ('A' for Active; 'I' for Inactive)
ROOT
ATOM      1  C   UNL d   1       2.853  -1.145  -0.980  0.00  0.00     0.020 A 
ATOM      2  C1  UNL d   1       3.066  -0.003  -0.210  0.00  0.00     0.020 A 
ATOM      3  C2  UNL d   1       2.018   0.542   0.535  0.00  0.00     0.034 A 
ATOM      4  C3  UNL d   1       0.752  -0.055   0.510  0.00  0.00     0.017 A 
ATOM      5  C4  UNL d   1       0.540  -1.201  -0.263  0.00  0.00     0.017 A 
ATOM      6  C5  UNL d   1       1.593  -1.743  -1.007  0.00  0.00     0.034 A 
ATOM      7 Cl   UNL d   1      -0.994  -1.994  -0.344  0.00  0.00    -0.070 Cl
ATOM      8 Cl1  UNL d   1      -0.498   0.673   1.456  0.00  0.00    -0.070 Cl
ENDROOT
TORSDOF 0
ENDMDL
