MODEL 1
REMARK minimizedAffinity -3.40843463
REMARK minimizedRMSD -1
REMARK  0 active torsions:
REMARK  status: ('A' for Active; 'I' for Inactive)
ROOT
ATOM      1  C   UNL d   1       1.763   0.440  -1.204  0.00  0.00     0.020 A 
ATOM      2  C1  UNL d   1       2.197  -0.863  -1.444  0.00  0.00     0.020 A 
ATOM      3  C2  UNL d   1       1.475  -1.944  -0.934  0.00  0.00     0.034 A 
ATOM      4  C3  UNL d   1       0.316  -1.724  -0.182  0.00  0.00     0.017 A 
ATOM      5  C4  UNL d   1      -0.119  -0.416   0.058  0.00  0.00     0.017 A 
ATOM      6  C5  UNL d   1       0.608   0.663  -0.455  0.00  0.00     0.034 A 
ATOM      7 Cl   UNL d   1      -1.541  -0.065   0.977  0.00  0.00    -0.070 Cl
ATOM      8 Cl1  UNL d   1      -0.528  -3.108   0.417  0.00  0.00    -0.070 Cl
ENDROOT
TORSDOF 0
ENDMDL
