MODEL 1
REMARK minimizedAffinity -4.59141588
REMARK minimizedRMSD -1
REMARK  0 active torsions:
REMARK  status: ('A' for Active; 'I' for Inactive)
ROOT
ATOM      1  C   UNL d   1       2.099  -1.938  -0.443  0.00  0.00     0.020 A 
ATOM      2  C1  UNL d   1       3.009  -1.139  -1.134  0.00  0.00     0.020 A 
ATOM      3  C2  UNL d   1       2.635   0.139  -1.558  0.00  0.00     0.034 A 
ATOM      4  C3  UNL d   1       1.349   0.621  -1.291  0.00  0.00     0.017 A 
ATOM      5  C4  UNL d   1       0.436  -0.182  -0.597  0.00  0.00     0.017 A 
ATOM      6  C5  UNL d   1       0.815  -1.460  -0.175  0.00  0.00     0.034 A 
ATOM      7 Cl   UNL d   1      -1.169   0.344  -0.231  0.00  0.00    -0.070 Cl
ATOM      8 Cl1  UNL d   1       0.955   2.209  -1.844  0.00  0.00    -0.070 Cl
ENDROOT
TORSDOF 0
ENDMDL
