MODEL 1
REMARK minimizedAffinity 2.12332869
REMARK minimizedRMSD -1
REMARK  0 active torsions:
REMARK  status: ('A' for Active; 'I' for Inactive)
ROOT
ATOM      1  C   UNL d   1      -1.129   0.524   3.426  0.00  0.00     0.020 A 
ATOM      2  C1  UNL d   1      -0.383   1.689   3.252  0.00  0.00     0.020 A 
ATOM      3  C2  UNL d   1       0.217   1.956   2.019  0.00  0.00     0.034 A 
ATOM      4  C3  UNL d   1       0.072   1.056   0.957  0.00  0.00     0.017 A 
ATOM      5  C4  UNL d   1      -0.677  -0.113   1.133  0.00  0.00     0.017 A 
ATOM      6  C5  UNL d   1      -1.276  -0.375   2.369  0.00  0.00     0.034 A 
ATOM      7 Cl   UNL d   1      -0.901  -1.269  -0.132  0.00  0.00    -0.070 Cl
ATOM      8 Cl1  UNL d   1       0.842   1.450  -0.540  0.00  0.00    -0.070 Cl
ENDROOT
TORSDOF 0
ENDMDL
