MODEL 1
REMARK minimizedAffinity -3.58091998
REMARK minimizedRMSD -1
REMARK  0 active torsions:
REMARK  status: ('A' for Active; 'I' for Inactive)
ROOT
ATOM      1  C   UNL d   1       2.549  -0.853  -1.088  0.00  0.00     0.020 A 
ATOM      2  C1  UNL d   1       2.262   0.481  -0.803  0.00  0.00     0.020 A 
ATOM      3  C2  UNL d   1       1.056   0.820  -0.186  0.00  0.00     0.034 A 
ATOM      4  C3  UNL d   1       0.131  -0.177   0.147  0.00  0.00     0.017 A 
ATOM      5  C4  UNL d   1       0.420  -1.516  -0.140  0.00  0.00     0.017 A 
ATOM      6  C5  UNL d   1       1.629  -1.850  -0.758  0.00  0.00     0.034 A 
ATOM      7 Cl   UNL d   1      -0.671  -2.802   0.241  0.00  0.00    -0.070 Cl
ATOM      8 Cl1  UNL d   1      -1.340   0.314   0.908  0.00  0.00    -0.070 Cl
ENDROOT
TORSDOF 0
ENDMDL
