MODEL 1
REMARK minimizedAffinity 7.26633072
REMARK minimizedRMSD -1
REMARK  0 active torsions:
REMARK  status: ('A' for Active; 'I' for Inactive)
ROOT
ATOM      1  O1  BZF d   1       1.375  -3.367  -2.455  0.00  0.00    -0.204 OA
ATOM      2  C2  BZF d   1       2.069  -2.177  -2.553  0.00  0.00     0.174 A 
ATOM      3  C3  BZF d   1       1.449  -1.202  -1.858  0.00  0.00    -0.012 A 
ATOM      4  C3A BZF d   1       0.344  -1.844  -1.214  0.00  0.00    -0.107 A 
ATOM      5  C4  BZF d   1      -0.636  -1.404  -0.371  0.00  0.00     0.055 A 
ATOM      6  C5  BZF d   1      -1.608  -2.269   0.021  0.00  0.00    -0.016 A 
ATOM      7  C6  BZF d   1      -1.633  -3.578  -0.414  0.00  0.00     0.022 A 
ATOM      8  C7  BZF d   1      -0.679  -4.062  -1.247  0.00  0.00     0.029 A 
ATOM      9  C7A BZF d   1       0.323  -3.199  -1.618  0.00  0.00     0.058 A 
ENDROOT
TORSDOF 0
ENDMDL
