MODEL 1
REMARK minimizedAffinity 6.26576042
REMARK minimizedRMSD -1
REMARK  0 active torsions:
REMARK  status: ('A' for Active; 'I' for Inactive)
ROOT
ATOM      1  O1  BZF d   1      -4.190   1.300  -4.582  0.00  0.00    -0.204 OA
ATOM      2  C2  BZF d   1      -4.090  -0.072  -4.454  0.00  0.00     0.174 A 
ATOM      3  C3  BZF d   1      -3.625  -0.406  -3.232  0.00  0.00    -0.012 A 
ATOM      4  C3A BZF d   1      -3.510   0.831  -2.522  0.00  0.00    -0.107 A 
ATOM      5  C4  BZF d   1      -3.116   1.153  -1.255  0.00  0.00     0.055 A 
ATOM      6  C5  BZF d   1      -3.047   2.462  -0.897  0.00  0.00    -0.016 A 
ATOM      7  C6  BZF d   1      -3.360   3.474  -1.782  0.00  0.00     0.022 A 
ATOM      8  C7  BZF d   1      -3.761   3.204  -3.048  0.00  0.00     0.029 A 
ATOM      9  C7A BZF d   1      -3.863   1.880  -3.402  0.00  0.00     0.058 A 
ENDROOT
TORSDOF 0
ENDMDL
