MODEL 1
REMARK minimizedAffinity 0.498132765
REMARK minimizedRMSD -1
REMARK  0 active torsions:
REMARK  status: ('A' for Active; 'I' for Inactive)
ROOT
ATOM      1  O1  BZF d   1       3.352  -5.835  -5.474  0.00  0.00    -0.204 OA
ATOM      2  C2  BZF d   1       4.706  -5.990  -5.696  0.00  0.00     0.174 A 
ATOM      3  C3  BZF d   1       5.384  -5.994  -4.530  0.00  0.00    -0.012 A 
ATOM      4  C3A BZF d   1       4.382  -5.924  -3.511  0.00  0.00    -0.107 A 
ATOM      5  C4  BZF d   1       4.429  -5.909  -2.147  0.00  0.00     0.055 A 
ATOM      6  C5  BZF d   1       3.273  -5.760  -1.447  0.00  0.00    -0.016 A 
ATOM      7  C6  BZF d   1       2.055  -5.619  -2.079  0.00  0.00     0.022 A 
ATOM      8  C7  BZF d   1       1.957  -5.633  -3.431  0.00  0.00     0.029 A 
ATOM      9  C7A BZF d   1       3.120  -5.816  -4.140  0.00  0.00     0.058 A 
ENDROOT
TORSDOF 0
ENDMDL
