MODEL 1
REMARK minimizedAffinity 15.4462633
REMARK minimizedRMSD -1
REMARK  0 active torsions:
REMARK  status: ('A' for Active; 'I' for Inactive)
ROOT
ATOM      1  O1  BZF d   1      -3.639   2.448  -3.064  0.00  0.00    -0.204 OA
ATOM      2  C2  BZF d   1      -3.453   1.247  -3.722  0.00  0.00     0.174 A 
ATOM      3  C3  BZF d   1      -2.953   0.315  -2.886  0.00  0.00    -0.012 A 
ATOM      4  C3A BZF d   1      -2.905   0.948  -1.603  0.00  0.00    -0.107 A 
ATOM      5  C4  BZF d   1      -2.515   0.529  -0.364  0.00  0.00     0.055 A 
ATOM      6  C5  BZF d   1      -2.522   1.416   0.666  0.00  0.00    -0.016 A 
ATOM      7  C6  BZF d   1      -2.907   2.729   0.491  0.00  0.00     0.022 A 
ATOM      8  C7  BZF d   1      -3.307   3.190  -0.719  0.00  0.00     0.029 A 
ATOM      9  C7A BZF d   1      -3.333   2.288  -1.754  0.00  0.00     0.058 A 
ENDROOT
TORSDOF 0
ENDMDL
