MODEL 1
REMARK minimizedAffinity 12.575078
REMARK minimizedRMSD -1
REMARK  0 active torsions:
REMARK  status: ('A' for Active; 'I' for Inactive)
ROOT
ATOM      1  O1  BZF d   1       1.612  -2.919   2.802  0.00  0.00    -0.204 OA
ATOM      2  C2  BZF d   1       2.866  -2.746   3.355  0.00  0.00     0.174 A 
ATOM      3  C3  BZF d   1       3.357  -1.527   3.054  0.00  0.00    -0.012 A 
ATOM      4  C3A BZF d   1       2.309  -0.864   2.340  0.00  0.00    -0.107 A 
ATOM      5  C4  BZF d   1       2.189   0.380   1.789  0.00  0.00     0.055 A 
ATOM      6  C5  BZF d   1       1.061   0.689   1.097  0.00  0.00    -0.016 A 
ATOM      7  C6  BZF d   1       0.038  -0.221   0.931  0.00  0.00     0.022 A 
ATOM      8  C7  BZF d   1       0.110  -1.465   1.463  0.00  0.00     0.029 A 
ATOM      9  C7A BZF d   1       1.234  -1.770   2.191  0.00  0.00     0.058 A 
ENDROOT
TORSDOF 0
ENDMDL
