MODEL 1
REMARK minimizedAffinity 18.5153332
REMARK minimizedRMSD -1
REMARK  0 active torsions:
REMARK  status: ('A' for Active; 'I' for Inactive)
ROOT
ATOM      1  O1  BZF d   1       1.611  -0.964   4.670  0.00  0.00    -0.204 OA
ATOM      2  C2  BZF d   1       1.300  -2.282   4.945  0.00  0.00     0.174 A 
ATOM      3  C3  BZF d   1       1.023  -2.955   3.809  0.00  0.00    -0.012 A 
ATOM      4  C3A BZF d   1       1.261  -2.021   2.751  0.00  0.00    -0.107 A 
ATOM      5  C4  BZF d   1       1.175  -2.102   1.391  0.00  0.00     0.055 A 
ATOM      6  C5  BZF d   1       1.404  -0.987   0.647  0.00  0.00    -0.016 A 
ATOM      7  C6  BZF d   1       1.715   0.223   1.231  0.00  0.00     0.022 A 
ATOM      8  C7  BZF d   1       1.816   0.352   2.576  0.00  0.00     0.029 A 
ATOM      9  C7A BZF d   1       1.618  -0.780   3.328  0.00  0.00     0.058 A 
ENDROOT
TORSDOF 0
ENDMDL
