MODEL 1
REMARK minimizedAffinity 6.75269985
REMARK minimizedRMSD -1
REMARK  0 active torsions:
REMARK  status: ('A' for Active; 'I' for Inactive)
ROOT
ATOM      1  O1  BZF d   1       4.505  -5.685   1.538  0.00  0.00    -0.204 OA
ATOM      2  C2  BZF d   1       3.158  -5.991   1.576  0.00  0.00     0.174 A 
ATOM      3  C3  BZF d   1       2.574  -5.440   2.660  0.00  0.00    -0.012 A 
ATOM      4  C3A BZF d   1       3.601  -4.671   3.292  0.00  0.00    -0.107 A 
ATOM      5  C4  BZF d   1       3.632  -3.880   4.404  0.00  0.00     0.055 A 
ATOM      6  C5  BZF d   1       4.813  -3.328   4.790  0.00  0.00    -0.016 A 
ATOM      7  C6  BZF d   1       5.981  -3.551   4.091  0.00  0.00     0.022 A 
ATOM      8  C7  BZF d   1       5.999  -4.324   2.978  0.00  0.00     0.029 A 
ATOM      9  C7A BZF d   1       4.801  -4.856   2.567  0.00  0.00     0.058 A 
ENDROOT
TORSDOF 0
ENDMDL
