MODEL 1
REMARK minimizedAffinity 7.28661394
REMARK minimizedRMSD -1
REMARK  0 active torsions:
REMARK  status: ('A' for Active; 'I' for Inactive)
ROOT
ATOM      1  O1  BZF d   1       2.902   0.993   1.310  0.00  0.00    -0.204 OA
ATOM      2  C2  BZF d   1       2.347   1.165   0.057  0.00  0.00     0.174 A 
ATOM      3  C3  BZF d   1       1.534   0.134  -0.252  0.00  0.00    -0.012 A 
ATOM      4  C3A BZF d   1       1.513  -0.692   0.917  0.00  0.00    -0.107 A 
ATOM      5  C4  BZF d   1       0.873  -1.856   1.233  0.00  0.00     0.055 A 
ATOM      6  C5  BZF d   1       1.123  -2.442   2.433  0.00  0.00    -0.016 A 
ATOM      7  C6  BZF d   1       2.010  -1.896   3.337  0.00  0.00     0.022 A 
ATOM      8  C7  BZF d   1       2.666  -0.740   3.070  0.00  0.00     0.029 A 
ATOM      9  C7A BZF d   1       2.390  -0.127   1.872  0.00  0.00     0.058 A 
ENDROOT
TORSDOF 0
ENDMDL
