MODEL 1
REMARK minimizedAffinity 8.05097389
REMARK minimizedRMSD -1
REMARK  2 active torsions:
REMARK  status: ('A' for Active; 'I' for Inactive)
REMARK    1  A    between atoms: C2'_3  and  C1'_4 
REMARK    2  A    between atoms: C1'_4  and  C1_5 
ROOT
ATOM      1  C1  I4B d   1      -1.082  -2.740  -5.221  0.00  0.00    -0.075 A 
ATOM      2  C2  I4B d   1      -1.757  -1.821  -4.457  0.00  0.00     0.003 A 
ATOM      3  C3  I4B d   1      -1.351  -0.465  -4.448  0.00  0.00     0.002 A 
ATOM      4  C4  I4B d   1      -0.241  -0.083  -5.173  0.00  0.00    -0.004 A 
ATOM      5  C5  I4B d   1       0.428  -1.011  -5.966  0.00  0.00     0.002 A 
ATOM      6  C6  I4B d   1      -0.001  -2.345  -6.000  0.00  0.00     0.003 A 
ENDROOT
BRANCH   1   7
ATOM      7  C1' I4B d   1      -1.517  -4.170  -5.182  0.00  0.00     0.060 C 
BRANCH   7   8
ATOM      8  C2' I4B d   1      -0.709  -4.875  -4.111  0.00  0.00    -0.013 C 
ATOM      9  C4' I4B d   1      -1.493  -5.999  -3.487  0.00  0.00     0.013 C 
ATOM     10  C3' I4B d   1       0.554  -5.380  -4.742  0.00  0.00     0.013 C 
ENDBRANCH   7   8
ENDBRANCH   1   7
TORSDOF 2
ENDMDL
