MODEL 1
REMARK minimizedAffinity 10.9744225
REMARK minimizedRMSD -1
REMARK  2 active torsions:
REMARK  status: ('A' for Active; 'I' for Inactive)
REMARK    1  A    between atoms: C2'_3  and  C1'_4 
REMARK    2  A    between atoms: C1'_4  and  C1_5 
ROOT
ATOM      1  C1  I4B d   1      -0.353   0.305   2.894  0.00  0.00    -0.075 A 
ATOM      2  C2  I4B d   1      -0.200   1.608   3.298  0.00  0.00     0.003 A 
ATOM      3  C3  I4B d   1      -1.130   2.595   2.890  0.00  0.00     0.002 A 
ATOM      4  C4  I4B d   1      -2.163   2.247   2.043  0.00  0.00    -0.004 A 
ATOM      5  C5  I4B d   1      -2.330   0.921   1.653  0.00  0.00     0.002 A 
ATOM      6  C6  I4B d   1      -1.426  -0.058   2.091  0.00  0.00     0.003 A 
ENDROOT
BRANCH   1   7
ATOM      7  C1' I4B d   1       0.666  -0.705   3.316  0.00  0.00     0.060 C 
BRANCH   7   8
ATOM      8  C2' I4B d   1       1.985  -0.335   2.668  0.00  0.00    -0.013 C 
ATOM      9  C4' I4B d   1       3.132  -1.073   3.307  0.00  0.00     0.013 C 
ATOM     10  C3' I4B d   1       1.887  -0.649   1.205  0.00  0.00     0.013 C 
ENDBRANCH   7   8
ENDBRANCH   1   7
TORSDOF 2
ENDMDL
