MODEL 1
REMARK minimizedAffinity 11.821126
REMARK minimizedRMSD -1
REMARK  2 active torsions:
REMARK  status: ('A' for Active; 'I' for Inactive)
REMARK    1  A    between atoms: C2'_3  and  C1'_4 
REMARK    2  A    between atoms: C1'_4  and  C1_5 
ROOT
ATOM      1  C1  I4B d   1      -0.922   0.187   2.305  0.00  0.00    -0.075 A 
ATOM      2  C2  I4B d   1      -1.477   1.440   2.397  0.00  0.00     0.003 A 
ATOM      3  C3  I4B d   1      -2.619   1.771   1.630  0.00  0.00     0.002 A 
ATOM      4  C4  I4B d   1      -3.141   0.844   0.752  0.00  0.00    -0.004 A 
ATOM      5  C5  I4B d   1      -2.592  -0.433   0.677  0.00  0.00     0.002 A 
ATOM      6  C6  I4B d   1      -1.483  -0.768   1.468  0.00  0.00     0.003 A 
ENDROOT
BRANCH   1   7
ATOM      7  C1' I4B d   1       0.304  -0.119   3.106  0.00  0.00     0.060 C 
BRANCH   7   8
ATOM      8  C2' I4B d   1       1.483   0.546   2.425  0.00  0.00    -0.013 C 
ATOM      9  C4' I4B d   1       2.778   0.192   3.108  0.00  0.00     0.013 C 
ATOM     10  C3' I4B d   1       1.493   0.114   0.989  0.00  0.00     0.013 C 
ENDBRANCH   7   8
ENDBRANCH   1   7
TORSDOF 2
ENDMDL
