MODEL 1
REMARK minimizedAffinity 9.49585438
REMARK minimizedRMSD -1
REMARK  0 active torsions:
REMARK  status: ('A' for Active; 'I' for Inactive)
ROOT
ATOM      1  C   UNL d   1      -4.559   1.501  -5.587  0.00  0.00     0.172 C 
ATOM      2  N   UNL d   1      -3.381   1.992  -4.912  0.00  0.00    -0.070 N 
ATOM      3  C1  UNL d   1      -2.091   1.846  -5.349  0.00  0.00    -0.004 A 
ATOM      4  C2  UNL d   1      -1.263   2.451  -4.428  0.00  0.00    -0.047 A 
ATOM      5  C3  UNL d   1      -2.083   2.979  -3.403  0.00  0.00    -0.047 A 
ATOM      6  C4  UNL d   1      -3.390   2.680  -3.728  0.00  0.00    -0.004 A 
ENDROOT
TORSDOF 0
ENDMDL
