MODEL 1
REMARK minimizedAffinity -1.30958283
REMARK minimizedRMSD -1
REMARK  0 active torsions:
REMARK  status: ('A' for Active; 'I' for Inactive)
ROOT
ATOM      1  C   UNL d   1       2.451   4.901  -5.778  0.00  0.00     0.172 C 
ATOM      2  N   UNL d   1       3.875   4.982  -5.552  0.00  0.00    -0.070 N 
ATOM      3  C1  UNL d   1       4.629   4.065  -4.869  0.00  0.00    -0.004 A 
ATOM      4  C2  UNL d   1       5.935   4.503  -4.875  0.00  0.00    -0.047 A 
ATOM      5  C3  UNL d   1       5.968   5.727  -5.586  0.00  0.00    -0.047 A 
ATOM      6  C4  UNL d   1       4.679   5.999  -5.993  0.00  0.00    -0.004 A 
ENDROOT
TORSDOF 0
ENDMDL
