MODEL 1
REMARK minimizedAffinity 2.67818189
REMARK minimizedRMSD -1
REMARK  0 active torsions:
REMARK  status: ('A' for Active; 'I' for Inactive)
ROOT
ATOM      1  C   UNL d   1       4.596  -2.407   5.655  0.00  0.00     0.172 C 
ATOM      2  N   UNL d   1       4.790  -3.831   5.792  0.00  0.00    -0.070 N 
ATOM      3  C1  UNL d   1       5.999  -4.469   5.859  0.00  0.00    -0.004 A 
ATOM      4  C2  UNL d   1       5.758  -5.820   5.988  0.00  0.00    -0.047 A 
ATOM      5  C3  UNL d   1       4.354  -6.000   5.999  0.00  0.00    -0.047 A 
ATOM      6  C4  UNL d   1       3.779  -4.752   5.877  0.00  0.00    -0.004 A 
ENDROOT
TORSDOF 0
ENDMDL
