MODEL 1
REMARK minimizedAffinity 3.51312351
REMARK minimizedRMSD -1
REMARK  0 active torsions:
REMARK  status: ('A' for Active; 'I' for Inactive)
ROOT
ATOM      1  C   UNL d   1       5.531  -5.754   5.999  0.00  0.00     0.172 C 
ATOM      2  N   UNL d   1       5.271  -4.438   5.464  0.00  0.00    -0.070 N 
ATOM      3  C1  UNL d   1       5.728  -3.259   5.989  0.00  0.00    -0.004 A 
ATOM      4  C2  UNL d   1       5.264  -2.235   5.192  0.00  0.00    -0.047 A 
ATOM      5  C3  UNL d   1       4.501  -2.819   4.153  0.00  0.00    -0.047 A 
ATOM      6  C4  UNL d   1       4.522  -4.184   4.346  0.00  0.00    -0.004 A 
ENDROOT
TORSDOF 0
ENDMDL
