MODEL 1
REMARK minimizedAffinity 4.22356367
REMARK minimizedRMSD -1
REMARK  0 active torsions:
REMARK  status: ('A' for Active; 'I' for Inactive)
ROOT
ATOM      1  C   UNL d   1       2.139  -4.833   0.443  0.00  0.00     0.172 C 
ATOM      2  N   UNL d   1       1.954  -3.465   0.867  0.00  0.00    -0.070 N 
ATOM      3  C1  UNL d   1       0.750  -2.822   0.986  0.00  0.00    -0.004 A 
ATOM      4  C2  UNL d   1       0.999  -1.537   1.415  0.00  0.00    -0.047 A 
ATOM      5  C3  UNL d   1       2.401  -1.402   1.558  0.00  0.00    -0.047 A 
ATOM      6  C4  UNL d   1       2.967  -2.610   1.212  0.00  0.00    -0.004 A 
ENDROOT
TORSDOF 0
ENDMDL
