MODEL 1
REMARK minimizedAffinity 3.18735886
REMARK minimizedRMSD -1
REMARK  0 active torsions:
REMARK  status: ('A' for Active; 'I' for Inactive)
ROOT
ATOM      1  C   UNL d   1       5.999   4.676  -0.081  0.00  0.00     0.172 C 
ATOM      2  N   UNL d   1       5.983   3.233  -0.034  0.00  0.00    -0.070 N 
ATOM      3  C1  UNL d   1       5.996   2.471   1.104  0.00  0.00    -0.004 A 
ATOM      4  C2  UNL d   1       5.972   1.146   0.726  0.00  0.00    -0.047 A 
ATOM      5  C3  UNL d   1       5.945   1.110  -0.689  0.00  0.00    -0.047 A 
ATOM      6  C4  UNL d   1       5.952   2.416  -1.133  0.00  0.00    -0.004 A 
ENDROOT
TORSDOF 0
ENDMDL
