MODEL 1
REMARK minimizedAffinity 5.93896055
REMARK minimizedRMSD -1
REMARK  0 active torsions:
REMARK  status: ('A' for Active; 'I' for Inactive)
ROOT
ATOM      1  C   UNL d   1       4.299  -4.781   5.945  0.00  0.00     0.172 C 
ATOM      2  N   UNL d   1       4.699  -3.395   5.869  0.00  0.00    -0.070 N 
ATOM      3  C1  UNL d   1       3.866  -2.316   5.997  0.00  0.00    -0.004 A 
ATOM      4  C2  UNL d   1       4.629  -1.176   5.865  0.00  0.00    -0.047 A 
ATOM      5  C3  UNL d   1       5.967  -1.584   5.649  0.00  0.00    -0.047 A 
ATOM      6  C4  UNL d   1       5.982  -2.963   5.657  0.00  0.00    -0.004 A 
ENDROOT
TORSDOF 0
ENDMDL
