MODEL 1
REMARK minimizedAffinity 1.02420962
REMARK minimizedRMSD -1
REMARK  0 active torsions:
REMARK  status: ('A' for Active; 'I' for Inactive)
ROOT
ATOM      1  C   UNL d   1       4.669   4.545  -5.275  0.00  0.00     0.172 C 
ATOM      2  N   UNL d   1       3.276   4.923  -5.305  0.00  0.00    -0.070 N 
ATOM      3  C1  UNL d   1       2.749   5.979  -5.999  0.00  0.00    -0.004 A 
ATOM      4  C2  UNL d   1       1.391   6.000  -5.770  0.00  0.00    -0.047 A 
ATOM      5  C3  UNL d   1       1.090   4.919  -4.908  0.00  0.00    -0.047 A 
ATOM      6  C4  UNL d   1       2.275   4.269  -4.636  0.00  0.00    -0.004 A 
ENDROOT
TORSDOF 0
ENDMDL
