MODEL 1
REMARK minimizedAffinity -3.02339077
REMARK minimizedRMSD -1
REMARK  1 active torsions:
REMARK  status: ('A' for Active; 'I' for Inactive)
REMARK    1  A    between atoms: C1_2  and  C2_3 
ROOT
ATOM      1  C2  UNL d   1       0.731   1.078   0.146  0.00  0.00    -0.073 A 
ATOM      2  C3  UNL d   1       0.801   0.943  -1.246  0.00  0.00    -0.002 A 
ATOM      3  C4  UNL d   1       0.294  -0.198  -1.869  0.00  0.00     0.004 A 
ATOM      4  C5  UNL d   1      -0.293  -1.211  -1.110  0.00  0.00    -0.004 A 
ATOM      5  C6  UNL d   1      -0.383  -1.088   0.280  0.00  0.00    -0.075 A 
ATOM      6  C7  UNL d   1      -1.009  -2.169   1.111  0.00  0.00     0.076 C 
ATOM      7  C8  UNL d   1       0.131   0.059   0.899  0.00  0.00     0.001 A 
ENDROOT
BRANCH   1   8
ATOM      8  C1  UNL d   1       1.271   2.312   0.823  0.00  0.00     0.053 C 
ATOM      9  C   UNL d   1       2.787   2.388   0.743  0.00  0.00     0.018 C 
ENDBRANCH   1   8
TORSDOF 1
ENDMDL
