MODEL 1
REMARK minimizedAffinity 4.5832324
REMARK minimizedRMSD -1
REMARK  1 active torsions:
REMARK  status: ('A' for Active; 'I' for Inactive)
REMARK    1  A    between atoms: C1_2  and  C2_3 
ROOT
ATOM      1  C2  UNL d   1       0.262   0.105  -0.411  0.00  0.00    -0.073 A 
ATOM      2  C3  UNL d   1      -0.438   1.231   0.037  0.00  0.00    -0.002 A 
ATOM      3  C4  UNL d   1      -1.563   1.085   0.850  0.00  0.00     0.004 A 
ATOM      4  C5  UNL d   1      -1.996  -0.186   1.227  0.00  0.00    -0.004 A 
ATOM      5  C6  UNL d   1      -1.304  -1.323   0.799  0.00  0.00    -0.075 A 
ATOM      6  C7  UNL d   1      -1.758  -2.697   1.195  0.00  0.00     0.076 C 
ATOM      7  C8  UNL d   1      -0.176  -1.168  -0.018  0.00  0.00     0.001 A 
ENDROOT
BRANCH   1   8
ATOM      8  C1  UNL d   1       1.481   0.258  -1.282  0.00  0.00     0.053 C 
ATOM      9  C   UNL d   1       1.245  -0.265  -2.690  0.00  0.00     0.018 C 
ENDBRANCH   1   8
TORSDOF 1
ENDMDL
