MODEL 1
REMARK minimizedAffinity -2.61908841
REMARK minimizedRMSD -1
REMARK  1 active torsions:
REMARK  status: ('A' for Active; 'I' for Inactive)
REMARK    1  A    between atoms: C1_2  and  C2_3 
ROOT
ATOM      1  C2  UNL d   1      -0.944  -2.064  -0.477  0.00  0.00    -0.073 A 
ATOM      2  C3  UNL d   1      -1.325  -2.370   0.834  0.00  0.00    -0.002 A 
ATOM      3  C4  UNL d   1      -1.199  -1.417   1.845  0.00  0.00     0.004 A 
ATOM      4  C5  UNL d   1      -0.699  -0.147   1.555  0.00  0.00    -0.004 A 
ATOM      5  C6  UNL d   1      -0.324   0.181   0.248  0.00  0.00    -0.075 A 
ATOM      6  C7  UNL d   1       0.217   1.542  -0.080  0.00  0.00     0.076 C 
ATOM      7  C8  UNL d   1      -0.451  -0.782  -0.761  0.00  0.00     0.001 A 
ENDROOT
BRANCH   1   8
ATOM      8  C1  UNL d   1      -1.084  -3.088  -1.574  0.00  0.00     0.053 C 
ATOM      9  C   UNL d   1      -0.395  -2.649  -2.856  0.00  0.00     0.018 C 
ENDBRANCH   1   8
TORSDOF 1
ENDMDL
