MODEL 1
REMARK minimizedAffinity -3.01563764
REMARK minimizedRMSD -1
REMARK  1 active torsions:
REMARK  status: ('A' for Active; 'I' for Inactive)
REMARK    1  A    between atoms: C1_2  and  C2_3 
ROOT
ATOM      1  C2  UNL d   1       0.473   1.768   0.435  0.00  0.00    -0.073 A 
ATOM      2  C3  UNL d   1       0.313   1.379  -0.900  0.00  0.00    -0.002 A 
ATOM      3  C4  UNL d   1      -0.249   0.140  -1.211  0.00  0.00     0.004 A 
ATOM      4  C5  UNL d   1      -0.664  -0.718  -0.193  0.00  0.00    -0.004 A 
ATOM      5  C6  UNL d   1      -0.524  -0.342   1.147  0.00  0.00    -0.075 A 
ATOM      6  C7  UNL d   1      -0.963  -1.255   2.254  0.00  0.00     0.076 C 
ATOM      7  C8  UNL d   1       0.045   0.902   1.451  0.00  0.00     0.001 A 
ENDROOT
BRANCH   1   8
ATOM      8  C1  UNL d   1       1.074   3.107   0.775  0.00  0.00     0.053 C 
ATOM      9  C   UNL d   1       2.575   3.135   0.538  0.00  0.00     0.018 C 
ENDBRANCH   1   8
TORSDOF 1
ENDMDL
