MODEL 1
REMARK minimizedAffinity 0.345491588
REMARK minimizedRMSD -1
REMARK  1 active torsions:
REMARK  status: ('A' for Active; 'I' for Inactive)
REMARK    1  A    between atoms: C1_2  and  C2_3 
ROOT
ATOM      1  C2  UNL d   1       0.771   1.626   0.330  0.00  0.00    -0.073 A 
ATOM      2  C3  UNL d   1      -0.429   2.076  -0.232  0.00  0.00    -0.002 A 
ATOM      3  C4  UNL d   1      -1.590   1.310  -0.123  0.00  0.00     0.004 A 
ATOM      4  C5  UNL d   1      -1.565   0.091   0.555  0.00  0.00    -0.004 A 
ATOM      5  C6  UNL d   1      -0.379  -0.370   1.134  0.00  0.00    -0.075 A 
ATOM      6  C7  UNL d   1      -0.335  -1.680   1.864  0.00  0.00     0.076 C 
ATOM      7  C8  UNL d   1       0.784   0.404   1.017  0.00  0.00     0.001 A 
ENDROOT
BRANCH   1   8
ATOM      8  C1  UNL d   1       2.026   2.453   0.220  0.00  0.00     0.053 C 
ATOM      9  C   UNL d   1       1.956   3.711   1.070  0.00  0.00     0.018 C 
ENDBRANCH   1   8
TORSDOF 1
ENDMDL
