MODEL 1
REMARK minimizedAffinity 4.76937056
REMARK minimizedRMSD -1
REMARK  1 active torsions:
REMARK  status: ('A' for Active; 'I' for Inactive)
REMARK    1  A    between atoms: C1_2  and  C2_3 
ROOT
ATOM      1  C2  UNL d   1      -0.808  -0.047   0.266  0.00  0.00    -0.073 A 
ATOM      2  C3  UNL d   1      -0.014  -0.709   1.209  0.00  0.00    -0.002 A 
ATOM      3  C4  UNL d   1      -0.454  -0.853   2.525  0.00  0.00     0.004 A 
ATOM      4  C5  UNL d   1      -1.694  -0.344   2.910  0.00  0.00    -0.004 A 
ATOM      5  C6  UNL d   1      -2.508   0.310   1.980  0.00  0.00    -0.075 A 
ATOM      6  C7  UNL d   1      -3.844   0.865   2.379  0.00  0.00     0.076 C 
ATOM      7  C8  UNL d   1      -2.058   0.453   0.661  0.00  0.00     0.001 A 
ENDROOT
BRANCH   1   8
ATOM      8  C1  UNL d   1      -0.340   0.106  -1.158  0.00  0.00     0.053 C 
ATOM      9  C   UNL d   1       1.145  -0.187  -1.304  0.00  0.00     0.018 C 
ENDBRANCH   1   8
TORSDOF 1
ENDMDL
