MODEL 1
REMARK minimizedAffinity -3.56015897
REMARK minimizedRMSD -1
REMARK  1 active torsions:
REMARK  status: ('A' for Active; 'I' for Inactive)
REMARK    1  A    between atoms: C1_2  and  C2_3 
ROOT
ATOM      1  C2  UNL d   1       0.326   2.070  -0.099  0.00  0.00    -0.073 A 
ATOM      2  C3  UNL d   1       0.493   1.823  -1.467  0.00  0.00    -0.002 A 
ATOM      3  C4  UNL d   1       0.410   0.521  -1.963  0.00  0.00     0.004 A 
ATOM      4  C5  UNL d   1       0.152  -0.544  -1.100  0.00  0.00    -0.004 A 
ATOM      5  C6  UNL d   1      -0.029  -0.316   0.268  0.00  0.00    -0.075 A 
ATOM      6  C7  UNL d   1      -0.305  -1.452   1.209  0.00  0.00     0.076 C 
ATOM      7  C8  UNL d   1       0.059   0.993   0.759  0.00  0.00     0.001 A 
ENDROOT
BRANCH   1   8
ATOM      8  C1  UNL d   1       0.409   3.474   0.441  0.00  0.00     0.053 C 
ATOM      9  C   UNL d   1       1.845   3.962   0.542  0.00  0.00     0.018 C 
ENDBRANCH   1   8
TORSDOF 1
ENDMDL
