MODEL 1
REMARK minimizedAffinity -3.23092961
REMARK minimizedRMSD -1
REMARK  1 active torsions:
REMARK  status: ('A' for Active; 'I' for Inactive)
REMARK    1  A    between atoms: C1_2  and  C2_3 
ROOT
ATOM      1  C2  UNL d   1       0.105   0.040  -0.148  0.00  0.00    -0.073 A 
ATOM      2  C3  UNL d   1      -0.420  -0.055   1.146  0.00  0.00    -0.002 A 
ATOM      3  C4  UNL d   1      -0.867  -1.283   1.637  0.00  0.00     0.004 A 
ATOM      4  C5  UNL d   1      -0.786  -2.427   0.844  0.00  0.00    -0.004 A 
ATOM      5  C6  UNL d   1      -0.253  -2.355  -0.447  0.00  0.00    -0.075 A 
ATOM      6  C7  UNL d   1      -0.162  -3.577  -1.313  0.00  0.00     0.076 C 
ATOM      7  C8  UNL d   1       0.191  -1.118  -0.934  0.00  0.00     0.001 A 
ENDROOT
BRANCH   1   8
ATOM      8  C1  UNL d   1       0.595   1.362  -0.680  0.00  0.00     0.053 C 
ATOM      9  C   UNL d   1       0.460   2.475   0.347  0.00  0.00     0.018 C 
ENDBRANCH   1   8
TORSDOF 1
ENDMDL
