MODEL 1
REMARK minimizedAffinity 14.0207281
REMARK minimizedRMSD -1
REMARK  0 active torsions:
REMARK  status: ('A' for Active; 'I' for Inactive)
ROOT
ATOM      1  C   UNL d   1      -5.224   2.565   1.095  0.00  0.00    -0.002 A 
ATOM      2  C1  UNL d   1      -3.877   2.287   0.913  0.00  0.00     0.010 A 
ATOM      3  C2  UNL d   1      -3.276   1.217   1.579  0.00  0.00     0.041 A 
ATOM      4  C3  UNL d   1      -4.060   0.422   2.438  0.00  0.00    -0.075 A 
ATOM      5  S   UNL d   1      -3.540  -0.940   3.357  0.00  0.00     0.015 SA
ATOM      6  C4  UNL d   1      -5.094  -1.186   4.013  0.00  0.00     0.022 A 
ATOM      7  C5  UNL d   1      -6.000  -0.260   3.552  0.00  0.00     0.026 A 
ATOM      8  C6  UNL d   1      -5.419   0.682   2.637  0.00  0.00    -0.082 A 
ATOM      9  C7  UNL d   1      -5.999   1.774   1.948  0.00  0.00     0.045 A 
ENDROOT
TORSDOF 0
ENDMDL
