MODEL 1
REMARK minimizedAffinity 7.07583427
REMARK minimizedRMSD -1
REMARK  0 active torsions:
REMARK  status: ('A' for Active; 'I' for Inactive)
ROOT
ATOM      1  C   UNL d   1       3.591   1.254  -1.901  0.00  0.00    -0.002 A 
ATOM      2  C1  UNL d   1       2.518   1.954  -2.435  0.00  0.00     0.010 A 
ATOM      3  C2  UNL d   1       2.608   2.536  -3.701  0.00  0.00     0.041 A 
ATOM      4  C3  UNL d   1       3.806   2.399  -4.430  0.00  0.00    -0.075 A 
ATOM      5  S   UNL d   1       4.145   3.026  -6.000  0.00  0.00     0.015 SA
ATOM      6  C4  UNL d   1       5.721   2.379  -6.000  0.00  0.00     0.022 A 
ATOM      7  C5  UNL d   1       5.999   1.698  -4.838  0.00  0.00     0.026 A 
ATOM      8  C6  UNL d   1       4.900   1.698  -3.914  0.00  0.00    -0.082 A 
ATOM      9  C7  UNL d   1       4.777   1.121  -2.628  0.00  0.00     0.045 A 
ENDROOT
TORSDOF 0
ENDMDL
