MODEL 1
REMARK minimizedAffinity 15.343812
REMARK minimizedRMSD -1
REMARK  0 active torsions:
REMARK  status: ('A' for Active; 'I' for Inactive)
ROOT
ATOM      1  C   UNL d   1      -2.469   5.902  -5.975  0.00  0.00    -0.002 A 
ATOM      2  C1  UNL d   1      -3.855   5.968  -5.971  0.00  0.00     0.010 A 
ATOM      3  C2  UNL d   1      -4.622   4.802  -5.961  0.00  0.00     0.041 A 
ATOM      4  C3  UNL d   1      -3.966   3.555  -5.952  0.00  0.00    -0.075 A 
ATOM      5  S   UNL d   1      -4.699   1.995  -5.938  0.00  0.00     0.015 SA
ATOM      6  C4  UNL d   1      -3.190   1.203  -5.935  0.00  0.00     0.022 A 
ATOM      7  C5  UNL d   1      -2.141   2.092  -5.945  0.00  0.00     0.026 A 
ATOM      8  C6  UNL d   1      -2.571   3.462  -5.955  0.00  0.00    -0.082 A 
ATOM      9  C7  UNL d   1      -1.822   4.663  -5.966  0.00  0.00     0.045 A 
ENDROOT
TORSDOF 0
ENDMDL
