MODEL 1
REMARK minimizedAffinity 7.77600098
REMARK minimizedRMSD -1
REMARK  0 active torsions:
REMARK  status: ('A' for Active; 'I' for Inactive)
ROOT
ATOM      1  C   UNL d   1       5.219  -5.938  -5.233  0.00  0.00    -0.002 A 
ATOM      2  C1  UNL d   1       5.148  -5.948  -3.847  0.00  0.00     0.010 A 
ATOM      3  C2  UNL d   1       3.911  -5.967  -3.200  0.00  0.00     0.041 A 
ATOM      4  C3  UNL d   1       2.735  -5.976  -3.976  0.00  0.00    -0.075 A 
ATOM      5  S   UNL d   1       1.110  -5.999  -3.402  0.00  0.00     0.015 SA
ATOM      6  C4  UNL d   1       0.472  -5.996  -4.982  0.00  0.00     0.022 A 
ATOM      7  C5  UNL d   1       1.461  -5.978  -5.937  0.00  0.00     0.026 A 
ATOM      8  C6  UNL d   1       2.782  -5.966  -5.373  0.00  0.00    -0.082 A 
ATOM      9  C7  UNL d   1       4.051  -5.947  -6.000  0.00  0.00     0.045 A 
ENDROOT
TORSDOF 0
ENDMDL
