MODEL 1
REMARK minimizedAffinity 7.6208539
REMARK minimizedRMSD -1
REMARK  0 active torsions:
REMARK  status: ('A' for Active; 'I' for Inactive)
ROOT
ATOM      1  C   UNL d   1      -3.762   1.353  -5.991  0.00  0.00    -0.002 A 
ATOM      2  C1  UNL d   1      -2.444   1.788  -5.996  0.00  0.00     0.010 A 
ATOM      3  C2  UNL d   1      -2.146   3.152  -5.999  0.00  0.00     0.041 A 
ATOM      4  C3  UNL d   1      -3.205   4.081  -5.995  0.00  0.00    -0.075 A 
ATOM      5  S   UNL d   1      -3.079   5.800  -5.997  0.00  0.00     0.015 SA
ATOM      6  C4  UNL d   1      -4.772   5.999  -5.990  0.00  0.00     0.022 A 
ATOM      7  C5  UNL d   1      -5.432   4.793  -5.987  0.00  0.00     0.026 A 
ATOM      8  C6  UNL d   1      -4.540   3.668  -5.989  0.00  0.00    -0.082 A 
ATOM      9  C7  UNL d   1      -4.810   2.278  -5.987  0.00  0.00     0.045 A 
ENDROOT
TORSDOF 0
ENDMDL
