MODEL 1
REMARK minimizedAffinity 13.0065536
REMARK minimizedRMSD -1
REMARK  0 active torsions:
REMARK  status: ('A' for Active; 'I' for Inactive)
ROOT
ATOM      1  C   UNL d   1       1.948   0.285  -3.963  0.00  0.00    -0.002 A 
ATOM      2  C1  UNL d   1       0.954   1.149  -3.525  0.00  0.00     0.010 A 
ATOM      3  C2  UNL d   1       0.674   1.277  -2.163  0.00  0.00     0.041 A 
ATOM      4  C3  UNL d   1       1.418   0.517  -1.239  0.00  0.00    -0.075 A 
ATOM      5  S   UNL d   1       1.251   0.512   0.477  0.00  0.00     0.015 SA
ATOM      6  C4  UNL d   1       2.497  -0.636   0.669  0.00  0.00     0.022 A 
ATOM      7  C5  UNL d   1       3.037  -1.017  -0.536  0.00  0.00     0.026 A 
ATOM      8  C6  UNL d   1       2.425  -0.358  -1.656  0.00  0.00    -0.082 A 
ATOM      9  C7  UNL d   1       2.684  -0.467  -3.044  0.00  0.00     0.045 A 
ENDROOT
TORSDOF 0
ENDMDL
