MODEL 1
REMARK minimizedAffinity 2.28737235
REMARK minimizedRMSD -1
REMARK  0 active torsions:
REMARK  status: ('A' for Active; 'I' for Inactive)
ROOT
ATOM      1  C   UNL d   1       1.094  -5.996  -3.497  0.00  0.00    -0.002 A 
ATOM      2  C1  UNL d   1       0.957  -5.996  -4.877  0.00  0.00     0.010 A 
ATOM      3  C2  UNL d   1       2.083  -5.995  -5.703  0.00  0.00     0.041 A 
ATOM      4  C3  UNL d   1       3.362  -5.997  -5.111  0.00  0.00    -0.075 A 
ATOM      5  S   UNL d   1       4.883  -5.997  -5.923  0.00  0.00     0.015 SA
ATOM      6  C4  UNL d   1       5.750  -5.999  -4.456  0.00  0.00     0.022 A 
ATOM      7  C5  UNL d   1       4.916  -5.998  -3.364  0.00  0.00     0.026 A 
ATOM      8  C6  UNL d   1       3.526  -5.998  -3.723  0.00  0.00    -0.082 A 
ATOM      9  C7  UNL d   1       2.364  -5.997  -2.914  0.00  0.00     0.045 A 
ENDROOT
TORSDOF 0
ENDMDL
