MODEL 1
REMARK minimizedAffinity 18.0232067
REMARK minimizedRMSD -1
REMARK  0 active torsions:
REMARK  status: ('A' for Active; 'I' for Inactive)
ROOT
ATOM      1  C   UNL d   1       6.000   2.824   5.361  0.00  0.00    -0.002 A 
ATOM      2  C1  UNL d   1       5.476   2.347   4.168  0.00  0.00     0.010 A 
ATOM      3  C2  UNL d   1       4.358   2.953   3.590  0.00  0.00     0.041 A 
ATOM      4  C3  UNL d   1       3.771   4.058   4.237  0.00  0.00    -0.075 A 
ATOM      5  S   UNL d   1       2.398   4.960   3.715  0.00  0.00     0.015 SA
ATOM      6  C4  UNL d   1       2.474   6.000   5.062  0.00  0.00     0.022 A 
ATOM      7  C5  UNL d   1       3.516   5.682   5.901  0.00  0.00     0.026 A 
ATOM      8  C6  UNL d   1       4.281   4.558   5.439  0.00  0.00    -0.082 A 
ATOM      9  C7  UNL d   1       5.415   3.921   6.000  0.00  0.00     0.045 A 
ENDROOT
TORSDOF 0
ENDMDL
