MODEL 1
REMARK minimizedAffinity 6.13830328
REMARK minimizedRMSD -1
REMARK  0 active torsions:
REMARK  status: ('A' for Active; 'I' for Inactive)
ROOT
ATOM      1  C   UNL d   1       2.639   4.612   1.732  0.00  0.00    -0.002 A 
ATOM      2  C1  UNL d   1       1.747   5.521   2.282  0.00  0.00     0.010 A 
ATOM      3  C2  UNL d   1       1.900   5.958   3.599  0.00  0.00     0.041 A 
ATOM      4  C3  UNL d   1       2.976   5.463   4.361  0.00  0.00    -0.075 A 
ATOM      5  S   UNL d   1       3.363   5.857   5.994  0.00  0.00     0.015 SA
ATOM      6  C4  UNL d   1       4.722   4.829   6.000  0.00  0.00     0.022 A 
ATOM      7  C5  UNL d   1       4.891   4.192   4.793  0.00  0.00     0.026 A 
ATOM      8  C6  UNL d   1       3.889   4.547   3.829  0.00  0.00    -0.082 A 
ATOM      9  C7  UNL d   1       3.706   4.123   2.491  0.00  0.00     0.045 A 
ENDROOT
TORSDOF 0
ENDMDL
