MODEL 1
REMARK minimizedAffinity 10.967906
REMARK minimizedRMSD -1
REMARK  0 active torsions:
REMARK  status: ('A' for Active; 'I' for Inactive)
ROOT
ATOM      1  C   UNL d   1       0.002   2.240  -4.167  0.00  0.00    -0.002 A 
ATOM      2  C1  UNL d   1      -0.596   2.918  -3.114  0.00  0.00     0.010 A 
ATOM      3  C2  UNL d   1       0.048   3.020  -1.879  0.00  0.00     0.041 A 
ATOM      4  C3  UNL d   1       1.316   2.426  -1.720  0.00  0.00    -0.075 A 
ATOM      5  S   UNL d   1       2.292   2.425  -0.299  0.00  0.00     0.015 SA
ATOM      6  C4  UNL d   1       3.525   1.526  -1.057  0.00  0.00     0.022 A 
ATOM      7  C5  UNL d   1       3.216   1.225  -2.362  0.00  0.00     0.026 A 
ATOM      8  C6  UNL d   1       1.938   1.740  -2.766  0.00  0.00    -0.082 A 
ATOM      9  C7  UNL d   1       1.259   1.652  -4.005  0.00  0.00     0.045 A 
ENDROOT
TORSDOF 0
ENDMDL
