MODEL 1
REMARK minimizedAffinity 13.236824
REMARK minimizedRMSD -1
REMARK  0 active torsions:
REMARK  status: ('A' for Active; 'I' for Inactive)
ROOT
ATOM      1  C   UNL d   1       2.267   3.148  -0.179  0.00  0.00    -0.002 A 
ATOM      2  C1  UNL d   1       2.752   4.434  -0.368  0.00  0.00     0.010 A 
ATOM      3  C2  UNL d   1       3.906   4.654  -1.125  0.00  0.00     0.041 A 
ATOM      4  C3  UNL d   1       4.568   3.548  -1.694  0.00  0.00    -0.075 A 
ATOM      5  S   UNL d   1       5.996   3.576  -2.659  0.00  0.00     0.015 SA
ATOM      6  C4  UNL d   1       5.995   1.882  -2.843  0.00  0.00     0.022 A 
ATOM      7  C5  UNL d   1       4.938   1.293  -2.190  0.00  0.00     0.026 A 
ATOM      8  C6  UNL d   1       4.097   2.244  -1.518  0.00  0.00    -0.082 A 
ATOM      9  C7  UNL d   1       2.926   2.054  -0.746  0.00  0.00     0.045 A 
ENDROOT
TORSDOF 0
ENDMDL
