MODEL 1
REMARK minimizedAffinity 2.3611443
REMARK minimizedRMSD -1
REMARK  0 active torsions:
REMARK  status: ('A' for Active; 'I' for Inactive)
ROOT
ATOM      1  C   UNL d   1       4.379   2.517   3.035  0.00  0.00    -0.002 A 
ATOM      2  C1  UNL d   1       5.523   2.887   3.726  0.00  0.00     0.010 A 
ATOM      3  C2  UNL d   1       5.485   3.925   4.659  0.00  0.00     0.041 A 
ATOM      4  C3  UNL d   1       4.265   4.591   4.888  0.00  0.00    -0.075 A 
ATOM      5  S   UNL d   1       3.981   5.892   5.984  0.00  0.00     0.015 SA
ATOM      6  C4  UNL d   1       2.332   5.986   5.560  0.00  0.00     0.022 A 
ATOM      7  C5  UNL d   1       1.991   5.056   4.607  0.00  0.00     0.026 A 
ATOM      8  C6  UNL d   1       3.099   4.237   4.204  0.00  0.00    -0.082 A 
ATOM      9  C7  UNL d   1       3.170   3.180   3.264  0.00  0.00     0.045 A 
ENDROOT
TORSDOF 0
ENDMDL
