MODEL 1
REMARK minimizedAffinity 15.7611799
REMARK minimizedRMSD -1
REMARK  0 active torsions:
REMARK  status: ('A' for Active; 'I' for Inactive)
ROOT
ATOM      1  C   UNL d   1      -4.737   3.580  -5.987  0.00  0.00    -0.002 A 
ATOM      2  C1  UNL d   1      -3.847   4.646  -5.988  0.00  0.00     0.010 A 
ATOM      3  C2  UNL d   1      -2.469   4.421  -5.988  0.00  0.00     0.041 A 
ATOM      4  C3  UNL d   1      -1.995   3.094  -5.989  0.00  0.00    -0.075 A 
ATOM      5  S   UNL d   1      -0.350   2.578  -5.990  0.00  0.00     0.015 SA
ATOM      6  C4  UNL d   1      -0.789   0.931  -5.990  0.00  0.00     0.022 A 
ATOM      7  C5  UNL d   1      -2.153   0.761  -5.989  0.00  0.00     0.026 A 
ATOM      8  C6  UNL d   1      -2.871   2.005  -5.989  0.00  0.00    -0.082 A 
ATOM      9  C7  UNL d   1      -4.262   2.266  -5.988  0.00  0.00     0.045 A 
ENDROOT
TORSDOF 0
ENDMDL
