MODEL 1
REMARK minimizedAffinity 16.3618984
REMARK minimizedRMSD -1
REMARK  0 active torsions:
REMARK  status: ('A' for Active; 'I' for Inactive)
ROOT
ATOM      1  C   UNL d   1       2.368   3.380   2.670  0.00  0.00    -0.002 A 
ATOM      2  C1  UNL d   1       3.502   2.585   2.756  0.00  0.00     0.010 A 
ATOM      3  C2  UNL d   1       4.538   2.917   3.632  0.00  0.00     0.041 A 
ATOM      4  C3  UNL d   1       4.412   4.071   4.430  0.00  0.00    -0.075 A 
ATOM      5  S   UNL d   1       5.552   4.673   5.575  0.00  0.00     0.015 SA
ATOM      6  C4  UNL d   1       4.560   5.999   5.977  0.00  0.00     0.022 A 
ATOM      7  C5  UNL d   1       3.384   5.999   5.264  0.00  0.00     0.026 A 
ATOM      8  C6  UNL d   1       3.279   4.887   4.361  0.00  0.00    -0.082 A 
ATOM      9  C7  UNL d   1       2.247   4.524   3.462  0.00  0.00     0.045 A 
ENDROOT
TORSDOF 0
ENDMDL
