MODEL 1
REMARK minimizedAffinity 22.6617413
REMARK minimizedRMSD -1
REMARK  0 active torsions:
REMARK  status: ('A' for Active; 'I' for Inactive)
ROOT
ATOM      1  C   UNL d   1      -2.128   1.521  -5.923  0.00  0.00    -0.002 A 
ATOM      2  C1  UNL d   1      -0.961   2.269  -5.868  0.00  0.00     0.010 A 
ATOM      3  C2  UNL d   1      -1.010   3.664  -5.860  0.00  0.00     0.041 A 
ATOM      4  C3  UNL d   1      -2.266   4.301  -5.906  0.00  0.00    -0.075 A 
ATOM      5  S   UNL d   1      -2.571   5.998  -5.904  0.00  0.00     0.015 SA
ATOM      6  C4  UNL d   1      -4.259   5.771  -5.975  0.00  0.00     0.022 A 
ATOM      7  C5  UNL d   1      -4.599   4.439  -6.000  0.00  0.00     0.026 A 
ATOM      8  C6  UNL d   1      -3.456   3.570  -5.960  0.00  0.00    -0.082 A 
ATOM      9  C7  UNL d   1      -3.372   2.157  -5.968  0.00  0.00     0.045 A 
ENDROOT
TORSDOF 0
ENDMDL
