MODEL 1
REMARK minimizedAffinity 2.31445384
REMARK minimizedRMSD -1
REMARK  0 active torsions:
REMARK  status: ('A' for Active; 'I' for Inactive)
ROOT
ATOM      1  C   UNL d   1       4.784  -2.286   2.376  0.00  0.00     0.124 A 
ATOM      2  C1  UNL d   1       4.622  -1.890   3.697  0.00  0.00     0.062 A 
ATOM      3  C2  UNL d   1       4.925  -2.769   4.733  0.00  0.00     0.162 A 
ATOM      4  C3  UNL d   1       5.393  -4.053   4.453  0.00  0.00    -0.034 A 
ATOM      5  C4  UNL d   1       5.552  -4.444   3.122  0.00  0.00     0.162 A 
ATOM      6  C5  UNL d   1       5.248  -3.563   2.090  0.00  0.00     0.062 A 
ATOM      7  F   UNL d   1       5.404  -3.947   0.815  0.00  0.00    -0.097 F 
ATOM      8  F1  UNL d   1       5.999  -5.671   2.818  0.00  0.00    -0.096 F 
ATOM      9  I   UNL d   1       5.846  -5.370   6.000  0.00  0.00    -0.060 I 
ATOM     10  F2  UNL d   1       4.759  -2.360   6.000  0.00  0.00    -0.096 F 
ATOM     11  F3  UNL d   1       4.173  -0.658   3.976  0.00  0.00    -0.097 F 
ATOM     12  F4  UNL d   1       4.491  -1.439   1.381  0.00  0.00    -0.092 F 
ENDROOT
TORSDOF 0
ENDMDL
