MODEL 1
REMARK minimizedAffinity 19.5562229
REMARK minimizedRMSD -1
REMARK  0 active torsions:
REMARK  status: ('A' for Active; 'I' for Inactive)
ROOT
ATOM      1  C   UNL d   1       2.428   5.285  -1.532  0.00  0.00     0.124 A 
ATOM      2  C1  UNL d   1       2.129   5.608  -2.849  0.00  0.00     0.062 A 
ATOM      3  C2  UNL d   1       3.136   5.634  -3.809  0.00  0.00     0.162 A 
ATOM      4  C3  UNL d   1       4.452   5.335  -3.457  0.00  0.00    -0.034 A 
ATOM      5  C4  UNL d   1       4.745   5.012  -2.131  0.00  0.00     0.162 A 
ATOM      6  C5  UNL d   1       3.735   4.987  -1.174  0.00  0.00     0.062 A 
ATOM      7  F   UNL d   1       4.026   4.675   0.097  0.00  0.00    -0.097 F 
ATOM      8  F1  UNL d   1       6.000   4.719  -1.758  0.00  0.00    -0.096 F 
ATOM      9  I   UNL d   1       5.961   5.373  -4.890  0.00  0.00    -0.060 I 
ATOM     10  F2  UNL d   1       2.819   5.950  -5.073  0.00  0.00    -0.096 F 
ATOM     11  F3  UNL d   1       0.867   5.897  -3.196  0.00  0.00    -0.097 F 
ATOM     12  F4  UNL d   1       1.457   5.262  -0.610  0.00  0.00    -0.092 F 
ENDROOT
TORSDOF 0
ENDMDL
