MODEL 1
REMARK minimizedAffinity 38.9074936
REMARK minimizedRMSD -1
REMARK  0 active torsions:
REMARK  status: ('A' for Active; 'I' for Inactive)
ROOT
ATOM      1  C   UNL d   1      -0.110   5.009   1.446  0.00  0.00     0.124 A 
ATOM      2  C1  UNL d   1       0.945   5.449   2.234  0.00  0.00     0.062 A 
ATOM      3  C2  UNL d   1       2.220   5.572   1.692  0.00  0.00     0.162 A 
ATOM      4  C3  UNL d   1       2.449   5.256   0.352  0.00  0.00    -0.034 A 
ATOM      5  C4  UNL d   1       1.384   4.814  -0.434  0.00  0.00     0.162 A 
ATOM      6  C5  UNL d   1       0.111   4.692   0.113  0.00  0.00     0.062 A 
ATOM      7  F   UNL d   1      -0.907   4.266  -0.650  0.00  0.00    -0.097 F 
ATOM      8  F1  UNL d   1       1.568   4.501  -1.725  0.00  0.00    -0.096 F 
ATOM      9  I   UNL d   1       4.355   5.440  -0.463  0.00  0.00    -0.060 I 
ATOM     10  F2  UNL d   1       3.221   6.000   2.476  0.00  0.00    -0.096 F 
ATOM     11  F3  UNL d   1       0.735   5.755   3.523  0.00  0.00    -0.097 F 
ATOM     12  F4  UNL d   1      -1.336   4.890   1.971  0.00  0.00    -0.092 F 
ENDROOT
TORSDOF 0
ENDMDL
