MODEL 1
REMARK minimizedAffinity 18.0073357
REMARK minimizedRMSD -1
REMARK  0 active torsions:
REMARK  status: ('A' for Active; 'I' for Inactive)
ROOT
ATOM      1  C   UNL d   1       3.630   5.823  -4.420  0.00  0.00     0.124 A 
ATOM      2  C1  UNL d   1       2.431   5.853  -3.722  0.00  0.00     0.062 A 
ATOM      3  C2  UNL d   1       2.424   5.731  -2.336  0.00  0.00     0.162 A 
ATOM      4  C3  UNL d   1       3.621   5.578  -1.637  0.00  0.00    -0.034 A 
ATOM      5  C4  UNL d   1       4.824   5.548  -2.345  0.00  0.00     0.162 A 
ATOM      6  C5  UNL d   1       4.825   5.670  -3.731  0.00  0.00     0.062 A 
ATOM      7  F   UNL d   1       5.985   5.641  -4.403  0.00  0.00    -0.097 F 
ATOM      8  F1  UNL d   1       5.993   5.402  -1.705  0.00  0.00    -0.096 F 
ATOM      9  I   UNL d   1       3.615   5.395   0.436  0.00  0.00    -0.060 I 
ATOM     10  F2  UNL d   1       1.250   5.764  -1.688  0.00  0.00    -0.096 F 
ATOM     11  F3  UNL d   1       1.275   6.000  -4.386  0.00  0.00    -0.097 F 
ATOM     12  F4  UNL d   1       3.634   5.940  -5.754  0.00  0.00    -0.092 F 
ENDROOT
TORSDOF 0
ENDMDL
