MODEL 1
REMARK minimizedAffinity 9.96338081
REMARK minimizedRMSD -1
REMARK  0 active torsions:
REMARK  status: ('A' for Active; 'I' for Inactive)
ROOT
ATOM      1  C   UNL d   1       3.553  -2.005   2.401  0.00  0.00     0.124 A 
ATOM      2  C1  UNL d   1       3.405  -1.575   3.712  0.00  0.00     0.062 A 
ATOM      3  C2  UNL d   1       4.085  -2.221   4.741  0.00  0.00     0.162 A 
ATOM      4  C3  UNL d   1       4.920  -3.303   4.463  0.00  0.00    -0.034 A 
ATOM      5  C4  UNL d   1       5.063  -3.730   3.142  0.00  0.00     0.162 A 
ATOM      6  C5  UNL d   1       4.382  -3.082   2.117  0.00  0.00     0.062 A 
ATOM      7  F   UNL d   1       4.526  -3.499   0.851  0.00  0.00    -0.097 F 
ATOM      8  F1  UNL d   1       5.858  -4.767   2.839  0.00  0.00    -0.096 F 
ATOM      9  I   UNL d   1       5.938  -4.270   5.999  0.00  0.00    -0.060 I 
ATOM     10  F2  UNL d   1       3.923  -1.784   5.999  0.00  0.00    -0.096 F 
ATOM     11  F3  UNL d   1       2.605  -0.536   3.989  0.00  0.00    -0.097 F 
ATOM     12  F4  UNL d   1       2.897  -1.384   1.413  0.00  0.00    -0.092 F 
ENDROOT
TORSDOF 0
ENDMDL
