MODEL 1
REMARK minimizedAffinity 7.37365246
REMARK minimizedRMSD -1
REMARK  0 active torsions:
REMARK  status: ('A' for Active; 'I' for Inactive)
ROOT
ATOM      1  C   UNL d   1       5.073  -3.143   5.074  0.00  0.00     0.124 A 
ATOM      2  C1  UNL d   1       4.447  -1.904   5.073  0.00  0.00     0.062 A 
ATOM      3  C2  UNL d   1       3.485  -1.608   4.112  0.00  0.00     0.162 A 
ATOM      4  C3  UNL d   1       3.143  -2.552   3.144  0.00  0.00    -0.034 A 
ATOM      5  C4  UNL d   1       3.778  -3.795   3.151  0.00  0.00     0.162 A 
ATOM      6  C5  UNL d   1       4.739  -4.087   4.114  0.00  0.00     0.062 A 
ATOM      7  F   UNL d   1       5.343  -5.284   4.113  0.00  0.00    -0.097 F 
ATOM      8  F1  UNL d   1       3.473  -4.725   2.234  0.00  0.00    -0.096 F 
ATOM      9  I   UNL d   1       1.705  -2.112   1.704  0.00  0.00    -0.060 I 
ATOM     10  F2  UNL d   1       2.895  -0.403   4.134  0.00  0.00    -0.096 F 
ATOM     11  F3  UNL d   1       4.769  -0.991   6.000  0.00  0.00    -0.097 F 
ATOM     12  F4  UNL d   1       5.999  -3.425   6.000  0.00  0.00    -0.092 F 
ENDROOT
TORSDOF 0
ENDMDL
