MODEL 1
REMARK minimizedAffinity 15.6566525
REMARK minimizedRMSD -1
REMARK  0 active torsions:
REMARK  status: ('A' for Active; 'I' for Inactive)
ROOT
ATOM      1  C   UNL d   1       3.381  -1.874   2.380  0.00  0.00     0.124 A 
ATOM      2  C1  UNL d   1       4.353  -2.822   2.093  0.00  0.00     0.062 A 
ATOM      3  C2  UNL d   1       5.066  -3.428   3.124  0.00  0.00     0.162 A 
ATOM      4  C3  UNL d   1       4.808  -3.089   4.452  0.00  0.00    -0.034 A 
ATOM      5  C4  UNL d   1       3.829  -2.134   4.733  0.00  0.00     0.162 A 
ATOM      6  C5  UNL d   1       3.120  -1.531   3.699  0.00  0.00     0.062 A 
ATOM      7  F   UNL d   1       2.180  -0.615   3.978  0.00  0.00    -0.097 F 
ATOM      8  F1  UNL d   1       3.556  -1.784   5.999  0.00  0.00    -0.096 F 
ATOM      9  I   UNL d   1       5.871  -3.992   5.996  0.00  0.00    -0.060 I 
ATOM     10  F2  UNL d   1       6.000  -4.340   2.817  0.00  0.00    -0.096 F 
ATOM     11  F3  UNL d   1       4.608  -3.154   0.820  0.00  0.00    -0.097 F 
ATOM     12  F4  UNL d   1       2.697  -1.292   1.386  0.00  0.00    -0.092 F 
ENDROOT
TORSDOF 0
ENDMDL
