MODEL 1
REMARK minimizedAffinity 3.13337159
REMARK minimizedRMSD -1
REMARK  0 active torsions:
REMARK  status: ('A' for Active; 'I' for Inactive)
ROOT
ATOM      1  C   UNL d   1       5.156  -4.475   2.377  0.00  0.00     0.124 A 
ATOM      2  C1  UNL d   1       4.488  -3.294   2.087  0.00  0.00     0.062 A 
ATOM      3  C2  UNL d   1       4.015  -2.486   3.117  0.00  0.00     0.162 A 
ATOM      4  C3  UNL d   1       4.209  -2.856   4.448  0.00  0.00    -0.034 A 
ATOM      5  C4  UNL d   1       4.882  -4.046   4.732  0.00  0.00     0.162 A 
ATOM      6  C5  UNL d   1       5.352  -4.850   3.699  0.00  0.00     0.062 A 
ATOM      7  F   UNL d   1       5.998  -5.991   3.981  0.00  0.00    -0.097 F 
ATOM      8  F1  UNL d   1       5.086  -4.432   6.000  0.00  0.00    -0.096 F 
ATOM      9  I   UNL d   1       3.504  -1.651   5.991  0.00  0.00    -0.060 I 
ATOM     10  F2  UNL d   1       3.373  -1.350   2.807  0.00  0.00    -0.096 F 
ATOM     11  F3  UNL d   1       4.297  -2.930   0.811  0.00  0.00    -0.097 F 
ATOM     12  F4  UNL d   1       5.609  -5.251   1.384  0.00  0.00    -0.092 F 
ENDROOT
TORSDOF 0
ENDMDL
