MODEL 1
REMARK minimizedAffinity 4.9222002
REMARK minimizedRMSD -1
REMARK  0 active torsions:
REMARK  status: ('A' for Active; 'I' for Inactive)
ROOT
ATOM      1  C   UNL d   1       2.422  -2.293   4.229  0.00  0.00     0.124 A 
ATOM      2  C1  UNL d   1       2.230  -3.666   4.156  0.00  0.00     0.062 A 
ATOM      3  C2  UNL d   1       3.193  -4.535   4.661  0.00  0.00     0.162 A 
ATOM      4  C3  UNL d   1       4.357  -4.034   5.244  0.00  0.00    -0.034 A 
ATOM      5  C4  UNL d   1       4.544  -2.652   5.312  0.00  0.00     0.162 A 
ATOM      6  C5  UNL d   1       3.579  -1.788   4.806  0.00  0.00     0.062 A 
ATOM      7  F   UNL d   1       3.766  -0.462   4.877  0.00  0.00    -0.097 F 
ATOM      8  F1  UNL d   1       5.651  -2.137   5.866  0.00  0.00    -0.096 F 
ATOM      9  I   UNL d   1       5.799  -5.331   6.000  0.00  0.00    -0.060 I 
ATOM     10  F2  UNL d   1       2.980  -5.857   4.578  0.00  0.00    -0.096 F 
ATOM     11  F3  UNL d   1       1.114  -4.156   3.598  0.00  0.00    -0.097 F 
ATOM     12  F4  UNL d   1       1.495  -1.459   3.741  0.00  0.00    -0.092 F 
ENDROOT
TORSDOF 0
ENDMDL
