MODEL 1
REMARK minimizedAffinity 23.2521095
REMARK minimizedRMSD -1
REMARK  0 active torsions:
REMARK  status: ('A' for Active; 'I' for Inactive)
ROOT
ATOM      1  C   UNL d   1       2.536   4.878  -1.205  0.00  0.00     0.124 A 
ATOM      2  C1  UNL d   1       3.800   5.402  -0.972  0.00  0.00     0.062 A 
ATOM      3  C2  UNL d   1       4.787   5.311  -1.950  0.00  0.00     0.162 A 
ATOM      4  C3  UNL d   1       4.513   4.694  -3.171  0.00  0.00    -0.034 A 
ATOM      5  C4  UNL d   1       3.240   4.169  -3.397  0.00  0.00     0.162 A 
ATOM      6  C5  UNL d   1       2.257   4.262  -2.417  0.00  0.00     0.062 A 
ATOM      7  F   UNL d   1       1.037   3.755  -2.644  0.00  0.00    -0.097 F 
ATOM      8  F1  UNL d   1       2.943   3.569  -4.560  0.00  0.00    -0.096 F 
ATOM      9  I   UNL d   1       5.986   4.556  -4.635  0.00  0.00    -0.060 I 
ATOM     10  F2  UNL d   1       5.999   5.826  -1.697  0.00  0.00    -0.096 F 
ATOM     11  F3  UNL d   1       4.073   5.996   0.198  0.00  0.00    -0.097 F 
ATOM     12  F4  UNL d   1       1.589   4.966  -0.263  0.00  0.00    -0.092 F 
ENDROOT
TORSDOF 0
ENDMDL
