MODEL 1
REMARK minimizedAffinity 14.7190294
REMARK minimizedRMSD -1
REMARK  0 active torsions:
REMARK  status: ('A' for Active; 'I' for Inactive)
ROOT
ATOM      1  C   UNL d   1       2.440   5.429  -2.069  0.00  0.00     0.124 A 
ATOM      2  C1  UNL d   1       2.160   5.695  -3.402  0.00  0.00     0.062 A 
ATOM      3  C2  UNL d   1       3.174   5.650  -4.354  0.00  0.00     0.162 A 
ATOM      4  C3  UNL d   1       4.480   5.335  -3.976  0.00  0.00    -0.034 A 
ATOM      5  C4  UNL d   1       4.755   5.070  -2.633  0.00  0.00     0.162 A 
ATOM      6  C5  UNL d   1       3.737   5.116  -1.686  0.00  0.00     0.062 A 
ATOM      7  F   UNL d   1       4.010   4.859  -0.399  0.00  0.00    -0.097 F 
ATOM      8  F1  UNL d   1       5.999   4.764  -2.236  0.00  0.00    -0.096 F 
ATOM      9  I   UNL d   1       6.000   5.266  -5.396  0.00  0.00    -0.060 I 
ATOM     10  F2  UNL d   1       2.874   5.912  -5.634  0.00  0.00    -0.096 F 
ATOM     11  F3  UNL d   1       0.908   5.999  -3.774  0.00  0.00    -0.097 F 
ATOM     12  F4  UNL d   1       1.462   5.475  -1.155  0.00  0.00    -0.092 F 
ENDROOT
TORSDOF 0
ENDMDL
