MODEL 1
REMARK minimizedAffinity 25.30793
REMARK minimizedRMSD -1
REMARK  0 active torsions:
REMARK  status: ('A' for Active; 'I' for Inactive)
ROOT
ATOM      1  C   UNL d   1      -2.656  -0.996   4.405  0.00  0.00     0.124 A 
ATOM      2  C1  UNL d   1      -2.537   0.351   4.716  0.00  0.00     0.062 A 
ATOM      3  C2  UNL d   1      -2.471   1.301   3.701  0.00  0.00     0.162 A 
ATOM      4  C3  UNL d   1      -2.524   0.907   2.364  0.00  0.00    -0.034 A 
ATOM      5  C4  UNL d   1      -2.643  -0.450   2.059  0.00  0.00     0.162 A 
ATOM      6  C5  UNL d   1      -2.709  -1.396   3.077  0.00  0.00     0.062 A 
ATOM      7  F   UNL d   1      -2.824  -2.697   2.774  0.00  0.00    -0.097 F 
ATOM      8  F1  UNL d   1      -2.697  -0.864   0.784  0.00  0.00    -0.096 F 
ATOM      9  I   UNL d   1      -2.425   2.324   0.843  0.00  0.00    -0.060 I 
ATOM     10  F2  UNL d   1      -2.356   2.596   4.031  0.00  0.00    -0.096 F 
ATOM     11  F3  UNL d   1      -2.485   0.739   5.999  0.00  0.00    -0.097 F 
ATOM     12  F4  UNL d   1      -2.719  -1.908   5.384  0.00  0.00    -0.092 F 
ENDROOT
TORSDOF 0
ENDMDL
