MODEL 1
REMARK minimizedAffinity 24.3230782
REMARK minimizedRMSD -1
REMARK  0 active torsions:
REMARK  status: ('A' for Active; 'I' for Inactive)
ROOT
ATOM      1  C   UNL d   1      -2.647   0.292   4.016  0.00  0.00     0.124 A 
ATOM      2  C1  UNL d   1      -2.432   1.479   4.702  0.00  0.00     0.062 A 
ATOM      3  C2  UNL d   1      -1.875   2.574   4.049  0.00  0.00     0.162 A 
ATOM      4  C3  UNL d   1      -1.530   2.488   2.700  0.00  0.00    -0.034 A 
ATOM      5  C4  UNL d   1      -1.749   1.291   2.016  0.00  0.00     0.162 A 
ATOM      6  C5  UNL d   1      -2.305   0.199   2.674  0.00  0.00     0.062 A 
ATOM      7  F   UNL d   1      -2.512  -0.947   2.009  0.00  0.00    -0.097 F 
ATOM      8  F1  UNL d   1      -1.429   1.174   0.719  0.00  0.00    -0.096 F 
ATOM      9  I   UNL d   1      -0.697   4.124   1.719  0.00  0.00    -0.060 I 
ATOM     10  F2  UNL d   1      -1.678   3.709   4.737  0.00  0.00    -0.096 F 
ATOM     11  F3  UNL d   1      -2.760   1.571   5.999  0.00  0.00    -0.097 F 
ATOM     12  F4  UNL d   1      -3.182  -0.761   4.647  0.00  0.00    -0.092 F 
ENDROOT
TORSDOF 0
ENDMDL
