MODEL 1
REMARK minimizedAffinity 27.0444717
REMARK minimizedRMSD -1
REMARK  0 active torsions:
REMARK  status: ('A' for Active; 'I' for Inactive)
ROOT
ATOM      1  C   UNL d   1       1.328  -2.237  -3.879  0.00  0.00     0.124 A 
ATOM      2  C1  UNL d   1       0.361  -1.907  -2.940  0.00  0.00     0.062 A 
ATOM      3  C2  UNL d   1       0.727  -1.626  -1.627  0.00  0.00     0.162 A 
ATOM      4  C3  UNL d   1       2.067  -1.674  -1.245  0.00  0.00    -0.034 A 
ATOM      5  C4  UNL d   1       3.035  -2.008  -2.194  0.00  0.00     0.162 A 
ATOM      6  C5  UNL d   1       2.664  -2.287  -3.506  0.00  0.00     0.062 A 
ATOM      7  F   UNL d   1       3.600  -2.606  -4.411  0.00  0.00    -0.097 F 
ATOM      8  F1  UNL d   1       4.333  -2.062  -1.860  0.00  0.00    -0.096 F 
ATOM      9  I   UNL d   1       2.619  -1.254   0.718  0.00  0.00    -0.060 I 
ATOM     10  F2  UNL d   1      -0.229  -1.310  -0.741  0.00  0.00    -0.096 F 
ATOM     11  F3  UNL d   1      -0.930  -1.859  -3.299  0.00  0.00    -0.097 F 
ATOM     12  F4  UNL d   1       0.973  -2.508  -5.142  0.00  0.00    -0.092 F 
ENDROOT
TORSDOF 0
ENDMDL
