MODEL 1
REMARK minimizedAffinity 24.1854
REMARK minimizedRMSD -1
REMARK  0 active torsions:
REMARK  status: ('A' for Active; 'I' for Inactive)
ROOT
ATOM      1  C   UNL d   1       3.437  -1.834   2.381  0.00  0.00     0.124 A 
ATOM      2  C1  UNL d   1       4.419  -2.772   2.094  0.00  0.00     0.062 A 
ATOM      3  C2  UNL d   1       5.053  -3.460   3.124  0.00  0.00     0.162 A 
ATOM      4  C3  UNL d   1       4.706  -3.213   4.452  0.00  0.00    -0.034 A 
ATOM      5  C4  UNL d   1       3.718  -2.268   4.734  0.00  0.00     0.162 A 
ATOM      6  C5  UNL d   1       3.088  -1.583   3.700  0.00  0.00     0.062 A 
ATOM      7  F   UNL d   1       2.140  -0.677   3.980  0.00  0.00    -0.097 F 
ATOM      8  F1  UNL d   1       3.360  -2.006   6.000  0.00  0.00    -0.096 F 
ATOM      9  I   UNL d   1       5.651  -4.240   5.996  0.00  0.00    -0.060 I 
ATOM     10  F2  UNL d   1       5.998  -4.361   2.817  0.00  0.00    -0.096 F 
ATOM     11  F3  UNL d   1       4.759  -3.015   0.820  0.00  0.00    -0.097 F 
ATOM     12  F4  UNL d   1       2.830  -1.172   1.387  0.00  0.00    -0.092 F 
ENDROOT
TORSDOF 0
ENDMDL
