MODEL 1
REMARK minimizedAffinity 0.33657071
REMARK minimizedRMSD -1
REMARK  0 active torsions:
REMARK  status: ('A' for Active; 'I' for Inactive)
ROOT
ATOM      1  O1  BZF d   1      -2.314   0.089   0.623  0.00  0.00    -0.204 OA
ATOM      2  C2  BZF d   1      -1.833  -0.999   1.324  0.00  0.00     0.174 A 
ATOM      3  C3  BZF d   1      -1.837  -2.105   0.553  0.00  0.00    -0.012 A 
ATOM      4  C3A BZF d   1      -2.267  -1.663  -0.738  0.00  0.00    -0.107 A 
ATOM      5  C4  BZF d   1      -2.457  -2.296  -1.933  0.00  0.00     0.055 A 
ATOM      6  C5  BZF d   1      -2.954  -1.591  -2.983  0.00  0.00    -0.016 A 
ATOM      7  C6  BZF d   1      -3.277  -0.254  -2.872  0.00  0.00     0.022 A 
ATOM      8  C7  BZF d   1      -3.101   0.419  -1.709  0.00  0.00     0.029 A 
ATOM      9  C7A BZF d   1      -2.567  -0.283  -0.655  0.00  0.00     0.058 A 
ENDROOT
TORSDOF 0
ENDMDL
