MODEL 1
REMARK minimizedAffinity 8.2506361
REMARK minimizedRMSD -1
REMARK  0 active torsions:
REMARK  status: ('A' for Active; 'I' for Inactive)
ROOT
ATOM      1  O1  BZF d   1       0.608  -1.112   5.255  0.00  0.00    -0.204 OA
ATOM      2  C2  BZF d   1       1.117  -2.159   5.999  0.00  0.00     0.174 A 
ATOM      3  C3  BZF d   1       2.081  -2.808   5.315  0.00  0.00    -0.012 A 
ATOM      4  C3A BZF d   1       2.245  -2.068   4.102  0.00  0.00    -0.107 A 
ATOM      5  C4  BZF d   1       3.067  -2.208   3.020  0.00  0.00     0.055 A 
ATOM      6  C5  BZF d   1       2.925  -1.359   1.969  0.00  0.00    -0.016 A 
ATOM      7  C6  BZF d   1       1.971  -0.363   1.963  0.00  0.00     0.022 A 
ATOM      8  C7  BZF d   1       1.136  -0.182   3.015  0.00  0.00     0.029 A 
ATOM      9  C7A BZF d   1       1.299  -1.017   4.093  0.00  0.00     0.058 A 
ENDROOT
TORSDOF 0
ENDMDL
