MODEL 1
REMARK minimizedAffinity 8.12726021
REMARK minimizedRMSD -1
REMARK  0 active torsions:
REMARK  status: ('A' for Active; 'I' for Inactive)
ROOT
ATOM      1  O1  BZF d   1       1.261   0.569   1.871  0.00  0.00    -0.204 OA
ATOM      2  C2  BZF d   1       1.075   1.202   3.085  0.00  0.00     0.174 A 
ATOM      3  C3  BZF d   1       1.403   0.385   4.106  0.00  0.00    -0.012 A 
ATOM      4  C3A BZF d   1       1.906  -0.804   3.490  0.00  0.00    -0.107 A 
ATOM      5  C4  BZF d   1       2.404  -1.977   3.980  0.00  0.00     0.055 A 
ATOM      6  C5  BZF d   1       2.741  -2.966   3.111  0.00  0.00    -0.016 A 
ATOM      7  C6  BZF d   1       2.589  -2.819   1.748  0.00  0.00     0.022 A 
ATOM      8  C7  BZF d   1       2.103  -1.671   1.214  0.00  0.00     0.029 A 
ATOM      9  C7A BZF d   1       1.793  -0.658   2.088  0.00  0.00     0.058 A 
ENDROOT
TORSDOF 0
ENDMDL
