MODEL 1
REMARK minimizedAffinity 10.6769714
REMARK minimizedRMSD -1
REMARK  0 active torsions:
REMARK  status: ('A' for Active; 'I' for Inactive)
ROOT
ATOM      1  O1  BZF d   1      -2.007  -3.335   0.705  0.00  0.00    -0.204 OA
ATOM      2  C2  BZF d   1      -2.539  -4.297  -0.132  0.00  0.00     0.174 A 
ATOM      3  C3  BZF d   1      -3.267  -3.727  -1.113  0.00  0.00    -0.012 A 
ATOM      4  C3A BZF d   1      -3.109  -2.317  -0.929  0.00  0.00    -0.107 A 
ATOM      5  C4  BZF d   1      -3.578  -1.223  -1.599  0.00  0.00     0.055 A 
ATOM      6  C5  BZF d   1      -3.299   0.016  -1.118  0.00  0.00    -0.016 A 
ATOM      7  C6  BZF d   1      -2.559   0.199   0.032  0.00  0.00     0.022 A 
ATOM      8  C7  BZF d   1      -2.068  -0.854   0.729  0.00  0.00     0.029 A 
ATOM      9  C7A BZF d   1      -2.321  -2.108   0.227  0.00  0.00     0.058 A 
ENDROOT
TORSDOF 0
ENDMDL
