MODEL 1
REMARK minimizedAffinity 3.67903781
REMARK minimizedRMSD -1
REMARK  0 active torsions:
REMARK  status: ('A' for Active; 'I' for Inactive)
ROOT
ATOM      1  O1  BZF d   1      -1.994  -1.359   1.136  0.00  0.00    -0.204 OA
ATOM      2  C2  BZF d   1      -1.797   0.002   1.260  0.00  0.00     0.174 A 
ATOM      3  C3  BZF d   1      -0.483   0.288   1.368  0.00  0.00    -0.012 A 
ATOM      4  C3A BZF d   1       0.188  -0.966   1.214  0.00  0.00    -0.107 A 
ATOM      5  C4  BZF d   1       1.504  -1.332   1.209  0.00  0.00     0.055 A 
ATOM      6  C5  BZF d   1       1.823  -2.649   1.109  0.00  0.00    -0.016 A 
ATOM      7  C6  BZF d   1       0.853  -3.626   1.018  0.00  0.00     0.022 A 
ATOM      8  C7  BZF d   1      -0.466  -3.311   1.013  0.00  0.00     0.029 A 
ATOM      9  C7A BZF d   1      -0.790  -1.978   1.081  0.00  0.00     0.058 A 
ENDROOT
TORSDOF 0
ENDMDL
