MODEL 1
REMARK minimizedAffinity 4.55503416
REMARK minimizedRMSD -1
REMARK  0 active torsions:
REMARK  status: ('A' for Active; 'I' for Inactive)
ROOT
ATOM      1  O1  BZF d   1       1.896  -1.873   2.132  0.00  0.00    -0.204 OA
ATOM      2  C2  BZF d   1       1.353  -0.755   1.528  0.00  0.00     0.174 A 
ATOM      3  C3  BZF d   1       0.775   0.050   2.443  0.00  0.00    -0.012 A 
ATOM      4  C3A BZF d   1       1.050  -0.560   3.708  0.00  0.00    -0.107 A 
ATOM      5  C4  BZF d   1       0.751  -0.223   4.997  0.00  0.00     0.055 A 
ATOM      6  C5  BZF d   1       1.102  -1.071   5.999  0.00  0.00    -0.016 A 
ATOM      7  C6  BZF d   1       1.748  -2.264   5.748  0.00  0.00     0.022 A 
ATOM      8  C7  BZF d   1       2.070  -2.638   4.486  0.00  0.00     0.029 A 
ATOM      9  C7A BZF d   1       1.746  -1.768   3.474  0.00  0.00     0.058 A 
ENDROOT
TORSDOF 0
ENDMDL
