MODEL 1
REMARK minimizedAffinity 2.1604135
REMARK minimizedRMSD -1
REMARK  0 active torsions:
REMARK  status: ('A' for Active; 'I' for Inactive)
ROOT
ATOM      1  O1  BZF d   1      -4.966  -3.909  -2.073  0.00  0.00    -0.204 OA
ATOM      2  C2  BZF d   1      -6.000  -2.993  -2.053  0.00  0.00     0.174 A 
ATOM      3  C3  BZF d   1      -5.619  -1.856  -1.436  0.00  0.00    -0.012 A 
ATOM      4  C3A BZF d   1      -4.235  -2.040  -1.128  0.00  0.00    -0.107 A 
ATOM      5  C4  BZF d   1      -3.294  -1.253  -0.526  0.00  0.00     0.055 A 
ATOM      6  C5  BZF d   1      -2.051  -1.758  -0.311  0.00  0.00    -0.016 A 
ATOM      7  C6  BZF d   1      -1.715  -3.044  -0.679  0.00  0.00     0.022 A 
ATOM      8  C7  BZF d   1      -2.613  -3.861  -1.283  0.00  0.00     0.029 A 
ATOM      9  C7A BZF d   1      -3.861  -3.342  -1.532  0.00  0.00     0.058 A 
ENDROOT
TORSDOF 0
ENDMDL
