MODEL 1
REMARK minimizedAffinity 15.9925833
REMARK minimizedRMSD -1
REMARK  0 active torsions:
REMARK  status: ('A' for Active; 'I' for Inactive)
ROOT
ATOM      1  C4' PXY d   1      -5.729   5.014  -0.733  0.00  0.00     0.077 C 
ATOM      2  C1' PXY d   1      -1.023   2.712  -3.175  0.00  0.00     0.077 C 
ATOM      3  C1  PXY d   1      -2.251   3.326  -2.532  0.00  0.00    -0.082 A 
ATOM      4  C2  PXY d   1      -3.190   2.540  -2.032  0.00  0.00     0.003 A 
ATOM      5  C3  PXY d   1      -4.322   3.079  -1.476  0.00  0.00     0.003 A 
ATOM      6  C4  PXY d   1      -4.468   4.437  -1.383  0.00  0.00    -0.082 A 
ATOM      7  C5  PXY d   1      -3.509   5.246  -1.881  0.00  0.00     0.003 A 
ATOM      8  C6  PXY d   1      -2.387   4.679  -2.479  0.00  0.00     0.003 A 
ENDROOT
TORSDOF 0
ENDMDL
