MODEL 1
REMARK minimizedAffinity 11.8363523
REMARK minimizedRMSD -1
REMARK  0 active torsions:
REMARK  status: ('A' for Active; 'I' for Inactive)
ROOT
ATOM      1  C4' PXY d   1      -4.157   3.019  -2.764  0.00  0.00     0.077 C 
ATOM      2  C1' PXY d   1       1.531   3.651  -1.948  0.00  0.00     0.077 C 
ATOM      3  C1  PXY d   1       0.038   3.498  -2.158  0.00  0.00    -0.082 A 
ATOM      4  C2  PXY d   1      -0.509   2.294  -2.112  0.00  0.00     0.003 A 
ATOM      5  C3  PXY d   1      -1.853   2.133  -2.331  0.00  0.00     0.003 A 
ATOM      6  C4  PXY d   1      -2.654   3.222  -2.548  0.00  0.00    -0.082 A 
ATOM      7  C5  PXY d   1      -2.106   4.455  -2.586  0.00  0.00     0.003 A 
ATOM      8  C6  PXY d   1      -0.733   4.592  -2.402  0.00  0.00     0.003 A 
ENDROOT
TORSDOF 0
ENDMDL
