MODEL 1
REMARK minimizedAffinity 15.890233
REMARK minimizedRMSD -1
REMARK  0 active torsions:
REMARK  status: ('A' for Active; 'I' for Inactive)
ROOT
ATOM      1  C4' PXY d   1       0.762   6.000  -0.429  0.00  0.00     0.077 C 
ATOM      2  C1' PXY d   1       1.998   0.361  -0.120  0.00  0.00     0.077 C 
ATOM      3  C1  PXY d   1       1.666   1.838  -0.211  0.00  0.00    -0.082 A 
ATOM      4  C2  PXY d   1       2.491   2.727   0.318  0.00  0.00     0.003 A 
ATOM      5  C3  PXY d   1       2.191   4.064   0.272  0.00  0.00     0.003 A 
ATOM      6  C4  PXY d   1       1.061   4.499  -0.368  0.00  0.00    -0.082 A 
ATOM      7  C5  PXY d   1       0.220   3.599  -0.920  0.00  0.00     0.003 A 
ATOM      8  C6  PXY d   1       0.523   2.243  -0.827  0.00  0.00     0.003 A 
ENDROOT
TORSDOF 0
ENDMDL
