MODEL 1
REMARK minimizedAffinity 15.9838543
REMARK minimizedRMSD -1
REMARK  0 active torsions:
REMARK  status: ('A' for Active; 'I' for Inactive)
ROOT
ATOM      1  C4' PXY d   1       1.833  -1.200   1.401  0.00  0.00     0.077 C 
ATOM      2  C1' PXY d   1       1.389   4.412   0.086  0.00  0.00     0.077 C 
ATOM      3  C1  PXY d   1       1.518   2.940   0.427  0.00  0.00    -0.082 A 
ATOM      4  C2  PXY d   1       0.441   2.171   0.424  0.00  0.00     0.003 A 
ATOM      5  C3  PXY d   1       0.535   0.846   0.762  0.00  0.00     0.003 A 
ATOM      6  C4  PXY d   1       1.752   0.289   1.054  0.00  0.00    -0.082 A 
ATOM      7  C5  PXY d   1       2.856   1.065   1.048  0.00  0.00     0.003 A 
ATOM      8  C6  PXY d   1       2.734   2.418   0.743  0.00  0.00     0.003 A 
ENDROOT
TORSDOF 0
ENDMDL
