MODEL 1
REMARK minimizedAffinity 10.0330925
REMARK minimizedRMSD -1
REMARK  0 active torsions:
REMARK  status: ('A' for Active; 'I' for Inactive)
ROOT
ATOM      1  C4' PXY d   1      -1.628   4.085  -4.975  0.00  0.00     0.077 C 
ATOM      2  C1' PXY d   1      -4.858   4.293  -0.185  0.00  0.00     0.077 C 
ATOM      3  C1  PXY d   1      -4.014   4.250  -1.444  0.00  0.00    -0.082 A 
ATOM      4  C2  PXY d   1      -3.777   3.090  -2.034  0.00  0.00     0.003 A 
ATOM      5  C3  PXY d   1      -2.990   3.030  -3.155  0.00  0.00     0.003 A 
ATOM      6  C4  PXY d   1      -2.482   4.176  -3.708  0.00  0.00    -0.082 A 
ATOM      7  C5  PXY d   1      -2.728   5.365  -3.117  0.00  0.00     0.003 A 
ATOM      8  C6  PXY d   1      -3.496   5.399  -1.957  0.00  0.00     0.003 A 
ENDROOT
TORSDOF 0
ENDMDL
