MODEL 1
REMARK minimizedAffinity 19.4175415
REMARK minimizedRMSD -1
REMARK  0 active torsions:
REMARK  status: ('A' for Active; 'I' for Inactive)
ROOT
ATOM      1  C4' PXY d   1       4.585  -1.263  -0.521  0.00  0.00     0.077 C 
ATOM      2  C1' PXY d   1       0.066   0.122   2.807  0.00  0.00     0.077 C 
ATOM      3  C1  PXY d   1       1.252  -0.229   1.930  0.00  0.00    -0.082 A 
ATOM      4  C2  PXY d   1       1.437  -1.483   1.552  0.00  0.00     0.003 A 
ATOM      5  C3  PXY d   1       2.522  -1.823   0.785  0.00  0.00     0.003 A 
ATOM      6  C4  PXY d   1       3.397  -0.861   0.357  0.00  0.00    -0.082 A 
ATOM      7  C5  PXY d   1       3.209   0.422   0.730  0.00  0.00     0.003 A 
ATOM      8  C6  PXY d   1       2.124   0.741   1.542  0.00  0.00     0.003 A 
ENDROOT
TORSDOF 0
ENDMDL
