MODEL 1
REMARK minimizedAffinity 14.8146467
REMARK minimizedRMSD -1
REMARK  0 active torsions:
REMARK  status: ('A' for Active; 'I' for Inactive)
ROOT
ATOM      1  C4' PXY d   1      -1.759   4.070  -5.005  0.00  0.00     0.077 C 
ATOM      2  C1' PXY d   1      -4.727   3.883  -0.048  0.00  0.00     0.077 C 
ATOM      3  C1  PXY d   1      -3.945   3.920  -1.346  0.00  0.00    -0.082 A 
ATOM      4  C2  PXY d   1      -3.458   5.069  -1.784  0.00  0.00     0.003 A 
ATOM      5  C3  PXY d   1      -2.776   5.125  -2.973  0.00  0.00     0.003 A 
ATOM      6  C4  PXY d   1      -2.546   3.984  -3.694  0.00  0.00    -0.082 A 
ATOM      7  C5  PXY d   1      -3.031   2.806  -3.248  0.00  0.00     0.003 A 
ATOM      8  C6  PXY d   1      -3.755   2.777  -2.060  0.00  0.00     0.003 A 
ENDROOT
TORSDOF 0
ENDMDL
