MODEL 1
REMARK minimizedAffinity 4.74029398
REMARK minimizedRMSD -1
REMARK  0 active torsions:
REMARK  status: ('A' for Active; 'I' for Inactive)
ROOT
ATOM      1  C4' PXY d   1      -2.708  -2.624   5.666  0.00  0.00     0.077 C 
ATOM      2  C1' PXY d   1       1.476  -1.613   1.808  0.00  0.00     0.077 C 
ATOM      3  C1  PXY d   1       0.384  -1.869   2.828  0.00  0.00    -0.082 A 
ATOM      4  C2  PXY d   1      -0.274  -3.017   2.807  0.00  0.00     0.003 A 
ATOM      5  C3  PXY d   1      -1.286  -3.253   3.701  0.00  0.00     0.003 A 
ATOM      6  C4  PXY d   1      -1.592  -2.326   4.662  0.00  0.00    -0.082 A 
ATOM      7  C5  PXY d   1      -0.917  -1.157   4.697  0.00  0.00     0.003 A 
ATOM      8  C6  PXY d   1       0.078  -0.920   3.754  0.00  0.00     0.003 A 
ENDROOT
TORSDOF 0
ENDMDL
