MODEL 1
REMARK minimizedAffinity 19.2139874
REMARK minimizedRMSD -1
REMARK  0 active torsions:
REMARK  status: ('A' for Active; 'I' for Inactive)
ROOT
ATOM      1  C4' PXY d   1       1.356  -0.195   5.454  0.00  0.00     0.077 C 
ATOM      2  C1' PXY d   1       3.789   0.223   0.227  0.00  0.00     0.077 C 
ATOM      3  C1  PXY d   1       3.139   0.112   1.592  0.00  0.00    -0.082 A 
ATOM      4  C2  PXY d   1       3.733   0.650   2.645  0.00  0.00     0.003 A 
ATOM      5  C3  PXY d   1       3.175   0.531   3.892  0.00  0.00     0.003 A 
ATOM      6  C4  PXY d   1       1.971  -0.099   4.055  0.00  0.00    -0.082 A 
ATOM      7  C5  PXY d   1       1.353  -0.642   2.984  0.00  0.00     0.003 A 
ATOM      8  C6  PXY d   1       1.956  -0.546   1.733  0.00  0.00     0.003 A 
ENDROOT
TORSDOF 0
ENDMDL
