MODEL 1
REMARK minimizedAffinity 10.7482071
REMARK minimizedRMSD -1
REMARK  0 active torsions:
REMARK  status: ('A' for Active; 'I' for Inactive)
ROOT
ATOM      1  C4' PXY d   1      -5.391   4.897  -0.146  0.00  0.00     0.077 C 
ATOM      2  C1' PXY d   1      -1.226   3.043  -3.700  0.00  0.00     0.077 C 
ATOM      3  C1  PXY d   1      -2.312   3.540  -2.765  0.00  0.00    -0.082 A 
ATOM      4  C2  PXY d   1      -3.133   2.673  -2.197  0.00  0.00     0.003 A 
ATOM      5  C3  PXY d   1      -4.140   3.108  -1.374  0.00  0.00     0.003 A 
ATOM      6  C4  PXY d   1      -4.275   4.440  -1.089  0.00  0.00    -0.082 A 
ATOM      7  C5  PXY d   1      -3.434   5.330  -1.656  0.00  0.00     0.003 A 
ATOM      8  C6  PXY d   1      -2.444   4.872  -2.521  0.00  0.00     0.003 A 
ENDROOT
TORSDOF 0
ENDMDL
