MODEL 1
REMARK minimizedAffinity 6.13642836
REMARK minimizedRMSD -1
REMARK  0 active torsions:
REMARK  status: ('A' for Active; 'I' for Inactive)
ROOT
ATOM      1  C4' PXY d   1      -1.056  -0.664   4.382  0.00  0.00     0.077 C 
ATOM      2  C1' PXY d   1       3.049  -2.028   0.548  0.00  0.00     0.077 C 
ATOM      3  C1  PXY d   1       1.965  -1.679   1.548  0.00  0.00    -0.082 A 
ATOM      4  C2  PXY d   1       1.977  -0.496   2.139  0.00  0.00     0.003 A 
ATOM      5  C3  PXY d   1       1.022  -0.176   3.070  0.00  0.00     0.003 A 
ATOM      6  C4  PXY d   1       0.013  -1.056   3.359  0.00  0.00    -0.082 A 
ATOM      7  C5  PXY d   1      -0.012  -2.262   2.752  0.00  0.00     0.003 A 
ATOM      8  C6  PXY d   1       0.990  -2.583   1.841  0.00  0.00     0.003 A 
ENDROOT
TORSDOF 0
ENDMDL
