MODEL 1
REMARK minimizedAffinity 11.3466587
REMARK minimizedRMSD -1
REMARK  0 active torsions:
REMARK  status: ('A' for Active; 'I' for Inactive)
ROOT
ATOM      1  C4' PXY d   1      -2.048  -2.928   2.808  0.00  0.00     0.077 C 
ATOM      2  C1' PXY d   1       2.819  -0.031   1.656  0.00  0.00     0.077 C 
ATOM      3  C1  PXY d   1       1.543  -0.786   1.970  0.00  0.00    -0.082 A 
ATOM      4  C2  PXY d   1       1.256  -1.892   1.304  0.00  0.00     0.003 A 
ATOM      5  C3  PXY d   1       0.090  -2.569   1.553  0.00  0.00     0.003 A 
ATOM      6  C4  PXY d   1      -0.766  -2.139   2.531  0.00  0.00    -0.082 A 
ATOM      7  C5  PXY d   1      -0.475  -1.017   3.223  0.00  0.00     0.003 A 
ATOM      8  C6  PXY d   1       0.693  -0.321   2.927  0.00  0.00     0.003 A 
ENDROOT
TORSDOF 0
ENDMDL
