MODEL 1
REMARK minimizedAffinity 12.657835
REMARK minimizedRMSD -1
REMARK  0 active torsions:
REMARK  status: ('A' for Active; 'I' for Inactive)
ROOT
ATOM      1  C4' PXY d   1       2.777   0.143   1.440  0.00  0.00     0.077 C 
ATOM      2  C1' PXY d   1      -1.660  -2.977   3.437  0.00  0.00     0.077 C 
ATOM      3  C1  PXY d   1      -0.490  -2.170   2.910  0.00  0.00    -0.082 A 
ATOM      4  C2  PXY d   1      -0.262  -0.959   3.391  0.00  0.00     0.003 A 
ATOM      5  C3  PXY d   1       0.772  -0.202   2.903  0.00  0.00     0.003 A 
ATOM      6  C4  PXY d   1       1.613  -0.712   1.950  0.00  0.00    -0.082 A 
ATOM      7  C5  PXY d   1       1.393  -1.951   1.462  0.00  0.00     0.003 A 
ATOM      8  C6  PXY d   1       0.313  -2.686   1.941  0.00  0.00     0.003 A 
ENDROOT
TORSDOF 0
ENDMDL
