MODEL 1
REMARK minimizedAffinity 10.4798145
REMARK minimizedRMSD -1
REMARK  0 active torsions:
REMARK  status: ('A' for Active; 'I' for Inactive)
ROOT
ATOM      1  C4' PXY d   1       3.877  -1.743  -0.415  0.00  0.00     0.077 C 
ATOM      2  C1' PXY d   1      -0.301  -1.042   3.517  0.00  0.00     0.077 C 
ATOM      3  C1  PXY d   1       0.795  -1.239   2.488  0.00  0.00    -0.082 A 
ATOM      4  C2  PXY d   1       1.548  -0.211   2.130  0.00  0.00     0.003 A 
ATOM      5  C3  PXY d   1       2.523  -0.364   1.178  0.00  0.00     0.003 A 
ATOM      6  C4  PXY d   1       2.765  -1.593   0.626  0.00  0.00    -0.082 A 
ATOM      7  C5  PXY d   1       2.008  -2.649   0.994  0.00  0.00     0.003 A 
ATOM      8  C6  PXY d   1       0.996  -2.464   1.932  0.00  0.00     0.003 A 
ENDROOT
TORSDOF 0
ENDMDL
