MODEL 1
REMARK minimizedAffinity 7.77176571
REMARK minimizedRMSD -1
REMARK  0 active torsions:
REMARK  status: ('A' for Active; 'I' for Inactive)
ROOT
ATOM      1  C4' PXY d   1      -2.498  -2.666   3.817  0.00  0.00     0.077 C 
ATOM      2  C1' PXY d   1       2.533  -0.843   1.632  0.00  0.00     0.077 C 
ATOM      3  C1  PXY d   1       1.216  -1.315   2.216  0.00  0.00    -0.082 A 
ATOM      4  C2  PXY d   1       0.632  -2.395   1.725  0.00  0.00     0.003 A 
ATOM      5  C3  PXY d   1      -0.574  -2.818   2.220  0.00  0.00     0.003 A 
ATOM      6  C4  PXY d   1      -1.164  -2.158   3.265  0.00  0.00    -0.082 A 
ATOM      7  C5  PXY d   1      -0.569  -1.061   3.779  0.00  0.00     0.003 A 
ATOM      8  C6  PXY d   1       0.635  -0.625   3.235  0.00  0.00     0.003 A 
ENDROOT
TORSDOF 0
ENDMDL
