MODEL 1
REMARK minimizedAffinity 6.51644182
REMARK minimizedRMSD -1
REMARK  0 active torsions:
REMARK  status: ('A' for Active; 'I' for Inactive)
ROOT
ATOM      1  C4' PXY d   1      -4.399   4.168  -0.756  0.00  0.00     0.077 C 
ATOM      2  C1' PXY d   1      -2.004   3.723  -5.998  0.00  0.00     0.077 C 
ATOM      3  C1  PXY d   1      -2.623   3.848  -4.620  0.00  0.00    -0.082 A 
ATOM      4  C2  PXY d   1      -3.349   2.854  -4.136  0.00  0.00     0.003 A 
ATOM      5  C3  PXY d   1      -3.943   2.964  -2.905  0.00  0.00     0.003 A 
ATOM      6  C4  PXY d   1      -3.747   4.081  -2.139  0.00  0.00    -0.082 A 
ATOM      7  C5  PXY d   1      -2.999   5.096  -2.621  0.00  0.00     0.003 A 
ATOM      8  C6  PXY d   1      -2.439   4.982  -3.890  0.00  0.00     0.003 A 
ENDROOT
TORSDOF 0
ENDMDL
