MODEL 1
REMARK minimizedAffinity 12.5799389
REMARK minimizedRMSD -1
REMARK  0 active torsions:
REMARK  status: ('A' for Active; 'I' for Inactive)
ROOT
ATOM      1  C4' PXY d   1      -1.483   5.988  -3.002  0.00  0.00     0.077 C 
ATOM      2  C1' PXY d   1      -4.844   1.361  -2.157  0.00  0.00     0.077 C 
ATOM      3  C1  PXY d   1      -3.953   2.567  -2.382  0.00  0.00    -0.082 A 
ATOM      4  C2  PXY d   1      -4.186   3.686  -1.716  0.00  0.00     0.003 A 
ATOM      5  C3  PXY d   1      -3.410   4.796  -1.932  0.00  0.00     0.003 A 
ATOM      6  C4  PXY d   1      -2.351   4.743  -2.799  0.00  0.00    -0.082 A 
ATOM      7  C5  PXY d   1      -2.101   3.601  -3.474  0.00  0.00     0.003 A 
ATOM      8  C6  PXY d   1      -2.925   2.499  -3.272  0.00  0.00     0.003 A 
ENDROOT
TORSDOF 0
ENDMDL
