MODEL 1
REMARK minimizedAffinity 9.17407417
REMARK minimizedRMSD -1
REMARK  0 active torsions:
REMARK  status: ('A' for Active; 'I' for Inactive)
ROOT
ATOM      1  C4' PXY d   1       1.873  -1.453   1.598  0.00  0.00     0.077 C 
ATOM      2  C1' PXY d   1      -2.977  -2.523   4.555  0.00  0.00     0.077 C 
ATOM      3  C1  PXY d   1      -1.708  -2.230   3.779  0.00  0.00    -0.082 A 
ATOM      4  C2  PXY d   1      -1.135  -3.192   3.075  0.00  0.00     0.003 A 
ATOM      5  C3  PXY d   1       0.031  -2.952   2.393  0.00  0.00     0.003 A 
ATOM      6  C4  PXY d   1       0.586  -1.701   2.389  0.00  0.00    -0.082 A 
ATOM      7  C5  PXY d   1       0.001  -0.711   3.097  0.00  0.00     0.003 A 
ATOM      8  C6  PXY d   1      -1.159  -0.985   3.815  0.00  0.00     0.003 A 
ENDROOT
TORSDOF 0
ENDMDL
