MODEL 1
REMARK minimizedAffinity 14.7356396
REMARK minimizedRMSD -1
REMARK  0 active torsions:
REMARK  status: ('A' for Active; 'I' for Inactive)
ROOT
ATOM      1  C4' PXY d   1      -4.953   1.776  -2.174  0.00  0.00     0.077 C 
ATOM      2  C1' PXY d   1      -1.048   5.990  -2.814  0.00  0.00     0.077 C 
ATOM      3  C1  PXY d   1      -2.075   4.890  -2.635  0.00  0.00    -0.082 A 
ATOM      4  C2  PXY d   1      -1.917   3.738  -3.266  0.00  0.00     0.003 A 
ATOM      5  C3  PXY d   1      -2.853   2.744  -3.140  0.00  0.00     0.003 A 
ATOM      6  C4  PXY d   1      -3.935   2.911  -2.318  0.00  0.00    -0.082 A 
ATOM      7  C5  PXY d   1      -4.098   4.080  -1.663  0.00  0.00     0.003 A 
ATOM      8  C6  PXY d   1      -3.158   5.092  -1.836  0.00  0.00     0.003 A 
ENDROOT
TORSDOF 0
ENDMDL
