MODEL 1
REMARK minimizedAffinity 21.122757
REMARK minimizedRMSD -1
REMARK  0 active torsions:
REMARK  status: ('A' for Active; 'I' for Inactive)
ROOT
ATOM      1  C   UNL d   1       0.393   3.971   2.787  0.00  0.00     0.124 A 
ATOM      2  C1  UNL d   1       0.902   3.651   4.038  0.00  0.00     0.062 A 
ATOM      3  C2  UNL d   1       2.154   4.122   4.426  0.00  0.00     0.162 A 
ATOM      4  C3  UNL d   1       2.905   4.919   3.562  0.00  0.00    -0.034 A 
ATOM      5  C4  UNL d   1       2.386   5.236   2.305  0.00  0.00     0.162 A 
ATOM      6  C5  UNL d   1       1.135   4.763   1.922  0.00  0.00     0.062 A 
ATOM      7  F   UNL d   1       0.645   5.074   0.713  0.00  0.00    -0.097 F 
ATOM      8  F1  UNL d   1       3.082   6.000   1.450  0.00  0.00    -0.096 F 
ATOM      9  I   UNL d   1       4.776   5.624   4.138  0.00  0.00    -0.060 I 
ATOM     10  F2  UNL d   1       2.621   3.796   5.641  0.00  0.00    -0.096 F 
ATOM     11  F3  UNL d   1       0.188   2.885   4.875  0.00  0.00    -0.097 F 
ATOM     12  F4  UNL d   1      -0.810   3.516   2.416  0.00  0.00    -0.092 F 
ENDROOT
TORSDOF 0
ENDMDL
