MODEL 1
REMARK minimizedAffinity 9.14780426
REMARK minimizedRMSD -1
REMARK  0 active torsions:
REMARK  status: ('A' for Active; 'I' for Inactive)
ROOT
ATOM      1  C   UNL d   1       2.594   0.394   0.015  0.00  0.00     0.124 A 
ATOM      2  C1  UNL d   1       2.575   0.180  -1.356  0.00  0.00     0.062 A 
ATOM      3  C2  UNL d   1       3.546   0.759  -2.168  0.00  0.00     0.162 A 
ATOM      4  C3  UNL d   1       4.545   1.558  -1.611  0.00  0.00    -0.034 A 
ATOM      5  C4  UNL d   1       4.556   1.769  -0.231  0.00  0.00     0.162 A 
ATOM      6  C5  UNL d   1       3.584   1.188   0.576  0.00  0.00     0.062 A 
ATOM      7  F   UNL d   1       3.603   1.396   1.901  0.00  0.00    -0.097 F 
ATOM      8  F1  UNL d   1       5.502   2.531   0.337  0.00  0.00    -0.096 F 
ATOM      9  I   UNL d   1       5.998   2.425  -2.822  0.00  0.00    -0.060 I 
ATOM     10  F2  UNL d   1       3.504   0.535  -3.490  0.00  0.00    -0.096 F 
ATOM     11  F3  UNL d   1       1.619  -0.586  -1.901  0.00  0.00    -0.097 F 
ATOM     12  F4  UNL d   1       1.658  -0.164   0.794  0.00  0.00    -0.092 F 
ENDROOT
TORSDOF 0
ENDMDL
