MODEL 1
REMARK minimizedAffinity 11.3806944
REMARK minimizedRMSD -1
REMARK  0 active torsions:
REMARK  status: ('A' for Active; 'I' for Inactive)
ROOT
ATOM      1  C   UNL d   1       1.451   2.363   0.444  0.00  0.00     0.124 A 
ATOM      2  C1  UNL d   1       0.165   2.811   0.178  0.00  0.00     0.062 A 
ATOM      3  C2  UNL d   1      -0.719   2.015  -0.544  0.00  0.00     0.162 A 
ATOM      4  C3  UNL d   1      -0.320   0.761  -1.006  0.00  0.00    -0.034 A 
ATOM      5  C4  UNL d   1       0.976   0.317  -0.735  0.00  0.00     0.162 A 
ATOM      6  C5  UNL d   1       1.855   1.116  -0.013  0.00  0.00     0.062 A 
ATOM      7  F   UNL d   1       3.098   0.681   0.243  0.00  0.00    -0.097 F 
ATOM      8  F1  UNL d   1       1.392  -0.884  -1.164  0.00  0.00    -0.096 F 
ATOM      9  I   UNL d   1      -1.638  -0.433  -2.087  0.00  0.00    -0.060 I 
ATOM     10  F2  UNL d   1      -1.956   2.474  -0.786  0.00  0.00    -0.096 F 
ATOM     11  F3  UNL d   1      -0.228   4.016   0.618  0.00  0.00    -0.097 F 
ATOM     12  F4  UNL d   1       2.300   3.131   1.139  0.00  0.00    -0.092 F 
ENDROOT
TORSDOF 0
ENDMDL
