MODEL 1
REMARK minimizedAffinity 8.15734768
REMARK minimizedRMSD -1
REMARK  0 active torsions:
REMARK  status: ('A' for Active; 'I' for Inactive)
ROOT
ATOM      1  C   UNL d   1       2.352   0.480  -0.201  0.00  0.00     0.124 A 
ATOM      2  C1  UNL d   1       2.432   0.231  -1.564  0.00  0.00     0.062 A 
ATOM      3  C2  UNL d   1       3.412   0.853  -2.333  0.00  0.00     0.162 A 
ATOM      4  C3  UNL d   1       4.320   1.730  -1.740  0.00  0.00    -0.034 A 
ATOM      5  C4  UNL d   1       4.233   1.976  -0.369  0.00  0.00     0.162 A 
ATOM      6  C5  UNL d   1       3.252   1.352   0.395  0.00  0.00     0.062 A 
ATOM      7  F   UNL d   1       3.176   1.594   1.712  0.00  0.00    -0.097 F 
ATOM      8  F1  UNL d   1       5.091   2.813   0.233  0.00  0.00    -0.096 F 
ATOM      9  I   UNL d   1       5.787   2.661  -2.886  0.00  0.00    -0.060 I 
ATOM     10  F2  UNL d   1       3.466   0.594  -3.648  0.00  0.00    -0.096 F 
ATOM     11  F3  UNL d   1       1.563  -0.610  -2.143  0.00  0.00    -0.097 F 
ATOM     12  F4  UNL d   1       1.408  -0.118   0.536  0.00  0.00    -0.092 F 
ENDROOT
TORSDOF 0
ENDMDL
