MODEL 1
REMARK minimizedAffinity 17.0519199
REMARK minimizedRMSD -1
REMARK  0 active torsions:
REMARK  status: ('A' for Active; 'I' for Inactive)
ROOT
ATOM      1  C   UNL d   1       2.571   0.297  -0.272  0.00  0.00     0.124 A 
ATOM      2  C1  UNL d   1       2.513   0.005  -1.627  0.00  0.00     0.062 A 
ATOM      3  C2  UNL d   1       3.490   0.491  -2.491  0.00  0.00     0.162 A 
ATOM      4  C3  UNL d   1       4.535   1.274  -2.001  0.00  0.00    -0.034 A 
ATOM      5  C4  UNL d   1       4.587   1.565  -0.637  0.00  0.00     0.162 A 
ATOM      6  C5  UNL d   1       3.608   1.076   0.222  0.00  0.00     0.062 A 
ATOM      7  F   UNL d   1       3.666   1.360   1.532  0.00  0.00    -0.097 F 
ATOM      8  F1  UNL d   1       5.578   2.314  -0.133  0.00  0.00    -0.096 F 
ATOM      9  I   UNL d   1       5.999   2.003  -3.289  0.00  0.00    -0.060 I 
ATOM     10  F2  UNL d   1       3.408   0.193  -3.796  0.00  0.00    -0.096 F 
ATOM     11  F3  UNL d   1       1.511  -0.747  -2.107  0.00  0.00    -0.097 F 
ATOM     12  F4  UNL d   1       1.629  -0.171   0.557  0.00  0.00    -0.092 F 
ENDROOT
TORSDOF 0
ENDMDL
