MODEL 1
REMARK minimizedAffinity 2.36712337
REMARK minimizedRMSD -1
REMARK  0 active torsions:
REMARK  status: ('A' for Active; 'I' for Inactive)
ROOT
ATOM      1  C   UNL d   1      -4.598   1.661  -5.020  0.00  0.00     0.124 A 
ATOM      2  C1  UNL d   1      -4.921   0.398  -4.546  0.00  0.00     0.062 A 
ATOM      3  C2  UNL d   1      -4.126  -0.210  -3.578  0.00  0.00     0.162 A 
ATOM      4  C3  UNL d   1      -3.002   0.445  -3.077  0.00  0.00    -0.034 A 
ATOM      5  C4  UNL d   1      -2.683   1.716  -3.560  0.00  0.00     0.162 A 
ATOM      6  C5  UNL d   1      -3.480   2.319  -4.527  0.00  0.00     0.062 A 
ATOM      7  F   UNL d   1      -3.167   3.540  -4.985  0.00  0.00    -0.097 F 
ATOM      8  F1  UNL d   1      -1.609   2.375  -3.100  0.00  0.00    -0.096 F 
ATOM      9  I   UNL d   1      -1.811  -0.460  -1.630  0.00  0.00    -0.060 I 
ATOM     10  F2  UNL d   1      -4.461  -1.432  -3.137  0.00  0.00    -0.096 F 
ATOM     11  F3  UNL d   1      -6.000  -0.241  -5.021  0.00  0.00    -0.097 F 
ATOM     12  F4  UNL d   1      -5.364   2.244  -5.952  0.00  0.00    -0.092 F 
ENDROOT
TORSDOF 0
ENDMDL
