MODEL 1
REMARK minimizedAffinity 8.57651329
REMARK minimizedRMSD -1
REMARK  0 active torsions:
REMARK  status: ('A' for Active; 'I' for Inactive)
ROOT
ATOM      1  C   UNL d   1       3.814   0.472  -3.210  0.00  0.00     0.124 A 
ATOM      2  C1  UNL d   1       3.468  -0.537  -4.099  0.00  0.00     0.062 A 
ATOM      3  C2  UNL d   1       2.431  -1.414  -3.795  0.00  0.00     0.162 A 
ATOM      4  C3  UNL d   1       1.731  -1.286  -2.595  0.00  0.00    -0.034 A 
ATOM      5  C4  UNL d   1       2.084  -0.270  -1.706  0.00  0.00     0.162 A 
ATOM      6  C5  UNL d   1       3.122   0.604  -2.015  0.00  0.00     0.062 A 
ATOM      7  F   UNL d   1       3.454   1.578  -1.154  0.00  0.00    -0.097 F 
ATOM      8  F1  UNL d   1       1.432  -0.118  -0.544  0.00  0.00    -0.096 F 
ATOM      9  I   UNL d   1       0.180  -2.595  -2.136  0.00  0.00    -0.060 I 
ATOM     10  F2  UNL d   1       2.119  -2.379  -4.673  0.00  0.00    -0.096 F 
ATOM     11  F3  UNL d   1       4.136  -0.667  -5.255  0.00  0.00    -0.097 F 
ATOM     12  F4  UNL d   1       4.812   1.314  -3.505  0.00  0.00    -0.092 F 
ENDROOT
TORSDOF 0
ENDMDL
