MODEL 1
REMARK minimizedAffinity 31.8348141
REMARK minimizedRMSD -1
REMARK  0 active torsions:
REMARK  status: ('A' for Active; 'I' for Inactive)
ROOT
ATOM      1  C   UNL d   1      -5.865   0.294  -4.699  0.00  0.00     0.124 A 
ATOM      2  C1  UNL d   1      -5.731  -0.728  -3.769  0.00  0.00     0.062 A 
ATOM      3  C2  UNL d   1      -5.590  -0.430  -2.417  0.00  0.00     0.162 A 
ATOM      4  C3  UNL d   1      -5.583   0.896  -1.985  0.00  0.00    -0.034 A 
ATOM      5  C4  UNL d   1      -5.717   1.919  -2.926  0.00  0.00     0.162 A 
ATOM      6  C5  UNL d   1      -5.858   1.616  -4.276  0.00  0.00     0.062 A 
ATOM      7  F   UNL d   1      -5.987   2.605  -5.173  0.00  0.00    -0.097 F 
ATOM      8  F1  UNL d   1      -5.715   3.205  -2.545  0.00  0.00    -0.096 F 
ATOM      9  I   UNL d   1      -5.372   1.345   0.036  0.00  0.00    -0.060 I 
ATOM     10  F2  UNL d   1      -5.463  -1.438  -1.541  0.00  0.00    -0.096 F 
ATOM     11  F3  UNL d   1      -5.737  -2.006  -4.175  0.00  0.00    -0.097 F 
ATOM     12  F4  UNL d   1      -6.000   0.005  -5.999  0.00  0.00    -0.092 F 
ENDROOT
TORSDOF 0
ENDMDL
