MODEL 1
REMARK minimizedAffinity 40.0916519
REMARK minimizedRMSD -1
REMARK  0 active torsions:
REMARK  status: ('A' for Active; 'I' for Inactive)
ROOT
ATOM      1  C   UNL d   1      -3.342   0.652  -0.052  0.00  0.00     0.124 A 
ATOM      2  C1  UNL d   1      -4.552   0.033  -0.332  0.00  0.00     0.062 A 
ATOM      3  C2  UNL d   1      -4.821  -0.431  -1.616  0.00  0.00     0.162 A 
ATOM      4  C3  UNL d   1      -3.876  -0.278  -2.632  0.00  0.00    -0.034 A 
ATOM      5  C4  UNL d   1      -2.662   0.347  -2.343  0.00  0.00     0.162 A 
ATOM      6  C5  UNL d   1      -2.398   0.808  -1.058  0.00  0.00     0.062 A 
ATOM      7  F   UNL d   1      -1.228   1.406  -0.789  0.00  0.00    -0.097 F 
ATOM      8  F1  UNL d   1      -1.732   0.510  -3.295  0.00  0.00    -0.096 F 
ATOM      9  I   UNL d   1      -4.274  -0.970  -4.554  0.00  0.00    -0.060 I 
ATOM     10  F2  UNL d   1      -5.999  -1.025  -1.858  0.00  0.00    -0.096 F 
ATOM     11  F3  UNL d   1      -5.466  -0.119   0.638  0.00  0.00    -0.097 F 
ATOM     12  F4  UNL d   1      -3.086   1.098   1.184  0.00  0.00    -0.092 F 
ENDROOT
TORSDOF 0
ENDMDL
