MODEL 1
REMARK minimizedAffinity -6.47975349
REMARK minimizedRMSD -1
REMARK  1 active torsions:
REMARK  status: ('A' for Active; 'I' for Inactive)
REMARK    1  A    between atoms: C1_2  and  C2_3 
ROOT
ATOM      1  C2  UNL d   1      -0.993  -0.565  -1.502  0.00  0.00    -0.076 A 
ATOM      2  C3  UNL d   1       0.372  -0.280  -1.682  0.00  0.00     0.004 A 
ATOM      3  C4  UNL d   1       1.295  -0.521  -0.666  0.00  0.00    -0.003 A 
ATOM      4  C5  UNL d   1       0.869  -1.052   0.546  0.00  0.00     0.000 A 
ATOM      5  C6  UNL d   1      -0.478  -1.357   0.736  0.00  0.00     0.000 A 
ATOM      6  C7  UNL d   1      -1.420  -1.136  -0.283  0.00  0.00    -0.073 A 
ATOM      7  C8  UNL d   1      -2.861  -1.479  -0.022  0.00  0.00     0.078 C 
ENDROOT
BRANCH   1   8
ATOM      8  C1  UNL d   1      -1.952  -0.258  -2.629  0.00  0.00     0.053 C 
ATOM      9  C   UNL d   1      -1.406   0.787  -3.590  0.00  0.00     0.018 C 
ENDBRANCH   1   8
TORSDOF 1
ENDMDL
