MODEL 1
REMARK minimizedAffinity -2.32283974
REMARK minimizedRMSD -1
REMARK  1 active torsions:
REMARK  status: ('A' for Active; 'I' for Inactive)
REMARK    1  A    between atoms: C1_2  and  C2_3 
ROOT
ATOM      1  C2  UNL d   1      -1.377  -0.742  -0.382  0.00  0.00    -0.076 A 
ATOM      2  C3  UNL d   1      -0.710   0.002  -1.371  0.00  0.00     0.004 A 
ATOM      3  C4  UNL d   1       0.512   0.616  -1.105  0.00  0.00    -0.003 A 
ATOM      4  C5  UNL d   1       1.088   0.496   0.155  0.00  0.00     0.000 A 
ATOM      5  C6  UNL d   1       0.450  -0.253   1.143  0.00  0.00     0.000 A 
ATOM      6  C7  UNL d   1      -0.775  -0.892   0.886  0.00  0.00    -0.073 A 
ATOM      7  C8  UNL d   1      -1.423  -1.682   1.990  0.00  0.00     0.078 C 
ENDROOT
BRANCH   1   8
ATOM      8  C1  UNL d   1      -2.713  -1.363  -0.720  0.00  0.00     0.053 C 
ATOM      9  C   UNL d   1      -2.658  -2.213  -1.980  0.00  0.00     0.018 C 
ENDBRANCH   1   8
TORSDOF 1
ENDMDL
