MODEL 1
REMARK minimizedAffinity -1.62225986
REMARK minimizedRMSD -1
REMARK  1 active torsions:
REMARK  status: ('A' for Active; 'I' for Inactive)
REMARK    1  A    between atoms: C1_2  and  C2_3 
ROOT
ATOM      1  C2  UNL d   1      -0.615  -0.009  -0.771  0.00  0.00    -0.076 A 
ATOM      2  C3  UNL d   1      -1.222  -0.703   0.290  0.00  0.00     0.004 A 
ATOM      3  C4  UNL d   1      -2.566  -1.071   0.231  0.00  0.00    -0.003 A 
ATOM      4  C5  UNL d   1      -3.323  -0.751  -0.891  0.00  0.00     0.000 A 
ATOM      5  C6  UNL d   1      -2.732  -0.078  -1.960  0.00  0.00     0.000 A 
ATOM      6  C7  UNL d   1      -1.375   0.285  -1.923  0.00  0.00    -0.073 A 
ATOM      7  C8  UNL d   1      -0.791   1.015  -3.102  0.00  0.00     0.078 C 
ENDROOT
BRANCH   1   8
ATOM      8  C1  UNL d   1       0.838   0.388  -0.639  0.00  0.00     0.053 C 
ATOM      9  C   UNL d   1       1.409   0.062   0.733  0.00  0.00     0.018 C 
ENDBRANCH   1   8
TORSDOF 1
ENDMDL
