MODEL 1
REMARK minimizedAffinity -3.60828018
REMARK minimizedRMSD -1
REMARK  1 active torsions:
REMARK  status: ('A' for Active; 'I' for Inactive)
REMARK    1  A    between atoms: C1_2  and  C2_3 
ROOT
ATOM      1  C2  UNL d   1      -1.151  -1.107  -0.038  0.00  0.00    -0.076 A 
ATOM      2  C3  UNL d   1      -2.114  -1.703  -0.871  0.00  0.00     0.004 A 
ATOM      3  C4  UNL d   1      -2.188  -1.382  -2.225  0.00  0.00    -0.003 A 
ATOM      4  C5  UNL d   1      -1.299  -0.461  -2.769  0.00  0.00     0.000 A 
ATOM      5  C6  UNL d   1      -0.326   0.126  -1.961  0.00  0.00     0.000 A 
ATOM      6  C7  UNL d   1      -0.227  -0.198  -0.597  0.00  0.00    -0.073 A 
ATOM      7  C8  UNL d   1       0.837   0.470   0.229  0.00  0.00     0.078 C 
ENDROOT
BRANCH   1   8
ATOM      8  C1  UNL d   1      -1.137  -1.473   1.429  0.00  0.00     0.053 C 
ATOM      9  C   UNL d   1       0.026  -2.384   1.791  0.00  0.00     0.018 C 
ENDBRANCH   1   8
TORSDOF 1
ENDMDL
