MODEL 1
REMARK minimizedAffinity -4.73566151
REMARK minimizedRMSD -1
REMARK  1 active torsions:
REMARK  status: ('A' for Active; 'I' for Inactive)
REMARK    1  A    between atoms: C1_2  and  C2_3 
ROOT
ATOM      1  C2  UNL d   1      -0.331  -0.215  -1.160  0.00  0.00    -0.076 A 
ATOM      2  C3  UNL d   1       0.875  -0.125  -0.442  0.00  0.00     0.004 A 
ATOM      3  C4  UNL d   1       1.068  -0.853   0.730  0.00  0.00    -0.003 A 
ATOM      4  C5  UNL d   1       0.059  -1.685   1.204  0.00  0.00     0.000 A 
ATOM      5  C6  UNL d   1      -1.136  -1.800   0.496  0.00  0.00     0.000 A 
ATOM      6  C7  UNL d   1      -1.341  -1.085  -0.697  0.00  0.00    -0.073 A 
ATOM      7  C8  UNL d   1      -2.652  -1.243  -1.417  0.00  0.00     0.078 C 
ENDROOT
BRANCH   1   8
ATOM      8  C1  UNL d   1      -0.494   0.619  -2.410  0.00  0.00     0.053 C 
ATOM      9  C   UNL d   1       0.511   0.253  -3.491  0.00  0.00     0.018 C 
ENDBRANCH   1   8
TORSDOF 1
ENDMDL
