MODEL 1
REMARK minimizedAffinity -5.03431749
REMARK minimizedRMSD -1
REMARK  1 active torsions:
REMARK  status: ('A' for Active; 'I' for Inactive)
REMARK    1  A    between atoms: C1_2  and  C2_3 
ROOT
ATOM      1  C2  UNL d   1       0.063   1.402   0.052  0.00  0.00    -0.076 A 
ATOM      2  C3  UNL d   1       0.378   2.720  -0.323  0.00  0.00     0.004 A 
ATOM      3  C4  UNL d   1       1.582   3.307   0.062  0.00  0.00    -0.003 A 
ATOM      4  C5  UNL d   1       2.492   2.585   0.826  0.00  0.00     0.000 A 
ATOM      5  C6  UNL d   1       2.204   1.270   1.192  0.00  0.00     0.000 A 
ATOM      6  C7  UNL d   1       1.001   0.658   0.799  0.00  0.00    -0.073 A 
ATOM      7  C8  UNL d   1       0.740  -0.760   1.226  0.00  0.00     0.078 C 
ENDROOT
BRANCH   1   8
ATOM      8  C1  UNL d   1      -1.270   0.828  -0.371  0.00  0.00     0.053 C 
ATOM      9  C   UNL d   1      -1.187   0.071  -1.688  0.00  0.00     0.018 C 
ENDBRANCH   1   8
TORSDOF 1
ENDMDL
