MODEL 1
REMARK minimizedAffinity -1.93961251
REMARK minimizedRMSD -1
REMARK  1 active torsions:
REMARK  status: ('A' for Active; 'I' for Inactive)
REMARK    1  A    between atoms: C1_2  and  C2_3 
ROOT
ATOM      1  C2  UNL d   1      -0.379  -0.201  -1.283  0.00  0.00    -0.076 A 
ATOM      2  C3  UNL d   1       0.321   0.474  -0.269  0.00  0.00     0.004 A 
ATOM      3  C4  UNL d   1      -0.178   0.532   1.032  0.00  0.00    -0.003 A 
ATOM      4  C5  UNL d   1      -1.386  -0.086   1.338  0.00  0.00     0.000 A 
ATOM      5  C6  UNL d   1      -2.085  -0.775   0.348  0.00  0.00     0.000 A 
ATOM      6  C7  UNL d   1      -1.588  -0.856  -0.964  0.00  0.00    -0.073 A 
ATOM      7  C8  UNL d   1      -2.387  -1.607  -1.994  0.00  0.00     0.078 C 
ENDROOT
BRANCH   1   8
ATOM      8  C1  UNL d   1       0.198  -0.206  -2.681  0.00  0.00     0.053 C 
ATOM      9  C   UNL d   1      -0.487   0.795  -3.598  0.00  0.00     0.018 C 
ENDBRANCH   1   8
TORSDOF 1
ENDMDL
