MODEL 1
REMARK minimizedAffinity -4.57409954
REMARK minimizedRMSD -1
REMARK  1 active torsions:
REMARK  status: ('A' for Active; 'I' for Inactive)
REMARK    1  A    between atoms: C1_2  and  C2_3 
ROOT
ATOM      1  C2  UNL d   1       3.539   2.811  -0.435  0.00  0.00    -0.076 A 
ATOM      2  C3  UNL d   1       2.900   1.758  -1.113  0.00  0.00     0.004 A 
ATOM      3  C4  UNL d   1       2.226   0.759  -0.413  0.00  0.00    -0.003 A 
ATOM      4  C5  UNL d   1       2.179   0.797   0.977  0.00  0.00     0.000 A 
ATOM      5  C6  UNL d   1       2.792   1.844   1.664  0.00  0.00     0.000 A 
ATOM      6  C7  UNL d   1       3.462   2.868   0.973  0.00  0.00    -0.073 A 
ATOM      7  C8  UNL d   1       4.110   3.970   1.766  0.00  0.00     0.078 C 
ENDROOT
BRANCH   1   8
ATOM      8  C1  UNL d   1       4.277   3.852  -1.246  0.00  0.00     0.053 C 
ATOM      9  C   UNL d   1       5.224   3.234  -2.263  0.00  0.00     0.018 C 
ENDBRANCH   1   8
TORSDOF 1
ENDMDL
