MODEL 1
REMARK minimizedAffinity -5.10553122
REMARK minimizedRMSD -1
REMARK  1 active torsions:
REMARK  status: ('A' for Active; 'I' for Inactive)
REMARK    1  A    between atoms: C1_2  and  C2_3 
ROOT
ATOM      1  C2  UNL d   1       0.028  -0.236   0.048  0.00  0.00    -0.076 A 
ATOM      2  C3  UNL d   1      -0.249  -0.516  -1.302  0.00  0.00     0.004 A 
ATOM      3  C4  UNL d   1      -1.561  -0.558  -1.771  0.00  0.00    -0.003 A 
ATOM      4  C5  UNL d   1      -2.617  -0.319  -0.899  0.00  0.00     0.000 A 
ATOM      5  C6  UNL d   1      -2.360  -0.021   0.439  0.00  0.00     0.000 A 
ATOM      6  C7  UNL d   1      -1.043   0.040   0.925  0.00  0.00    -0.073 A 
ATOM      7  C8  UNL d   1      -0.824   0.359   2.379  0.00  0.00     0.078 C 
ENDROOT
BRANCH   1   8
ATOM      8  C1  UNL d   1       1.469  -0.232   0.506  0.00  0.00     0.053 C 
ATOM      9  C   UNL d   1       2.149   1.109   0.277  0.00  0.00     0.018 C 
ENDBRANCH   1   8
TORSDOF 1
ENDMDL
