MODEL 1
REMARK minimizedAffinity 7.91193628
REMARK minimizedRMSD -1
REMARK  2 active torsions:
REMARK  status: ('A' for Active; 'I' for Inactive)
REMARK    1  A    between atoms: C1_2  and  C2_3 
REMARK    2  A    between atoms: C2_3  and  C3_4 
ROOT
ATOM      1  C3  UNL d   1      -1.536  -1.122  -2.835  0.00  0.00    -0.075 A 
ATOM      2  C4  UNL d   1      -2.549  -2.029  -2.491  0.00  0.00     0.002 A 
ATOM      3  C5  UNL d   1      -2.648  -3.260  -3.141  0.00  0.00     0.002 A 
ATOM      4  C6  UNL d   1      -1.746  -3.594  -4.148  0.00  0.00    -0.004 A 
ATOM      5  C7  UNL d   1      -0.746  -2.694  -4.510  0.00  0.00     0.002 A 
ATOM      6  C8  UNL d   1      -0.641  -1.464  -3.858  0.00  0.00     0.002 A 
ENDROOT
BRANCH   1   7
ATOM      7  C2  UNL d   1      -1.404   0.198  -2.114  0.00  0.00     0.056 C 
BRANCH   7   8
ATOM      8  C1  UNL d   1      -0.711   0.099  -0.751  0.00  0.00     0.007 C 
ATOM      9  C   UNL d   1       0.210   1.276  -0.459  0.00  0.00     0.009 C 
ENDBRANCH   7   8
ENDBRANCH   1   7
TORSDOF 2
ENDMDL
