MODEL 1
REMARK minimizedAffinity 3.76966023
REMARK minimizedRMSD -1
REMARK  2 active torsions:
REMARK  status: ('A' for Active; 'I' for Inactive)
REMARK    1  A    between atoms: C1_2  and  C2_3 
REMARK    2  A    between atoms: C2_3  and  C3_4 
ROOT
ATOM      1  C3  UNL d   1      -1.310  -5.995   2.788  0.00  0.00    -0.075 A 
ATOM      2  C4  UNL d   1      -1.482  -5.995   1.396  0.00  0.00     0.002 A 
ATOM      3  C5  UNL d   1      -2.762  -5.976   0.842  0.00  0.00     0.002 A 
ATOM      4  C6  UNL d   1      -3.883  -5.967   1.669  0.00  0.00    -0.004 A 
ATOM      5  C7  UNL d   1      -3.724  -5.983   3.052  0.00  0.00     0.002 A 
ATOM      6  C8  UNL d   1      -2.444  -5.998   3.610  0.00  0.00     0.002 A 
ENDROOT
BRANCH   1   7
ATOM      7  C2  UNL d   1       0.073  -5.986   3.395  0.00  0.00     0.056 C 
BRANCH   7   8
ATOM      8  C1  UNL d   1       0.082  -5.991   4.927  0.00  0.00     0.007 C 
ATOM      9  C   UNL d   1       1.397  -5.506   5.522  0.00  0.00     0.009 C 
ENDBRANCH   7   8
ENDBRANCH   1   7
TORSDOF 2
ENDMDL
