MODEL 1
REMARK minimizedAffinity 3.28587389
REMARK minimizedRMSD -1
REMARK  2 active torsions:
REMARK  status: ('A' for Active; 'I' for Inactive)
REMARK    1  A    between atoms: C1_2  and  C2_3 
REMARK    2  A    between atoms: C2_3  and  C3_4 
ROOT
ATOM      1  C3  UNL d   1       3.991   0.513  -4.120  0.00  0.00    -0.075 A 
ATOM      2  C4  UNL d   1       5.230   0.918  -3.602  0.00  0.00     0.002 A 
ATOM      3  C5  UNL d   1       6.000   1.870  -4.270  0.00  0.00     0.002 A 
ATOM      4  C6  UNL d   1       5.548   2.421  -5.467  0.00  0.00    -0.004 A 
ATOM      5  C7  UNL d   1       4.327   2.014  -6.000  0.00  0.00     0.002 A 
ATOM      6  C8  UNL d   1       3.552   1.064  -5.331  0.00  0.00     0.002 A 
ENDROOT
BRANCH   1   7
ATOM      7  C2  UNL d   1       3.139  -0.496  -3.387  0.00  0.00     0.056 C 
BRANCH   7   8
ATOM      8  C1  UNL d   1       2.568  -1.599  -4.284  0.00  0.00     0.007 C 
ATOM      9  C   UNL d   1       1.072  -1.812  -4.093  0.00  0.00     0.009 C 
ENDBRANCH   7   8
ENDBRANCH   1   7
TORSDOF 2
ENDMDL
