MODEL 1
REMARK minimizedAffinity 4.00732279
REMARK minimizedRMSD -1
REMARK  2 active torsions:
REMARK  status: ('A' for Active; 'I' for Inactive)
REMARK    1  A    between atoms: C1_2  and  C2_3 
REMARK    2  A    between atoms: C2_3  and  C3_4 
ROOT
ATOM      1  C3  UNL d   1      -1.666  -0.767   3.232  0.00  0.00    -0.075 A 
ATOM      2  C4  UNL d   1      -1.147   0.532   3.129  0.00  0.00     0.002 A 
ATOM      3  C5  UNL d   1      -0.345   0.889   2.044  0.00  0.00     0.002 A 
ATOM      4  C6  UNL d   1      -0.044  -0.047   1.058  0.00  0.00    -0.004 A 
ATOM      5  C7  UNL d   1      -0.541  -1.344   1.159  0.00  0.00     0.002 A 
ATOM      6  C8  UNL d   1      -1.347  -1.704   2.240  0.00  0.00     0.002 A 
ENDROOT
BRANCH   1   7
ATOM      7  C2  UNL d   1      -2.559  -1.152   4.387  0.00  0.00     0.056 C 
BRANCH   7   8
ATOM      8  C1  UNL d   1      -4.034  -0.789   4.184  0.00  0.00     0.007 C 
ATOM      9  C   UNL d   1      -4.893  -1.057   5.412  0.00  0.00     0.009 C 
ENDBRANCH   7   8
ENDBRANCH   1   7
TORSDOF 2
ENDMDL
