MODEL 1
REMARK minimizedAffinity 13.9443016
REMARK minimizedRMSD -1
REMARK  2 active torsions:
REMARK  status: ('A' for Active; 'I' for Inactive)
REMARK    1  A    between atoms: C1_2  and  C2_3 
REMARK    2  A    between atoms: C2_3  and  C3_4 
ROOT
ATOM      1  C3  UNL d   1      -0.078  -1.412  -1.359  0.00  0.00    -0.075 A 
ATOM      2  C4  UNL d   1      -1.142  -2.239  -1.749  0.00  0.00     0.002 A 
ATOM      3  C5  UNL d   1      -1.105  -2.912  -2.970  0.00  0.00     0.002 A 
ATOM      4  C6  UNL d   1      -0.012  -2.760  -3.820  0.00  0.00    -0.004 A 
ATOM      5  C7  UNL d   1       1.043  -1.928  -3.451  0.00  0.00     0.002 A 
ATOM      6  C8  UNL d   1       1.010  -1.256  -2.227  0.00  0.00     0.002 A 
ENDROOT
BRANCH   1   7
ATOM      7  C2  UNL d   1      -0.099  -0.703  -0.026  0.00  0.00     0.056 C 
BRANCH   7   8
ATOM      8  C1  UNL d   1      -0.049   0.825  -0.130  0.00  0.00     0.007 C 
ATOM      9  C   UNL d   1       0.819   1.472   0.941  0.00  0.00     0.009 C 
ENDBRANCH   7   8
ENDBRANCH   1   7
TORSDOF 2
ENDMDL
