MODEL 1
REMARK minimizedAffinity 9.54835415
REMARK minimizedRMSD -1
REMARK  2 active torsions:
REMARK  status: ('A' for Active; 'I' for Inactive)
REMARK    1  A    between atoms: C1_2  and  C2_3 
REMARK    2  A    between atoms: C2_3  and  C3_4 
ROOT
ATOM      1  C3  UNL d   1      -1.481  -5.802   2.764  0.00  0.00    -0.075 A 
ATOM      2  C4  UNL d   1      -0.596  -5.446   1.736  0.00  0.00     0.002 A 
ATOM      3  C5  UNL d   1      -1.059  -5.267   0.433  0.00  0.00     0.002 A 
ATOM      4  C6  UNL d   1      -2.409  -5.451   0.138  0.00  0.00    -0.004 A 
ATOM      5  C7  UNL d   1      -3.294  -5.821   1.149  0.00  0.00     0.002 A 
ATOM      6  C8  UNL d   1      -2.834  -5.996   2.455  0.00  0.00     0.002 A 
ENDROOT
BRANCH   1   7
ATOM      7  C2  UNL d   1      -0.991  -5.969   4.183  0.00  0.00     0.056 C 
BRANCH   7   8
ATOM      8  C1  UNL d   1       0.403  -5.384   4.434  0.00  0.00     0.007 C 
ATOM      9  C   UNL d   1       0.989  -5.784   5.781  0.00  0.00     0.009 C 
ENDBRANCH   7   8
ENDBRANCH   1   7
TORSDOF 2
ENDMDL
