MODEL 1
REMARK minimizedAffinity 2.77912498
REMARK minimizedRMSD -1
REMARK  2 active torsions:
REMARK  status: ('A' for Active; 'I' for Inactive)
REMARK    1  A    between atoms: C1_2  and  C2_3 
REMARK    2  A    between atoms: C2_3  and  C3_4 
ROOT
ATOM      1  C3  UNL d   1      -0.109  -5.991   1.416  0.00  0.00    -0.075 A 
ATOM      2  C4  UNL d   1      -0.751  -5.996   2.662  0.00  0.00     0.002 A 
ATOM      3  C5  UNL d   1      -0.007  -5.984   3.842  0.00  0.00     0.002 A 
ATOM      4  C6  UNL d   1       1.385  -5.978   3.791  0.00  0.00    -0.004 A 
ATOM      5  C7  UNL d   1       2.034  -5.990   2.558  0.00  0.00     0.002 A 
ATOM      6  C8  UNL d   1       1.292  -5.997   1.376  0.00  0.00     0.002 A 
ENDROOT
BRANCH   1   7
ATOM      7  C2  UNL d   1      -0.909  -5.974   0.135  0.00  0.00     0.056 C 
BRANCH   7   8
ATOM      8  C1  UNL d   1      -2.197  -5.148   0.215  0.00  0.00     0.007 C 
ATOM      9  C   UNL d   1      -3.446  -6.000   0.398  0.00  0.00     0.009 C 
ENDBRANCH   7   8
ENDBRANCH   1   7
TORSDOF 2
ENDMDL
