MODEL 1
REMARK minimizedAffinity 10.3171902
REMARK minimizedRMSD -1
REMARK  2 active torsions:
REMARK  status: ('A' for Active; 'I' for Inactive)
REMARK    1  A    between atoms: C1_2  and  C2_3 
REMARK    2  A    between atoms: C2_3  and  C3_4 
ROOT
ATOM      1  C3  UNL d   1      -0.166  -5.959   3.450  0.00  0.00    -0.075 A 
ATOM      2  C4  UNL d   1       0.775  -5.989   2.410  0.00  0.00     0.002 A 
ATOM      3  C5  UNL d   1       2.142  -5.985   2.692  0.00  0.00     0.002 A 
ATOM      4  C6  UNL d   1       2.584  -5.940   4.012  0.00  0.00    -0.004 A 
ATOM      5  C7  UNL d   1       1.658  -5.893   5.052  0.00  0.00     0.002 A 
ATOM      6  C8  UNL d   1       0.290  -5.902   4.773  0.00  0.00     0.002 A 
ENDROOT
BRANCH   1   7
ATOM      7  C2  UNL d   1      -1.646  -5.994   3.153  0.00  0.00     0.056 C 
BRANCH   7   8
ATOM      8  C1  UNL d   1      -1.982  -5.999   1.658  0.00  0.00     0.007 C 
ATOM      9  C   UNL d   1      -3.305  -5.314   1.338  0.00  0.00     0.009 C 
ENDBRANCH   7   8
ENDBRANCH   1   7
TORSDOF 2
ENDMDL
