MODEL 1
REMARK minimizedAffinity 9.5663805
REMARK minimizedRMSD -1
REMARK  2 active torsions:
REMARK  status: ('A' for Active; 'I' for Inactive)
REMARK    1  A    between atoms: C1_2  and  C2_3 
REMARK    2  A    between atoms: C2_3  and  C3_4 
ROOT
ATOM      1  C3  UNL d   1      -1.202  -5.966   2.645  0.00  0.00    -0.075 A 
ATOM      2  C4  UNL d   1      -1.388  -5.985   1.255  0.00  0.00     0.002 A 
ATOM      3  C5  UNL d   1      -2.673  -5.996   0.712  0.00  0.00     0.002 A 
ATOM      4  C6  UNL d   1      -3.786  -6.000   1.550  0.00  0.00    -0.004 A 
ATOM      5  C7  UNL d   1      -3.614  -5.998   2.932  0.00  0.00     0.002 A 
ATOM      6  C8  UNL d   1      -2.329  -5.982   3.478  0.00  0.00     0.002 A 
ENDROOT
BRANCH   1   7
ATOM      7  C2  UNL d   1       0.185  -5.923   3.239  0.00  0.00     0.056 C 
BRANCH   7   8
ATOM      8  C1  UNL d   1       0.220  -5.512   4.715  0.00  0.00     0.007 C 
ATOM      9  C   UNL d   1       1.510  -5.912   5.419  0.00  0.00     0.009 C 
ENDBRANCH   7   8
ENDBRANCH   1   7
TORSDOF 2
ENDMDL
