MODEL 1
REMARK minimizedAffinity 6.64108038
REMARK minimizedRMSD -1
REMARK  2 active torsions:
REMARK  status: ('A' for Active; 'I' for Inactive)
REMARK    1  A    between atoms: C1_2  and  C2_3 
REMARK    2  A    between atoms: C2_3  and  C3_4 
ROOT
ATOM      1  C3  UNL d   1      -1.129  -1.840   1.468  0.00  0.00    -0.075 A 
ATOM      2  C4  UNL d   1      -0.337  -1.103   0.576  0.00  0.00     0.002 A 
ATOM      3  C5  UNL d   1      -0.004   0.223   0.853  0.00  0.00     0.002 A 
ATOM      4  C6  UNL d   1      -0.466   0.831   2.018  0.00  0.00    -0.004 A 
ATOM      5  C7  UNL d   1      -1.267   0.114   2.904  0.00  0.00     0.002 A 
ATOM      6  C8  UNL d   1      -1.598  -1.215   2.631  0.00  0.00     0.002 A 
ENDROOT
BRANCH   1   7
ATOM      7  C2  UNL d   1      -1.468  -3.285   1.189  0.00  0.00     0.056 C 
BRANCH   7   8
ATOM      8  C1  UNL d   1      -0.583  -4.289   1.935  0.00  0.00     0.007 C 
ATOM      9  C   UNL d   1      -0.840  -5.734   1.528  0.00  0.00     0.009 C 
ENDBRANCH   7   8
ENDBRANCH   1   7
TORSDOF 2
ENDMDL
