MODEL 1
REMARK minimizedAffinity 8.99295235
REMARK minimizedRMSD -1
REMARK  2 active torsions:
REMARK  status: ('A' for Active; 'I' for Inactive)
REMARK    1  A    between atoms: C1_2  and  C2_3 
REMARK    2  A    between atoms: C2_3  and  C3_4 
ROOT
ATOM      1  C3  UNL d   1       1.457  -1.889  -3.402  0.00  0.00    -0.075 A 
ATOM      2  C4  UNL d   1       0.306  -1.088  -3.367  0.00  0.00     0.002 A 
ATOM      3  C5  UNL d   1      -0.890  -1.542  -3.923  0.00  0.00     0.002 A 
ATOM      4  C6  UNL d   1      -0.948  -2.795  -4.529  0.00  0.00    -0.004 A 
ATOM      5  C7  UNL d   1       0.193  -3.592  -4.585  0.00  0.00     0.002 A 
ATOM      6  C8  UNL d   1       1.390  -3.142  -4.026  0.00  0.00     0.002 A 
ENDROOT
BRANCH   1   7
ATOM      7  C2  UNL d   1       2.747  -1.415  -2.776  0.00  0.00     0.056 C 
BRANCH   7   8
ATOM      8  C1  UNL d   1       3.123   0.026  -3.136  0.00  0.00     0.007 C 
ATOM      9  C   UNL d   1       4.588   0.187  -3.519  0.00  0.00     0.009 C 
ENDBRANCH   7   8
ENDBRANCH   1   7
TORSDOF 2
ENDMDL
