MODEL 1
REMARK minimizedAffinity 7.64667034
REMARK minimizedRMSD -1
REMARK  2 active torsions:
REMARK  status: ('A' for Active; 'I' for Inactive)
REMARK    1  A    between atoms: C1_2  and  C2_3 
REMARK    2  A    between atoms: C2_3  and  C3_4 
ROOT
ATOM      1  C3  UNL d   1       0.090  -1.792  -4.036  0.00  0.00    -0.075 A 
ATOM      2  C4  UNL d   1      -0.598  -0.817  -3.298  0.00  0.00     0.002 A 
ATOM      3  C5  UNL d   1      -1.954  -0.973  -3.012  0.00  0.00     0.002 A 
ATOM      4  C6  UNL d   1      -2.641  -2.096  -3.466  0.00  0.00    -0.004 A 
ATOM      5  C7  UNL d   1      -1.972  -3.063  -4.214  0.00  0.00     0.002 A 
ATOM      6  C8  UNL d   1      -0.614  -2.912  -4.498  0.00  0.00     0.002 A 
ENDROOT
BRANCH   1   7
ATOM      7  C2  UNL d   1       1.565  -1.645  -4.324  0.00  0.00     0.056 C 
BRANCH   7   8
ATOM      8  C1  UNL d   1       2.365  -1.016  -3.178  0.00  0.00     0.007 C 
ATOM      9  C   UNL d   1       3.617  -0.288  -3.648  0.00  0.00     0.009 C 
ENDBRANCH   7   8
ENDBRANCH   1   7
TORSDOF 2
ENDMDL
