MODEL 1
REMARK minimizedAffinity 13.9346771
REMARK minimizedRMSD -1
REMARK  2 active torsions:
REMARK  status: ('A' for Active; 'I' for Inactive)
REMARK    1  A    between atoms: C1_2  and  C2_3 
REMARK    2  A    between atoms: C2_3  and  C3_4 
ROOT
ATOM      1  C3  UNL d   1      -0.828  -5.951   2.195  0.00  0.00    -0.075 A 
ATOM      2  C4  UNL d   1      -1.264  -5.991   3.527  0.00  0.00     0.002 A 
ATOM      3  C5  UNL d   1      -0.345  -5.927   4.575  0.00  0.00     0.002 A 
ATOM      4  C6  UNL d   1       1.019  -5.834   4.305  0.00  0.00    -0.004 A 
ATOM      5  C7  UNL d   1       1.464  -5.811   2.985  0.00  0.00     0.002 A 
ATOM      6  C8  UNL d   1       0.546  -5.870   1.935  0.00  0.00     0.002 A 
ENDROOT
BRANCH   1   7
ATOM      7  C2  UNL d   1      -1.820  -5.990   1.057  0.00  0.00     0.056 C 
BRANCH   7   8
ATOM      8  C1  UNL d   1      -3.109  -5.207   1.326  0.00  0.00     0.007 C 
ATOM      9  C   UNL d   1      -4.135  -5.998   2.126  0.00  0.00     0.009 C 
ENDBRANCH   7   8
ENDBRANCH   1   7
TORSDOF 2
ENDMDL
