MODEL 1
REMARK minimizedAffinity 6.30213928
REMARK minimizedRMSD -1
REMARK  2 active torsions:
REMARK  status: ('A' for Active; 'I' for Inactive)
REMARK    1  A    between atoms: C1_2  and  C2_3 
REMARK    2  A    between atoms: C2_3  and  C3_4 
ROOT
ATOM      1  C3  UNL d   1      -0.703  -2.185   2.041  0.00  0.00    -0.075 A 
ATOM      2  C4  UNL d   1       0.102  -1.639   1.031  0.00  0.00     0.002 A 
ATOM      3  C5  UNL d   1       0.471  -0.294   1.069  0.00  0.00     0.002 A 
ATOM      4  C6  UNL d   1       0.033   0.522   2.109  0.00  0.00    -0.004 A 
ATOM      5  C7  UNL d   1      -0.781  -0.005   3.109  0.00  0.00     0.002 A 
ATOM      6  C8  UNL d   1      -1.149  -1.352   3.076  0.00  0.00     0.002 A 
ENDROOT
BRANCH   1   7
ATOM      7  C2  UNL d   1      -1.082  -3.647   2.021  0.00  0.00     0.056 C 
BRANCH   7   8
ATOM      8  C1  UNL d   1      -0.357  -4.493   3.072  0.00  0.00     0.007 C 
ATOM      9  C   UNL d   1      -0.715  -5.972   3.004  0.00  0.00     0.009 C 
ENDBRANCH   7   8
ENDBRANCH   1   7
TORSDOF 2
ENDMDL
