MODEL 1
REMARK minimizedAffinity 7.43384457
REMARK minimizedRMSD -1
REMARK  2 active torsions:
REMARK  status: ('A' for Active; 'I' for Inactive)
REMARK    1  A    between atoms: C1_2  and  C2_3 
REMARK    2  A    between atoms: C2_3  and  C3_4 
ROOT
ATOM      1  C3  UNL d   1       3.369   1.605   1.378  0.00  0.00    -0.075 A 
ATOM      2  C4  UNL d   1       3.296   2.772   0.603  0.00  0.00     0.002 A 
ATOM      3  C5  UNL d   1       4.368   3.664   0.563  0.00  0.00     0.002 A 
ATOM      4  C6  UNL d   1       5.521   3.406   1.302  0.00  0.00    -0.004 A 
ATOM      5  C7  UNL d   1       5.598   2.258   2.088  0.00  0.00     0.002 A 
ATOM      6  C8  UNL d   1       4.528   1.362   2.127  0.00  0.00     0.002 A 
ENDROOT
BRANCH   1   7
ATOM      7  C2  UNL d   1       2.224   0.621   1.403  0.00  0.00     0.056 C 
BRANCH   7   8
ATOM      8  C1  UNL d   1       0.882   1.216   0.963  0.00  0.00     0.007 C 
ATOM      9  C   UNL d   1      -0.190   1.142   2.042  0.00  0.00     0.009 C 
ENDBRANCH   7   8
ENDBRANCH   1   7
TORSDOF 2
ENDMDL
