MODEL 1
REMARK minimizedAffinity 9.84340572
REMARK minimizedRMSD -1
REMARK  2 active torsions:
REMARK  status: ('A' for Active; 'I' for Inactive)
REMARK    1  A    between atoms: C1_2  and  C2_3 
REMARK    2  A    between atoms: C2_3  and  C3_4 
ROOT
ATOM      1  C3  UNL d   1       0.572  -1.754  -2.976  0.00  0.00    -0.075 A 
ATOM      2  C4  UNL d   1      -0.654  -1.477  -2.353  0.00  0.00     0.002 A 
ATOM      3  C5  UNL d   1      -1.818  -2.129  -2.758  0.00  0.00     0.002 A 
ATOM      4  C6  UNL d   1      -1.775  -3.058  -3.797  0.00  0.00    -0.004 A 
ATOM      5  C7  UNL d   1      -0.566  -3.329  -4.434  0.00  0.00     0.002 A 
ATOM      6  C8  UNL d   1       0.602  -2.681  -4.027  0.00  0.00     0.002 A 
ENDROOT
BRANCH   1   7
ATOM      7  C2  UNL d   1       1.841  -1.074  -2.522  0.00  0.00     0.056 C 
BRANCH   7   8
ATOM      8  C1  UNL d   1       2.946  -1.044  -3.582  0.00  0.00     0.007 C 
ATOM      9  C   UNL d   1       3.718   0.269  -3.608  0.00  0.00     0.009 C 
ENDBRANCH   7   8
ENDBRANCH   1   7
TORSDOF 2
ENDMDL
