MODEL 1
REMARK minimizedAffinity -0.915332079
REMARK minimizedRMSD -1
REMARK  0 active torsions:
REMARK  status: ('A' for Active; 'I' for Inactive)
ROOT
ATOM      1  C   UNL d   1      -5.939  -5.530  -5.022  0.00  0.00     0.077 C 
ATOM      2  C1  UNL d   1      -4.443  -5.571  -4.912  0.00  0.00    -0.074 A 
ATOM      3  C2  UNL d   1      -3.654  -5.974  -5.994  0.00  0.00    -0.005 A 
ATOM      4  C3  UNL d   1      -2.264  -5.998  -5.879  0.00  0.00     0.006 A 
ATOM      5  C4  UNL d   1      -1.650  -5.620  -4.684  0.00  0.00    -0.005 A 
ATOM      6  C5  UNL d   1      -2.424  -5.214  -3.592  0.00  0.00    -0.074 A 
ATOM      7  C6  UNL d   1      -1.780  -4.795  -2.304  0.00  0.00     0.077 C 
ATOM      8  C7  UNL d   1      -3.819  -5.186  -3.717  0.00  0.00    -0.001 A 
ENDROOT
TORSDOF 0
ENDMDL
