MODEL 1
REMARK minimizedAffinity 7.01680088
REMARK minimizedRMSD -1
REMARK  0 active torsions:
REMARK  status: ('A' for Active; 'I' for Inactive)
ROOT
ATOM      1  C   UNL d   1       1.500   3.692  -2.085  0.00  0.00     0.077 C 
ATOM      2  C1  UNL d   1       1.056   4.125  -3.450  0.00  0.00    -0.074 A 
ATOM      3  C2  UNL d   1       1.970   4.232  -4.504  0.00  0.00    -0.005 A 
ATOM      4  C3  UNL d   1       1.540   4.628  -5.770  0.00  0.00     0.006 A 
ATOM      5  C4  UNL d   1       0.194   4.920  -5.996  0.00  0.00    -0.005 A 
ATOM      6  C5  UNL d   1      -0.734   4.818  -4.956  0.00  0.00    -0.074 A 
ATOM      7  C6  UNL d   1      -2.186   5.118  -5.184  0.00  0.00     0.077 C 
ATOM      8  C7  UNL d   1      -0.296   4.413  -3.688  0.00  0.00    -0.001 A 
ENDROOT
TORSDOF 0
ENDMDL
