MODEL 1
REMARK minimizedAffinity 5.44828129
REMARK minimizedRMSD -1
REMARK  0 active torsions:
REMARK  status: ('A' for Active; 'I' for Inactive)
ROOT
ATOM      1  C   UNL d   1       1.078   3.040  -1.957  0.00  0.00     0.077 C 
ATOM      2  C1  UNL d   1       1.047   3.908  -3.180  0.00  0.00    -0.074 A 
ATOM      3  C2  UNL d   1       2.225   4.231  -3.862  0.00  0.00    -0.005 A 
ATOM      4  C3  UNL d   1       2.181   5.031  -5.003  0.00  0.00     0.006 A 
ATOM      5  C4  UNL d   1       0.960   5.515  -5.474  0.00  0.00    -0.005 A 
ATOM      6  C5  UNL d   1      -0.228   5.202  -4.807  0.00  0.00    -0.074 A 
ATOM      7  C6  UNL d   1      -1.550   5.706  -5.305  0.00  0.00     0.077 C 
ATOM      8  C7  UNL d   1      -0.176   4.392  -3.664  0.00  0.00    -0.001 A 
ENDROOT
TORSDOF 0
ENDMDL
