MODEL 1
REMARK minimizedAffinity 6.91699934
REMARK minimizedRMSD -1
REMARK  0 active torsions:
REMARK  status: ('A' for Active; 'I' for Inactive)
ROOT
ATOM      1  C   UNL d   1      -1.313   4.843  -5.448  0.00  0.00     0.077 C 
ATOM      2  C1  UNL d   1      -0.093   4.476  -4.656  0.00  0.00    -0.074 A 
ATOM      3  C2  UNL d   1       1.106   5.179  -4.816  0.00  0.00    -0.005 A 
ATOM      4  C3  UNL d   1       2.229   4.832  -4.066  0.00  0.00     0.006 A 
ATOM      5  C4  UNL d   1       2.166   3.782  -3.149  0.00  0.00    -0.005 A 
ATOM      6  C5  UNL d   1       0.976   3.069  -2.975  0.00  0.00    -0.074 A 
ATOM      7  C6  UNL d   1       0.888   1.943  -1.987  0.00  0.00     0.077 C 
ATOM      8  C7  UNL d   1      -0.151   3.427  -3.728  0.00  0.00    -0.001 A 
ENDROOT
TORSDOF 0
ENDMDL
