MODEL 1
REMARK minimizedAffinity -0.602627158
REMARK minimizedRMSD -1
REMARK  0 active torsions:
REMARK  status: ('A' for Active; 'I' for Inactive)
ROOT
ATOM      1  C   UNL d   1      -5.998   0.200  -5.557  0.00  0.00     0.077 C 
ATOM      2  C1  UNL d   1      -5.986   0.747  -4.160  0.00  0.00    -0.074 A 
ATOM      3  C2  UNL d   1      -5.999   2.127  -3.929  0.00  0.00    -0.005 A 
ATOM      4  C3  UNL d   1      -5.998   2.621  -2.625  0.00  0.00     0.006 A 
ATOM      5  C4  UNL d   1      -5.983   1.742  -1.540  0.00  0.00    -0.005 A 
ATOM      6  C5  UNL d   1      -5.970   0.360  -1.752  0.00  0.00    -0.074 A 
ATOM      7  C6  UNL d   1      -5.963  -0.598  -0.598  0.00  0.00     0.077 C 
ATOM      8  C7  UNL d   1      -5.978  -0.129  -3.066  0.00  0.00    -0.001 A 
ENDROOT
TORSDOF 0
ENDMDL
