MODEL 1
REMARK minimizedAffinity 4.45612335
REMARK minimizedRMSD -1
REMARK  0 active torsions:
REMARK  status: ('A' for Active; 'I' for Inactive)
ROOT
ATOM      1  C   UNL d   1       1.150   2.112  -2.621  0.00  0.00     0.077 C 
ATOM      2  C1  UNL d   1       1.117   3.184  -3.670  0.00  0.00    -0.074 A 
ATOM      3  C2  UNL d   1       2.276   3.883  -4.019  0.00  0.00    -0.005 A 
ATOM      4  C3  UNL d   1       2.232   4.871  -5.003  0.00  0.00     0.006 A 
ATOM      5  C4  UNL d   1       1.030   5.169  -5.646  0.00  0.00    -0.005 A 
ATOM      6  C5  UNL d   1      -0.140   4.480  -5.310  0.00  0.00    -0.074 A 
ATOM      7  C6  UNL d   1      -1.438   4.781  -5.999  0.00  0.00     0.077 C 
ATOM      8  C7  UNL d   1      -0.086   3.483  -4.326  0.00  0.00    -0.001 A 
ENDROOT
TORSDOF 0
ENDMDL
