MODEL 1
REMARK minimizedAffinity 7.24602127
REMARK minimizedRMSD -1
REMARK  0 active torsions:
REMARK  status: ('A' for Active; 'I' for Inactive)
ROOT
ATOM      1  C   UNL d   1      -1.875   5.646  -5.781  0.00  0.00     0.077 C 
ATOM      2  C1  UNL d   1      -0.520   5.219  -5.300  0.00  0.00    -0.074 A 
ATOM      3  C2  UNL d   1       0.637   5.578  -5.999  0.00  0.00    -0.005 A 
ATOM      4  C3  UNL d   1       1.891   5.182  -5.534  0.00  0.00     0.006 A 
ATOM      5  C4  UNL d   1       2.001   4.424  -4.368  0.00  0.00    -0.005 A 
ATOM      6  C5  UNL d   1       0.855   4.057  -3.655  0.00  0.00    -0.074 A 
ATOM      7  C6  UNL d   1       0.956   3.251  -2.393  0.00  0.00     0.077 C 
ATOM      8  C7  UNL d   1      -0.401   4.464  -4.124  0.00  0.00    -0.001 A 
ENDROOT
TORSDOF 0
ENDMDL
