MODEL 1
REMARK minimizedAffinity 1.77886832
REMARK minimizedRMSD -1
REMARK  0 active torsions:
REMARK  status: ('A' for Active; 'I' for Inactive)
ROOT
ATOM      1  C   UNL d   1       1.029   2.255  -1.795  0.00  0.00     0.077 C 
ATOM      2  C1  UNL d   1       0.838   3.317  -2.836  0.00  0.00    -0.074 A 
ATOM      3  C2  UNL d   1       1.855   4.234  -3.121  0.00  0.00    -0.005 A 
ATOM      4  C3  UNL d   1       1.667   5.211  -4.099  0.00  0.00     0.006 A 
ATOM      5  C4  UNL d   1       0.462   5.280  -4.800  0.00  0.00    -0.005 A 
ATOM      6  C5  UNL d   1      -0.565   4.371  -4.529  0.00  0.00    -0.074 A 
ATOM      7  C6  UNL d   1      -1.862   4.426  -5.281  0.00  0.00     0.077 C 
ATOM      8  C7  UNL d   1      -0.366   3.388  -3.550  0.00  0.00    -0.001 A 
ENDROOT
TORSDOF 0
ENDMDL
