MODEL 1
REMARK minimizedAffinity 4.37433004
REMARK minimizedRMSD -1
REMARK  0 active torsions:
REMARK  status: ('A' for Active; 'I' for Inactive)
ROOT
ATOM      1  C   UNL d   1       1.404   4.130  -3.718  0.00  0.00     0.077 C 
ATOM      2  C1  UNL d   1       1.426   3.229  -2.520  0.00  0.00    -0.074 A 
ATOM      3  C2  UNL d   1       1.398   1.838  -2.666  0.00  0.00    -0.005 A 
ATOM      4  C3  UNL d   1       1.428   1.012  -1.543  0.00  0.00     0.006 A 
ATOM      5  C4  UNL d   1       1.488   1.567  -0.264  0.00  0.00    -0.005 A 
ATOM      6  C5  UNL d   1       1.518   2.955  -0.098  0.00  0.00    -0.074 A 
ATOM      7  C6  UNL d   1       1.591   3.568   1.269  0.00  0.00     0.077 C 
ATOM      8  C7  UNL d   1       1.494   3.779  -1.232  0.00  0.00    -0.001 A 
ENDROOT
TORSDOF 0
ENDMDL
