MODEL 1
REMARK minimizedAffinity 8.53369808
REMARK minimizedRMSD -1
REMARK  0 active torsions:
REMARK  status: ('A' for Active; 'I' for Inactive)
ROOT
ATOM      1  C   UNL d   1      -5.797  -1.245  -3.378  0.00  0.00     0.077 C 
ATOM      2  C1  UNL d   1      -5.825   0.135  -3.963  0.00  0.00    -0.074 A 
ATOM      3  C2  UNL d   1      -5.811   0.329  -5.348  0.00  0.00    -0.005 A 
ATOM      4  C3  UNL d   1      -5.848   1.619  -5.878  0.00  0.00     0.006 A 
ATOM      5  C4  UNL d   1      -5.899   2.726  -5.030  0.00  0.00    -0.005 A 
ATOM      6  C5  UNL d   1      -5.914   2.551  -3.643  0.00  0.00    -0.074 A 
ATOM      7  C6  UNL d   1      -5.979   3.730  -2.717  0.00  0.00     0.077 C 
ATOM      8  C7  UNL d   1      -5.885   1.252  -3.118  0.00  0.00    -0.001 A 
ENDROOT
TORSDOF 0
ENDMDL
