MODEL 1
REMARK minimizedAffinity 4.23840809
REMARK minimizedRMSD -1
REMARK  0 active torsions:
REMARK  status: ('A' for Active; 'I' for Inactive)
ROOT
ATOM      1  C   UNL d   1      -1.732   6.000  -5.198  0.00  0.00     0.077 C 
ATOM      2  C1  UNL d   1      -0.387   5.363  -5.010  0.00  0.00    -0.074 A 
ATOM      3  C2  UNL d   1       0.597   5.456  -5.999  0.00  0.00    -0.005 A 
ATOM      4  C3  UNL d   1       1.846   4.867  -5.806  0.00  0.00     0.006 A 
ATOM      5  C4  UNL d   1       2.124   4.179  -4.623  0.00  0.00    -0.005 A 
ATOM      6  C5  UNL d   1       1.152   4.077  -3.623  0.00  0.00    -0.074 A 
ATOM      7  C6  UNL d   1       1.437   3.350  -2.342  0.00  0.00     0.077 C 
ATOM      8  C7  UNL d   1      -0.098   4.677  -3.821  0.00  0.00    -0.001 A 
ENDROOT
TORSDOF 0
ENDMDL
