MODEL 1
REMARK minimizedAffinity 5.58856535
REMARK minimizedRMSD -1
REMARK  0 active torsions:
REMARK  status: ('A' for Active; 'I' for Inactive)
ROOT
ATOM      1  C   UNL d   1      -4.884  -5.662   5.998  0.00  0.00     0.077 C 
ATOM      2  C1  UNL d   1      -4.972  -5.184   4.579  0.00  0.00    -0.074 A 
ATOM      3  C2  UNL d   1      -5.924  -5.709   3.700  0.00  0.00    -0.005 A 
ATOM      4  C3  UNL d   1      -6.000  -5.247   2.387  0.00  0.00     0.006 A 
ATOM      5  C4  UNL d   1      -5.125  -4.257   1.939  0.00  0.00    -0.005 A 
ATOM      6  C5  UNL d   1      -4.166  -3.719   2.803  0.00  0.00    -0.074 A 
ATOM      7  C6  UNL d   1      -3.225  -2.647   2.340  0.00  0.00     0.077 C 
ATOM      8  C7  UNL d   1      -4.101  -4.183   4.124  0.00  0.00    -0.001 A 
ENDROOT
TORSDOF 0
ENDMDL
