MODEL 1
REMARK minimizedAffinity 3.32846999
REMARK minimizedRMSD -1
REMARK  0 active torsions:
REMARK  status: ('A' for Active; 'I' for Inactive)
ROOT
ATOM      1  C   UNL d   1       1.146   3.078  -2.606  0.00  0.00     0.077 C 
ATOM      2  C1  UNL d   1       0.965   3.984  -3.788  0.00  0.00    -0.074 A 
ATOM      3  C2  UNL d   1       2.037   4.282  -4.635  0.00  0.00    -0.005 A 
ATOM      4  C3  UNL d   1       1.852   5.118  -5.736  0.00  0.00     0.006 A 
ATOM      5  C4  UNL d   1       0.595   5.665  -5.999  0.00  0.00    -0.005 A 
ATOM      6  C5  UNL d   1      -0.488   5.378  -5.163  0.00  0.00    -0.074 A 
ATOM      7  C6  UNL d   1      -1.848   5.949  -5.438  0.00  0.00     0.077 C 
ATOM      8  C7  UNL d   1      -0.296   4.531  -4.063  0.00  0.00    -0.001 A 
ENDROOT
TORSDOF 0
ENDMDL
