MODEL 1
REMARK minimizedAffinity 2.11378694
REMARK minimizedRMSD -1
REMARK  0 active torsions:
REMARK  status: ('A' for Active; 'I' for Inactive)
ROOT
ATOM      1  C   UNL d   1      -1.059   5.100  -5.799  0.00  0.00     0.077 C 
ATOM      2  C1  UNL d   1       0.122   4.644  -4.994  0.00  0.00    -0.074 A 
ATOM      3  C2  UNL d   1       1.369   5.261  -5.135  0.00  0.00    -0.005 A 
ATOM      4  C3  UNL d   1       2.456   4.833  -4.372  0.00  0.00     0.006 A 
ATOM      5  C4  UNL d   1       2.307   3.785  -3.463  0.00  0.00    -0.005 A 
ATOM      6  C5  UNL d   1       1.067   3.157  -3.307  0.00  0.00    -0.074 A 
ATOM      7  C6  UNL d   1       0.887   2.036  -2.327  0.00  0.00     0.077 C 
ATOM      8  C7  UNL d   1      -0.022   3.598  -4.072  0.00  0.00    -0.001 A 
ENDROOT
TORSDOF 0
ENDMDL
