MODEL 1
REMARK minimizedAffinity 3.51039958
REMARK minimizedRMSD -1
REMARK  0 active torsions:
REMARK  status: ('A' for Active; 'I' for Inactive)
ROOT
ATOM      1  C   UNL d   1       0.969   2.351  -2.154  0.00  0.00     0.077 C 
ATOM      2  C1  UNL d   1       1.053   3.590  -2.995  0.00  0.00    -0.074 A 
ATOM      3  C2  UNL d   1       2.146   4.457  -2.892  0.00  0.00    -0.005 A 
ATOM      4  C3  UNL d   1       2.214   5.600  -3.687  0.00  0.00     0.006 A 
ATOM      5  C4  UNL d   1       1.192   5.889  -4.592  0.00  0.00    -0.005 A 
ATOM      6  C5  UNL d   1       0.092   5.034  -4.710  0.00  0.00    -0.074 A 
ATOM      7  C6  UNL d   1      -1.011   5.324  -5.684  0.00  0.00     0.077 C 
ATOM      8  C7  UNL d   1       0.034   3.883  -3.912  0.00  0.00    -0.001 A 
ENDROOT
TORSDOF 0
ENDMDL
