MODEL 1
REMARK minimizedAffinity 11.3358927
REMARK minimizedRMSD -1
REMARK  0 active torsions:
REMARK  status: ('A' for Active; 'I' for Inactive)
ROOT
ATOM      1  C   UNL d   1       1.485   3.907   1.513  0.00  0.00     0.077 C 
ATOM      2  C1  UNL d   1       1.606   3.246   0.172  0.00  0.00    -0.074 A 
ATOM      3  C2  UNL d   1       1.797   1.864   0.068  0.00  0.00    -0.005 A 
ATOM      4  C3  UNL d   1       1.899   1.261  -1.186  0.00  0.00     0.006 A 
ATOM      5  C4  UNL d   1       1.812   2.033  -2.346  0.00  0.00    -0.005 A 
ATOM      6  C5  UNL d   1       1.620   3.415  -2.261  0.00  0.00    -0.074 A 
ATOM      7  C6  UNL d   1       1.514   4.258  -3.497  0.00  0.00     0.077 C 
ATOM      8  C7  UNL d   1       1.512   4.013  -0.997  0.00  0.00    -0.001 A 
ENDROOT
TORSDOF 0
ENDMDL
