MODEL 1
REMARK minimizedAffinity 7.5895896
REMARK minimizedRMSD -1
REMARK  0 active torsions:
REMARK  status: ('A' for Active; 'I' for Inactive)
ROOT
ATOM      1  C   UNL d   1       0.220   1.144  -1.586  0.00  0.00     0.077 C 
ATOM      2  C1  UNL d   1       0.606   2.374  -2.353  0.00  0.00    -0.074 A 
ATOM      3  C2  UNL d   1       1.918   2.857  -2.322  0.00  0.00    -0.005 A 
ATOM      4  C3  UNL d   1       2.265   3.996  -3.049  0.00  0.00     0.006 A 
ATOM      5  C4  UNL d   1       1.305   4.662  -3.811  0.00  0.00    -0.005 A 
ATOM      6  C5  UNL d   1      -0.012   4.193  -3.855  0.00  0.00    -0.074 A 
ATOM      7  C6  UNL d   1      -1.053   4.892  -4.677  0.00  0.00     0.077 C 
ATOM      8  C7  UNL d   1      -0.351   3.044  -3.128  0.00  0.00    -0.001 A 
ENDROOT
TORSDOF 0
ENDMDL
