MODEL 1
REMARK minimizedAffinity 8.07215595
REMARK minimizedRMSD -1
REMARK  0 active torsions:
REMARK  status: ('A' for Active; 'I' for Inactive)
ROOT
ATOM      1  C   UNL d   1       1.915  -2.771   4.071  0.00  0.00     0.077 C 
ATOM      2  C1  UNL d   1       2.581  -1.744   3.204  0.00  0.00    -0.074 A 
ATOM      3  C2  UNL d   1       3.942  -1.836   2.895  0.00  0.00    -0.005 A 
ATOM      4  C3  UNL d   1       4.544  -0.878   2.080  0.00  0.00     0.006 A 
ATOM      5  C4  UNL d   1       3.794   0.180   1.567  0.00  0.00    -0.005 A 
ATOM      6  C5  UNL d   1       2.432   0.289   1.864  0.00  0.00    -0.074 A 
ATOM      7  C6  UNL d   1       1.608   1.414   1.313  0.00  0.00     0.077 C 
ATOM      8  C7  UNL d   1       1.832  -0.682   2.678  0.00  0.00    -0.001 A 
ENDROOT
TORSDOF 0
ENDMDL
