MODEL 1
REMARK minimizedAffinity -4.79820204
REMARK minimizedRMSD -1
REMARK  1 active torsions:
REMARK  status: ('A' for Active; 'I' for Inactive)
REMARK    1  A    between atoms: C1_2  and  C2_3 
ROOT
ATOM      1  C2  UNL d   1      -0.018  -1.423  -0.061  0.00  0.00    -0.077 A 
ATOM      2  C3  UNL d   1       0.297  -1.343  -1.425  0.00  0.00     0.002 A 
ATOM      3  C4  UNL d   1       0.304  -2.492  -2.218  0.00  0.00     0.002 A 
ATOM      4  C5  UNL d   1      -0.008  -3.729  -1.657  0.00  0.00    -0.004 A 
ATOM      5  C6  UNL d   1      -0.320  -3.820  -0.301  0.00  0.00     0.002 A 
ATOM      6  C7  UNL d   1      -0.326  -2.672   0.493  0.00  0.00     0.002 A 
ENDROOT
BRANCH   1   7
ATOM      7  C1  UNL d   1      -0.074  -0.178   0.784  0.00  0.00     0.055 C 
ATOM      8  C   UNL d   1      -0.160   1.073  -0.078  0.00  0.00     0.019 C 
ENDBRANCH   1   7
TORSDOF 1
ENDMDL
