MODEL 1
REMARK minimizedAffinity -3.98835111
REMARK minimizedRMSD -1
REMARK  1 active torsions:
REMARK  status: ('A' for Active; 'I' for Inactive)
REMARK    1  A    between atoms: C1_2  and  C2_3 
ROOT
ATOM      1  C2  UNL d   1       0.235   1.492  -0.392  0.00  0.00    -0.077 A 
ATOM      2  C3  UNL d   1       0.580   0.434   0.461  0.00  0.00     0.002 A 
ATOM      3  C4  UNL d   1       0.488  -0.888   0.021  0.00  0.00     0.002 A 
ATOM      4  C5  UNL d   1       0.054  -1.164  -1.274  0.00  0.00    -0.004 A 
ATOM      5  C6  UNL d   1      -0.293  -0.119  -2.130  0.00  0.00     0.002 A 
ATOM      6  C7  UNL d   1      -0.202   1.202  -1.691  0.00  0.00     0.002 A 
ENDROOT
BRANCH   1   7
ATOM      7  C1  UNL d   1       0.382   2.920   0.064  0.00  0.00     0.055 C 
ATOM      8  C   UNL d   1       1.834   3.259   0.363  0.00  0.00     0.019 C 
ENDBRANCH   1   7
TORSDOF 1
ENDMDL
