MODEL 1
REMARK minimizedAffinity -3.43172717
REMARK minimizedRMSD -1
REMARK  1 active torsions:
REMARK  status: ('A' for Active; 'I' for Inactive)
REMARK    1  A    between atoms: C1_2  and  C2_3 
ROOT
ATOM      1  C2  UNL d   1      -0.254   0.164  -0.031  0.00  0.00    -0.077 A 
ATOM      2  C3  UNL d   1       0.120  -1.068  -0.583  0.00  0.00     0.002 A 
ATOM      3  C4  UNL d   1      -0.324  -2.262  -0.012  0.00  0.00     0.002 A 
ATOM      4  C5  UNL d   1      -1.146  -2.235   1.112  0.00  0.00    -0.004 A 
ATOM      5  C6  UNL d   1      -1.522  -1.014   1.671  0.00  0.00     0.002 A 
ATOM      6  C7  UNL d   1      -1.079   0.180   1.101  0.00  0.00     0.002 A 
ENDROOT
BRANCH   1   7
ATOM      7  C1  UNL d   1       0.183   1.454  -0.675  0.00  0.00     0.055 C 
ATOM      8  C   UNL d   1       1.340   2.088   0.084  0.00  0.00     0.019 C 
ENDBRANCH   1   7
TORSDOF 1
ENDMDL
