MODEL 1
REMARK minimizedAffinity -3.16557455
REMARK minimizedRMSD -1
REMARK  1 active torsions:
REMARK  status: ('A' for Active; 'I' for Inactive)
REMARK    1  A    between atoms: C1_2  and  C2_3 
ROOT
ATOM      1  C2  UNL d   1      -0.720  -1.457   0.394  0.00  0.00    -0.077 A 
ATOM      2  C3  UNL d   1      -1.191  -0.284   1.001  0.00  0.00     0.002 A 
ATOM      3  C4  UNL d   1      -0.906   0.964   0.444  0.00  0.00     0.002 A 
ATOM      4  C5  UNL d   1      -0.153   1.051  -0.725  0.00  0.00    -0.004 A 
ATOM      5  C6  UNL d   1       0.322  -0.109  -1.336  0.00  0.00     0.002 A 
ATOM      6  C7  UNL d   1       0.039  -1.358  -0.779  0.00  0.00     0.002 A 
ENDROOT
BRANCH   1   7
ATOM      7  C1  UNL d   1      -1.069  -2.806   0.966  0.00  0.00     0.055 C 
ATOM      8  C   UNL d   1      -0.315  -3.920   0.254  0.00  0.00     0.019 C 
ENDBRANCH   1   7
TORSDOF 1
ENDMDL
