MODEL 1
REMARK minimizedAffinity -4.82828331
REMARK minimizedRMSD -1
REMARK  1 active torsions:
REMARK  status: ('A' for Active; 'I' for Inactive)
REMARK    1  A    between atoms: C1_2  and  C2_3 
ROOT
ATOM      1  C2  UNL d   1      -0.108   0.170  -0.355  0.00  0.00    -0.077 A 
ATOM      2  C3  UNL d   1       0.489  -0.993  -0.862  0.00  0.00     0.002 A 
ATOM      3  C4  UNL d   1       0.208  -2.237  -0.294  0.00  0.00     0.002 A 
ATOM      4  C5  UNL d   1      -0.674  -2.331   0.780  0.00  0.00    -0.004 A 
ATOM      5  C6  UNL d   1      -1.271  -1.180   1.294  0.00  0.00     0.002 A 
ATOM      6  C7  UNL d   1      -0.991   0.064   0.728  0.00  0.00     0.002 A 
ENDROOT
BRANCH   1   7
ATOM      7  C1  UNL d   1       0.156   1.506  -0.998  0.00  0.00     0.055 C 
ATOM      8  C   UNL d   1       0.404   2.584   0.048  0.00  0.00     0.019 C 
ENDBRANCH   1   7
TORSDOF 1
ENDMDL
