MODEL 1
REMARK minimizedAffinity -4.99121189
REMARK minimizedRMSD -1
REMARK  1 active torsions:
REMARK  status: ('A' for Active; 'I' for Inactive)
REMARK    1  A    between atoms: C1_2  and  C2_3 
ROOT
ATOM      1  C2  UNL d   1       1.008   1.300   0.741  0.00  0.00    -0.077 A 
ATOM      2  C3  UNL d   1       0.392   2.290  -0.038  0.00  0.00     0.002 A 
ATOM      3  C4  UNL d   1       0.732   3.634   0.132  0.00  0.00     0.002 A 
ATOM      4  C5  UNL d   1       1.690   3.999   1.075  0.00  0.00    -0.004 A 
ATOM      5  C6  UNL d   1       2.307   3.022   1.855  0.00  0.00     0.002 A 
ATOM      6  C7  UNL d   1       1.968   1.678   1.688  0.00  0.00     0.002 A 
ENDROOT
BRANCH   1   7
ATOM      7  C1  UNL d   1       0.680  -0.154   0.525  0.00  0.00     0.055 C 
ATOM      8  C   UNL d   1      -0.766  -0.455   0.892  0.00  0.00     0.019 C 
ENDBRANCH   1   7
TORSDOF 1
ENDMDL
