MODEL 1
REMARK minimizedAffinity -1.77740204
REMARK minimizedRMSD -1
REMARK  1 active torsions:
REMARK  status: ('A' for Active; 'I' for Inactive)
REMARK    1  A    between atoms: C1_2  and  C2_3 
ROOT
ATOM      1  C2  UNL d   1       0.219   0.252  -0.648  0.00  0.00    -0.077 A 
ATOM      2  C3  UNL d   1       0.286  -0.791   0.286  0.00  0.00     0.002 A 
ATOM      3  C4  UNL d   1       0.680  -2.071  -0.112  0.00  0.00     0.002 A 
ATOM      4  C5  UNL d   1       1.013  -2.317  -1.442  0.00  0.00    -0.004 A 
ATOM      5  C6  UNL d   1       0.947  -1.286  -2.379  0.00  0.00     0.002 A 
ATOM      6  C7  UNL d   1       0.553  -0.007  -1.983  0.00  0.00     0.002 A 
ENDROOT
BRANCH   1   7
ATOM      7  C1  UNL d   1      -0.158   1.644  -0.212  0.00  0.00     0.055 C 
ATOM      8  C   UNL d   1       1.054   2.413   0.292  0.00  0.00     0.019 C 
ENDBRANCH   1   7
TORSDOF 1
ENDMDL
