MODEL 1
REMARK minimizedAffinity -2.91480923
REMARK minimizedRMSD -1
REMARK  1 active torsions:
REMARK  status: ('A' for Active; 'I' for Inactive)
REMARK    1  A    between atoms: C1_2  and  C2_3 
ROOT
ATOM      1  C2  UNL d   1       0.204  -0.943  -0.791  0.00  0.00    -0.077 A 
ATOM      2  C3  UNL d   1       0.222   0.128  -1.696  0.00  0.00     0.002 A 
ATOM      3  C4  UNL d   1      -0.394   1.338  -1.371  0.00  0.00     0.002 A 
ATOM      4  C5  UNL d   1      -1.028   1.490  -0.140  0.00  0.00    -0.004 A 
ATOM      5  C6  UNL d   1      -1.053   0.431   0.766  0.00  0.00     0.002 A 
ATOM      6  C7  UNL d   1      -0.439  -0.780   0.442  0.00  0.00     0.002 A 
ENDROOT
BRANCH   1   7
ATOM      7  C1  UNL d   1       0.909  -2.233  -1.120  0.00  0.00     0.055 C 
ATOM      8  C   UNL d   1       0.784  -3.237   0.016  0.00  0.00     0.019 C 
ENDBRANCH   1   7
TORSDOF 1
ENDMDL
