MODEL 1
REMARK minimizedAffinity -3.93563414
REMARK minimizedRMSD -1
REMARK  1 active torsions:
REMARK  status: ('A' for Active; 'I' for Inactive)
REMARK    1  A    between atoms: C1_2  and  C2_3 
ROOT
ATOM      1  C2  UNL d   1       0.055  -1.476  -0.523  0.00  0.00    -0.077 A 
ATOM      2  C3  UNL d   1      -0.227  -0.378   0.302  0.00  0.00     0.002 A 
ATOM      3  C4  UNL d   1      -0.284   0.911  -0.233  0.00  0.00     0.002 A 
ATOM      4  C5  UNL d   1      -0.065   1.112  -1.594  0.00  0.00    -0.004 A 
ATOM      5  C6  UNL d   1       0.219   0.026  -2.422  0.00  0.00     0.002 A 
ATOM      6  C7  UNL d   1       0.277  -1.262  -1.889  0.00  0.00     0.002 A 
ENDROOT
BRANCH   1   7
ATOM      7  C1  UNL d   1       0.068  -2.872   0.043  0.00  0.00     0.055 C 
ATOM      8  C   UNL d   1      -1.334  -3.330   0.421  0.00  0.00     0.019 C 
ENDBRANCH   1   7
TORSDOF 1
ENDMDL
