MODEL 1
REMARK minimizedAffinity -3.99993658
REMARK minimizedRMSD -1
REMARK  1 active torsions:
REMARK  status: ('A' for Active; 'I' for Inactive)
REMARK    1  A    between atoms: C1_2  and  C2_3 
ROOT
ATOM      1  C2  UNL d   1       0.068  -0.318  -0.178  0.00  0.00    -0.077 A 
ATOM      2  C3  UNL d   1       0.988  -1.245  -0.686  0.00  0.00     0.002 A 
ATOM      3  C4  UNL d   1       0.811  -2.612  -0.461  0.00  0.00     0.002 A 
ATOM      4  C5  UNL d   1      -0.287  -3.063   0.268  0.00  0.00    -0.004 A 
ATOM      5  C6  UNL d   1      -1.207  -2.149   0.779  0.00  0.00     0.002 A 
ATOM      6  C7  UNL d   1      -1.031  -0.782   0.556  0.00  0.00     0.002 A 
ENDROOT
BRANCH   1   7
ATOM      7  C1  UNL d   1       0.230   1.153  -0.461  0.00  0.00     0.055 C 
ATOM      8  C   UNL d   1      -0.832   1.975   0.254  0.00  0.00     0.019 C 
ENDBRANCH   1   7
TORSDOF 1
ENDMDL
