MODEL 1
REMARK minimizedAffinity 1.99875808
REMARK minimizedRMSD -1
REMARK  0 active torsions:
REMARK  status: ('A' for Active; 'I' for Inactive)
ROOT
ATOM      1  C   UNL d   1       3.063   1.381  -1.583  0.00  0.00     0.078 C 
ATOM      2  C1  UNL d   1       1.907   1.164  -0.654  0.00  0.00    -0.077 A 
ATOM      3  C2  UNL d   1       2.106   0.671   0.642  0.00  0.00    -0.001 A 
ATOM      4  C3  UNL d   1       1.019   0.465   1.493  0.00  0.00     0.003 A 
ATOM      5  C4  UNL d   1      -0.274   0.748   1.058  0.00  0.00    -0.005 A 
ATOM      6  C5  UNL d   1      -0.482   1.237  -0.230  0.00  0.00     0.003 A 
ATOM      7  C6  UNL d   1       0.603   1.444  -1.083  0.00  0.00    -0.001 A 
ENDROOT
TORSDOF 0
ENDMDL
