MODEL 1
REMARK minimizedAffinity -5.58952951
REMARK minimizedRMSD -1
REMARK  0 active torsions:
REMARK  status: ('A' for Active; 'I' for Inactive)
ROOT
ATOM      1  C   UNL d   1      -0.337  -0.559   0.383  0.00  0.00     0.078 C 
ATOM      2  C1  UNL d   1       0.558  -0.407  -0.811  0.00  0.00    -0.077 A 
ATOM      3  C2  UNL d   1       0.853   0.858  -1.334  0.00  0.00    -0.001 A 
ATOM      4  C3  UNL d   1       1.680   0.983  -2.452  0.00  0.00     0.003 A 
ATOM      5  C4  UNL d   1       2.217  -0.152  -3.056  0.00  0.00    -0.005 A 
ATOM      6  C5  UNL d   1       1.927  -1.414  -2.543  0.00  0.00     0.003 A 
ATOM      7  C6  UNL d   1       1.101  -1.542  -1.426  0.00  0.00    -0.001 A 
ENDROOT
TORSDOF 0
ENDMDL
