MODEL 1
REMARK minimizedAffinity -3.71801305
REMARK minimizedRMSD -1
REMARK  0 active torsions:
REMARK  status: ('A' for Active; 'I' for Inactive)
ROOT
ATOM      1  C   UNL d   1      -3.265  -0.197   1.053  0.00  0.00     0.078 C 
ATOM      2  C1  UNL d   1      -1.890   0.251   0.655  0.00  0.00    -0.077 A 
ATOM      3  C2  UNL d   1      -1.600   0.598  -0.670  0.00  0.00    -0.001 A 
ATOM      4  C3  UNL d   1      -0.313   1.003  -1.028  0.00  0.00     0.003 A 
ATOM      5  C4  UNL d   1       0.694   1.064  -0.067  0.00  0.00    -0.005 A 
ATOM      6  C5  UNL d   1       0.415   0.718   1.254  0.00  0.00     0.003 A 
ATOM      7  C6  UNL d   1      -0.871   0.313   1.614  0.00  0.00    -0.001 A 
ENDROOT
TORSDOF 0
ENDMDL
