MODEL 1
REMARK minimizedAffinity -2.62746
REMARK minimizedRMSD -1
REMARK  0 active torsions:
REMARK  status: ('A' for Active; 'I' for Inactive)
ROOT
ATOM      1  C   UNL d   1      -2.181   1.325   2.361  0.00  0.00     0.078 C 
ATOM      2  C1  UNL d   1      -1.392   0.322   1.573  0.00  0.00    -0.077 A 
ATOM      3  C2  UNL d   1      -0.749   0.683   0.383  0.00  0.00    -0.001 A 
ATOM      4  C3  UNL d   1      -0.027  -0.263  -0.345  0.00  0.00     0.003 A 
ATOM      5  C4  UNL d   1       0.059  -1.578   0.108  0.00  0.00    -0.005 A 
ATOM      6  C5  UNL d   1      -0.580  -1.948   1.290  0.00  0.00     0.003 A 
ATOM      7  C6  UNL d   1      -1.303  -1.003   2.020  0.00  0.00    -0.001 A 
ENDROOT
TORSDOF 0
ENDMDL
