MODEL 1
REMARK minimizedAffinity -2.82416487
REMARK minimizedRMSD -1
REMARK  0 active torsions:
REMARK  status: ('A' for Active; 'I' for Inactive)
ROOT
ATOM      1  C   UNL d   1      -1.068  -0.341   1.061  0.00  0.00     0.078 C 
ATOM      2  C1  UNL d   1       0.072  -0.231   0.094  0.00  0.00    -0.077 A 
ATOM      3  C2  UNL d   1       0.693  -1.375  -0.423  0.00  0.00    -0.001 A 
ATOM      4  C3  UNL d   1       1.760  -1.257  -1.315  0.00  0.00     0.003 A 
ATOM      5  C4  UNL d   1       2.216   0.002  -1.698  0.00  0.00    -0.005 A 
ATOM      6  C5  UNL d   1       1.606   1.147  -1.188  0.00  0.00     0.003 A 
ATOM      7  C6  UNL d   1       0.539   1.031  -0.295  0.00  0.00    -0.001 A 
ENDROOT
TORSDOF 0
ENDMDL
