MODEL 1
REMARK minimizedAffinity -5.02329159
REMARK minimizedRMSD -1
REMARK  0 active torsions:
REMARK  status: ('A' for Active; 'I' for Inactive)
ROOT
ATOM      1  C   UNL d   1      -1.177  -0.147   0.609  0.00  0.00     0.078 C 
ATOM      2  C1  UNL d   1      -0.065  -0.256  -0.391  0.00  0.00    -0.077 A 
ATOM      3  C2  UNL d   1       0.771   0.835  -0.661  0.00  0.00    -0.001 A 
ATOM      4  C3  UNL d   1       1.796   0.723  -1.602  0.00  0.00     0.003 A 
ATOM      5  C4  UNL d   1       1.994  -0.477  -2.281  0.00  0.00    -0.005 A 
ATOM      6  C5  UNL d   1       1.166  -1.567  -2.021  0.00  0.00     0.003 A 
ATOM      7  C6  UNL d   1       0.140  -1.457  -1.081  0.00  0.00    -0.001 A 
ENDROOT
TORSDOF 0
ENDMDL
