MODEL 1
REMARK minimizedAffinity -3.30886722
REMARK minimizedRMSD -1
REMARK  0 active torsions:
REMARK  status: ('A' for Active; 'I' for Inactive)
ROOT
ATOM      1  C   UNL d   1      -0.073  -0.159  -0.373  0.00  0.00     0.078 C 
ATOM      2  C1  UNL d   1      -1.367   0.114   0.332  0.00  0.00    -0.077 A 
ATOM      3  C2  UNL d   1      -1.461   0.026   1.727  0.00  0.00    -0.001 A 
ATOM      4  C3  UNL d   1      -2.675   0.274   2.369  0.00  0.00     0.003 A 
ATOM      5  C4  UNL d   1      -3.805   0.610   1.626  0.00  0.00    -0.005 A 
ATOM      6  C5  UNL d   1      -3.722   0.697   0.238  0.00  0.00     0.003 A 
ATOM      7  C6  UNL d   1      -2.509   0.450  -0.407  0.00  0.00    -0.001 A 
ENDROOT
TORSDOF 0
ENDMDL
