MODEL 1
REMARK minimizedAffinity -5.73223495
REMARK minimizedRMSD -1
REMARK  0 active torsions:
REMARK  status: ('A' for Active; 'I' for Inactive)
ROOT
ATOM      1  C   UNL d   1      -0.137  -0.236   1.176  0.00  0.00     0.078 C 
ATOM      2  C1  UNL d   1       0.428  -0.297  -0.211  0.00  0.00    -0.077 A 
ATOM      3  C2  UNL d   1       0.578  -1.520  -0.876  0.00  0.00    -0.001 A 
ATOM      4  C3  UNL d   1       1.115  -1.562  -2.164  0.00  0.00     0.003 A 
ATOM      5  C4  UNL d   1       1.508  -0.385  -2.797  0.00  0.00    -0.005 A 
ATOM      6  C5  UNL d   1       1.364   0.837  -2.143  0.00  0.00     0.003 A 
ATOM      7  C6  UNL d   1       0.828   0.881  -0.855  0.00  0.00    -0.001 A 
ENDROOT
TORSDOF 0
ENDMDL
