MODEL 1
REMARK minimizedAffinity -4.89695454
REMARK minimizedRMSD -1
REMARK  0 active torsions:
REMARK  status: ('A' for Active; 'I' for Inactive)
ROOT
ATOM      1  C   UNL d   1      -0.599   0.372   1.338  0.00  0.00     0.078 C 
ATOM      2  C1  UNL d   1       0.337   0.058   0.209  0.00  0.00    -0.077 A 
ATOM      3  C2  UNL d   1       0.545  -1.261  -0.210  0.00  0.00    -0.001 A 
ATOM      4  C3  UNL d   1       1.426  -1.540  -1.256  0.00  0.00     0.003 A 
ATOM      5  C4  UNL d   1       2.108  -0.503  -1.891  0.00  0.00    -0.005 A 
ATOM      6  C5  UNL d   1       1.910   0.813  -1.479  0.00  0.00     0.003 A 
ATOM      7  C6  UNL d   1       1.028   1.093  -0.433  0.00  0.00    -0.001 A 
ENDROOT
TORSDOF 0
ENDMDL
