MODEL 1
REMARK minimizedAffinity -1.37163365
REMARK minimizedRMSD -1
REMARK  0 active torsions:
REMARK  status: ('A' for Active; 'I' for Inactive)
ROOT
ATOM      1  C   UNL d   1       0.299  -2.535   0.236  0.00  0.00     0.078 C 
ATOM      2  C1  UNL d   1       0.253  -1.062  -0.042  0.00  0.00    -0.077 A 
ATOM      3  C2  UNL d   1      -0.934  -0.336   0.111  0.00  0.00    -0.001 A 
ATOM      4  C3  UNL d   1      -0.965   1.033  -0.161  0.00  0.00     0.003 A 
ATOM      5  C4  UNL d   1       0.188   1.687  -0.590  0.00  0.00    -0.005 A 
ATOM      6  C5  UNL d   1       1.373   0.972  -0.749  0.00  0.00     0.003 A 
ATOM      7  C6  UNL d   1       1.406  -0.396  -0.477  0.00  0.00    -0.001 A 
ENDROOT
TORSDOF 0
ENDMDL
