MODEL 1
REMARK minimizedAffinity -4.9357276
REMARK minimizedRMSD -1
REMARK  0 active torsions:
REMARK  status: ('A' for Active; 'I' for Inactive)
ROOT
ATOM      1  C   UNL d   1       1.976  -0.922  -3.272  0.00  0.00     0.078 C 
ATOM      2  C1  UNL d   1       1.398  -0.514  -1.950  0.00  0.00    -0.077 A 
ATOM      3  C2  UNL d   1       0.229  -1.108  -1.460  0.00  0.00    -0.001 A 
ATOM      4  C3  UNL d   1      -0.303  -0.712  -0.232  0.00  0.00     0.003 A 
ATOM      5  C4  UNL d   1       0.327   0.281   0.516  0.00  0.00    -0.005 A 
ATOM      6  C5  UNL d   1       1.490   0.879   0.035  0.00  0.00     0.003 A 
ATOM      7  C6  UNL d   1       2.023   0.484  -1.192  0.00  0.00    -0.001 A 
ENDROOT
TORSDOF 0
ENDMDL
