MODEL 1
REMARK minimizedAffinity -0.614156783
REMARK minimizedRMSD -1
REMARK  0 active torsions:
REMARK  status: ('A' for Active; 'I' for Inactive)
ROOT
ATOM      1  C   UNL d   1       2.227   1.672  -1.249  0.00  0.00     0.078 C 
ATOM      2  C1  UNL d   1       1.257   0.787  -0.526  0.00  0.00    -0.077 A 
ATOM      3  C2  UNL d   1       1.606  -0.520  -0.162  0.00  0.00    -0.001 A 
ATOM      4  C3  UNL d   1       0.690  -1.336   0.503  0.00  0.00     0.003 A 
ATOM      5  C4  UNL d   1      -0.582  -0.856   0.808  0.00  0.00    -0.005 A 
ATOM      6  C5  UNL d   1      -0.940   0.441   0.447  0.00  0.00     0.003 A 
ATOM      7  C6  UNL d   1      -0.025   1.259  -0.217  0.00  0.00    -0.001 A 
ENDROOT
TORSDOF 0
ENDMDL
