MODEL 1
REMARK minimizedAffinity -5.96559238
REMARK minimizedRMSD -1
REMARK  0 active torsions:
REMARK  status: ('A' for Active; 'I' for Inactive)
ROOT
ATOM      1  C   UNL d   1       0.206  -2.385   0.710  0.00  0.00     0.078 C 
ATOM      2  C1  UNL d   1       0.571  -1.283  -0.240  0.00  0.00    -0.077 A 
ATOM      3  C2  UNL d   1       0.912  -1.561  -1.569  0.00  0.00    -0.001 A 
ATOM      4  C3  UNL d   1       1.260  -0.527  -2.440  0.00  0.00     0.003 A 
ATOM      5  C4  UNL d   1       1.270   0.792  -1.990  0.00  0.00    -0.005 A 
ATOM      6  C5  UNL d   1       0.934   1.078  -0.668  0.00  0.00     0.003 A 
ATOM      7  C6  UNL d   1       0.587   0.045   0.204  0.00  0.00    -0.001 A 
ENDROOT
TORSDOF 0
ENDMDL
