MODEL 1
REMARK minimizedAffinity 6.56494856
REMARK minimizedRMSD -1
REMARK  0 active torsions:
REMARK  status: ('A' for Active; 'I' for Inactive)
ROOT
ATOM      1  C1  DEN d   1      -2.631   4.745  -5.999  0.00  0.00     0.130 A 
ATOM      2  C2  DEN d   1      -3.324   5.571  -5.014  0.00  0.00    -0.031 A 
ATOM      3  C3  DEN d   1      -3.622   4.728  -3.839  0.00  0.00     0.027 A 
ATOM      4  C4  DEN d   1      -3.076   2.238  -3.449  0.00  0.00     0.027 A 
ATOM      5  C5  DEN d   1      -2.507   1.113  -4.005  0.00  0.00    -0.003 A 
ATOM      6  C6  DEN d   1      -1.975   1.111  -5.267  0.00  0.00     0.001 A 
ATOM      7  C7  DEN d   1      -1.960   2.269  -5.999  0.00  0.00     0.017 A 
ATOM      8  C8  DEN d   1      -2.538   3.405  -5.448  0.00  0.00    -0.094 A 
ATOM      9  C9  DEN d   1      -3.060   3.390  -4.166  0.00  0.00    -0.072 A 
ENDROOT
TORSDOF 0
ENDMDL
