MODEL 1
REMARK minimizedAffinity 14.1113653
REMARK minimizedRMSD -1
REMARK  0 active torsions:
REMARK  status: ('A' for Active; 'I' for Inactive)
ROOT
ATOM      1  C1  DEN d   1      -3.602   0.348  -3.589  0.00  0.00     0.130 A 
ATOM      2  C2  DEN d   1      -4.877   0.741  -2.994  0.00  0.00    -0.031 A 
ATOM      3  C3  DEN d   1      -5.242   2.066  -3.533  0.00  0.00     0.027 A 
ATOM      4  C4  DEN d   1      -3.968   3.538  -5.225  0.00  0.00     0.027 A 
ATOM      5  C5  DEN d   1      -2.834   3.632  -6.000  0.00  0.00    -0.003 A 
ATOM      6  C6  DEN d   1      -1.867   2.661  -6.000  0.00  0.00     0.001 A 
ATOM      7  C7  DEN d   1      -2.039   1.532  -5.243  0.00  0.00     0.017 A 
ATOM      8  C8  DEN d   1      -3.177   1.434  -4.454  0.00  0.00    -0.094 A 
ATOM      9  C9  DEN d   1      -4.148   2.420  -4.477  0.00  0.00    -0.072 A 
ENDROOT
TORSDOF 0
ENDMDL
