MODEL 1
REMARK minimizedAffinity 5.85241556
REMARK minimizedRMSD -1
REMARK  0 active torsions:
REMARK  status: ('A' for Active; 'I' for Inactive)
ROOT
ATOM      1  C1  DEN d   1       0.229   2.168   0.204  0.00  0.00     0.130 A 
ATOM      2  C2  DEN d   1      -1.218   1.978   0.265  0.00  0.00    -0.031 A 
ATOM      3  C3  DEN d   1      -1.860   3.170  -0.324  0.00  0.00     0.027 A 
ATOM      4  C4  DEN d   1      -0.760   5.278  -1.325  0.00  0.00     0.027 A 
ATOM      5  C5  DEN d   1       0.440   5.900  -1.589  0.00  0.00    -0.003 A 
ATOM      6  C6  DEN d   1       1.643   5.342  -1.245  0.00  0.00     0.001 A 
ATOM      7  C7  DEN d   1       1.674   4.105  -0.659  0.00  0.00     0.017 A 
ATOM      8  C8  DEN d   1       0.468   3.474  -0.383  0.00  0.00    -0.094 A 
ATOM      9  C9  DEN d   1      -0.737   4.049  -0.750  0.00  0.00    -0.072 A 
ENDROOT
TORSDOF 0
ENDMDL
