MODEL 1
REMARK minimizedAffinity 10.1285343
REMARK minimizedRMSD -1
REMARK  0 active torsions:
REMARK  status: ('A' for Active; 'I' for Inactive)
ROOT
ATOM      1  C1  DEN d   1      -0.233   5.676  -1.896  0.00  0.00     0.130 A 
ATOM      2  C2  DEN d   1       1.190   5.998  -1.951  0.00  0.00    -0.031 A 
ATOM      3  C3  DEN d   1       1.926   4.943  -1.224  0.00  0.00     0.027 A 
ATOM      4  C4  DEN d   1       1.003   2.852  -0.029  0.00  0.00     0.027 A 
ATOM      5  C5  DEN d   1      -0.141   2.158   0.296  0.00  0.00    -0.003 A 
ATOM      6  C6  DEN d   1      -1.389   2.603  -0.053  0.00  0.00     0.001 A 
ATOM      7  C7  DEN d   1      -1.519   3.750  -0.790  0.00  0.00     0.017 A 
ATOM      8  C8  DEN d   1      -0.370   4.459  -1.116  0.00  0.00    -0.094 A 
ATOM      9  C9  DEN d   1       0.883   3.987  -0.764  0.00  0.00    -0.072 A 
ENDROOT
TORSDOF 0
ENDMDL
