MODEL 1
REMARK minimizedAffinity 15.330328
REMARK minimizedRMSD -1
REMARK  0 active torsions:
REMARK  status: ('A' for Active; 'I' for Inactive)
ROOT
ATOM      1  C1  DEN d   1      -5.998   4.824   1.489  0.00  0.00     0.130 A 
ATOM      2  C2  DEN d   1      -5.222   5.736   2.324  0.00  0.00    -0.031 A 
ATOM      3  C3  DEN d   1      -3.817   5.280   2.316  0.00  0.00     0.027 A 
ATOM      4  C4  DEN d   1      -2.773   3.264   1.093  0.00  0.00     0.027 A 
ATOM      5  C5  DEN d   1      -3.036   2.191   0.271  0.00  0.00    -0.003 A 
ATOM      6  C6  DEN d   1      -4.299   1.902  -0.171  0.00  0.00     0.001 A 
ATOM      7  C7  DEN d   1      -5.342   2.723   0.170  0.00  0.00     0.017 A 
ATOM      8  C8  DEN d   1      -5.086   3.803   1.004  0.00  0.00    -0.094 A 
ATOM      9  C9  DEN d   1      -3.799   4.085   1.430  0.00  0.00    -0.072 A 
ENDROOT
TORSDOF 0
ENDMDL
