MODEL 1
REMARK minimizedAffinity 4.63602734
REMARK minimizedRMSD -1
REMARK  0 active torsions:
REMARK  status: ('A' for Active; 'I' for Inactive)
ROOT
ATOM      1  C1  DEN d   1       1.661   2.125   1.412  0.00  0.00     0.130 A 
ATOM      2  C2  DEN d   1       0.447   1.970   0.615  0.00  0.00    -0.031 A 
ATOM      3  C3  DEN d   1       0.378   3.098  -0.336  0.00  0.00     0.027 A 
ATOM      4  C4  DEN d   1       2.027   5.056  -0.652  0.00  0.00     0.027 A 
ATOM      5  C5  DEN d   1       3.198   5.622  -0.199  0.00  0.00    -0.003 A 
ATOM      6  C6  DEN d   1       3.915   5.085   0.837  0.00  0.00     0.001 A 
ATOM      7  C7  DEN d   1       3.491   3.922   1.425  0.00  0.00     0.017 A 
ATOM      8  C8  DEN d   1       2.308   3.350   0.978  0.00  0.00    -0.094 A 
ATOM      9  C9  DEN d   1       1.603   3.902  -0.078  0.00  0.00    -0.072 A 
ENDROOT
TORSDOF 0
ENDMDL
