MODEL 1
REMARK minimizedAffinity 14.9846706
REMARK minimizedRMSD -1
REMARK  0 active torsions:
REMARK  status: ('A' for Active; 'I' for Inactive)
ROOT
ATOM      1  C1  DEN d   1       2.235   4.776  -0.793  0.00  0.00     0.130 A 
ATOM      2  C2  DEN d   1       1.866   6.000  -1.499  0.00  0.00    -0.031 A 
ATOM      3  C3  DEN d   1       0.415   5.951  -1.769  0.00  0.00     0.027 A 
ATOM      4  C4  DEN d   1      -1.288   4.112  -1.160  0.00  0.00     0.027 A 
ATOM      5  C5  DEN d   1      -1.444   2.878  -0.569  0.00  0.00    -0.003 A 
ATOM      6  C6  DEN d   1      -0.387   2.181  -0.045  0.00  0.00     0.001 A 
ATOM      7  C7  DEN d   1       0.866   2.733  -0.062  0.00  0.00     0.017 A 
ATOM      8  C8  DEN d   1       1.032   3.973  -0.664  0.00  0.00    -0.094 A 
ATOM      9  C9  DEN d   1      -0.050   4.668  -1.177  0.00  0.00    -0.072 A 
ENDROOT
TORSDOF 0
ENDMDL
