MODEL 1
REMARK minimizedAffinity 2.51373291
REMARK minimizedRMSD -1
REMARK  0 active torsions:
REMARK  status: ('A' for Active; 'I' for Inactive)
ROOT
ATOM      1  C1  DEN d   1       2.618  -0.760   3.330  0.00  0.00     0.130 A 
ATOM      2  C2  DEN d   1       1.995  -0.475   2.041  0.00  0.00    -0.031 A 
ATOM      3  C3  DEN d   1       2.766  -1.177   0.995  0.00  0.00     0.027 A 
ATOM      4  C4  DEN d   1       4.852  -2.674   1.248  0.00  0.00     0.027 A 
ATOM      5  C5  DEN d   1       5.753  -3.200   2.146  0.00  0.00    -0.003 A 
ATOM      6  C6  DEN d   1       5.694  -2.926   3.487  0.00  0.00     0.001 A 
ATOM      7  C7  DEN d   1       4.685  -2.138   3.974  0.00  0.00     0.017 A 
ATOM      8  C8  DEN d   1       3.776  -1.597   3.073  0.00  0.00    -0.094 A 
ATOM      9  C9  DEN d   1       3.846  -1.897   1.723  0.00  0.00    -0.072 A 
ENDROOT
TORSDOF 0
ENDMDL
