MODEL 1
REMARK minimizedAffinity -5.54087305
REMARK minimizedRMSD -1
REMARK  0 active torsions:
REMARK  status: ('A' for Active; 'I' for Inactive)
ROOT
ATOM      1  O1  BZF d   1       0.337  -0.667  -2.187  0.00  0.00    -0.204 OA
ATOM      2  C2  BZF d   1       0.383  -1.759  -3.033  0.00  0.00     0.174 A 
ATOM      3  C3  BZF d   1       0.240  -2.907  -2.339  0.00  0.00    -0.012 A 
ATOM      4  C3A BZF d   1       0.003  -2.503  -0.987  0.00  0.00    -0.107 A 
ATOM      5  C4  BZF d   1      -0.231  -3.189   0.170  0.00  0.00     0.055 A 
ATOM      6  C5  BZF d   1      -0.349  -2.498   1.335  0.00  0.00    -0.016 A 
ATOM      7  C6  BZF d   1      -0.233  -1.125   1.379  0.00  0.00     0.022 A 
ATOM      8  C7  BZF d   1      -0.006  -0.400   0.256  0.00  0.00     0.029 A 
ATOM      9  C7A BZF d   1       0.081  -1.092  -0.927  0.00  0.00     0.058 A 
ENDROOT
TORSDOF 0
ENDMDL
