MODEL 1
REMARK minimizedAffinity -3.31645775
REMARK minimizedRMSD -1
REMARK  0 active torsions:
REMARK  status: ('A' for Active; 'I' for Inactive)
ROOT
ATOM      1  O1  BZF d   1      -0.257   0.644   0.613  0.00  0.00    -0.204 OA
ATOM      2  C2  BZF d   1       0.852   0.999  -0.131  0.00  0.00     0.174 A 
ATOM      3  C3  BZF d   1       1.441  -0.091  -0.663  0.00  0.00    -0.012 A 
ATOM      4  C3A BZF d   1       0.598  -1.189  -0.300  0.00  0.00    -0.107 A 
ATOM      5  C4  BZF d   1       0.645  -2.531  -0.549  0.00  0.00     0.055 A 
ATOM      6  C5  BZF d   1      -0.293  -3.339   0.011  0.00  0.00    -0.016 A 
ATOM      7  C6  BZF d   1      -1.287  -2.841   0.827  0.00  0.00     0.022 A 
ATOM      8  C7  BZF d   1      -1.378  -1.517   1.099  0.00  0.00     0.029 A 
ATOM      9  C7A BZF d   1      -0.451  -0.693   0.508  0.00  0.00     0.058 A 
ENDROOT
TORSDOF 0
ENDMDL
