MODEL 1
REMARK minimizedAffinity -3.35621166
REMARK minimizedRMSD -1
REMARK  0 active torsions:
REMARK  status: ('A' for Active; 'I' for Inactive)
ROOT
ATOM      1  O1  BZF d   1       0.085  -0.880  -2.922  0.00  0.00    -0.204 OA
ATOM      2  C2  BZF d   1      -0.223  -2.193  -3.223  0.00  0.00     0.174 A 
ATOM      3  C3  BZF d   1      -0.689  -2.836  -2.133  0.00  0.00    -0.012 A 
ATOM      4  C3A BZF d   1      -0.758  -1.840  -1.108  0.00  0.00    -0.107 A 
ATOM      5  C4  BZF d   1      -1.160  -1.861   0.197  0.00  0.00     0.055 A 
ATOM      6  C5  BZF d   1      -1.033  -0.734   0.945  0.00  0.00    -0.016 A 
ATOM      7  C6  BZF d   1      -0.505   0.428   0.424  0.00  0.00     0.022 A 
ATOM      8  C7  BZF d   1      -0.098   0.500  -0.867  0.00  0.00     0.029 A 
ATOM      9  C7A BZF d   1      -0.255  -0.628  -1.635  0.00  0.00     0.058 A 
ENDROOT
TORSDOF 0
ENDMDL
