MODEL 1
REMARK minimizedAffinity -5.44494486
REMARK minimizedRMSD -1
REMARK  0 active torsions:
REMARK  status: ('A' for Active; 'I' for Inactive)
ROOT
ATOM      1  O1  BZF d   1       0.483  -0.250  -1.768  0.00  0.00    -0.204 OA
ATOM      2  C2  BZF d   1       0.442   0.824  -0.900  0.00  0.00     0.174 A 
ATOM      3  C3  BZF d   1      -0.006   0.442   0.313  0.00  0.00    -0.012 A 
ATOM      4  C3A BZF d   1      -0.173  -0.976   0.223  0.00  0.00    -0.107 A 
ATOM      5  C4  BZF d   1      -0.579  -1.932   1.110  0.00  0.00     0.055 A 
ATOM      6  C5  BZF d   1      -0.703  -3.217   0.686  0.00  0.00    -0.016 A 
ATOM      7  C6  BZF d   1      -0.436  -3.580  -0.618  0.00  0.00     0.022 A 
ATOM      8  C7  BZF d   1      -0.025  -2.668  -1.533  0.00  0.00     0.029 A 
ATOM      9  C7A BZF d   1       0.133  -1.375  -1.099  0.00  0.00     0.058 A 
ENDROOT
TORSDOF 0
ENDMDL
