MODEL 1
REMARK minimizedAffinity -3.29621005
REMARK minimizedRMSD -1
REMARK  0 active torsions:
REMARK  status: ('A' for Active; 'I' for Inactive)
ROOT
ATOM      1  O1  BZF d   1      -0.019   1.194   1.395  0.00  0.00    -0.204 OA
ATOM      2  C2  BZF d   1       0.811   1.881   0.531  0.00  0.00     0.174 A 
ATOM      3  C3  BZF d   1       1.275   1.064  -0.437  0.00  0.00    -0.012 A 
ATOM      4  C3A BZF d   1       0.626  -0.191  -0.213  0.00  0.00    -0.107 A 
ATOM      5  C4  BZF d   1       0.665  -1.396  -0.855  0.00  0.00     0.055 A 
ATOM      6  C5  BZF d   1      -0.033  -2.442  -0.339  0.00  0.00    -0.016 A 
ATOM      7  C6  BZF d   1      -0.775  -2.320   0.818  0.00  0.00     0.022 A 
ATOM      8  C7  BZF d   1      -0.848  -1.144   1.486  0.00  0.00     0.029 A 
ATOM      9  C7A BZF d   1      -0.171  -0.076   0.950  0.00  0.00     0.058 A 
ENDROOT
TORSDOF 0
ENDMDL
