MODEL 1
REMARK minimizedAffinity -3.8614254
REMARK minimizedRMSD -1
REMARK  0 active torsions:
REMARK  status: ('A' for Active; 'I' for Inactive)
ROOT
ATOM      1  O1  BZF d   1       0.174  -0.928  -2.163  0.00  0.00    -0.204 OA
ATOM      2  C2  BZF d   1       0.273   0.434  -2.372  0.00  0.00     0.174 A 
ATOM      3  C3  BZF d   1      -0.062   1.114  -1.256  0.00  0.00    -0.012 A 
ATOM      4  C3A BZF d   1      -0.302   0.113  -0.263  0.00  0.00    -0.107 A 
ATOM      5  C4  BZF d   1      -0.655   0.165   1.055  0.00  0.00     0.055 A 
ATOM      6  C5  BZF d   1      -0.882  -0.996   1.724  0.00  0.00    -0.016 A 
ATOM      7  C6  BZF d   1      -0.769  -2.224   1.106  0.00  0.00     0.022 A 
ATOM      8  C7  BZF d   1      -0.416  -2.326  -0.199  0.00  0.00     0.029 A 
ATOM      9  C7A BZF d   1      -0.155  -1.156  -0.869  0.00  0.00     0.058 A 
ENDROOT
TORSDOF 0
ENDMDL
