MODEL 1
REMARK minimizedAffinity -4.68710613
REMARK minimizedRMSD -1
REMARK  0 active torsions:
REMARK  status: ('A' for Active; 'I' for Inactive)
ROOT
ATOM      1  O1  BZF d   1       0.077   1.343   0.744  0.00  0.00    -0.204 OA
ATOM      2  C2  BZF d   1       0.947   1.689  -0.272  0.00  0.00     0.174 A 
ATOM      3  C3  BZF d   1       1.398   0.590  -0.911  0.00  0.00    -0.012 A 
ATOM      4  C3A BZF d   1       0.698  -0.506  -0.314  0.00  0.00    -0.107 A 
ATOM      5  C4  BZF d   1       0.704  -1.854  -0.531  0.00  0.00     0.055 A 
ATOM      6  C5  BZF d   1      -0.041  -2.656   0.274  0.00  0.00    -0.016 A 
ATOM      7  C6  BZF d   1      -0.798  -2.145   1.308  0.00  0.00     0.022 A 
ATOM      8  C7  BZF d   1      -0.839  -0.814   1.560  0.00  0.00     0.029 A 
ATOM      9  C7A BZF d   1      -0.113   0.002   0.727  0.00  0.00     0.058 A 
ENDROOT
TORSDOF 0
ENDMDL
