MODEL 1
REMARK minimizedAffinity -4.35102606
REMARK minimizedRMSD -1
REMARK  0 active torsions:
REMARK  status: ('A' for Active; 'I' for Inactive)
ROOT
ATOM      1  O1  BZF d   1       1.631   0.423   0.421  0.00  0.00    -0.204 OA
ATOM      2  C2  BZF d   1       0.764   1.487   0.261  0.00  0.00     0.174 A 
ATOM      3  C3  BZF d   1      -0.501   1.052   0.089  0.00  0.00    -0.012 A 
ATOM      4  C3A BZF d   1      -0.433  -0.370   0.237  0.00  0.00    -0.107 A 
ATOM      5  C4  BZF d   1      -1.368  -1.364   0.189  0.00  0.00     0.055 A 
ATOM      6  C5  BZF d   1      -0.964  -2.657   0.301  0.00  0.00    -0.016 A 
ATOM      7  C6  BZF d   1       0.366  -2.991   0.455  0.00  0.00     0.022 A 
ATOM      8  C7  BZF d   1       1.329  -2.039   0.513  0.00  0.00     0.029 A 
ATOM      9  C7A BZF d   1       0.920  -0.730   0.434  0.00  0.00     0.058 A 
ENDROOT
TORSDOF 0
ENDMDL
