MODEL 1
REMARK minimizedAffinity -5.42134762
REMARK minimizedRMSD -1
REMARK  0 active torsions:
REMARK  status: ('A' for Active; 'I' for Inactive)
ROOT
ATOM      1  O1  BZF d   1      -0.748  -2.853   1.424  0.00  0.00    -0.204 OA
ATOM      2  C2  BZF d   1      -0.312  -3.632   0.369  0.00  0.00     0.174 A 
ATOM      3  C3  BZF d   1       0.307  -2.875  -0.560  0.00  0.00    -0.012 A 
ATOM      4  C3A BZF d   1       0.336  -1.554  -0.011  0.00  0.00    -0.107 A 
ATOM      5  C4  BZF d   1       0.835  -0.363  -0.456  0.00  0.00     0.055 A 
ATOM      6  C5  BZF d   1       0.634   0.756   0.288  0.00  0.00    -0.016 A 
ATOM      7  C6  BZF d   1      -0.064   0.722   1.477  0.00  0.00     0.022 A 
ATOM      8  C7  BZF d   1      -0.573  -0.437   1.962  0.00  0.00     0.029 A 
ATOM      9  C7A BZF d   1      -0.343  -1.575   1.229  0.00  0.00     0.058 A 
ENDROOT
TORSDOF 0
ENDMDL
