MODEL 1
REMARK minimizedAffinity 2.53493476
REMARK minimizedRMSD -1
REMARK  0 active torsions:
REMARK  status: ('A' for Active; 'I' for Inactive)
ROOT
ATOM      1  O1  BZF d   1       0.612   1.792  -1.038  0.00  0.00    -0.204 OA
ATOM      2  C2  BZF d   1       1.118   2.692  -0.121  0.00  0.00     0.174 A 
ATOM      3  C3  BZF d   1       0.882   2.275   1.140  0.00  0.00    -0.012 A 
ATOM      4  C3A BZF d   1       0.266   0.990   1.002  0.00  0.00    -0.107 A 
ATOM      5  C4  BZF d   1      -0.188   0.066   1.898  0.00  0.00     0.055 A 
ATOM      6  C5  BZF d   1      -0.804  -1.054   1.437  0.00  0.00    -0.016 A 
ATOM      7  C6  BZF d   1      -0.987  -1.279   0.088  0.00  0.00     0.022 A 
ATOM      8  C7  BZF d   1      -0.548  -0.393  -0.839  0.00  0.00     0.029 A 
ATOM      9  C7A BZF d   1       0.104   0.724  -0.377  0.00  0.00     0.058 A 
ENDROOT
TORSDOF 0
ENDMDL
