MODEL 1
REMARK minimizedAffinity -2.28502774
REMARK minimizedRMSD -1
REMARK  0 active torsions:
REMARK  status: ('A' for Active; 'I' for Inactive)
ROOT
ATOM      1  O1  BZF d   1       1.949   0.345  -0.044  0.00  0.00    -0.204 OA
ATOM      2  C2  BZF d   1       1.402   1.612   0.021  0.00  0.00     0.174 A 
ATOM      3  C3  BZF d   1       0.101   1.554   0.372  0.00  0.00    -0.012 A 
ATOM      4  C3A BZF d   1      -0.159   0.170   0.626  0.00  0.00    -0.107 A 
ATOM      5  C4  BZF d   1      -1.269  -0.518   1.026  0.00  0.00     0.055 A 
ATOM      6  C5  BZF d   1      -1.211  -1.873   1.109  0.00  0.00    -0.016 A 
ATOM      7  C6  BZF d   1      -0.063  -2.572   0.796  0.00  0.00     0.022 A 
ATOM      8  C7  BZF d   1       1.064  -1.932   0.399  0.00  0.00     0.029 A 
ATOM      9  C7A BZF d   1       1.019  -0.560   0.346  0.00  0.00     0.058 A 
ENDROOT
TORSDOF 0
ENDMDL
