MODEL 1
REMARK minimizedAffinity -6.28586102
REMARK minimizedRMSD -1
REMARK  0 active torsions:
REMARK  status: ('A' for Active; 'I' for Inactive)
ROOT
ATOM      1  O1  BZF d   1       0.277  -1.502  -2.200  0.00  0.00    -0.204 OA
ATOM      2  C2  BZF d   1       0.020  -2.853  -2.325  0.00  0.00     0.174 A 
ATOM      3  C3  BZF d   1      -0.313  -3.389  -1.133  0.00  0.00    -0.012 A 
ATOM      4  C3A BZF d   1      -0.350  -2.287  -0.222  0.00  0.00    -0.107 A 
ATOM      5  C4  BZF d   1      -0.635  -2.178   1.109  0.00  0.00     0.055 A 
ATOM      6  C5  BZF d   1      -0.509  -0.968   1.715  0.00  0.00    -0.016 A 
ATOM      7  C6  BZF d   1      -0.096   0.151   1.022  0.00  0.00     0.022 A 
ATOM      8  C7  BZF d   1       0.193   0.094  -0.301  0.00  0.00     0.029 A 
ATOM      9  C7A BZF d   1       0.035  -1.120  -0.923  0.00  0.00     0.058 A 
ENDROOT
TORSDOF 0
ENDMDL
