MODEL 1
REMARK minimizedAffinity -5.29064035
REMARK minimizedRMSD -1
REMARK  0 active torsions:
REMARK  status: ('A' for Active; 'I' for Inactive)
ROOT
ATOM      1  O1  BZF d   1       0.428  -1.024   1.972  0.00  0.00    -0.204 OA
ATOM      2  C2  BZF d   1      -0.721  -1.690   1.590  0.00  0.00     0.174 A 
ATOM      3  C3  BZF d   1      -1.404  -0.976   0.672  0.00  0.00    -0.012 A 
ATOM      4  C3A BZF d   1      -0.588   0.167   0.400  0.00  0.00    -0.107 A 
ATOM      5  C4  BZF d   1      -0.721   1.238  -0.437  0.00  0.00     0.055 A 
ATOM      6  C5  BZF d   1       0.220   2.218  -0.410  0.00  0.00    -0.016 A 
ATOM      7  C6  BZF d   1       1.303   2.162   0.443  0.00  0.00     0.022 A 
ATOM      8  C7  BZF d   1       1.480   1.117   1.288  0.00  0.00     0.029 A 
ATOM      9  C7A BZF d   1       0.548   0.110   1.240  0.00  0.00     0.058 A 
ENDROOT
TORSDOF 0
ENDMDL
