MODEL 1
REMARK minimizedAffinity -1.34148169
REMARK minimizedRMSD -1
REMARK  0 active torsions:
REMARK  status: ('A' for Active; 'I' for Inactive)
ROOT
ATOM      1  O1  BZF d   1       1.491   0.137   0.025  0.00  0.00    -0.204 OA
ATOM      2  C2  BZF d   1       0.750   1.294  -0.119  0.00  0.00     0.174 A 
ATOM      3  C3  BZF d   1      -0.568   1.037   0.010  0.00  0.00    -0.012 A 
ATOM      4  C3A BZF d   1      -0.649  -0.353   0.340  0.00  0.00    -0.107 A 
ATOM      5  C4  BZF d   1      -1.691  -1.194   0.607  0.00  0.00     0.055 A 
ATOM      6  C5  BZF d   1      -1.437  -2.512   0.822  0.00  0.00    -0.016 A 
ATOM      7  C6  BZF d   1      -0.156  -3.022   0.772  0.00  0.00     0.022 A 
ATOM      8  C7  BZF d   1       0.910  -2.225   0.516  0.00  0.00     0.029 A 
ATOM      9  C7A BZF d   1       0.660  -0.887   0.331  0.00  0.00     0.058 A 
ENDROOT
TORSDOF 0
ENDMDL
