MODEL 1
REMARK minimizedAffinity -4.06651306
REMARK minimizedRMSD -1
REMARK  0 active torsions:
REMARK  status: ('A' for Active; 'I' for Inactive)
ROOT
ATOM      1  O1  BZF d   1       0.218  -2.770  -0.790  0.00  0.00    -0.204 OA
ATOM      2  C2  BZF d   1      -0.185  -3.445   0.346  0.00  0.00     0.174 A 
ATOM      3  C3  BZF d   1      -0.447  -2.582   1.348  0.00  0.00    -0.012 A 
ATOM      4  C3A BZF d   1      -0.279  -1.281   0.777  0.00  0.00    -0.107 A 
ATOM      5  C4  BZF d   1      -0.415  -0.014   1.270  0.00  0.00     0.055 A 
ATOM      6  C5  BZF d   1      -0.106   1.042   0.472  0.00  0.00    -0.016 A 
ATOM      7  C6  BZF d   1       0.345   0.868  -0.820  0.00  0.00     0.022 A 
ATOM      8  C7  BZF d   1       0.490  -0.369  -1.355  0.00  0.00     0.029 A 
ATOM      9  C7A BZF d   1       0.148  -1.437  -0.562  0.00  0.00     0.058 A 
ENDROOT
TORSDOF 0
ENDMDL
