MODEL 1
REMARK minimizedAffinity -3.96553516
REMARK minimizedRMSD -1
REMARK  0 active torsions:
REMARK  status: ('A' for Active; 'I' for Inactive)
ROOT
ATOM      1  O1  BZF d   1       1.278   1.683   1.150  0.00  0.00    -0.204 OA
ATOM      2  C2  BZF d   1       1.012   2.359  -0.026  0.00  0.00     0.174 A 
ATOM      3  C3  BZF d   1       0.452   1.534  -0.935  0.00  0.00    -0.012 A 
ATOM      4  C3A BZF d   1       0.279   0.287  -0.255  0.00  0.00    -0.107 A 
ATOM      5  C4  BZF d   1      -0.242  -0.919  -0.626  0.00  0.00     0.055 A 
ATOM      6  C5  BZF d   1      -0.197  -1.956   0.252  0.00  0.00    -0.016 A 
ATOM      7  C6  BZF d   1       0.366  -1.823   1.504  0.00  0.00     0.022 A 
ATOM      8  C7  BZF d   1       0.891  -0.644   1.919  0.00  0.00     0.029 A 
ATOM      9  C7A BZF d   1       0.817   0.414   1.046  0.00  0.00     0.058 A 
ENDROOT
TORSDOF 0
ENDMDL
