MODEL 1
REMARK minimizedAffinity -4.26172304
REMARK minimizedRMSD -1
REMARK  0 active torsions:
REMARK  status: ('A' for Active; 'I' for Inactive)
ROOT
ATOM      1  O1  BZF d   1       0.269   0.885   1.388  0.00  0.00    -0.204 OA
ATOM      2  C2  BZF d   1       1.071   1.512   0.453  0.00  0.00     0.174 A 
ATOM      3  C3  BZF d   1       1.390   0.667  -0.548  0.00  0.00    -0.012 A 
ATOM      4  C3A BZF d   1       0.672  -0.539  -0.266  0.00  0.00    -0.107 A 
ATOM      5  C4  BZF d   1       0.568  -1.741  -0.904  0.00  0.00     0.055 A 
ATOM      6  C5  BZF d   1      -0.157  -2.735  -0.328  0.00  0.00    -0.016 A 
ATOM      7  C6  BZF d   1      -0.787  -2.563   0.888  0.00  0.00     0.022 A 
ATOM      8  C7  BZF d   1      -0.717  -1.386   1.557  0.00  0.00     0.029 A 
ATOM      9  C7A BZF d   1      -0.012  -0.369   0.961  0.00  0.00     0.058 A 
ENDROOT
TORSDOF 0
ENDMDL
