MODEL 1
REMARK minimizedAffinity -3.86433077
REMARK minimizedRMSD -1
REMARK  0 active torsions:
REMARK  status: ('A' for Active; 'I' for Inactive)
ROOT
ATOM      1  O1  BZF d   1       1.069   0.843  -0.602  0.00  0.00    -0.204 OA
ATOM      2  C2  BZF d   1       0.962   1.919   0.258  0.00  0.00     0.174 A 
ATOM      3  C3  BZF d   1       0.166   1.619   1.304  0.00  0.00    -0.012 A 
ATOM      4  C3A BZF d   1      -0.176   0.240   1.133  0.00  0.00    -0.107 A 
ATOM      5  C4  BZF d   1      -0.930  -0.638   1.859  0.00  0.00     0.055 A 
ATOM      6  C5  BZF d   1      -1.125  -1.894   1.379  0.00  0.00    -0.016 A 
ATOM      7  C6  BZF d   1      -0.587  -2.304   0.177  0.00  0.00     0.022 A 
ATOM      8  C7  BZF d   1       0.172  -1.471  -0.575  0.00  0.00     0.029 A 
ATOM      9  C7A BZF d   1       0.399  -0.211  -0.077  0.00  0.00     0.058 A 
ENDROOT
TORSDOF 0
ENDMDL
