MODEL 1
REMARK minimizedAffinity -1.32724881
REMARK minimizedRMSD -1
REMARK  0 active torsions:
REMARK  status: ('A' for Active; 'I' for Inactive)
ROOT
ATOM      1  O1  BZF d   1      -0.332   0.143  -1.221  0.00  0.00    -0.204 OA
ATOM      2  C2  BZF d   1       0.001  -0.609  -2.331  0.00  0.00     0.174 A 
ATOM      3  C3  BZF d   1       0.261  -1.886  -1.983  0.00  0.00    -0.012 A 
ATOM      4  C3A BZF d   1      -0.011  -1.956  -0.580  0.00  0.00    -0.107 A 
ATOM      5  C4  BZF d   1       0.046  -2.966   0.338  0.00  0.00     0.055 A 
ATOM      6  C5  BZF d   1      -0.213  -2.688   1.643  0.00  0.00    -0.016 A 
ATOM      7  C6  BZF d   1      -0.526  -1.413   2.065  0.00  0.00     0.022 A 
ATOM      8  C7  BZF d   1      -0.599  -0.380   1.191  0.00  0.00     0.029 A 
ATOM      9  C7A BZF d   1      -0.371  -0.664  -0.134  0.00  0.00     0.058 A 
ENDROOT
TORSDOF 0
ENDMDL
