MODEL 1
REMARK minimizedAffinity 13.3698597
REMARK minimizedRMSD -1
REMARK  0 active torsions:
REMARK  status: ('A' for Active; 'I' for Inactive)
ROOT
ATOM      1  C   UNL d   1      -1.840   1.607   2.690  0.00  0.00     0.078 C 
ATOM      2  C1  UNL d   1      -0.358   1.539   2.910  0.00  0.00    -0.077 A 
ATOM      3  C2  UNL d   1       0.174   1.383   4.196  0.00  0.00    -0.001 A 
ATOM      4  C3  UNL d   1       1.556   1.331   4.386  0.00  0.00     0.003 A 
ATOM      5  C4  UNL d   1       2.417   1.436   3.296  0.00  0.00    -0.005 A 
ATOM      6  C5  UNL d   1       1.897   1.594   2.013  0.00  0.00     0.003 A 
ATOM      7  C6  UNL d   1       0.516   1.646   1.820  0.00  0.00    -0.001 A 
ENDROOT
TORSDOF 0
ENDMDL
