MODEL 1
REMARK minimizedAffinity 3.45493793
REMARK minimizedRMSD -1
REMARK  0 active torsions:
REMARK  status: ('A' for Active; 'I' for Inactive)
ROOT
ATOM      1  C   UNL d   1      -0.847   1.920  -4.909  0.00  0.00     0.078 C 
ATOM      2  C1  UNL d   1      -1.314   3.345  -4.919  0.00  0.00    -0.077 A 
ATOM      3  C2  UNL d   1      -0.998   4.215  -3.868  0.00  0.00    -0.001 A 
ATOM      4  C3  UNL d   1      -1.448   5.536  -3.886  0.00  0.00     0.003 A 
ATOM      5  C4  UNL d   1      -2.218   5.998  -4.951  0.00  0.00    -0.005 A 
ATOM      6  C5  UNL d   1      -2.540   5.139  -6.000  0.00  0.00     0.003 A 
ATOM      7  C6  UNL d   1      -2.091   3.818  -5.984  0.00  0.00    -0.001 A 
ENDROOT
TORSDOF 0
ENDMDL
