MODEL 1
REMARK minimizedAffinity 12.3924732
REMARK minimizedRMSD -1
REMARK  0 active torsions:
REMARK  status: ('A' for Active; 'I' for Inactive)
ROOT
ATOM      1  C   UNL d   1       4.825  -3.269   0.012  0.00  0.00     0.078 C 
ATOM      2  C1  UNL d   1       3.748  -2.291  -0.353  0.00  0.00    -0.077 A 
ATOM      3  C2  UNL d   1       2.726  -2.642  -1.243  0.00  0.00    -0.001 A 
ATOM      4  C3  UNL d   1       1.736  -1.718  -1.581  0.00  0.00     0.003 A 
ATOM      5  C4  UNL d   1       1.758  -0.437  -1.033  0.00  0.00    -0.005 A 
ATOM      6  C5  UNL d   1       2.772  -0.078  -0.148  0.00  0.00     0.003 A 
ATOM      7  C6  UNL d   1       3.764  -1.000   0.191  0.00  0.00    -0.001 A 
ENDROOT
TORSDOF 0
ENDMDL
