MODEL 1
REMARK minimizedAffinity 9.74577332
REMARK minimizedRMSD -1
REMARK  0 active torsions:
REMARK  status: ('A' for Active; 'I' for Inactive)
ROOT
ATOM      1  C   UNL d   1      -3.347   0.655   2.559  0.00  0.00     0.078 C 
ATOM      2  C1  UNL d   1      -3.722   1.481   3.753  0.00  0.00    -0.077 A 
ATOM      3  C2  UNL d   1      -4.882   2.267   3.750  0.00  0.00    -0.001 A 
ATOM      4  C3  UNL d   1      -5.214   3.039   4.864  0.00  0.00     0.003 A 
ATOM      5  C4  UNL d   1      -4.391   3.035   5.989  0.00  0.00    -0.005 A 
ATOM      6  C5  UNL d   1      -3.234   2.258   6.000  0.00  0.00     0.003 A 
ATOM      7  C6  UNL d   1      -2.901   1.485   4.887  0.00  0.00    -0.001 A 
ENDROOT
TORSDOF 0
ENDMDL
