MODEL 1
REMARK minimizedAffinity 10.1138277
REMARK minimizedRMSD -1
REMARK  0 active torsions:
REMARK  status: ('A' for Active; 'I' for Inactive)
ROOT
ATOM      1  C   UNL d   1       1.439  -1.225  -2.392  0.00  0.00     0.078 C 
ATOM      2  C1  UNL d   1       2.422  -0.395  -1.623  0.00  0.00    -0.077 A 
ATOM      3  C2  UNL d   1       2.785   0.885  -2.061  0.00  0.00    -0.001 A 
ATOM      4  C3  UNL d   1       3.709   1.643  -1.340  0.00  0.00     0.003 A 
ATOM      5  C4  UNL d   1       4.279   1.130  -0.177  0.00  0.00    -0.005 A 
ATOM      6  C5  UNL d   1       3.926  -0.143   0.266  0.00  0.00     0.003 A 
ATOM      7  C6  UNL d   1       3.002  -0.903  -0.453  0.00  0.00    -0.001 A 
ENDROOT
TORSDOF 0
ENDMDL
