MODEL 1
REMARK minimizedAffinity 5.51925087
REMARK minimizedRMSD -1
REMARK  0 active torsions:
REMARK  status: ('A' for Active; 'I' for Inactive)
ROOT
ATOM      1  C   UNL d   1      -4.426  -2.965  -4.934  0.00  0.00     0.078 C 
ATOM      2  C1  UNL d   1      -3.187  -3.189  -4.120  0.00  0.00    -0.077 A 
ATOM      3  C2  UNL d   1      -2.094  -2.320  -4.216  0.00  0.00    -0.001 A 
ATOM      4  C3  UNL d   1      -0.943  -2.546  -3.459  0.00  0.00     0.003 A 
ATOM      5  C4  UNL d   1      -0.873  -3.643  -2.602  0.00  0.00    -0.005 A 
ATOM      6  C5  UNL d   1      -1.955  -4.515  -2.502  0.00  0.00     0.003 A 
ATOM      7  C6  UNL d   1      -3.107  -4.290  -3.257  0.00  0.00    -0.001 A 
ENDROOT
TORSDOF 0
ENDMDL
