MODEL 1
REMARK minimizedAffinity 10.1760778
REMARK minimizedRMSD -1
REMARK  0 active torsions:
REMARK  status: ('A' for Active; 'I' for Inactive)
ROOT
ATOM      1  C   UNL d   1      -1.002  -3.526  -3.733  0.00  0.00     0.078 C 
ATOM      2  C1  UNL d   1      -2.354  -3.343  -4.356  0.00  0.00    -0.077 A 
ATOM      3  C2  UNL d   1      -3.456  -4.087  -3.919  0.00  0.00    -0.001 A 
ATOM      4  C3  UNL d   1      -4.706  -3.913  -4.515  0.00  0.00     0.003 A 
ATOM      5  C4  UNL d   1      -4.865  -2.997  -5.553  0.00  0.00    -0.005 A 
ATOM      6  C5  UNL d   1      -3.774  -2.254  -5.997  0.00  0.00     0.003 A 
ATOM      7  C6  UNL d   1      -2.523  -2.426  -5.402  0.00  0.00    -0.001 A 
ENDROOT
TORSDOF 0
ENDMDL
