MODEL 1
REMARK minimizedAffinity 9.80666447
REMARK minimizedRMSD -1
REMARK  0 active torsions:
REMARK  status: ('A' for Active; 'I' for Inactive)
ROOT
ATOM      1  C   UNL d   1       4.896  -2.828   0.527  0.00  0.00     0.078 C 
ATOM      2  C1  UNL d   1       4.021  -1.651   0.214  0.00  0.00    -0.077 A 
ATOM      3  C2  UNL d   1       2.869  -1.796  -0.568  0.00  0.00    -0.001 A 
ATOM      4  C3  UNL d   1       2.069  -0.690  -0.860  0.00  0.00     0.003 A 
ATOM      5  C4  UNL d   1       2.413   0.569  -0.374  0.00  0.00    -0.005 A 
ATOM      6  C5  UNL d   1       3.558   0.725   0.404  0.00  0.00     0.003 A 
ATOM      7  C6  UNL d   1       4.359  -0.380   0.696  0.00  0.00    -0.001 A 
ENDROOT
TORSDOF 0
ENDMDL
