MODEL 1
REMARK minimizedAffinity 4.36533117
REMARK minimizedRMSD -1
REMARK  0 active torsions:
REMARK  status: ('A' for Active; 'I' for Inactive)
ROOT
ATOM      1  C   UNL d   1       4.282  -2.749   0.573  0.00  0.00     0.078 C 
ATOM      2  C1  UNL d   1       3.568  -1.493   0.174  0.00  0.00    -0.077 A 
ATOM      3  C2  UNL d   1       2.638  -1.493  -0.873  0.00  0.00    -0.001 A 
ATOM      4  C3  UNL d   1       1.987  -0.314  -1.240  0.00  0.00     0.003 A 
ATOM      5  C4  UNL d   1       2.260   0.875  -0.566  0.00  0.00    -0.005 A 
ATOM      6  C5  UNL d   1       3.186   0.885   0.476  0.00  0.00     0.003 A 
ATOM      7  C6  UNL d   1       3.837  -0.293   0.844  0.00  0.00    -0.001 A 
ENDROOT
TORSDOF 0
ENDMDL
