MODEL 1
REMARK minimizedAffinity 7.70425987
REMARK minimizedRMSD -1
REMARK  0 active torsions:
REMARK  status: ('A' for Active; 'I' for Inactive)
ROOT
ATOM      1  C   UNL d   1       0.062   1.171   2.192  0.00  0.00     0.078 C 
ATOM      2  C1  UNL d   1      -1.380   1.227   2.598  0.00  0.00    -0.077 A 
ATOM      3  C2  UNL d   1      -1.805   2.066   3.636  0.00  0.00    -0.001 A 
ATOM      4  C3  UNL d   1      -3.150   2.100   4.010  0.00  0.00     0.003 A 
ATOM      5  C4  UNL d   1      -4.079   1.297   3.352  0.00  0.00    -0.005 A 
ATOM      6  C5  UNL d   1      -3.665   0.457   2.320  0.00  0.00     0.003 A 
ATOM      7  C6  UNL d   1      -2.321   0.422   1.945  0.00  0.00    -0.001 A 
ENDROOT
TORSDOF 0
ENDMDL
