MODEL 1
REMARK minimizedAffinity 6.84210825
REMARK minimizedRMSD -1
REMARK  0 active torsions:
REMARK  status: ('A' for Active; 'I' for Inactive)
ROOT
ATOM      1  C   UNL d   1      -0.957   1.891  -4.784  0.00  0.00     0.078 C 
ATOM      2  C1  UNL d   1      -1.716   3.181  -4.880  0.00  0.00    -0.077 A 
ATOM      3  C2  UNL d   1      -2.627   3.406  -5.918  0.00  0.00    -0.001 A 
ATOM      4  C3  UNL d   1      -3.319   4.616  -6.000  0.00  0.00     0.003 A 
ATOM      5  C4  UNL d   1      -3.106   5.610  -5.047  0.00  0.00    -0.005 A 
ATOM      6  C5  UNL d   1      -2.199   5.395  -4.011  0.00  0.00     0.003 A 
ATOM      7  C6  UNL d   1      -1.506   4.186  -3.928  0.00  0.00    -0.001 A 
ENDROOT
TORSDOF 0
ENDMDL
