MODEL 1
REMARK minimizedAffinity 10.6186438
REMARK minimizedRMSD -1
REMARK  0 active torsions:
REMARK  status: ('A' for Active; 'I' for Inactive)
ROOT
ATOM      1  C   UNL d   1      -0.042   1.423   2.882  0.00  0.00     0.078 C 
ATOM      2  C1  UNL d   1       1.100   1.234   1.928  0.00  0.00    -0.077 A 
ATOM      3  C2  UNL d   1       2.325   1.881   2.133  0.00  0.00    -0.001 A 
ATOM      4  C3  UNL d   1       3.376   1.704   1.232  0.00  0.00     0.003 A 
ATOM      5  C4  UNL d   1       3.212   0.882   0.119  0.00  0.00    -0.005 A 
ATOM      6  C5  UNL d   1       1.996   0.236  -0.094  0.00  0.00     0.003 A 
ATOM      7  C6  UNL d   1       0.944   0.412   0.806  0.00  0.00    -0.001 A 
ENDROOT
TORSDOF 0
ENDMDL
