MODEL 1
REMARK minimizedAffinity 4.77029324
REMARK minimizedRMSD -1
REMARK  0 active torsions:
REMARK  status: ('A' for Active; 'I' for Inactive)
ROOT
ATOM      1  C   UNL d   1       1.378  -0.224  -1.132  0.00  0.00     0.078 C 
ATOM      2  C1  UNL d   1       1.234   0.457   0.196  0.00  0.00    -0.077 A 
ATOM      3  C2  UNL d   1      -0.015   0.565   0.819  0.00  0.00    -0.001 A 
ATOM      4  C3  UNL d   1      -0.135   1.210   2.051  0.00  0.00     0.003 A 
ATOM      5  C4  UNL d   1       0.989   1.753   2.670  0.00  0.00    -0.005 A 
ATOM      6  C5  UNL d   1       2.236   1.652   2.056  0.00  0.00     0.003 A 
ATOM      7  C6  UNL d   1       2.359   1.007   0.824  0.00  0.00    -0.001 A 
ENDROOT
TORSDOF 0
ENDMDL
