MODEL 1
REMARK minimizedAffinity 13.8759165
REMARK minimizedRMSD -1
REMARK  0 active torsions:
REMARK  status: ('A' for Active; 'I' for Inactive)
ROOT
ATOM      1  C   UNL d   1       0.070   1.874   2.525  0.00  0.00     0.078 C 
ATOM      2  C1  UNL d   1      -1.395   1.603   2.694  0.00  0.00    -0.077 A 
ATOM      3  C2  UNL d   1      -2.118   2.178   3.746  0.00  0.00    -0.001 A 
ATOM      4  C3  UNL d   1      -3.479   1.909   3.898  0.00  0.00     0.003 A 
ATOM      5  C4  UNL d   1      -4.129   1.063   3.002  0.00  0.00    -0.005 A 
ATOM      6  C5  UNL d   1      -3.417   0.483   1.953  0.00  0.00     0.003 A 
ATOM      7  C6  UNL d   1      -2.056   0.752   1.800  0.00  0.00    -0.001 A 
ENDROOT
TORSDOF 0
ENDMDL
