MODEL 1
REMARK minimizedAffinity 7.07464075
REMARK minimizedRMSD -1
REMARK  0 active torsions:
REMARK  status: ('A' for Active; 'I' for Inactive)
ROOT
ATOM      1  C   UNL d   1       2.324  -0.211  -0.358  0.00  0.00     0.078 C 
ATOM      2  C1  UNL d   1       3.064  -1.438   0.082  0.00  0.00    -0.077 A 
ATOM      3  C2  UNL d   1       4.428  -1.385   0.396  0.00  0.00    -0.001 A 
ATOM      4  C3  UNL d   1       5.106  -2.538   0.795  0.00  0.00     0.003 A 
ATOM      5  C4  UNL d   1       4.429  -3.753   0.882  0.00  0.00    -0.005 A 
ATOM      6  C5  UNL d   1       3.073  -3.816   0.570  0.00  0.00     0.003 A 
ATOM      7  C6  UNL d   1       2.393  -2.665   0.171  0.00  0.00    -0.001 A 
ENDROOT
TORSDOF 0
ENDMDL
