MODEL 1
REMARK minimizedAffinity 10.0270863
REMARK minimizedRMSD -1
REMARK  0 active torsions:
REMARK  status: ('A' for Active; 'I' for Inactive)
ROOT
ATOM      1  C   UNL d   1      -0.902   1.696   2.247  0.00  0.00     0.078 C 
ATOM      2  C1  UNL d   1      -0.158   1.680   3.549  0.00  0.00    -0.077 A 
ATOM      3  C2  UNL d   1       1.113   1.099   3.646  0.00  0.00    -0.001 A 
ATOM      4  C3  UNL d   1       1.790   1.082   4.867  0.00  0.00     0.003 A 
ATOM      5  C4  UNL d   1       1.204   1.644   6.000  0.00  0.00    -0.005 A 
ATOM      6  C5  UNL d   1      -0.061   2.222   5.913  0.00  0.00     0.003 A 
ATOM      7  C6  UNL d   1      -0.739   2.240   4.693  0.00  0.00    -0.001 A 
ENDROOT
TORSDOF 0
ENDMDL
