MODEL 1
REMARK minimizedAffinity 3.77718043
REMARK minimizedRMSD -1
REMARK  0 active torsions:
REMARK  status: ('A' for Active; 'I' for Inactive)
ROOT
ATOM      1  C2' OXE d   1      -4.924   1.620   0.339  0.00  0.00     0.078 C 
ATOM      2  C1' OXE d   1      -2.642   3.252   0.251  0.00  0.00     0.078 C 
ATOM      3  C1  OXE d   1      -3.796   3.703   1.111  0.00  0.00    -0.078 A 
ATOM      4  C2  OXE d   1      -4.927   2.922   1.111  0.00  0.00    -0.078 A 
ATOM      5  C3  OXE d   1      -6.000   3.263   1.929  0.00  0.00     0.003 A 
ATOM      6  C4  OXE d   1      -5.998   4.474   2.633  0.00  0.00    -0.002 A 
ATOM      7  C5  OXE d   1      -4.872   5.303   2.615  0.00  0.00    -0.002 A 
ATOM      8  C6  OXE d   1      -3.749   4.912   1.895  0.00  0.00     0.003 A 
ENDROOT
TORSDOF 0
ENDMDL
