MODEL 1
REMARK minimizedAffinity 5.40728664
REMARK minimizedRMSD -1
REMARK  0 active torsions:
REMARK  status: ('A' for Active; 'I' for Inactive)
ROOT
ATOM      1  C2' OXE d   1      -3.812   1.383  -2.237  0.00  0.00     0.078 C 
ATOM      2  C1' OXE d   1      -5.224  -0.773  -1.126  0.00  0.00     0.078 C 
ATOM      3  C1  OXE d   1      -5.256   0.542  -0.389  0.00  0.00    -0.078 A 
ATOM      4  C2  OXE d   1      -4.524   1.579  -0.916  0.00  0.00    -0.078 A 
ATOM      5  C3  OXE d   1      -4.562   2.830  -0.306  0.00  0.00     0.003 A 
ATOM      6  C4  OXE d   1      -5.214   3.000   0.922  0.00  0.00    -0.002 A 
ATOM      7  C5  OXE d   1      -5.933   1.946   1.496  0.00  0.00    -0.002 A 
ATOM      8  C6  OXE d   1      -5.999   0.725   0.833  0.00  0.00     0.003 A 
ENDROOT
TORSDOF 0
ENDMDL
