MODEL 1
REMARK minimizedAffinity 2.88264275
REMARK minimizedRMSD -1
REMARK  0 active torsions:
REMARK  status: ('A' for Active; 'I' for Inactive)
ROOT
ATOM      1  C2' OXE d   1       3.277  -0.753  -0.611  0.00  0.00     0.078 C 
ATOM      2  C1' OXE d   1       2.103   1.458   0.659  0.00  0.00     0.078 C 
ATOM      3  C1  OXE d   1       3.466   1.645   0.040  0.00  0.00    -0.078 A 
ATOM      4  C2  OXE d   1       4.053   0.545  -0.539  0.00  0.00    -0.078 A 
ATOM      5  C3  OXE d   1       5.285   0.675  -1.173  0.00  0.00     0.003 A 
ATOM      6  C4  OXE d   1       6.000   1.877  -1.093  0.00  0.00    -0.002 A 
ATOM      7  C5  OXE d   1       5.437   2.998  -0.474  0.00  0.00    -0.002 A 
ATOM      8  C6  OXE d   1       4.156   2.911   0.059  0.00  0.00     0.003 A 
ENDROOT
TORSDOF 0
ENDMDL
