MODEL 1
REMARK minimizedAffinity -1.59377515
REMARK minimizedRMSD -1
REMARK  0 active torsions:
REMARK  status: ('A' for Active; 'I' for Inactive)
ROOT
ATOM      1  C2' OXE d   1      -2.874   0.362  -4.781  0.00  0.00     0.078 C 
ATOM      2  C1' OXE d   1      -5.645   0.196  -5.196  0.00  0.00     0.078 C 
ATOM      3  C1  OXE d   1      -5.128   1.330  -4.347  0.00  0.00    -0.078 A 
ATOM      4  C2  OXE d   1      -3.775   1.376  -4.111  0.00  0.00    -0.078 A 
ATOM      5  C3  OXE d   1      -3.239   2.432  -3.379  0.00  0.00     0.003 A 
ATOM      6  C4  OXE d   1      -4.080   3.361  -2.754  0.00  0.00    -0.002 A 
ATOM      7  C5  OXE d   1      -5.465   3.309  -2.949  0.00  0.00    -0.002 A 
ATOM      8  C6  OXE d   1      -6.000   2.327  -3.776  0.00  0.00     0.003 A 
ENDROOT
TORSDOF 0
ENDMDL
