MODEL 1
REMARK minimizedAffinity -1.48314178
REMARK minimizedRMSD -1
REMARK  0 active torsions:
REMARK  status: ('A' for Active; 'I' for Inactive)
ROOT
ATOM      1  C2' OXE d   1       5.801   2.554   0.832  0.00  0.00     0.078 C 
ATOM      2  C1' OXE d   1       4.231   1.363  -1.167  0.00  0.00     0.078 C 
ATOM      3  C1  OXE d   1       3.565   1.696   0.145  0.00  0.00    -0.078 A 
ATOM      4  C2  OXE d   1       4.352   2.236   1.134  0.00  0.00    -0.078 A 
ATOM      5  C3  OXE d   1       3.777   2.612   2.344  0.00  0.00     0.003 A 
ATOM      6  C4  OXE d   1       2.439   2.305   2.618  0.00  0.00    -0.002 A 
ATOM      7  C5  OXE d   1       1.629   1.719   1.639  0.00  0.00    -0.002 A 
ATOM      8  C6  OXE d   1       2.165   1.448   0.385  0.00  0.00     0.003 A 
ENDROOT
TORSDOF 0
ENDMDL
