MODEL 1
REMARK minimizedAffinity 1.31944418
REMARK minimizedRMSD -1
REMARK  0 active torsions:
REMARK  status: ('A' for Active; 'I' for Inactive)
ROOT
ATOM      1  C2' OXE d   1      -5.902   2.161  -1.690  0.00  0.00     0.078 C 
ATOM      2  C1' OXE d   1      -4.480   0.019  -0.566  0.00  0.00     0.078 C 
ATOM      3  C1  OXE d   1      -4.136   0.428  -1.976  0.00  0.00    -0.078 A 
ATOM      4  C2  OXE d   1      -4.870   1.447  -2.535  0.00  0.00    -0.078 A 
ATOM      5  C3  OXE d   1      -4.557   1.900  -3.813  0.00  0.00     0.003 A 
ATOM      6  C4  OXE d   1      -3.608   1.228  -4.592  0.00  0.00    -0.002 A 
ATOM      7  C5  OXE d   1      -2.877   0.162  -4.056  0.00  0.00    -0.002 A 
ATOM      8  C6  OXE d   1      -3.099  -0.222  -2.738  0.00  0.00     0.003 A 
ENDROOT
TORSDOF 0
ENDMDL
