MODEL 1
REMARK minimizedAffinity 4.37980556
REMARK minimizedRMSD -1
REMARK  0 active torsions:
REMARK  status: ('A' for Active; 'I' for Inactive)
ROOT
ATOM      1  C2' OXE d   1      -3.199   3.298  -2.762  0.00  0.00     0.078 C 
ATOM      2  C1' OXE d   1      -6.000   3.196  -2.595  0.00  0.00     0.078 C 
ATOM      3  C1  OXE d   1      -5.292   2.043  -3.261  0.00  0.00    -0.078 A 
ATOM      4  C2  OXE d   1      -3.925   2.123  -3.380  0.00  0.00    -0.078 A 
ATOM      5  C3  OXE d   1      -3.218   1.061  -3.936  0.00  0.00     0.003 A 
ATOM      6  C4  OXE d   1      -3.898  -0.018  -4.514  0.00  0.00    -0.002 A 
ATOM      7  C5  OXE d   1      -5.292  -0.101  -4.439  0.00  0.00    -0.002 A 
ATOM      8  C6  OXE d   1      -6.000   0.898  -3.780  0.00  0.00     0.003 A 
ENDROOT
TORSDOF 0
ENDMDL
