MODEL 1
REMARK minimizedAffinity 10.3887405
REMARK minimizedRMSD -1
REMARK  0 active torsions:
REMARK  status: ('A' for Active; 'I' for Inactive)
ROOT
ATOM      1  C2' OXE d   1       3.219   1.227  -0.810  0.00  0.00     0.078 C 
ATOM      2  C1' OXE d   1       2.319  -1.370  -0.239  0.00  0.00     0.078 C 
ATOM      3  C1  OXE d   1       1.814  -0.244   0.628  0.00  0.00    -0.078 A 
ATOM      4  C2  OXE d   1       2.296   1.017   0.371  0.00  0.00    -0.078 A 
ATOM      5  C3  OXE d   1       1.821   2.099   1.106  0.00  0.00     0.003 A 
ATOM      6  C4  OXE d   1       0.975   1.895   2.203  0.00  0.00    -0.002 A 
ATOM      7  C5  OXE d   1       0.503   0.614   2.507  0.00  0.00    -0.002 A 
ATOM      8  C6  OXE d   1       0.879  -0.458   1.705  0.00  0.00     0.003 A 
ENDROOT
TORSDOF 0
ENDMDL
