MODEL 1
REMARK minimizedAffinity 5.04631233
REMARK minimizedRMSD -1
REMARK  0 active torsions:
REMARK  status: ('A' for Active; 'I' for Inactive)
ROOT
ATOM      1  C2' OXE d   1      -3.832   3.409  -3.754  0.00  0.00     0.078 C 
ATOM      2  C1' OXE d   1      -3.611   0.783  -4.721  0.00  0.00     0.078 C 
ATOM      3  C1  OXE d   1      -4.470   1.014  -3.503  0.00  0.00    -0.078 A 
ATOM      4  C2  OXE d   1      -4.535   2.295  -3.009  0.00  0.00    -0.078 A 
ATOM      5  C3  OXE d   1      -5.357   2.573  -1.920  0.00  0.00     0.003 A 
ATOM      6  C4  OXE d   1      -5.996   1.535  -1.231  0.00  0.00    -0.002 A 
ATOM      7  C5  OXE d   1      -5.911   0.217  -1.695  0.00  0.00    -0.002 A 
ATOM      8  C6  OXE d   1      -5.188  -0.053  -2.851  0.00  0.00     0.003 A 
ENDROOT
TORSDOF 0
ENDMDL
