MODEL 1
REMARK minimizedAffinity 2.49566579
REMARK minimizedRMSD -1
REMARK  0 active torsions:
REMARK  status: ('A' for Active; 'I' for Inactive)
ROOT
ATOM      1  C2' OXE d   1      -1.170   0.678  -1.541  0.00  0.00     0.078 C 
ATOM      2  C1' OXE d   1       1.344   0.888  -0.311  0.00  0.00     0.078 C 
ATOM      3  C1  OXE d   1       0.841  -0.493  -0.652  0.00  0.00    -0.078 A 
ATOM      4  C2  OXE d   1      -0.411  -0.589  -1.211  0.00  0.00    -0.078 A 
ATOM      5  C3  OXE d   1      -0.900  -1.834  -1.596  0.00  0.00     0.003 A 
ATOM      6  C4  OXE d   1      -0.195  -3.002  -1.278  0.00  0.00    -0.002 A 
ATOM      7  C5  OXE d   1       1.064  -2.928  -0.673  0.00  0.00    -0.002 A 
ATOM      8  C6  OXE d   1       1.614  -1.682  -0.393  0.00  0.00     0.003 A 
ENDROOT
TORSDOF 0
ENDMDL
