MODEL 1
REMARK minimizedAffinity 6.45125103
REMARK minimizedRMSD -1
REMARK  1 active torsions:
REMARK  status: ('A' for Active; 'I' for Inactive)
REMARK    1  A    between atoms: N_2  and  C1_3 
ROOT
ATOM      1  C1  UNL d   1       1.940   0.316   5.022  0.00  0.00     0.143 A 
ATOM      2  C2  UNL d   1       0.621   0.744   4.833  0.00  0.00    -0.057 A 
ATOM      3  C3  UNL d   1       0.336   1.970   4.220  0.00  0.00     0.033 A 
ATOM      4  C4  UNL d   1       1.369   2.807   3.811  0.00  0.00    -0.042 A 
ATOM      5  C5  UNL d   1       2.688   2.414   4.012  0.00  0.00     0.033 A 
ATOM      6  C6  UNL d   1       2.966   1.185   4.618  0.00  0.00    -0.057 A 
ENDROOT
BRANCH   1   7
ATOM      7  N   UNL d   1       2.289  -0.847   5.713  0.00  0.00    -0.732 N 
ATOM      8  C   UNL d   1       1.297  -1.863   5.993  0.00  0.00     0.284 C 
ATOM      9  H3  UNL d   1       3.191  -1.215   5.423  0.00  0.00     0.395 HD
ENDBRANCH   1   7
TORSDOF 1
ENDMDL
