MODEL 1
REMARK minimizedAffinity -1.60709071
REMARK minimizedRMSD -1
REMARK  1 active torsions:
REMARK  status: ('A' for Active; 'I' for Inactive)
REMARK    1  A    between atoms: N_2  and  C1_3 
ROOT
ATOM      1  C1  UNL d   1      -3.050  -0.382   2.314  0.00  0.00     0.143 A 
ATOM      2  C2  UNL d   1      -4.447  -0.452   2.343  0.00  0.00    -0.057 A 
ATOM      3  C3  UNL d   1      -5.172  -0.943   1.251  0.00  0.00     0.033 A 
ATOM      4  C4  UNL d   1      -4.512  -1.347   0.095  0.00  0.00    -0.042 A 
ATOM      5  C5  UNL d   1      -3.126  -1.263   0.035  0.00  0.00     0.033 A 
ATOM      6  C6  UNL d   1      -2.407  -0.778   1.131  0.00  0.00    -0.057 A 
ENDROOT
BRANCH   1   7
ATOM      7  N   UNL d   1      -2.279   0.188   3.330  0.00  0.00    -0.732 N 
ATOM      8  C   UNL d   1      -2.513  -0.158   4.716  0.00  0.00     0.284 C 
ATOM      9  H3  UNL d   1      -1.296   0.257   3.079  0.00  0.00     0.395 HD
ENDBRANCH   1   7
TORSDOF 1
ENDMDL
