MODEL 1
REMARK minimizedAffinity 6.79343367
REMARK minimizedRMSD -1
REMARK  1 active torsions:
REMARK  status: ('A' for Active; 'I' for Inactive)
REMARK    1  A    between atoms: N_2  and  C1_3 
ROOT
ATOM      1  C1  UNL d   1      -1.804  -3.305   1.582  0.00  0.00     0.143 A 
ATOM      2  C2  UNL d   1      -1.826  -2.509   0.433  0.00  0.00    -0.057 A 
ATOM      3  C3  UNL d   1      -2.151  -1.148   0.498  0.00  0.00     0.033 A 
ATOM      4  C4  UNL d   1      -2.490  -0.566   1.715  0.00  0.00    -0.042 A 
ATOM      5  C5  UNL d   1      -2.499  -1.344   2.867  0.00  0.00     0.033 A 
ATOM      6  C6  UNL d   1      -2.166  -2.700   2.796  0.00  0.00    -0.057 A 
ENDROOT
BRANCH   1   7
ATOM      7  N   UNL d   1      -1.585  -4.685   1.568  0.00  0.00    -0.732 N 
ATOM      8  C   UNL d   1      -1.098  -5.342   0.375  0.00  0.00     0.284 C 
ATOM      9  H3  UNL d   1      -1.159  -5.019   2.430  0.00  0.00     0.395 HD
ENDBRANCH   1   7
TORSDOF 1
ENDMDL
