MODEL 1
REMARK minimizedAffinity 7.1640296
REMARK minimizedRMSD -1
REMARK  1 active torsions:
REMARK  status: ('A' for Active; 'I' for Inactive)
REMARK    1  A    between atoms: N_2  and  C1_3 
ROOT
ATOM      1  C1  UNL d   1       3.399  -0.355  -1.893  0.00  0.00     0.143 A 
ATOM      2  C2  UNL d   1       2.496  -1.213  -1.255  0.00  0.00    -0.057 A 
ATOM      3  C3  UNL d   1       2.054  -0.963   0.050  0.00  0.00     0.033 A 
ATOM      4  C4  UNL d   1       2.531   0.139   0.752  0.00  0.00    -0.042 A 
ATOM      5  C5  UNL d   1       3.448   0.991   0.148  0.00  0.00     0.033 A 
ATOM      6  C6  UNL d   1       3.880   0.739  -1.158  0.00  0.00    -0.057 A 
ENDROOT
BRANCH   1   7
ATOM      7  N   UNL d   1       3.951  -0.604  -3.152  0.00  0.00    -0.732 N 
ATOM      8  C   UNL d   1       5.383  -0.731  -3.316  0.00  0.00     0.284 C 
ATOM      9  H3  UNL d   1       3.409  -1.278  -3.687  0.00  0.00     0.395 HD
ENDBRANCH   1   7
TORSDOF 1
ENDMDL
