MODEL 1
REMARK minimizedAffinity 6.07628059
REMARK minimizedRMSD -1
REMARK  1 active torsions:
REMARK  status: ('A' for Active; 'I' for Inactive)
REMARK    1  A    between atoms: N_2  and  C1_3 
ROOT
ATOM      1  C1  UNL d   1       1.479   1.760   0.932  0.00  0.00     0.143 A 
ATOM      2  C2  UNL d   1       1.567   0.406   0.590  0.00  0.00    -0.057 A 
ATOM      3  C3  UNL d   1       2.692  -0.103  -0.070  0.00  0.00     0.033 A 
ATOM      4  C4  UNL d   1       3.738   0.741  -0.427  0.00  0.00    -0.042 A 
ATOM      5  C5  UNL d   1       3.661   2.094  -0.120  0.00  0.00     0.033 A 
ATOM      6  C6  UNL d   1       2.538   2.596   0.546  0.00  0.00    -0.057 A 
ENDROOT
BRANCH   1   7
ATOM      7  N   UNL d   1       0.345   2.346   1.501  0.00  0.00    -0.732 N 
ATOM      8  C   UNL d   1       0.106   2.257   2.926  0.00  0.00     0.284 C 
ATOM      9  H3  UNL d   1       0.137   3.258   1.100  0.00  0.00     0.395 HD
ENDBRANCH   1   7
TORSDOF 1
ENDMDL
