MODEL 1
REMARK minimizedAffinity 1.80260909
REMARK minimizedRMSD -1
REMARK  1 active torsions:
REMARK  status: ('A' for Active; 'I' for Inactive)
REMARK    1  A    between atoms: C3_4  and  O_7 
ROOT
ATOM      1  C   UNL d   1      -0.310  -2.296  -1.691  0.00  0.00    -0.033 A 
ATOM      2  C1  UNL d   1       0.219  -1.305  -0.861  0.00  0.00     0.039 A 
ATOM      3  C2  UNL d   1      -0.218  -1.192   0.460  0.00  0.00    -0.080 A 
ATOM      4  C3  UNL d   1      -1.181  -2.076   0.939  0.00  0.00     0.150 A 
ATOM      5  C4  UNL d   1      -1.709  -3.068   0.119  0.00  0.00    -0.007 A 
ATOM      6  C5  UNL d   1      -1.272  -3.178  -1.200  0.00  0.00     0.039 A 
ENDROOT
BRANCH   4   7
ATOM      7  O   UNL d   1      -1.642  -2.002   2.220  0.00  0.00    -0.526 OA
ATOM      8  H5  UNL d   1      -1.209  -1.251   2.660  0.00  0.00     0.418 HD
ENDBRANCH   4   7
TORSDOF 1
ENDMDL
