MODEL 1
REMARK minimizedAffinity -1.11926425
REMARK minimizedRMSD -1
REMARK  1 active torsions:
REMARK  status: ('A' for Active; 'I' for Inactive)
REMARK    1  A    between atoms: C3_4  and  O_7 
ROOT
ATOM      1  C   UNL d   1       6.000  -4.361  -5.074  0.00  0.00    -0.033 A 
ATOM      2  C1  UNL d   1       5.054  -3.831  -5.953  0.00  0.00     0.039 A 
ATOM      3  C2  UNL d   1       3.765  -4.366  -6.000  0.00  0.00    -0.080 A 
ATOM      4  C3  UNL d   1       3.435  -5.429  -5.163  0.00  0.00     0.150 A 
ATOM      5  C4  UNL d   1       4.371  -5.959  -4.282  0.00  0.00    -0.007 A 
ATOM      6  C5  UNL d   1       5.658  -5.424  -4.237  0.00  0.00     0.039 A 
ENDROOT
BRANCH   4   7
ATOM      7  O   UNL d   1       2.191  -5.987  -5.176  0.00  0.00    -0.526 OA
ATOM      8  H5  UNL d   1       1.659  -5.537  -5.854  0.00  0.00     0.418 HD
ENDBRANCH   4   7
TORSDOF 1
ENDMDL
