MODEL 1
REMARK minimizedAffinity 8.70718575
REMARK minimizedRMSD -1
REMARK  1 active torsions:
REMARK  status: ('A' for Active; 'I' for Inactive)
REMARK    1  A    between atoms: C3_4  and  O_7 
ROOT
ATOM      1  C   UNL d   1      -1.462  -3.092   0.842  0.00  0.00    -0.033 A 
ATOM      2  C1  UNL d   1      -2.237  -3.837  -0.049  0.00  0.00     0.039 A 
ATOM      3  C2  UNL d   1      -1.958  -3.803  -1.417  0.00  0.00    -0.080 A 
ATOM      4  C3  UNL d   1      -0.903  -3.023  -1.880  0.00  0.00     0.150 A 
ATOM      5  C4  UNL d   1      -0.124  -2.281  -0.998  0.00  0.00    -0.007 A 
ATOM      6  C5  UNL d   1      -0.404  -2.315   0.367  0.00  0.00     0.039 A 
ENDROOT
BRANCH   4   7
ATOM      7  O   UNL d   1      -0.596  -2.955  -3.207  0.00  0.00    -0.526 OA
ATOM      8  H5  UNL d   1      -1.236  -3.495  -3.699  0.00  0.00     0.418 HD
ENDBRANCH   4   7
TORSDOF 1
ENDMDL
