MODEL 1
REMARK minimizedAffinity 3.17049265
REMARK minimizedRMSD -1
REMARK  1 active torsions:
REMARK  status: ('A' for Active; 'I' for Inactive)
REMARK    1  A    between atoms: C3_4  and  O_7 
ROOT
ATOM      1  C   UNL d   1       5.757   0.918  -5.909  0.00  0.00    -0.033 A 
ATOM      2  C1  UNL d   1       5.987   2.294  -5.966  0.00  0.00     0.039 A 
ATOM      3  C2  UNL d   1       4.911   3.183  -5.992  0.00  0.00    -0.080 A 
ATOM      4  C3  UNL d   1       3.611   2.684  -5.959  0.00  0.00     0.150 A 
ATOM      5  C4  UNL d   1       3.375   1.315  -5.899  0.00  0.00    -0.007 A 
ATOM      6  C5  UNL d   1       4.451   0.428  -5.874  0.00  0.00     0.039 A 
ENDROOT
BRANCH   4   7
ATOM      7  O   UNL d   1       2.529   3.512  -5.988  0.00  0.00    -0.526 OA
ATOM      8  H5  UNL d   1       2.845   4.429  -6.058  0.00  0.00     0.418 HD
ENDBRANCH   4   7
TORSDOF 1
ENDMDL
