MODEL 1
REMARK minimizedAffinity 4.41986322
REMARK minimizedRMSD -1
REMARK  1 active torsions:
REMARK  status: ('A' for Active; 'I' for Inactive)
REMARK    1  A    between atoms: C3_4  and  O_7 
ROOT
ATOM      1  C   UNL d   1      -0.728  -2.011   1.213  0.00  0.00    -0.033 A 
ATOM      2  C1  UNL d   1       0.452  -1.490   0.680  0.00  0.00     0.039 A 
ATOM      3  C2  UNL d   1       0.729  -1.636  -0.681  0.00  0.00    -0.080 A 
ATOM      4  C3  UNL d   1      -0.180  -2.305  -1.496  0.00  0.00     0.150 A 
ATOM      5  C4  UNL d   1      -1.359  -2.824  -0.971  0.00  0.00    -0.007 A 
ATOM      6  C5  UNL d   1      -1.634  -2.677   0.388  0.00  0.00     0.039 A 
ENDROOT
BRANCH   4   7
ATOM      7  O   UNL d   1       0.049  -2.477  -2.828  0.00  0.00    -0.526 OA
ATOM      8  H5  UNL d   1       0.915  -2.092  -3.044  0.00  0.00     0.418 HD
ENDBRANCH   4   7
TORSDOF 1
ENDMDL
