MODEL 1
REMARK minimizedAffinity 10.3282871
REMARK minimizedRMSD -1
REMARK  1 active torsions:
REMARK  status: ('A' for Active; 'I' for Inactive)
REMARK    1  A    between atoms: C3_4  and  O_7 
ROOT
ATOM      1  C   UNL d   1      -2.371  -6.000  -0.543  0.00  0.00    -0.033 A 
ATOM      2  C1  UNL d   1      -1.160  -5.521  -0.039  0.00  0.00     0.039 A 
ATOM      3  C2  UNL d   1      -0.595  -4.357  -0.564  0.00  0.00    -0.080 A 
ATOM      4  C3  UNL d   1      -1.251  -3.681  -1.589  0.00  0.00     0.150 A 
ATOM      5  C4  UNL d   1      -2.460  -4.150  -2.092  0.00  0.00    -0.007 A 
ATOM      6  C5  UNL d   1      -3.022  -5.313  -1.568  0.00  0.00     0.039 A 
ENDROOT
BRANCH   4   7
ATOM      7  O   UNL d   1      -0.736  -2.543  -2.136  0.00  0.00    -0.526 OA
ATOM      8  H5  UNL d   1       0.116  -2.355  -1.709  0.00  0.00     0.418 HD
ENDBRANCH   4   7
TORSDOF 1
ENDMDL
