MODEL 1
REMARK minimizedAffinity 4.09495211
REMARK minimizedRMSD -1
REMARK  1 active torsions:
REMARK  status: ('A' for Active; 'I' for Inactive)
REMARK    1  A    between atoms: C3_4  and  O_7 
ROOT
ATOM      1  C   UNL d   1      -1.026  -3.863   2.998  0.00  0.00    -0.033 A 
ATOM      2  C1  UNL d   1      -1.122  -4.993   2.183  0.00  0.00     0.039 A 
ATOM      3  C2  UNL d   1      -1.274  -4.849   0.802  0.00  0.00    -0.080 A 
ATOM      4  C3  UNL d   1      -1.329  -3.572   0.251  0.00  0.00     0.150 A 
ATOM      5  C4  UNL d   1      -1.231  -2.442   1.056  0.00  0.00    -0.007 A 
ATOM      6  C5  UNL d   1      -1.080  -2.588   2.435  0.00  0.00     0.039 A 
ENDROOT
BRANCH   4   7
ATOM      7  O   UNL d   1      -1.482  -3.381  -1.091  0.00  0.00    -0.526 OA
ATOM      8  H5  UNL d   1      -1.565  -4.250  -1.517  0.00  0.00     0.418 HD
ENDBRANCH   4   7
TORSDOF 1
ENDMDL
