MODEL 1
REMARK minimizedAffinity 7.15744209
REMARK minimizedRMSD -1
REMARK  1 active torsions:
REMARK  status: ('A' for Active; 'I' for Inactive)
REMARK    1  A    between atoms: C3_4  and  O_7 
ROOT
ATOM      1  C   UNL d   1       2.080   3.415   0.994  0.00  0.00    -0.033 A 
ATOM      2  C1  UNL d   1       2.233   2.885   2.277  0.00  0.00     0.039 A 
ATOM      3  C2  UNL d   1       1.906   1.551   2.526  0.00  0.00    -0.080 A 
ATOM      4  C3  UNL d   1       1.429   0.758   1.486  0.00  0.00     0.150 A 
ATOM      5  C4  UNL d   1       1.278   1.278   0.205  0.00  0.00    -0.007 A 
ATOM      6  C5  UNL d   1       1.604   2.611  -0.042  0.00  0.00     0.039 A 
ENDROOT
BRANCH   4   7
ATOM      7  O   UNL d   1       1.092  -0.548   1.682  0.00  0.00    -0.526 OA
ATOM      8  H5  UNL d   1       1.221  -0.762   2.622  0.00  0.00     0.418 HD
ENDBRANCH   4   7
TORSDOF 1
ENDMDL
