MODEL 1
REMARK minimizedAffinity 6.40604973
REMARK minimizedRMSD -1
REMARK  1 active torsions:
REMARK  status: ('A' for Active; 'I' for Inactive)
REMARK    1  A    between atoms: C3_4  and  O_7 
ROOT
ATOM      1  C   UNL d   1      -0.416   2.512   4.406  0.00  0.00    -0.033 A 
ATOM      2  C1  UNL d   1       0.208   2.179   3.202  0.00  0.00     0.039 A 
ATOM      3  C2  UNL d   1      -0.234   2.746   2.005  0.00  0.00    -0.080 A 
ATOM      4  C3  UNL d   1      -1.299   3.643   2.026  0.00  0.00     0.150 A 
ATOM      5  C4  UNL d   1      -1.922   3.982   3.223  0.00  0.00    -0.007 A 
ATOM      6  C5  UNL d   1      -1.480   3.414   4.417  0.00  0.00     0.039 A 
ENDROOT
BRANCH   4   7
ATOM      7  O   UNL d   1      -1.768   4.219   0.883  0.00  0.00    -0.526 OA
ATOM      8  H5  UNL d   1      -1.260   3.869   0.131  0.00  0.00     0.418 HD
ENDBRANCH   4   7
TORSDOF 1
ENDMDL
