MODEL 1
REMARK minimizedAffinity -4.87036228
REMARK minimizedRMSD -1
REMARK  1 active torsions:
REMARK  status: ('A' for Active; 'I' for Inactive)
REMARK    1  A    between atoms: C3_4  and  O_7 
ROOT
ATOM      1  C   UNL d   1      -0.798   2.959   0.623  0.00  0.00    -0.033 A 
ATOM      2  C1  UNL d   1      -0.830   1.769   1.354  0.00  0.00     0.039 A 
ATOM      3  C2  UNL d   1      -1.992   0.996   1.382  0.00  0.00    -0.080 A 
ATOM      4  C3  UNL d   1      -3.113   1.422   0.676  0.00  0.00     0.150 A 
ATOM      5  C4  UNL d   1      -3.088   2.604  -0.057  0.00  0.00    -0.007 A 
ATOM      6  C5  UNL d   1      -1.927   3.376  -0.083  0.00  0.00     0.039 A 
ENDROOT
BRANCH   4   7
ATOM      7  O   UNL d   1      -4.272   0.703   0.678  0.00  0.00    -0.526 OA
ATOM      8  H5  UNL d   1      -4.151  -0.073   1.249  0.00  0.00     0.418 HD
ENDBRANCH   4   7
TORSDOF 1
ENDMDL
