MODEL 1
REMARK minimizedAffinity 8.02803707
REMARK minimizedRMSD -1
REMARK  1 active torsions:
REMARK  status: ('A' for Active; 'I' for Inactive)
REMARK    1  A    between atoms: C3_4  and  O_7 
ROOT
ATOM      1  C   UNL d   1       0.780  -3.333  -1.874  0.00  0.00    -0.033 A 
ATOM      2  C1  UNL d   1      -0.379  -2.962  -1.189  0.00  0.00     0.039 A 
ATOM      3  C2  UNL d   1      -1.470  -3.832  -1.138  0.00  0.00    -0.080 A 
ATOM      4  C3  UNL d   1      -1.390  -5.068  -1.774  0.00  0.00     0.150 A 
ATOM      5  C4  UNL d   1      -0.237  -5.445  -2.455  0.00  0.00    -0.007 A 
ATOM      6  C5  UNL d   1       0.851  -4.575  -2.506  0.00  0.00     0.039 A 
ENDROOT
BRANCH   4   7
ATOM      7  O   UNL d   1      -2.431  -5.948  -1.756  0.00  0.00    -0.526 OA
ATOM      8  H5  UNL d   1      -3.170  -5.541  -1.274  0.00  0.00     0.418 HD
ENDBRANCH   4   7
TORSDOF 1
ENDMDL
