MODEL 1
REMARK minimizedAffinity 7.1987133
REMARK minimizedRMSD -1
REMARK  1 active torsions:
REMARK  status: ('A' for Active; 'I' for Inactive)
REMARK    1  A    between atoms: C3_4  and  O_7 
ROOT
ATOM      1  C   UNL d   1       2.314   1.107   1.631  0.00  0.00    -0.033 A 
ATOM      2  C1  UNL d   1       1.561   2.009   2.386  0.00  0.00     0.039 A 
ATOM      3  C2  UNL d   1       0.975   3.118   1.772  0.00  0.00    -0.080 A 
ATOM      4  C3  UNL d   1       1.149   3.313   0.405  0.00  0.00     0.150 A 
ATOM      5  C4  UNL d   1       1.894   2.417  -0.354  0.00  0.00    -0.007 A 
ATOM      6  C5  UNL d   1       2.479   1.310   0.261  0.00  0.00     0.039 A 
ENDROOT
BRANCH   4   7
ATOM      7  O   UNL d   1       0.600   4.383  -0.238  0.00  0.00    -0.526 OA
ATOM      8  H5  UNL d   1       0.138   4.931   0.418  0.00  0.00     0.418 HD
ENDBRANCH   4   7
TORSDOF 1
ENDMDL
