MODEL 1
REMARK minimizedAffinity 3.85032868
REMARK minimizedRMSD -1
REMARK  1 active torsions:
REMARK  status: ('A' for Active; 'I' for Inactive)
REMARK    1  A    between atoms: C3_4  and  O_7 
ROOT
ATOM      1  C   UNL d   1      -1.576   4.840  -5.402  0.00  0.00    -0.033 A 
ATOM      2  C1  UNL d   1      -2.788   5.193  -5.999  0.00  0.00     0.039 A 
ATOM      3  C2  UNL d   1      -3.942   4.457  -5.728  0.00  0.00    -0.080 A 
ATOM      4  C3  UNL d   1      -3.872   3.372  -4.859  0.00  0.00     0.150 A 
ATOM      5  C4  UNL d   1      -2.669   3.017  -4.257  0.00  0.00    -0.007 A 
ATOM      6  C5  UNL d   1      -1.517   3.753  -4.530  0.00  0.00     0.039 A 
ENDROOT
BRANCH   4   7
ATOM      7  O   UNL d   1      -4.971   2.620  -4.568  0.00  0.00    -0.526 OA
ATOM      8  H5  UNL d   1      -5.724   2.964  -5.077  0.00  0.00     0.418 HD
ENDBRANCH   4   7
TORSDOF 1
ENDMDL
