MODEL 1
REMARK minimizedAffinity 1.03411269
REMARK minimizedRMSD -1
REMARK  1 active torsions:
REMARK  status: ('A' for Active; 'I' for Inactive)
REMARK    1  A    between atoms: C3_4  and  O_7 
ROOT
ATOM      1  C   UNL d   1       4.122   0.915  -5.710  0.00  0.00    -0.033 A 
ATOM      2  C1  UNL d   1       3.265   1.993  -5.944  0.00  0.00     0.039 A 
ATOM      3  C2  UNL d   1       3.775   3.291  -6.000  0.00  0.00    -0.080 A 
ATOM      4  C3  UNL d   1       5.140   3.498  -5.822  0.00  0.00     0.150 A 
ATOM      5  C4  UNL d   1       5.999   2.429  -5.593  0.00  0.00    -0.007 A 
ATOM      6  C5  UNL d   1       5.489   1.133  -5.536  0.00  0.00     0.039 A 
ENDROOT
BRANCH   4   7
ATOM      7  O   UNL d   1       5.682   4.748  -5.864  0.00  0.00    -0.526 OA
ATOM      8  H5  UNL d   1       4.966   5.390  -6.001  0.00  0.00     0.418 HD
ENDBRANCH   4   7
TORSDOF 1
ENDMDL
