MODEL 1
REMARK minimizedAffinity 1.11328423
REMARK minimizedRMSD -1
REMARK  1 active torsions:
REMARK  status: ('A' for Active; 'I' for Inactive)
REMARK    1  A    between atoms: C3_4  and  O_7 
ROOT
ATOM      1  C   UNL d   1       4.841   3.470   2.273  0.00  0.00    -0.033 A 
ATOM      2  C1  UNL d   1       4.205   3.396   1.032  0.00  0.00     0.039 A 
ATOM      3  C2  UNL d   1       3.104   2.555   0.858  0.00  0.00    -0.080 A 
ATOM      4  C3  UNL d   1       2.648   1.796   1.933  0.00  0.00     0.150 A 
ATOM      5  C4  UNL d   1       3.274   1.868   3.173  0.00  0.00    -0.007 A 
ATOM      6  C5  UNL d   1       4.374   2.707   3.344  0.00  0.00     0.039 A 
ENDROOT
BRANCH   4   7
ATOM      7  O   UNL d   1       1.580   0.958   1.811  0.00  0.00    -0.526 OA
ATOM      8  H5  UNL d   1       1.267   0.990   0.891  0.00  0.00     0.418 HD
ENDBRANCH   4   7
TORSDOF 1
ENDMDL
