MODEL 1
REMARK minimizedAffinity -3.95113635
REMARK minimizedRMSD -1
REMARK  1 active torsions:
REMARK  status: ('A' for Active; 'I' for Inactive)
REMARK    1  A    between atoms: C3_4  and  O_7 
ROOT
ATOM      1  C   UNL d   1       4.468   2.432   3.707  0.00  0.00    -0.033 A 
ATOM      2  C1  UNL d   1       3.585   1.474   3.204  0.00  0.00     0.039 A 
ATOM      3  C2  UNL d   1       3.022   1.639   1.936  0.00  0.00    -0.080 A 
ATOM      4  C3  UNL d   1       3.352   2.762   1.183  0.00  0.00     0.150 A 
ATOM      5  C4  UNL d   1       4.234   3.718   1.676  0.00  0.00    -0.007 A 
ATOM      6  C5  UNL d   1       4.794   3.552   2.943  0.00  0.00     0.039 A 
ENDROOT
BRANCH   4   7
ATOM      7  O   UNL d   1       2.825   2.968  -0.057  0.00  0.00    -0.526 OA
ATOM      8  H5  UNL d   1       2.210   2.242  -0.255  0.00  0.00     0.418 HD
ENDBRANCH   4   7
TORSDOF 1
ENDMDL
