MODEL 1
REMARK minimizedAffinity -2.28879118
REMARK minimizedRMSD -1
REMARK  1 active torsions:
REMARK  status: ('A' for Active; 'I' for Inactive)
REMARK    1  A    between atoms: C3_4  and  O_7 
ROOT
ATOM      1  C   UNL d   1       4.162   3.991  -5.765  0.00  0.00    -0.033 A 
ATOM      2  C1  UNL d   1       3.261   2.936  -5.922  0.00  0.00     0.039 A 
ATOM      3  C2  UNL d   1       3.727   1.622  -5.997  0.00  0.00    -0.080 A 
ATOM      4  C3  UNL d   1       5.095   1.377  -5.913  0.00  0.00     0.150 A 
ATOM      5  C4  UNL d   1       5.998   2.423  -5.752  0.00  0.00    -0.007 A 
ATOM      6  C5  UNL d   1       5.531   3.734  -5.679  0.00  0.00     0.039 A 
ENDROOT
BRANCH   4   7
ATOM      7  O   UNL d   1       5.598   0.112  -5.986  0.00  0.00    -0.526 OA
ATOM      8  H5  UNL d   1       4.860  -0.505  -6.126  0.00  0.00     0.418 HD
ENDBRANCH   4   7
TORSDOF 1
ENDMDL
