MODEL 1
REMARK minimizedAffinity -3.38252521
REMARK minimizedRMSD -1
REMARK  1 active torsions:
REMARK  status: ('A' for Active; 'I' for Inactive)
REMARK    1  A    between atoms: C3_4  and  O_7 
ROOT
ATOM      1  C   UNL d   1      -0.905   1.245   0.404  0.00  0.00    -0.033 A 
ATOM      2  C1  UNL d   1      -0.153   0.095   0.158  0.00  0.00     0.039 A 
ATOM      3  C2  UNL d   1       1.227   0.103   0.370  0.00  0.00    -0.080 A 
ATOM      4  C3  UNL d   1       1.842   1.265   0.827  0.00  0.00     0.150 A 
ATOM      5  C4  UNL d   1       1.098   2.413   1.078  0.00  0.00    -0.007 A 
ATOM      6  C5  UNL d   1      -0.280   2.404   0.866  0.00  0.00     0.039 A 
ENDROOT
BRANCH   4   7
ATOM      7  O   UNL d   1       3.187   1.322   1.043  0.00  0.00    -0.526 OA
ATOM      8  H5  UNL d   1       3.574   0.465   0.801  0.00  0.00     0.418 HD
ENDBRANCH   4   7
TORSDOF 1
ENDMDL
