MODEL 1
REMARK minimizedAffinity -4.18119526
REMARK minimizedRMSD -1
REMARK  1 active torsions:
REMARK  status: ('A' for Active; 'I' for Inactive)
REMARK    1  A    between atoms: C3_4  and  O_7 
ROOT
ATOM      1  C   UNL d   1      -0.848   2.322   0.429  0.00  0.00    -0.033 A 
ATOM      2  C1  UNL d   1       0.427   2.151  -0.113  0.00  0.00     0.039 A 
ATOM      3  C2  UNL d   1       0.918   0.867  -0.355  0.00  0.00    -0.080 A 
ATOM      4  C3  UNL d   1       0.125  -0.236  -0.053  0.00  0.00     0.150 A 
ATOM      5  C4  UNL d   1      -1.148  -0.073   0.484  0.00  0.00    -0.007 A 
ATOM      6  C5  UNL d   1      -1.636   1.210   0.726  0.00  0.00     0.039 A 
ENDROOT
BRANCH   4   7
ATOM      7  O   UNL d   1       0.563  -1.509  -0.267  0.00  0.00    -0.526 OA
ATOM      8  H5  UNL d   1       1.470  -1.468  -0.613  0.00  0.00     0.418 HD
ENDBRANCH   4   7
TORSDOF 1
ENDMDL
