MODEL 1
REMARK minimizedAffinity -4.62552309
REMARK minimizedRMSD -1
REMARK  1 active torsions:
REMARK  status: ('A' for Active; 'I' for Inactive)
REMARK    1  A    between atoms: C3_4  and  O_7 
ROOT
ATOM      1  C   UNL d   1      -1.310   1.888   0.441  0.00  0.00    -0.033 A 
ATOM      2  C1  UNL d   1      -0.627   0.710   0.130  0.00  0.00     0.039 A 
ATOM      3  C2  UNL d   1       0.769   0.695   0.111  0.00  0.00    -0.080 A 
ATOM      4  C3  UNL d   1       1.469   1.862   0.404  0.00  0.00     0.150 A 
ATOM      5  C4  UNL d   1       0.795   3.037   0.718  0.00  0.00    -0.007 A 
ATOM      6  C5  UNL d   1      -0.599   3.051   0.736  0.00  0.00     0.039 A 
ENDROOT
BRANCH   4   7
ATOM      7  O   UNL d   1       2.832   1.897   0.393  0.00  0.00    -0.526 OA
ATOM      8  H5  UNL d   1       3.160   1.020   0.132  0.00  0.00     0.418 HD
ENDBRANCH   4   7
TORSDOF 1
ENDMDL
