MODEL 1
REMARK minimizedAffinity -4.86832333
REMARK minimizedRMSD -1
REMARK  1 active torsions:
REMARK  status: ('A' for Active; 'I' for Inactive)
REMARK    1  A    between atoms: C3_4  and  O_7 
ROOT
ATOM      1  C   UNL d   1      -0.089   2.817   0.562  0.00  0.00    -0.033 A 
ATOM      2  C1  UNL d   1      -1.341   2.283   0.873  0.00  0.00     0.039 A 
ATOM      3  C2  UNL d   1      -1.582   0.918   0.703  0.00  0.00    -0.080 A 
ATOM      4  C3  UNL d   1      -0.563   0.099   0.225  0.00  0.00     0.150 A 
ATOM      5  C4  UNL d   1       0.688   0.624  -0.083  0.00  0.00    -0.007 A 
ATOM      6  C5  UNL d   1       0.926   1.987   0.086  0.00  0.00     0.039 A 
ENDROOT
BRANCH   4   7
ATOM      7  O   UNL d   1      -0.751  -1.238   0.039  0.00  0.00    -0.526 OA
ATOM      8  H5  UNL d   1      -1.671  -1.454   0.265  0.00  0.00     0.418 HD
ENDBRANCH   4   7
TORSDOF 1
ENDMDL
