MODEL 1
REMARK minimizedAffinity -3.17362952
REMARK minimizedRMSD -1
REMARK  1 active torsions:
REMARK  status: ('A' for Active; 'I' for Inactive)
REMARK    1  A    between atoms: C3_4  and  O_7 
ROOT
ATOM      1  C   UNL d   1       0.068  -0.795   0.240  0.00  0.00    -0.033 A 
ATOM      2  C1  UNL d   1      -0.996  -0.791   1.144  0.00  0.00     0.039 A 
ATOM      3  C2  UNL d   1      -1.685   0.394   1.409  0.00  0.00    -0.080 A 
ATOM      4  C3  UNL d   1      -1.303   1.566   0.762  0.00  0.00     0.150 A 
ATOM      5  C4  UNL d   1      -0.247   1.568  -0.143  0.00  0.00    -0.007 A 
ATOM      6  C5  UNL d   1       0.441   0.384  -0.405  0.00  0.00     0.039 A 
ENDROOT
BRANCH   4   7
ATOM      7  O   UNL d   1      -1.943   2.748   0.991  0.00  0.00    -0.526 OA
ATOM      8  H5  UNL d   1      -2.632   2.600   1.660  0.00  0.00     0.418 HD
ENDBRANCH   4   7
TORSDOF 1
ENDMDL
