MODEL 1
REMARK minimizedAffinity -1.74930477
REMARK minimizedRMSD -1
REMARK  1 active torsions:
REMARK  status: ('A' for Active; 'I' for Inactive)
REMARK    1  A    between atoms: C3_4  and  O_7 
ROOT
ATOM      1  C   UNL d   1      -1.496   2.574   1.160  0.00  0.00    -0.033 A 
ATOM      2  C1  UNL d   1      -2.414   1.555   0.896  0.00  0.00     0.039 A 
ATOM      3  C2  UNL d   1      -1.967   0.302   0.473  0.00  0.00    -0.080 A 
ATOM      4  C3  UNL d   1      -0.601   0.080   0.318  0.00  0.00     0.150 A 
ATOM      5  C4  UNL d   1       0.319   1.089   0.583  0.00  0.00    -0.007 A 
ATOM      6  C5  UNL d   1      -0.129   2.340   1.005  0.00  0.00     0.039 A 
ENDROOT
BRANCH   4   7
ATOM      7  O   UNL d   1      -0.118  -1.125  -0.097  0.00  0.00    -0.526 OA
ATOM      8  H5  UNL d   1      -0.870  -1.716  -0.269  0.00  0.00     0.418 HD
ENDBRANCH   4   7
TORSDOF 1
ENDMDL
