MODEL 1
REMARK minimizedAffinity -2.87344909
REMARK minimizedRMSD -1
REMARK  1 active torsions:
REMARK  status: ('A' for Active; 'I' for Inactive)
REMARK    1  A    between atoms: C3_4  and  O_7 
ROOT
ATOM      1  C   UNL d   1      -0.251  -0.773  -0.232  0.00  0.00    -0.033 A 
ATOM      2  C1  UNL d   1      -1.432  -0.492   0.457  0.00  0.00     0.039 A 
ATOM      3  C2  UNL d   1      -1.685   0.804   0.912  0.00  0.00    -0.080 A 
ATOM      4  C3  UNL d   1      -0.750   1.807   0.672  0.00  0.00     0.150 A 
ATOM      5  C4  UNL d   1       0.427   1.534  -0.017  0.00  0.00    -0.007 A 
ATOM      6  C5  UNL d   1       0.678   0.240  -0.470  0.00  0.00     0.039 A 
ENDROOT
BRANCH   4   7
ATOM      7  O   UNL d   1      -0.950   3.085   1.102  0.00  0.00    -0.526 OA
ATOM      8  H5  UNL d   1      -1.791   3.119   1.587  0.00  0.00     0.418 HD
ENDBRANCH   4   7
TORSDOF 1
ENDMDL
