MODEL 1
REMARK minimizedAffinity -0.577092171
REMARK minimizedRMSD -1
REMARK  1 active torsions:
REMARK  status: ('A' for Active; 'I' for Inactive)
REMARK    1  A    between atoms: C3_4  and  O_7 
ROOT
ATOM      1  C   UNL d   1       1.558  -0.568  -0.159  0.00  0.00    -0.033 A 
ATOM      2  C1  UNL d   1       0.605  -1.528   0.191  0.00  0.00     0.039 A 
ATOM      3  C2  UNL d   1      -0.661  -1.131   0.626  0.00  0.00    -0.080 A 
ATOM      4  C3  UNL d   1      -0.962   0.226   0.706  0.00  0.00     0.150 A 
ATOM      5  C4  UNL d   1      -0.019   1.187   0.356  0.00  0.00    -0.007 A 
ATOM      6  C5  UNL d   1       1.245   0.789  -0.077  0.00  0.00     0.039 A 
ENDROOT
BRANCH   4   7
ATOM      7  O   UNL d   1      -2.182   0.661   1.130  0.00  0.00    -0.526 OA
ATOM      8  H5  UNL d   1      -2.721  -0.113   1.365  0.00  0.00     0.418 HD
ENDBRANCH   4   7
TORSDOF 1
ENDMDL
