MODEL 1
REMARK minimizedAffinity -5.04261494
REMARK minimizedRMSD -1
REMARK  1 active torsions:
REMARK  status: ('A' for Active; 'I' for Inactive)
REMARK    1  A    between atoms: C3_4  and  O_7 
ROOT
ATOM      1  C   UNL d   1       0.217   3.187   0.462  0.00  0.00    -0.033 A 
ATOM      2  C1  UNL d   1      -1.048   2.617   0.618  0.00  0.00     0.039 A 
ATOM      3  C2  UNL d   1      -1.219   1.240   0.466  0.00  0.00    -0.080 A 
ATOM      4  C3  UNL d   1      -0.119   0.444   0.158  0.00  0.00     0.150 A 
ATOM      5  C4  UNL d   1       1.145   1.004   0.004  0.00  0.00    -0.007 A 
ATOM      6  C5  UNL d   1       1.314   2.380   0.156  0.00  0.00     0.039 A 
ENDROOT
BRANCH   4   7
ATOM      7  O   UNL d   1      -0.238  -0.904  -0.006  0.00  0.00    -0.526 OA
ATOM      8  H5  UNL d   1      -1.173  -1.145   0.102  0.00  0.00     0.418 HD
ENDBRANCH   4   7
TORSDOF 1
ENDMDL
