MODEL 1
REMARK minimizedAffinity -2.31151342
REMARK minimizedRMSD -1
REMARK  1 active torsions:
REMARK  status: ('A' for Active; 'I' for Inactive)
REMARK    1  A    between atoms: C3_4  and  O_7 
ROOT
ATOM      1  C   UNL d   1       0.075  -2.460  -0.509  0.00  0.00    -0.033 A 
ATOM      2  C1  UNL d   1      -1.224  -2.081  -0.853  0.00  0.00     0.039 A 
ATOM      3  C2  UNL d   1      -1.684  -0.799  -0.544  0.00  0.00    -0.080 A 
ATOM      4  C3  UNL d   1      -0.836   0.093   0.105  0.00  0.00     0.150 A 
ATOM      5  C4  UNL d   1       0.461  -0.276   0.446  0.00  0.00    -0.007 A 
ATOM      6  C5  UNL d   1       0.918  -1.557   0.139  0.00  0.00     0.039 A 
ENDROOT
BRANCH   4   7
ATOM      7  O   UNL d   1      -1.242   1.353   0.431  0.00  0.00    -0.526 OA
ATOM      8  H5  UNL d   1      -2.169   1.458   0.160  0.00  0.00     0.418 HD
ENDBRANCH   4   7
TORSDOF 1
ENDMDL
