MODEL 1
REMARK minimizedAffinity 0.61977464
REMARK minimizedRMSD -1
REMARK  1 active torsions:
REMARK  status: ('A' for Active; 'I' for Inactive)
REMARK    1  A    between atoms: C3_4  and  O_7 
ROOT
ATOM      1  C   UNL d   1      -5.610   5.166  -5.975  0.00  0.00    -0.033 A 
ATOM      2  C1  UNL d   1      -4.398   5.857  -5.971  0.00  0.00     0.039 A 
ATOM      3  C2  UNL d   1      -3.191   5.155  -5.979  0.00  0.00    -0.080 A 
ATOM      4  C3  UNL d   1      -3.211   3.763  -5.992  0.00  0.00     0.150 A 
ATOM      5  C4  UNL d   1      -4.416   3.067  -6.000  0.00  0.00    -0.007 A 
ATOM      6  C5  UNL d   1      -5.619   3.771  -5.991  0.00  0.00     0.039 A 
ENDROOT
BRANCH   4   7
ATOM      7  O   UNL d   1      -2.059   3.034  -5.995  0.00  0.00    -0.526 OA
ATOM      8  H5  UNL d   1      -1.307   3.647  -5.959  0.00  0.00     0.418 HD
ENDBRANCH   4   7
TORSDOF 1
ENDMDL
