MODEL 1
REMARK minimizedAffinity -4.69596338
REMARK minimizedRMSD -1
REMARK  1 active torsions:
REMARK  status: ('A' for Active; 'I' for Inactive)
REMARK    1  A    between atoms: C3_4  and  O_7 
ROOT
ATOM      1  C   UNL d   1       0.567   3.447   0.687  0.00  0.00    -0.033 A 
ATOM      2  C1  UNL d   1      -0.549   2.820   1.243  0.00  0.00     0.039 A 
ATOM      3  C2  UNL d   1      -0.844   1.495   0.913  0.00  0.00    -0.080 A 
ATOM      4  C3  UNL d   1      -0.015   0.810   0.029  0.00  0.00     0.150 A 
ATOM      5  C4  UNL d   1       1.101   1.428  -0.526  0.00  0.00    -0.007 A 
ATOM      6  C5  UNL d   1       1.393   2.751  -0.196  0.00  0.00     0.039 A 
ENDROOT
BRANCH   4   7
ATOM      7  O   UNL d   1      -0.265  -0.482  -0.326  0.00  0.00    -0.526 OA
ATOM      8  H5  UNL d   1      -1.084  -0.769   0.112  0.00  0.00     0.418 HD
ENDBRANCH   4   7
TORSDOF 1
ENDMDL
