MODEL 1
REMARK minimizedAffinity -4.54283428
REMARK minimizedRMSD -1
REMARK  1 active torsions:
REMARK  status: ('A' for Active; 'I' for Inactive)
REMARK    1  A    between atoms: C3_4  and  O_7 
ROOT
ATOM      1  C   UNL d   1       0.461  -0.610   0.806  0.00  0.00    -0.033 A 
ATOM      2  C1  UNL d   1       1.688  -0.021   0.496  0.00  0.00     0.039 A 
ATOM      3  C2  UNL d   1       1.738   1.306   0.062  0.00  0.00    -0.080 A 
ATOM      4  C3  UNL d   1       0.556   2.031  -0.055  0.00  0.00     0.150 A 
ATOM      5  C4  UNL d   1      -0.670   1.452   0.256  0.00  0.00    -0.007 A 
ATOM      6  C5  UNL d   1      -0.718   0.127   0.687  0.00  0.00     0.039 A 
ENDROOT
BRANCH   4   7
ATOM      7  O   UNL d   1       0.554   3.327  -0.479  0.00  0.00    -0.526 OA
ATOM      8  H5  UNL d   1       1.468   3.584  -0.685  0.00  0.00     0.418 HD
ENDBRANCH   4   7
TORSDOF 1
ENDMDL
