MODEL 1
REMARK minimizedAffinity -5.25891685
REMARK minimizedRMSD -1
REMARK  1 active torsions:
REMARK  status: ('A' for Active; 'I' for Inactive)
REMARK    1  A    between atoms: C3_4  and  O_7 
ROOT
ATOM      1  C   UNL d   1      -0.350   0.057  -0.233  0.00  0.00    -0.033 A 
ATOM      2  C1  UNL d   1       0.973   0.484  -0.372  0.00  0.00     0.039 A 
ATOM      3  C2  UNL d   1       1.286   1.840  -0.258  0.00  0.00    -0.080 A 
ATOM      4  C3  UNL d   1       0.270   2.757  -0.005  0.00  0.00     0.150 A 
ATOM      5  C4  UNL d   1      -1.049   2.339   0.139  0.00  0.00    -0.007 A 
ATOM      6  C5  UNL d   1      -1.360   0.985   0.024  0.00  0.00     0.039 A 
ENDROOT
BRANCH   4   7
ATOM      7  O   UNL d   1       0.527   4.091   0.110  0.00  0.00    -0.526 OA
ATOM      8  H5  UNL d   1       1.476   4.236  -0.041  0.00  0.00     0.418 HD
ENDBRANCH   4   7
TORSDOF 1
ENDMDL
