MODEL 1
REMARK minimizedAffinity 0.346480548
REMARK minimizedRMSD -1
REMARK  0 active torsions:
REMARK  status: ('A' for Active; 'I' for Inactive)
ROOT
ATOM      1  N1  IND d   1      -1.425  -0.728   0.125  0.00  0.00    -0.196 N 
ATOM      2  C2  IND d   1      -1.226   0.030  -0.995  0.00  0.00     0.054 A 
ATOM      3  C3  IND d   1      -0.008   0.615  -0.957  0.00  0.00    -0.031 A 
ATOM      4  C4  IND d   1       1.862   0.387   0.798  0.00  0.00     0.051 A 
ATOM      5  C5  IND d   1       2.132  -0.166   2.018  0.00  0.00    -0.031 A 
ATOM      6  C6  IND d   1       1.213  -0.953   2.681  0.00  0.00     0.015 A 
ATOM      7  C7  IND d   1      -0.012  -1.227   2.142  0.00  0.00    -0.016 A 
ATOM      8  C8  IND d   1      -0.293  -0.660   0.907  0.00  0.00    -0.047 A 
ATOM      9  C9  IND d   1       0.620   0.174   0.248  0.00  0.00    -0.096 A 
ATOM     10  HN1 IND d   1      -2.138  -1.171   0.311  0.00  0.00     0.298 HD
ENDROOT
TORSDOF 0
ENDMDL
