MODEL 1
REMARK minimizedAffinity -4.37335968
REMARK minimizedRMSD -1
REMARK  0 active torsions:
REMARK  status: ('A' for Active; 'I' for Inactive)
ROOT
ATOM      1  N1  IND d   1       0.916   0.346  -0.948  0.00  0.00    -0.196 N 
ATOM      2  C2  IND d   1      -0.264   0.696  -1.543  0.00  0.00     0.054 A 
ATOM      3  C3  IND d   1      -1.291   0.545  -0.678  0.00  0.00    -0.031 A 
ATOM      4  C4  IND d   1      -1.254  -0.166   1.796  0.00  0.00     0.051 A 
ATOM      5  C5  IND d   1      -0.414  -0.621   2.774  0.00  0.00    -0.031 A 
ATOM      6  C6  IND d   1       0.940  -0.777   2.557  0.00  0.00     0.015 A 
ATOM      7  C7  IND d   1       1.508  -0.472   1.353  0.00  0.00    -0.016 A 
ATOM      8  C8  IND d   1       0.657  -0.017   0.356  0.00  0.00    -0.047 A 
ATOM      9  C9  IND d   1      -0.724   0.103   0.557  0.00  0.00    -0.096 A 
ATOM     10  HN1 IND d   1       1.689   0.351  -1.324  0.00  0.00     0.298 HD
ENDROOT
TORSDOF 0
ENDMDL
