MODEL 1
REMARK minimizedAffinity -2.30807114
REMARK minimizedRMSD -1
REMARK  0 active torsions:
REMARK  status: ('A' for Active; 'I' for Inactive)
ROOT
ATOM      1  N1  IND d   1       1.959  -0.823   0.878  0.00  0.00    -0.196 N 
ATOM      2  C2  IND d   1       2.133  -0.819   2.234  0.00  0.00     0.054 A 
ATOM      3  C3  IND d   1       0.982  -0.477   2.855  0.00  0.00    -0.031 A 
ATOM      4  C4  IND d   1      -1.335   0.019   1.848  0.00  0.00     0.051 A 
ATOM      5  C5  IND d   1      -1.979   0.174   0.652  0.00  0.00    -0.031 A 
ATOM      6  C6  IND d   1      -1.331  -0.001  -0.553  0.00  0.00     0.015 A 
ATOM      7  C7  IND d   1      -0.011  -0.351  -0.608  0.00  0.00    -0.016 A 
ATOM      8  C8  IND d   1       0.648  -0.503   0.604  0.00  0.00    -0.047 A 
ATOM      9  C9  IND d   1       0.006  -0.284   1.829  0.00  0.00    -0.096 A 
ATOM     10  HN1 IND d   1       2.567  -0.996   0.295  0.00  0.00     0.298 HD
ENDROOT
TORSDOF 0
ENDMDL
