MODEL 1
REMARK minimizedAffinity 3.04184413
REMARK minimizedRMSD -1
REMARK  0 active torsions:
REMARK  status: ('A' for Active; 'I' for Inactive)
ROOT
ATOM      1  N1  IND d   1      -2.304   1.406  -2.627  0.00  0.00    -0.196 N 
ATOM      2  C2  IND d   1      -2.658   2.455  -3.430  0.00  0.00     0.054 A 
ATOM      3  C3  IND d   1      -3.576   2.061  -4.340  0.00  0.00    -0.031 A 
ATOM      4  C4  IND d   1      -4.716  -0.229  -4.628  0.00  0.00     0.051 A 
ATOM      5  C5  IND d   1      -4.694  -1.511  -4.153  0.00  0.00    -0.031 A 
ATOM      6  C6  IND d   1      -3.859  -1.892  -3.123  0.00  0.00     0.015 A 
ATOM      7  C7  IND d   1      -3.020  -1.000  -2.518  0.00  0.00    -0.016 A 
ATOM      8  C8  IND d   1      -3.035   0.300  -3.002  0.00  0.00    -0.047 A 
ATOM      9  C9  IND d   1      -3.849   0.684  -4.076  0.00  0.00    -0.096 A 
ATOM     10  HN1 IND d   1      -1.723   1.433  -1.993  0.00  0.00     0.298 HD
ENDROOT
TORSDOF 0
ENDMDL
