MODEL 1
REMARK minimizedAffinity 4.57059717
REMARK minimizedRMSD -1
REMARK  0 active torsions:
REMARK  status: ('A' for Active; 'I' for Inactive)
ROOT
ATOM      1  N1  IND d   1       1.109  -1.298   1.398  0.00  0.00    -0.196 N 
ATOM      2  C2  IND d   1       1.839  -0.681   2.375  0.00  0.00     0.054 A 
ATOM      3  C3  IND d   1       1.042   0.110   3.128  0.00  0.00    -0.031 A 
ATOM      4  C4  IND d   1      -1.505   0.462   2.999  0.00  0.00     0.051 A 
ATOM      5  C5  IND d   1      -2.601   0.140   2.248  0.00  0.00    -0.031 A 
ATOM      6  C6  IND d   1      -2.514  -0.697   1.154  0.00  0.00     0.015 A 
ATOM      7  C7  IND d   1      -1.325  -1.255   0.777  0.00  0.00    -0.016 A 
ATOM      8  C8  IND d   1      -0.210  -0.924   1.533  0.00  0.00    -0.047 A 
ATOM      9  C9  IND d   1      -0.284  -0.042   2.618  0.00  0.00    -0.096 A 
ATOM     10  HN1 IND d   1       1.422  -1.831   0.799  0.00  0.00     0.298 HD
ENDROOT
TORSDOF 0
ENDMDL
