MODEL 1
REMARK minimizedAffinity -4.14189339
REMARK minimizedRMSD -1
REMARK  0 active torsions:
REMARK  status: ('A' for Active; 'I' for Inactive)
ROOT
ATOM      1  N1  IND d   1       0.676  -0.307  -1.270  0.00  0.00    -0.196 N 
ATOM      2  C2  IND d   1      -0.515   0.348  -1.118  0.00  0.00     0.054 A 
ATOM      3  C3  IND d   1      -0.869   0.382   0.187  0.00  0.00    -0.031 A 
ATOM      4  C4  IND d   1       0.404  -0.484   2.250  0.00  0.00     0.051 A 
ATOM      5  C5  IND d   1       1.519  -1.187   2.611  0.00  0.00    -0.031 A 
ATOM      6  C6  IND d   1       2.430  -1.639   1.678  0.00  0.00     0.015 A 
ATOM      7  C7  IND d   1       2.264  -1.394   0.344  0.00  0.00    -0.016 A 
ATOM      8  C8  IND d   1       1.130  -0.687  -0.027  0.00  0.00    -0.047 A 
ATOM      9  C9  IND d   1       0.180  -0.262   0.912  0.00  0.00    -0.096 A 
ATOM     10  HN1 IND d   1       1.074  -0.456  -2.018  0.00  0.00     0.298 HD
ENDROOT
TORSDOF 0
ENDMDL
