MODEL 1
REMARK minimizedAffinity -1.81652987
REMARK minimizedRMSD -1
REMARK  0 active torsions:
REMARK  status: ('A' for Active; 'I' for Inactive)
ROOT
ATOM      1  N1  IND d   1       1.782  -0.707   1.768  0.00  0.00    -0.196 N 
ATOM      2  C2  IND d   1       1.271  -0.969   3.008  0.00  0.00     0.054 A 
ATOM      3  C3  IND d   1      -0.036  -0.625   3.061  0.00  0.00    -0.031 A 
ATOM      4  C4  IND d   1      -1.562   0.290   1.201  0.00  0.00     0.051 A 
ATOM      5  C5  IND d   1      -1.539   0.728  -0.093  0.00  0.00    -0.031 A 
ATOM      6  C6  IND d   1      -0.385   0.707  -0.850  0.00  0.00     0.015 A 
ATOM      7  C7  IND d   1       0.791   0.234  -0.341  0.00  0.00    -0.016 A 
ATOM      8  C8  IND d   1       0.773  -0.205   0.975  0.00  0.00    -0.047 A 
ATOM      9  C9  IND d   1      -0.385  -0.146   1.761  0.00  0.00    -0.096 A 
ATOM     10  HN1 IND d   1       2.596  -0.835   1.523  0.00  0.00     0.298 HD
ENDROOT
TORSDOF 0
ENDMDL
