MODEL 1
REMARK minimizedAffinity -0.596086025
REMARK minimizedRMSD -1
REMARK  0 active torsions:
REMARK  status: ('A' for Active; 'I' for Inactive)
ROOT
ATOM      1  N1  IND d   1       0.993   0.333  -1.028  0.00  0.00    -0.196 N 
ATOM      2  C2  IND d   1      -0.159   0.646  -1.694  0.00  0.00     0.054 A 
ATOM      3  C3  IND d   1      -1.237   0.365  -0.928  0.00  0.00    -0.031 A 
ATOM      4  C4  IND d   1      -1.340  -0.520   1.487  0.00  0.00     0.051 A 
ATOM      5  C5  IND d   1      -0.548  -0.987   2.498  0.00  0.00    -0.031 A 
ATOM      6  C6  IND d   1       0.826  -1.038   2.384  0.00  0.00     0.015 A 
ATOM      7  C7  IND d   1       1.463  -0.609   1.253  0.00  0.00    -0.016 A 
ATOM      8  C8  IND d   1       0.661  -0.140   0.222  0.00  0.00    -0.047 A 
ATOM      9  C9  IND d   1      -0.736  -0.126   0.316  0.00  0.00    -0.096 A 
ATOM     10  HN1 IND d   1       1.790   0.417  -1.338  0.00  0.00     0.298 HD
ENDROOT
TORSDOF 0
ENDMDL
