MODEL 1
REMARK minimizedAffinity -2.20453978
REMARK minimizedRMSD -1
REMARK  0 active torsions:
REMARK  status: ('A' for Active; 'I' for Inactive)
ROOT
ATOM      1  N1  IND d   1       2.131  -2.149  -0.306  0.00  0.00    -0.196 N 
ATOM      2  C2  IND d   1       3.411  -2.311   0.146  0.00  0.00     0.054 A 
ATOM      3  C3  IND d   1       3.536  -1.806   1.394  0.00  0.00    -0.031 A 
ATOM      4  C4  IND d   1       1.748  -0.763   2.923  0.00  0.00     0.051 A 
ATOM      5  C5  IND d   1       0.439  -0.367   2.937  0.00  0.00    -0.031 A 
ATOM      6  C6  IND d   1      -0.389  -0.552   1.849  0.00  0.00     0.015 A 
ATOM      7  C7  IND d   1       0.058  -1.152   0.706  0.00  0.00    -0.016 A 
ATOM      8  C8  IND d   1       1.388  -1.548   0.686  0.00  0.00    -0.047 A 
ATOM      9  C9  IND d   1       2.245  -1.325   1.771  0.00  0.00    -0.096 A 
ATOM     10  HN1 IND d   1       1.839  -2.384  -1.080  0.00  0.00     0.298 HD
ENDROOT
TORSDOF 0
ENDMDL
