MODEL 1
REMARK minimizedAffinity 6.41270876
REMARK minimizedRMSD -1
REMARK  1 active torsions:
REMARK  status: ('A' for Active; 'I' for Inactive)
REMARK    1  A    between atoms: C1_2  and  C2_3 
ROOT
ATOM      1  C2  UNL d   1       0.635  -0.189   2.333  0.00  0.00    -0.081 A 
ATOM      2  C3  UNL d   1       0.616   1.210   2.366  0.00  0.00     0.006 A 
ATOM      3  C4  UNL d   1      -0.238   1.927   1.525  0.00  0.00     0.002 A 
ATOM      4  C5  UNL d   1      -1.092   1.257   0.642  0.00  0.00    -0.080 A 
ATOM      5  C6  UNL d   1      -2.035   2.014  -0.245  0.00  0.00     0.076 C 
ATOM      6  C7  UNL d   1      -1.061  -0.141   0.596  0.00  0.00     0.002 A 
ATOM      7  C8  UNL d   1      -0.207  -0.858   1.437  0.00  0.00     0.006 A 
ENDROOT
BRANCH   1   8
ATOM      8  C1  UNL d   1       1.508  -0.967   3.285  0.00  0.00     0.054 C 
ATOM      9  C   UNL d   1       1.830  -0.154   4.530  0.00  0.00     0.018 C 
ENDBRANCH   1   8
TORSDOF 1
ENDMDL
