MODEL 1
REMARK minimizedAffinity -1.71527946
REMARK minimizedRMSD -1
REMARK  1 active torsions:
REMARK  status: ('A' for Active; 'I' for Inactive)
REMARK    1  A    between atoms: C1_2  and  C2_3 
ROOT
ATOM      1  C2  UNL d   1      -3.305   1.276   3.327  0.00  0.00    -0.081 A 
ATOM      2  C3  UNL d   1      -2.660   0.116   2.882  0.00  0.00     0.006 A 
ATOM      3  C4  UNL d   1      -1.495   0.202   2.116  0.00  0.00     0.002 A 
ATOM      4  C5  UNL d   1      -0.951   1.449   1.790  0.00  0.00    -0.080 A 
ATOM      5  C6  UNL d   1       0.316   1.556   0.995  0.00  0.00     0.076 C 
ATOM      6  C7  UNL d   1      -1.605   2.609   2.220  0.00  0.00     0.002 A 
ATOM      7  C8  UNL d   1      -2.770   2.523   2.984  0.00  0.00     0.006 A 
ENDROOT
BRANCH   1   8
ATOM      8  C1  UNL d   1      -4.525   1.185   4.206  0.00  0.00     0.054 C 
ATOM      9  C   UNL d   1      -4.512   2.260   5.284  0.00  0.00     0.018 C 
ENDBRANCH   1   8
TORSDOF 1
ENDMDL
