MODEL 1
REMARK minimizedAffinity 0.485027522
REMARK minimizedRMSD -1
REMARK  1 active torsions:
REMARK  status: ('A' for Active; 'I' for Inactive)
REMARK    1  A    between atoms: C1_2  and  C2_3 
ROOT
ATOM      1  C2  UNL d   1      -1.599   0.275   2.215  0.00  0.00    -0.081 A 
ATOM      2  C3  UNL d   1      -0.393   0.150   2.915  0.00  0.00     0.006 A 
ATOM      3  C4  UNL d   1       0.713   0.930   2.566  0.00  0.00     0.002 A 
ATOM      4  C5  UNL d   1       0.628   1.852   1.517  0.00  0.00    -0.080 A 
ATOM      5  C6  UNL d   1       1.798   2.717   1.152  0.00  0.00     0.076 C 
ATOM      6  C7  UNL d   1      -0.572   1.965   0.807  0.00  0.00     0.002 A 
ATOM      7  C8  UNL d   1      -1.677   1.185   1.155  0.00  0.00     0.006 A 
ENDROOT
BRANCH   1   8
ATOM      8  C1  UNL d   1      -2.812  -0.518   2.630  0.00  0.00     0.054 C 
ATOM      9  C   UNL d   1      -3.846   0.369   3.309  0.00  0.00     0.018 C 
ENDBRANCH   1   8
TORSDOF 1
ENDMDL
