MODEL 1
REMARK minimizedAffinity 4.98779011
REMARK minimizedRMSD -1
REMARK  1 active torsions:
REMARK  status: ('A' for Active; 'I' for Inactive)
REMARK    1  A    between atoms: C1_2  and  C2_3 
ROOT
ATOM      1  C2  UNL d   1      -1.045   2.188   1.636  0.00  0.00    -0.081 A 
ATOM      2  C3  UNL d   1      -0.075   2.435   0.657  0.00  0.00     0.006 A 
ATOM      3  C4  UNL d   1       1.036   1.597   0.534  0.00  0.00     0.002 A 
ATOM      4  C5  UNL d   1       1.192   0.496   1.382  0.00  0.00    -0.080 A 
ATOM      5  C6  UNL d   1       2.365  -0.429   1.241  0.00  0.00     0.076 C 
ATOM      6  C7  UNL d   1       0.232   0.259   2.372  0.00  0.00     0.002 A 
ATOM      7  C8  UNL d   1      -0.879   1.097   2.495  0.00  0.00     0.006 A 
ENDROOT
BRANCH   1   8
ATOM      8  C1  UNL d   1      -2.277   3.051   1.728  0.00  0.00     0.054 C 
ATOM      9  C   UNL d   1      -3.206   2.573   2.836  0.00  0.00     0.018 C 
ENDBRANCH   1   8
TORSDOF 1
ENDMDL
