MODEL 1
REMARK minimizedAffinity -1.33483815
REMARK minimizedRMSD -1
REMARK  1 active torsions:
REMARK  status: ('A' for Active; 'I' for Inactive)
REMARK    1  A    between atoms: C1_2  and  C2_3 
ROOT
ATOM      1  C2  UNL d   1      -2.902   1.443   2.494  0.00  0.00    -0.081 A 
ATOM      2  C3  UNL d   1      -2.656   0.073   2.336  0.00  0.00     0.006 A 
ATOM      3  C4  UNL d   1      -1.408  -0.376   1.898  0.00  0.00     0.002 A 
ATOM      4  C5  UNL d   1      -0.384   0.535   1.618  0.00  0.00    -0.080 A 
ATOM      5  C6  UNL d   1       0.969   0.064   1.175  0.00  0.00     0.076 C 
ATOM      6  C7  UNL d   1      -0.635   1.904   1.759  0.00  0.00     0.002 A 
ATOM      7  C8  UNL d   1      -1.883   2.354   2.197  0.00  0.00     0.006 A 
ENDROOT
BRANCH   1   8
ATOM      8  C1  UNL d   1      -4.226   1.927   3.029  0.00  0.00     0.054 C 
ATOM      9  C   UNL d   1      -4.645   1.141   4.263  0.00  0.00     0.018 C 
ENDBRANCH   1   8
TORSDOF 1
ENDMDL
