MODEL 1
REMARK minimizedAffinity 0.0549194589
REMARK minimizedRMSD -1
REMARK  1 active torsions:
REMARK  status: ('A' for Active; 'I' for Inactive)
REMARK    1  A    between atoms: C1_2  and  C2_3 
ROOT
ATOM      1  C2  UNL d   1      -0.012   0.259   1.919  0.00  0.00    -0.081 A 
ATOM      2  C3  UNL d   1       0.589  -0.594   2.852  0.00  0.00     0.006 A 
ATOM      3  C4  UNL d   1      -0.191  -1.444   3.640  0.00  0.00     0.002 A 
ATOM      4  C5  UNL d   1      -1.583  -1.460   3.503  0.00  0.00    -0.080 A 
ATOM      5  C6  UNL d   1      -2.430  -2.389   4.321  0.00  0.00     0.076 C 
ATOM      6  C7  UNL d   1      -2.185  -0.595   2.583  0.00  0.00     0.002 A 
ATOM      7  C8  UNL d   1      -1.406   0.255   1.795  0.00  0.00     0.006 A 
ENDROOT
BRANCH   1   8
ATOM      8  C1  UNL d   1       0.830   1.130   1.023  0.00  0.00     0.054 C 
ATOM      9  C   UNL d   1       1.923   0.323   0.336  0.00  0.00     0.018 C 
ENDBRANCH   1   8
TORSDOF 1
ENDMDL
