MODEL 1
REMARK minimizedAffinity -1.90165889
REMARK minimizedRMSD -1
REMARK  1 active torsions:
REMARK  status: ('A' for Active; 'I' for Inactive)
REMARK    1  A    between atoms: C1_2  and  C2_3 
ROOT
ATOM      1  C2  UNL d   1      -1.072   1.705   2.017  0.00  0.00    -0.081 A 
ATOM      2  C3  UNL d   1      -0.475   0.443   1.904  0.00  0.00     0.006 A 
ATOM      3  C4  UNL d   1      -1.072  -0.678   2.484  0.00  0.00     0.002 A 
ATOM      4  C5  UNL d   1      -2.280  -0.559   3.180  0.00  0.00    -0.080 A 
ATOM      5  C6  UNL d   1      -2.948  -1.760   3.781  0.00  0.00     0.076 C 
ATOM      6  C7  UNL d   1      -2.868   0.704   3.308  0.00  0.00     0.002 A 
ATOM      7  C8  UNL d   1      -2.271   1.826   2.729  0.00  0.00     0.006 A 
ENDROOT
BRANCH   1   8
ATOM      8  C1  UNL d   1      -0.464   2.905   1.338  0.00  0.00     0.054 C 
ATOM      9  C   UNL d   1       0.446   2.490   0.191  0.00  0.00     0.018 C 
ENDBRANCH   1   8
TORSDOF 1
ENDMDL
