MODEL 1
REMARK minimizedAffinity -0.62015897
REMARK minimizedRMSD -1
REMARK  1 active torsions:
REMARK  status: ('A' for Active; 'I' for Inactive)
REMARK    1  A    between atoms: C1_2  and  C2_3 
ROOT
ATOM      1  C2  UNL d   1      -0.813   1.042   1.521  0.00  0.00    -0.081 A 
ATOM      2  C3  UNL d   1      -0.918   2.390   1.886  0.00  0.00     0.006 A 
ATOM      3  C4  UNL d   1      -1.976   2.826   2.686  0.00  0.00     0.002 A 
ATOM      4  C5  UNL d   1      -2.942   1.923   3.140  0.00  0.00    -0.080 A 
ATOM      5  C6  UNL d   1      -4.067   2.373   4.025  0.00  0.00     0.076 C 
ATOM      6  C7  UNL d   1      -2.848   0.579   2.761  0.00  0.00     0.002 A 
ATOM      7  C8  UNL d   1      -1.790   0.142   1.961  0.00  0.00     0.006 A 
ENDROOT
BRANCH   1   8
ATOM      8  C1  UNL d   1       0.362   0.556   0.712  0.00  0.00     0.054 C 
ATOM      9  C   UNL d   1       0.814  -0.825   1.167  0.00  0.00     0.018 C 
ENDBRANCH   1   8
TORSDOF 1
ENDMDL
