MODEL 1
REMARK minimizedAffinity -2.13838625
REMARK minimizedRMSD -1
REMARK  1 active torsions:
REMARK  status: ('A' for Active; 'I' for Inactive)
REMARK    1  A    between atoms: C1_2  and  C2_3 
ROOT
ATOM      1  C2  UNL d   1      -0.768   0.702   1.847  0.00  0.00    -0.081 A 
ATOM      2  C3  UNL d   1      -0.905   2.086   2.012  0.00  0.00     0.006 A 
ATOM      3  C4  UNL d   1      -1.992   2.611   2.713  0.00  0.00     0.002 A 
ATOM      4  C5  UNL d   1      -2.956   1.762   3.268  0.00  0.00    -0.080 A 
ATOM      5  C6  UNL d   1      -4.112   2.312   4.050  0.00  0.00     0.076 C 
ATOM      6  C7  UNL d   1      -2.829   0.381   3.089  0.00  0.00     0.002 A 
ATOM      7  C8  UNL d   1      -1.742  -0.145   2.387  0.00  0.00     0.006 A 
ENDROOT
BRANCH   1   8
ATOM      8  C1  UNL d   1       0.438   0.129   1.147  0.00  0.00     0.054 C 
ATOM      9  C   UNL d   1       1.144   1.184   0.307  0.00  0.00     0.018 C 
ENDBRANCH   1   8
TORSDOF 1
ENDMDL
