MODEL 1
REMARK minimizedAffinity 3.99783444
REMARK minimizedRMSD -1
REMARK  1 active torsions:
REMARK  status: ('A' for Active; 'I' for Inactive)
REMARK    1  A    between atoms: C1_2  and  C2_3 
ROOT
ATOM      1  C2  UNL d   1      -2.657   1.878   3.130  0.00  0.00    -0.081 A 
ATOM      2  C3  UNL d   1      -2.685   2.971   2.256  0.00  0.00     0.006 A 
ATOM      3  C4  UNL d   1      -1.560   3.298   1.495  0.00  0.00     0.002 A 
ATOM      4  C5  UNL d   1      -0.392   2.534   1.590  0.00  0.00    -0.080 A 
ATOM      5  C6  UNL d   1       0.813   2.856   0.756  0.00  0.00     0.076 C 
ATOM      6  C7  UNL d   1      -0.358   1.452   2.476  0.00  0.00     0.002 A 
ATOM      7  C8  UNL d   1      -1.482   1.125   3.238  0.00  0.00     0.006 A 
ENDROOT
BRANCH   1   8
ATOM      8  C1  UNL d   1      -3.889   1.484   3.904  0.00  0.00     0.054 C 
ATOM      9  C   UNL d   1      -4.148   2.442   5.057  0.00  0.00     0.018 C 
ENDBRANCH   1   8
TORSDOF 1
ENDMDL
