MODEL 1
REMARK minimizedAffinity 1.43553853
REMARK minimizedRMSD -1
REMARK  1 active torsions:
REMARK  status: ('A' for Active; 'I' for Inactive)
REMARK    1  A    between atoms: C1_2  and  C2_3 
ROOT
ATOM      1  C2  UNL d   1      -1.316  -1.031   2.593  0.00  0.00    -0.081 A 
ATOM      2  C3  UNL d   1      -2.668  -0.667   2.579  0.00  0.00     0.006 A 
ATOM      3  C4  UNL d   1      -3.627  -1.480   3.189  0.00  0.00     0.002 A 
ATOM      4  C5  UNL d   1      -3.249  -2.665   3.829  0.00  0.00    -0.080 A 
ATOM      5  C6  UNL d   1      -4.264  -3.531   4.514  0.00  0.00     0.076 C 
ATOM      6  C7  UNL d   1      -1.901  -3.037   3.828  0.00  0.00     0.002 A 
ATOM      7  C8  UNL d   1      -0.942  -2.226   3.218  0.00  0.00     0.006 A 
ENDROOT
BRANCH   1   8
ATOM      8  C1  UNL d   1      -0.272  -0.125   1.993  0.00  0.00     0.054 C 
ATOM      9  C   UNL d   1      -0.765   1.313   1.918  0.00  0.00     0.018 C 
ENDBRANCH   1   8
TORSDOF 1
ENDMDL
