MODEL 1
REMARK minimizedAffinity 2.81036615
REMARK minimizedRMSD -1
REMARK  1 active torsions:
REMARK  status: ('A' for Active; 'I' for Inactive)
REMARK    1  A    between atoms: C1_2  and  C2_3 
ROOT
ATOM      1  C2  UNL d   1      -2.991  -3.986  -1.970  0.00  0.00    -0.081 A 
ATOM      2  C3  UNL d   1      -2.783  -3.265  -3.152  0.00  0.00     0.006 A 
ATOM      3  C4  UNL d   1      -2.924  -1.875  -3.167  0.00  0.00     0.002 A 
ATOM      4  C5  UNL d   1      -3.268  -1.184  -2.001  0.00  0.00    -0.080 A 
ATOM      5  C6  UNL d   1      -3.394   0.311  -1.997  0.00  0.00     0.076 C 
ATOM      6  C7  UNL d   1      -3.493  -1.906  -0.824  0.00  0.00     0.002 A 
ATOM      7  C8  UNL d   1      -3.353  -3.295  -0.808  0.00  0.00     0.006 A 
ENDROOT
BRANCH   1   8
ATOM      8  C1  UNL d   1      -2.776  -5.478  -1.934  0.00  0.00     0.054 C 
ATOM      9  C   UNL d   1      -2.699  -5.992  -0.503  0.00  0.00     0.018 C 
ENDBRANCH   1   8
TORSDOF 1
ENDMDL
