MODEL 1
REMARK minimizedAffinity -4.02375364
REMARK minimizedRMSD -1
REMARK  0 active torsions:
REMARK  status: ('A' for Active; 'I' for Inactive)
ROOT
ATOM      1  C1  DEN d   1       0.603  -2.306  -0.639  0.00  0.00     0.130 A 
ATOM      2  C2  DEN d   1      -0.094  -3.145   0.333  0.00  0.00    -0.031 A 
ATOM      3  C3  DEN d   1      -0.980  -2.276   1.133  0.00  0.00     0.027 A 
ATOM      4  C4  DEN d   1      -1.344   0.272   0.960  0.00  0.00     0.027 A 
ATOM      5  C5  DEN d   1      -0.966   1.417   0.294  0.00  0.00    -0.003 A 
ATOM      6  C6  DEN d   1      -0.022   1.406  -0.698  0.00  0.00     0.001 A 
ATOM      7  C7  DEN d   1       0.545   0.220  -1.084  0.00  0.00     0.017 A 
ATOM      8  C8  DEN d   1       0.174  -0.937  -0.413  0.00  0.00    -0.094 A 
ATOM      9  C9  DEN d   1      -0.791  -0.908   0.580  0.00  0.00    -0.072 A 
ENDROOT
TORSDOF 0
ENDMDL
