MODEL 1
REMARK minimizedAffinity -3.50037932
REMARK minimizedRMSD -1
REMARK  0 active torsions:
REMARK  status: ('A' for Active; 'I' for Inactive)
ROOT
ATOM      1  C1  DEN d   1       0.924   0.203  -1.607  0.00  0.00     0.130 A 
ATOM      2  C2  DEN d   1       0.058   1.242  -1.057  0.00  0.00    -0.031 A 
ATOM      3  C3  DEN d   1      -0.674   0.667   0.089  0.00  0.00     0.027 A 
ATOM      4  C4  DEN d   1      -0.547  -1.718   1.063  0.00  0.00     0.027 A 
ATOM      5  C5  DEN d   1       0.038  -2.957   0.926  0.00  0.00    -0.003 A 
ATOM      6  C6  DEN d   1       0.926  -3.238  -0.078  0.00  0.00     0.001 A 
ATOM      7  C7  DEN d   1       1.290  -2.252  -0.958  0.00  0.00     0.017 A 
ATOM      8  C8  DEN d   1       0.699  -1.002  -0.830  0.00  0.00    -0.094 A 
ATOM      9  C9  DEN d   1      -0.188  -0.735   0.199  0.00  0.00    -0.072 A 
ENDROOT
TORSDOF 0
ENDMDL
