MODEL 1
REMARK minimizedAffinity -2.57206583
REMARK minimizedRMSD -1
REMARK  0 active torsions:
REMARK  status: ('A' for Active; 'I' for Inactive)
ROOT
ATOM      1  C1  DEN d   1       1.111  -0.417   0.111  0.00  0.00     0.130 A 
ATOM      2  C2  DEN d   1       0.623   0.959   0.173  0.00  0.00    -0.031 A 
ATOM      3  C3  DEN d   1      -0.823   0.917   0.467  0.00  0.00     0.027 A 
ATOM      4  C4  DEN d   1      -2.346  -1.131   0.836  0.00  0.00     0.027 A 
ATOM      5  C5  DEN d   1      -2.388  -2.508   0.870  0.00  0.00    -0.003 A 
ATOM      6  C6  DEN d   1      -1.282  -3.278   0.622  0.00  0.00     0.001 A 
ATOM      7  C7  DEN d   1      -0.078  -2.675   0.373  0.00  0.00     0.017 A 
ATOM      8  C8  DEN d   1      -0.030  -1.288   0.330  0.00  0.00    -0.094 A 
ATOM      9  C9  DEN d   1      -1.155  -0.527   0.595  0.00  0.00    -0.072 A 
ENDROOT
TORSDOF 0
ENDMDL
