MODEL 1
REMARK minimizedAffinity -7.54658222
REMARK minimizedRMSD -1
REMARK  0 active torsions:
REMARK  status: ('A' for Active; 'I' for Inactive)
ROOT
ATOM      1  C1  DEN d   1      -0.014  -2.998  -0.147  0.00  0.00     0.130 A 
ATOM      2  C2  DEN d   1      -0.276  -2.724   1.264  0.00  0.00    -0.031 A 
ATOM      3  C3  DEN d   1      -0.385  -1.261   1.432  0.00  0.00     0.027 A 
ATOM      4  C4  DEN d   1      -0.181   0.596  -0.346  0.00  0.00     0.027 A 
ATOM      5  C5  DEN d   1       0.049   0.853  -1.680  0.00  0.00    -0.003 A 
ATOM      6  C6  DEN d   1       0.306  -0.145  -2.582  0.00  0.00     0.001 A 
ATOM      7  C7  DEN d   1       0.294  -1.452  -2.170  0.00  0.00     0.017 A 
ATOM      8  C8  DEN d   1       0.070  -1.718  -0.826  0.00  0.00    -0.094 A 
ATOM      9  C9  DEN d   1      -0.200  -0.696   0.068  0.00  0.00    -0.072 A 
ENDROOT
TORSDOF 0
ENDMDL
