MODEL 1
REMARK minimizedAffinity -4.47395992
REMARK minimizedRMSD -1
REMARK  0 active torsions:
REMARK  status: ('A' for Active; 'I' for Inactive)
ROOT
ATOM      1  C1  DEN d   1       0.390  -2.907  -0.690  0.00  0.00     0.130 A 
ATOM      2  C2  DEN d   1       0.162  -3.001   0.749  0.00  0.00    -0.031 A 
ATOM      3  C3  DEN d   1      -0.113  -1.642   1.258  0.00  0.00     0.027 A 
ATOM      4  C4  DEN d   1      -0.212   0.586  -0.038  0.00  0.00     0.027 A 
ATOM      5  C5  DEN d   1      -0.075   1.171  -1.278  0.00  0.00    -0.003 A 
ATOM      6  C6  DEN d   1       0.258   0.448  -2.393  0.00  0.00     0.001 A 
ATOM      7  C7  DEN d   1       0.420  -0.909  -2.299  0.00  0.00     0.017 A 
ATOM      8  C8  DEN d   1       0.291  -1.504  -1.052  0.00  0.00    -0.094 A 
ATOM      9  C9  DEN d   1      -0.058  -0.759   0.062  0.00  0.00    -0.072 A 
ENDROOT
TORSDOF 0
ENDMDL
