MODEL 1
REMARK minimizedAffinity -4.40343952
REMARK minimizedRMSD -1
REMARK  0 active torsions:
REMARK  status: ('A' for Active; 'I' for Inactive)
ROOT
ATOM      1  C1  DEN d   1       0.702  -2.651   0.073  0.00  0.00     0.130 A 
ATOM      2  C2  DEN d   1      -0.359  -3.236   0.888  0.00  0.00    -0.031 A 
ATOM      3  C3  DEN d   1      -1.277  -2.151   1.289  0.00  0.00     0.027 A 
ATOM      4  C4  DEN d   1      -1.162   0.363   0.726  0.00  0.00     0.027 A 
ATOM      5  C5  DEN d   1      -0.437   1.335   0.072  0.00  0.00    -0.003 A 
ATOM      6  C6  DEN d   1       0.727   1.054  -0.592  0.00  0.00     0.001 A 
ATOM      7  C7  DEN d   1       1.177  -0.238  -0.657  0.00  0.00     0.017 A 
ATOM      8  C8  DEN d   1       0.455  -1.222   0.005  0.00  0.00    -0.094 A 
ATOM      9  C9  DEN d   1      -0.726  -0.920   0.662  0.00  0.00    -0.072 A 
ENDROOT
TORSDOF 0
ENDMDL
