MODEL 1
REMARK minimizedAffinity -2.508847
REMARK minimizedRMSD -1
REMARK  0 active torsions:
REMARK  status: ('A' for Active; 'I' for Inactive)
ROOT
ATOM      1  C1  DEN d   1       0.213   0.761  -0.488  0.00  0.00     0.130 A 
ATOM      2  C2  DEN d   1      -0.791   1.323   0.410  0.00  0.00    -0.031 A 
ATOM      3  C3  DEN d   1      -1.517   0.203   1.041  0.00  0.00     0.027 A 
ATOM      4  C4  DEN d   1      -1.181  -2.334   0.721  0.00  0.00     0.027 A 
ATOM      5  C5  DEN d   1      -0.456  -3.295   0.051  0.00  0.00    -0.003 A 
ATOM      6  C6  DEN d   1       0.512  -2.974  -0.863  0.00  0.00     0.001 A 
ATOM      7  C7  DEN d   1       0.813  -1.658  -1.099  0.00  0.00     0.017 A 
ATOM      8  C8  DEN d   1       0.080  -0.684  -0.434  0.00  0.00    -0.094 A 
ATOM      9  C9  DEN d   1      -0.886  -1.029   0.496  0.00  0.00    -0.072 A 
ENDROOT
TORSDOF 0
ENDMDL
