MODEL 1
REMARK minimizedAffinity -0.478521615
REMARK minimizedRMSD -1
REMARK  0 active torsions:
REMARK  status: ('A' for Active; 'I' for Inactive)
ROOT
ATOM      1  C1  DEN d   1      -0.877  -2.592   0.002  0.00  0.00     0.130 A 
ATOM      2  C2  DEN d   1      -1.230  -2.204   1.365  0.00  0.00    -0.031 A 
ATOM      3  C3  DEN d   1      -1.012  -0.749   1.496  0.00  0.00     0.027 A 
ATOM      4  C4  DEN d   1      -0.171   0.932  -0.270  0.00  0.00     0.027 A 
ATOM      5  C5  DEN d   1       0.267   1.071  -1.568  0.00  0.00    -0.003 A 
ATOM      6  C6  DEN d   1       0.386   0.003  -2.417  0.00  0.00     0.001 A 
ATOM      7  C7  DEN d   1       0.020  -1.247  -1.991  0.00  0.00     0.017 A 
ATOM      8  C8  DEN d   1      -0.416  -1.396  -0.681  0.00  0.00    -0.094 A 
ATOM      9  C9  DEN d   1      -0.541  -0.302   0.158  0.00  0.00    -0.072 A 
ENDROOT
TORSDOF 0
ENDMDL
