MODEL 1
REMARK minimizedAffinity -4.04130697
REMARK minimizedRMSD -1
REMARK  0 active torsions:
REMARK  status: ('A' for Active; 'I' for Inactive)
ROOT
ATOM      1  C1  DEN d   1       0.541  -2.338  -0.445  0.00  0.00     0.130 A 
ATOM      2  C2  DEN d   1      -0.152  -3.142   0.558  0.00  0.00    -0.031 A 
ATOM      3  C3  DEN d   1      -1.023  -2.243   1.341  0.00  0.00     0.027 A 
ATOM      4  C4  DEN d   1      -1.368   0.301   1.096  0.00  0.00     0.027 A 
ATOM      5  C5  DEN d   1      -0.988   1.423   0.393  0.00  0.00    -0.003 A 
ATOM      6  C6  DEN d   1      -0.055   1.376  -0.608  0.00  0.00     0.001 A 
ATOM      7  C7  DEN d   1       0.498   0.174  -0.965  0.00  0.00     0.017 A 
ATOM      8  C8  DEN d   1       0.126  -0.960  -0.255  0.00  0.00    -0.094 A 
ATOM      9  C9  DEN d   1      -0.829  -0.894   0.745  0.00  0.00    -0.072 A 
ENDROOT
TORSDOF 0
ENDMDL
