MODEL 1
REMARK minimizedAffinity -3.09222007
REMARK minimizedRMSD -1
REMARK  0 active torsions:
REMARK  status: ('A' for Active; 'I' for Inactive)
ROOT
ATOM      1  C1  DEN d   1      -0.714   0.763   0.722  0.00  0.00     0.130 A 
ATOM      2  C2  DEN d   1       0.121   1.603  -0.132  0.00  0.00    -0.031 A 
ATOM      3  C3  DEN d   1       0.989   0.718  -0.934  0.00  0.00     0.027 A 
ATOM      4  C4  DEN d   1       1.118  -1.858  -0.941  0.00  0.00     0.027 A 
ATOM      5  C5  DEN d   1       0.612  -3.008  -0.378  0.00  0.00    -0.003 A 
ATOM      6  C6  DEN d   1      -0.339  -2.982   0.608  0.00  0.00     0.001 A 
ATOM      7  C7  DEN d   1      -0.847  -1.781   1.028  0.00  0.00     0.017 A 
ATOM      8  C8  DEN d   1      -0.337  -0.617   0.470  0.00  0.00    -0.094 A 
ATOM      9  C9  DEN d   1       0.615  -0.665  -0.533  0.00  0.00    -0.072 A 
ENDROOT
TORSDOF 0
ENDMDL
