MODEL 1
REMARK minimizedAffinity 5.73107958
REMARK minimizedRMSD -1
REMARK  1 active torsions:
REMARK  status: ('A' for Active; 'I' for Inactive)
REMARK    1  A    between atoms: N_2  and  C1_3 
ROOT
ATOM      1  C1  UNL d   1       2.300  -0.881   0.666  0.00  0.00     0.143 A 
ATOM      2  C2  UNL d   1       2.222  -0.583  -0.699  0.00  0.00    -0.057 A 
ATOM      3  C3  UNL d   1       3.376  -0.473  -1.485  0.00  0.00     0.033 A 
ATOM      4  C4  UNL d   1       4.633  -0.632  -0.912  0.00  0.00    -0.042 A 
ATOM      5  C5  UNL d   1       4.735  -0.904   0.448  0.00  0.00     0.033 A 
ATOM      6  C6  UNL d   1       3.580  -1.019   1.226  0.00  0.00    -0.057 A 
ENDROOT
BRANCH   1   7
ATOM      7  N   UNL d   1       1.196  -0.907   1.521  0.00  0.00    -0.732 N 
ATOM      8  C   UNL d   1       0.664   0.320   2.074  0.00  0.00     0.284 C 
ATOM      9  H3  UNL d   1       0.485  -1.568   1.218  0.00  0.00     0.395 HD
ENDBRANCH   1   7
TORSDOF 1
ENDMDL
