MODEL 1
REMARK minimizedAffinity 3.23168111
REMARK minimizedRMSD -1
REMARK  1 active torsions:
REMARK  status: ('A' for Active; 'I' for Inactive)
REMARK    1  A    between atoms: N_2  and  C1_3 
ROOT
ATOM      1  C1  UNL d   1       1.716   0.365   1.122  0.00  0.00     0.143 A 
ATOM      2  C2  UNL d   1       1.663  -0.573   0.085  0.00  0.00    -0.057 A 
ATOM      3  C3  UNL d   1       1.953  -0.211  -1.236  0.00  0.00     0.033 A 
ATOM      4  C4  UNL d   1       2.274   1.105  -1.548  0.00  0.00    -0.042 A 
ATOM      5  C5  UNL d   1       2.310   2.059  -0.538  0.00  0.00     0.033 A 
ATOM      6  C6  UNL d   1       2.025   1.691   0.781  0.00  0.00    -0.057 A 
ENDROOT
BRANCH   1   7
ATOM      7  N   UNL d   1       1.343   0.089   2.440  0.00  0.00    -0.732 N 
ATOM      8  C   UNL d   1       0.066   0.538   2.954  0.00  0.00     0.284 C 
ATOM      9  H3  UNL d   1       1.599  -0.852   2.728  0.00  0.00     0.395 HD
ENDBRANCH   1   7
TORSDOF 1
ENDMDL
