MODEL 1
REMARK minimizedAffinity 8.39690208
REMARK minimizedRMSD -1
REMARK  1 active torsions:
REMARK  status: ('A' for Active; 'I' for Inactive)
REMARK    1  A    between atoms: N_2  and  C1_3 
ROOT
ATOM      1  C1  UNL d   1      -0.543   0.487   1.943  0.00  0.00     0.143 A 
ATOM      2  C2  UNL d   1       0.210   1.134   2.928  0.00  0.00    -0.057 A 
ATOM      3  C3  UNL d   1       1.596   0.957   3.016  0.00  0.00     0.033 A 
ATOM      4  C4  UNL d   1       2.251   0.103   2.135  0.00  0.00    -0.042 A 
ATOM      5  C5  UNL d   1       1.519  -0.570   1.164  0.00  0.00     0.033 A 
ATOM      6  C6  UNL d   1       0.136  -0.384   1.077  0.00  0.00    -0.057 A 
ENDROOT
BRANCH   1   7
ATOM      7  N   UNL d   1      -1.937   0.546   1.865  0.00  0.00    -0.732 N 
ATOM      8  C   UNL d   1      -2.651  -0.207   0.857  0.00  0.00     0.284 C 
ATOM      9  H3  UNL d   1      -2.378   0.535   2.782  0.00  0.00     0.395 HD
ENDBRANCH   1   7
TORSDOF 1
ENDMDL
