MODEL 1
REMARK minimizedAffinity 3.62473273
REMARK minimizedRMSD -1
REMARK  1 active torsions:
REMARK  status: ('A' for Active; 'I' for Inactive)
REMARK    1  A    between atoms: N_2  and  C1_3 
ROOT
ATOM      1  C1  UNL d   1       1.881  -0.225   0.874  0.00  0.00     0.143 A 
ATOM      2  C2  UNL d   1       2.939  -0.688   1.664  0.00  0.00    -0.057 A 
ATOM      3  C3  UNL d   1       2.875  -0.642   3.062  0.00  0.00     0.033 A 
ATOM      4  C4  UNL d   1       1.759  -0.105   3.696  0.00  0.00    -0.042 A 
ATOM      5  C5  UNL d   1       0.706   0.383   2.931  0.00  0.00     0.033 A 
ATOM      6  C6  UNL d   1       0.774   0.329   1.535  0.00  0.00    -0.057 A 
ENDROOT
BRANCH   1   7
ATOM      7  N   UNL d   1       1.926  -0.153  -0.520  0.00  0.00    -0.732 N 
ATOM      8  C   UNL d   1       2.618   0.933  -1.180  0.00  0.00     0.284 C 
ATOM      9  H3  UNL d   1       2.072  -1.062  -0.952  0.00  0.00     0.395 HD
ENDBRANCH   1   7
TORSDOF 1
ENDMDL
