MODEL 1
REMARK minimizedAffinity 9.5636797
REMARK minimizedRMSD -1
REMARK  1 active torsions:
REMARK  status: ('A' for Active; 'I' for Inactive)
REMARK    1  A    between atoms: N_2  and  C1_3 
ROOT
ATOM      1  C1  UNL d   1       0.779  -1.450   3.652  0.00  0.00     0.143 A 
ATOM      2  C2  UNL d   1       0.503  -0.197   4.207  0.00  0.00    -0.057 A 
ATOM      3  C3  UNL d   1       0.328   0.933   3.399  0.00  0.00     0.033 A 
ATOM      4  C4  UNL d   1       0.456   0.834   2.017  0.00  0.00    -0.042 A 
ATOM      5  C5  UNL d   1       0.756  -0.397   1.445  0.00  0.00     0.033 A 
ATOM      6  C6  UNL d   1       0.923  -1.523   2.257  0.00  0.00    -0.057 A 
ENDROOT
BRANCH   1   7
ATOM      7  N   UNL d   1       1.061  -2.591   4.408  0.00  0.00    -0.732 N 
ATOM      8  C   UNL d   1       2.303  -2.700   5.142  0.00  0.00     0.284 C 
ATOM      9  H3  UNL d   1       0.247  -2.932   4.914  0.00  0.00     0.395 HD
ENDBRANCH   1   7
TORSDOF 1
ENDMDL
