MODEL 1
REMARK minimizedAffinity 8.89022827
REMARK minimizedRMSD -1
REMARK  1 active torsions:
REMARK  status: ('A' for Active; 'I' for Inactive)
REMARK    1  A    between atoms: N_2  and  C1_3 
ROOT
ATOM      1  C1  UNL d   1       1.879  -1.289   4.759  0.00  0.00     0.143 A 
ATOM      2  C2  UNL d   1       1.110  -1.884   3.754  0.00  0.00    -0.057 A 
ATOM      3  C3  UNL d   1       0.365  -1.110   2.856  0.00  0.00     0.033 A 
ATOM      4  C4  UNL d   1       0.353   0.276   2.967  0.00  0.00    -0.042 A 
ATOM      5  C5  UNL d   1       1.090   0.888   3.974  0.00  0.00     0.033 A 
ATOM      6  C6  UNL d   1       1.838   0.110   4.864  0.00  0.00    -0.057 A 
ENDROOT
BRANCH   1   7
ATOM      7  N   UNL d   1       2.563  -2.007   5.744  0.00  0.00    -0.732 N 
ATOM      8  C   UNL d   1       3.965  -1.757   5.999  0.00  0.00     0.284 C 
ATOM      9  H3  UNL d   1       2.005  -2.143   6.584  0.00  0.00     0.395 HD
ENDBRANCH   1   7
TORSDOF 1
ENDMDL
