MODEL 1
REMARK minimizedAffinity 7.3789258
REMARK minimizedRMSD -1
REMARK  1 active torsions:
REMARK  status: ('A' for Active; 'I' for Inactive)
REMARK    1  A    between atoms: N_2  and  C1_3 
ROOT
ATOM      1  C1  UNL d   1       0.961   0.493   2.399  0.00  0.00     0.143 A 
ATOM      2  C2  UNL d   1       0.717   1.722   3.021  0.00  0.00    -0.057 A 
ATOM      3  C3  UNL d   1      -0.540   2.028   3.555  0.00  0.00     0.033 A 
ATOM      4  C4  UNL d   1      -1.588   1.119   3.449  0.00  0.00    -0.042 A 
ATOM      5  C5  UNL d   1      -1.375  -0.098   2.813  0.00  0.00     0.033 A 
ATOM      6  C6  UNL d   1      -0.115  -0.401   2.288  0.00  0.00    -0.057 A 
ENDROOT
BRANCH   1   7
ATOM      7  N   UNL d   1       2.162   0.168   1.762  0.00  0.00    -0.732 N 
ATOM      8  C   UNL d   1       2.166  -0.662   0.577  0.00  0.00     0.284 C 
ATOM      9  H3  UNL d   1       2.805   0.956   1.721  0.00  0.00     0.395 HD
ENDBRANCH   1   7
TORSDOF 1
ENDMDL
