MODEL 1
REMARK minimizedAffinity 3.55018377
REMARK minimizedRMSD -1
REMARK  1 active torsions:
REMARK  status: ('A' for Active; 'I' for Inactive)
REMARK    1  A    between atoms: N_2  and  C1_3 
ROOT
ATOM      1  C1  UNL d   1       1.178   0.277   2.122  0.00  0.00     0.143 A 
ATOM      2  C2  UNL d   1       1.480   1.476   2.776  0.00  0.00    -0.057 A 
ATOM      3  C3  UNL d   1       0.486   2.222   3.422  0.00  0.00     0.033 A 
ATOM      4  C4  UNL d   1      -0.837   1.794   3.399  0.00  0.00    -0.042 A 
ATOM      5  C5  UNL d   1      -1.165   0.618   2.733  0.00  0.00     0.033 A 
ATOM      6  C6  UNL d   1      -0.166  -0.125   2.096  0.00  0.00    -0.057 A 
ENDROOT
BRANCH   1   7
ATOM      7  N   UNL d   1       2.104  -0.458   1.378  0.00  0.00    -0.732 N 
ATOM      8  C   UNL d   1       1.935  -0.629  -0.049  0.00  0.00     0.284 C 
ATOM      9  H3  UNL d   1       3.064  -0.276   1.664  0.00  0.00     0.395 HD
ENDBRANCH   1   7
TORSDOF 1
ENDMDL
