MODEL 1
REMARK minimizedAffinity 7.74647236
REMARK minimizedRMSD -1
REMARK  1 active torsions:
REMARK  status: ('A' for Active; 'I' for Inactive)
REMARK    1  A    between atoms: N_2  and  C1_3 
ROOT
ATOM      1  C1  UNL d   1       2.870  -0.341   1.956  0.00  0.00     0.143 A 
ATOM      2  C2  UNL d   1       1.476  -0.222   1.975  0.00  0.00    -0.057 A 
ATOM      3  C3  UNL d   1       0.755   0.060   0.808  0.00  0.00     0.033 A 
ATOM      4  C4  UNL d   1       1.421   0.257  -0.397  0.00  0.00    -0.042 A 
ATOM      5  C5  UNL d   1       2.808   0.168  -0.434  0.00  0.00     0.033 A 
ATOM      6  C6  UNL d   1       3.522  -0.120   0.733  0.00  0.00    -0.057 A 
ENDROOT
BRANCH   1   7
ATOM      7  N   UNL d   1       3.650  -0.523   3.101  0.00  0.00    -0.732 N 
ATOM      8  C   UNL d   1       4.412   0.576   3.655  0.00  0.00     0.284 C 
ATOM      9  H3  UNL d   1       3.189  -1.102   3.798  0.00  0.00     0.395 HD
ENDBRANCH   1   7
TORSDOF 1
ENDMDL
