MODEL 1
REMARK minimizedAffinity 4.58464766
REMARK minimizedRMSD -1
REMARK  1 active torsions:
REMARK  status: ('A' for Active; 'I' for Inactive)
REMARK    1  A    between atoms: N_2  and  C1_3 
ROOT
ATOM      1  C1  UNL d   1      -1.223  -3.591  -2.360  0.00  0.00     0.143 A 
ATOM      2  C2  UNL d   1      -1.795  -2.871  -3.415  0.00  0.00    -0.057 A 
ATOM      3  C3  UNL d   1      -2.072  -3.481  -4.645  0.00  0.00     0.033 A 
ATOM      4  C4  UNL d   1      -1.753  -4.820  -4.851  0.00  0.00    -0.042 A 
ATOM      5  C5  UNL d   1      -1.162  -5.548  -3.825  0.00  0.00     0.033 A 
ATOM      6  C6  UNL d   1      -0.894  -4.934  -2.597  0.00  0.00    -0.057 A 
ENDROOT
BRANCH   1   7
ATOM      7  N   UNL d   1      -0.834  -3.016  -1.148  0.00  0.00    -0.732 N 
ATOM      8  C   UNL d   1      -1.817  -2.441  -0.255  0.00  0.00     0.284 C 
ATOM      9  H3  UNL d   1      -0.110  -3.555  -0.678  0.00  0.00     0.395 HD
ENDBRANCH   1   7
TORSDOF 1
ENDMDL
