MODEL 1
REMARK minimizedAffinity 11.3504219
REMARK minimizedRMSD -1
REMARK  1 active torsions:
REMARK  status: ('A' for Active; 'I' for Inactive)
REMARK    1  A    between atoms: N_2  and  C1_3 
ROOT
ATOM      1  C1  UNL d   1      -1.080  -4.934  -2.795  0.00  0.00     0.143 A 
ATOM      2  C2  UNL d   1       0.154  -5.465  -3.185  0.00  0.00    -0.057 A 
ATOM      3  C3  UNL d   1       0.408  -5.807  -4.518  0.00  0.00     0.033 A 
ATOM      4  C4  UNL d   1      -0.581  -5.650  -5.484  0.00  0.00    -0.042 A 
ATOM      5  C5  UNL d   1      -1.823  -5.148  -5.114  0.00  0.00     0.033 A 
ATOM      6  C6  UNL d   1      -2.069  -4.802  -3.782  0.00  0.00    -0.057 A 
ENDROOT
BRANCH   1   7
ATOM      7  N   UNL d   1      -1.428  -4.667  -1.468  0.00  0.00    -0.732 N 
ATOM      8  C   UNL d   1      -1.597  -3.305  -1.010  0.00  0.00     0.284 C 
ATOM      9  H3  UNL d   1      -2.126  -5.315  -1.112  0.00  0.00     0.395 HD
ENDBRANCH   1   7
TORSDOF 1
ENDMDL
