MODEL 1
REMARK minimizedAffinity -4.69724703
REMARK minimizedRMSD -1
REMARK  0 active torsions:
REMARK  status: ('A' for Active; 'I' for Inactive)
ROOT
ATOM      1  C   UNL d   1       1.586   1.901   0.120  0.00  0.00     0.078 C 
ATOM      2  C1  UNL d   1       1.614   0.403   0.071  0.00  0.00    -0.077 A 
ATOM      3  C2  UNL d   1       2.703  -0.281  -0.484  0.00  0.00    -0.001 A 
ATOM      4  C3  UNL d   1       2.710  -1.676  -0.531  0.00  0.00     0.003 A 
ATOM      5  C4  UNL d   1       1.632  -2.399  -0.026  0.00  0.00    -0.005 A 
ATOM      6  C5  UNL d   1       0.543  -1.727   0.526  0.00  0.00     0.003 A 
ATOM      7  C6  UNL d   1       0.533  -0.332   0.574  0.00  0.00    -0.001 A 
ENDROOT
TORSDOF 0
ENDMDL
