MODEL 1
REMARK minimizedAffinity -3.77966714
REMARK minimizedRMSD -1
REMARK  0 active torsions:
REMARK  status: ('A' for Active; 'I' for Inactive)
ROOT
ATOM      1  C   UNL d   1       3.267  -1.377   0.928  0.00  0.00     0.078 C 
ATOM      2  C1  UNL d   1       2.160  -0.420   0.604  0.00  0.00    -0.077 A 
ATOM      3  C2  UNL d   1       1.130  -0.779  -0.274  0.00  0.00    -0.001 A 
ATOM      4  C3  UNL d   1       0.111   0.126  -0.575  0.00  0.00     0.003 A 
ATOM      5  C4  UNL d   1       0.112   1.396  -0.002  0.00  0.00    -0.005 A 
ATOM      6  C5  UNL d   1       1.134   1.764   0.871  0.00  0.00     0.003 A 
ATOM      7  C6  UNL d   1       2.154   0.860   1.172  0.00  0.00    -0.001 A 
ENDROOT
TORSDOF 0
ENDMDL
