MODEL 1
REMARK minimizedAffinity -5.29443502
REMARK minimizedRMSD -1
REMARK  0 active torsions:
REMARK  status: ('A' for Active; 'I' for Inactive)
ROOT
ATOM      1  C   UNL d   1      -0.657   0.685  -0.069  0.00  0.00     0.078 C 
ATOM      2  C1  UNL d   1       0.634  -0.065   0.078  0.00  0.00    -0.077 A 
ATOM      3  C2  UNL d   1       0.890  -1.215  -0.678  0.00  0.00    -0.001 A 
ATOM      4  C3  UNL d   1       2.091  -1.909  -0.523  0.00  0.00     0.003 A 
ATOM      5  C4  UNL d   1       3.045  -1.460   0.388  0.00  0.00    -0.005 A 
ATOM      6  C5  UNL d   1       2.798  -0.318   1.147  0.00  0.00     0.003 A 
ATOM      7  C6  UNL d   1       1.598   0.377   0.993  0.00  0.00    -0.001 A 
ENDROOT
TORSDOF 0
ENDMDL
