MODEL 1
REMARK minimizedAffinity -5.6279583
REMARK minimizedRMSD -1
REMARK  0 active torsions:
REMARK  status: ('A' for Active; 'I' for Inactive)
ROOT
ATOM      1  C   UNL d   1      -0.049  -2.333  -1.801  0.00  0.00     0.078 C 
ATOM      2  C1  UNL d   1       0.824  -1.532  -0.881  0.00  0.00    -0.077 A 
ATOM      3  C2  UNL d   1       2.002  -2.073  -0.353  0.00  0.00    -0.001 A 
ATOM      4  C3  UNL d   1       2.800  -1.319   0.510  0.00  0.00     0.003 A 
ATOM      5  C4  UNL d   1       2.427  -0.021   0.853  0.00  0.00    -0.005 A 
ATOM      6  C5  UNL d   1       1.255   0.525   0.334  0.00  0.00     0.003 A 
ATOM      7  C6  UNL d   1       0.456  -0.227  -0.529  0.00  0.00    -0.001 A 
ENDROOT
TORSDOF 0
ENDMDL
