MODEL 1
REMARK minimizedAffinity -3.86657572
REMARK minimizedRMSD -1
REMARK  0 active torsions:
REMARK  status: ('A' for Active; 'I' for Inactive)
ROOT
ATOM      1  C   UNL d   1      -0.641  -0.384  -0.350  0.00  0.00     0.078 C 
ATOM      2  C1  UNL d   1       0.833  -0.480  -0.094  0.00  0.00    -0.077 A 
ATOM      3  C2  UNL d   1       1.478   0.424   0.759  0.00  0.00    -0.001 A 
ATOM      4  C3  UNL d   1       2.853   0.328   0.980  0.00  0.00     0.003 A 
ATOM      5  C4  UNL d   1       3.595  -0.670   0.351  0.00  0.00    -0.005 A 
ATOM      6  C5  UNL d   1       2.963  -1.572  -0.501  0.00  0.00     0.003 A 
ATOM      7  C6  UNL d   1       1.588  -1.478  -0.724  0.00  0.00    -0.001 A 
ENDROOT
TORSDOF 0
ENDMDL
