MODEL 1
REMARK minimizedAffinity -4.10379839
REMARK minimizedRMSD -1
REMARK  0 active torsions:
REMARK  status: ('A' for Active; 'I' for Inactive)
ROOT
ATOM      1  C   UNL d   1       4.473   0.538  -1.769  0.00  0.00     0.078 C 
ATOM      2  C1  UNL d   1       3.578   0.079  -0.656  0.00  0.00    -0.077 A 
ATOM      3  C2  UNL d   1       3.985  -0.929   0.227  0.00  0.00    -0.001 A 
ATOM      4  C3  UNL d   1       3.138  -1.354   1.252  0.00  0.00     0.003 A 
ATOM      5  C4  UNL d   1       1.878  -0.777   1.402  0.00  0.00    -0.005 A 
ATOM      6  C5  UNL d   1       1.464   0.225   0.527  0.00  0.00     0.003 A 
ATOM      7  C6  UNL d   1       2.309   0.651  -0.499  0.00  0.00    -0.001 A 
ENDROOT
TORSDOF 0
ENDMDL
