MODEL 1
REMARK minimizedAffinity 0.755139768
REMARK minimizedRMSD -1
REMARK  0 active torsions:
REMARK  status: ('A' for Active; 'I' for Inactive)
ROOT
ATOM      1  C   UNL d   1      -0.709   0.185   0.297  0.00  0.00     0.078 C 
ATOM      2  C1  UNL d   1      -2.059   0.438   0.896  0.00  0.00    -0.077 A 
ATOM      3  C2  UNL d   1      -3.177  -0.305   0.497  0.00  0.00    -0.001 A 
ATOM      4  C3  UNL d   1      -4.430  -0.051   1.057  0.00  0.00     0.003 A 
ATOM      5  C4  UNL d   1      -4.578   0.947   2.018  0.00  0.00    -0.005 A 
ATOM      6  C5  UNL d   1      -3.473   1.693   2.420  0.00  0.00     0.003 A 
ATOM      7  C6  UNL d   1      -2.219   1.441   1.861  0.00  0.00    -0.001 A 
ENDROOT
TORSDOF 0
ENDMDL
