MODEL 1
REMARK minimizedAffinity 2.65011263
REMARK minimizedRMSD -1
REMARK  0 active torsions:
REMARK  status: ('A' for Active; 'I' for Inactive)
ROOT
ATOM      1  C   UNL d   1       2.916  -1.144   0.067  0.00  0.00     0.078 C 
ATOM      2  C1  UNL d   1       1.713  -0.251   0.009  0.00  0.00    -0.077 A 
ATOM      3  C2  UNL d   1       1.824   1.125   0.244  0.00  0.00    -0.001 A 
ATOM      4  C3  UNL d   1       0.694   1.943   0.195  0.00  0.00     0.003 A 
ATOM      5  C4  UNL d   1      -0.556   1.394  -0.087  0.00  0.00    -0.005 A 
ATOM      6  C5  UNL d   1      -0.677   0.026  -0.320  0.00  0.00     0.003 A 
ATOM      7  C6  UNL d   1       0.452  -0.794  -0.272  0.00  0.00    -0.001 A 
ENDROOT
TORSDOF 0
ENDMDL
