MODEL 1
REMARK minimizedAffinity 2.33514857
REMARK minimizedRMSD -1
REMARK  0 active torsions:
REMARK  status: ('A' for Active; 'I' for Inactive)
ROOT
ATOM      1  C   UNL d   1      -2.991   1.820   2.759  0.00  0.00     0.124 A 
ATOM      2  C1  UNL d   1      -3.648   1.109   1.765  0.00  0.00     0.062 A 
ATOM      3  C2  UNL d   1      -2.991   0.090   1.082  0.00  0.00     0.162 A 
ATOM      4  C3  UNL d   1      -1.668  -0.226   1.392  0.00  0.00    -0.034 A 
ATOM      5  C4  UNL d   1      -1.013   0.495   2.393  0.00  0.00     0.162 A 
ATOM      6  C5  UNL d   1      -1.675   1.512   3.072  0.00  0.00     0.062 A 
ATOM      7  F   UNL d   1      -1.038   2.198   4.033  0.00  0.00    -0.097 F 
ATOM      8  F1  UNL d   1       0.259   0.217   2.716  0.00  0.00    -0.096 F 
ATOM      9  I   UNL d   1      -0.681  -1.749   0.374  0.00  0.00    -0.060 I 
ATOM     10  F2  UNL d   1      -3.650  -0.581   0.126  0.00  0.00    -0.096 F 
ATOM     11  F3  UNL d   1      -4.920   1.405   1.460  0.00  0.00    -0.097 F 
ATOM     12  F4  UNL d   1      -3.626   2.801   3.414  0.00  0.00    -0.092 F 
ENDROOT
TORSDOF 0
ENDMDL
