MODEL 1
REMARK minimizedAffinity 0.606560528
REMARK minimizedRMSD -1
REMARK  0 active torsions:
REMARK  status: ('A' for Active; 'I' for Inactive)
ROOT
ATOM      1  C   UNL d   1      -2.271   0.113   0.425  0.00  0.00     0.124 A 
ATOM      2  C1  UNL d   1      -0.962   0.221  -0.022  0.00  0.00     0.062 A 
ATOM      3  C2  UNL d   1       0.024   0.736   0.814  0.00  0.00     0.162 A 
ATOM      4  C3  UNL d   1      -0.296   1.148   2.108  0.00  0.00    -0.034 A 
ATOM      5  C4  UNL d   1      -1.615   1.037   2.551  0.00  0.00     0.162 A 
ATOM      6  C5  UNL d   1      -2.597   0.521   1.711  0.00  0.00     0.062 A 
ATOM      7  F   UNL d   1      -3.861   0.418   2.145  0.00  0.00    -0.097 F 
ATOM      8  F1  UNL d   1      -1.958   1.424   3.789  0.00  0.00    -0.096 F 
ATOM      9  I   UNL d   1       1.175   1.920   3.362  0.00  0.00    -0.060 I 
ATOM     10  F2  UNL d   1       1.281   0.829   0.356  0.00  0.00    -0.096 F 
ATOM     11  F3  UNL d   1      -0.645  -0.172  -1.265  0.00  0.00    -0.097 F 
ATOM     12  F4  UNL d   1      -3.217  -0.383  -0.382  0.00  0.00    -0.092 F 
ENDROOT
TORSDOF 0
ENDMDL
