MODEL 1
REMARK minimizedAffinity 0.557169437
REMARK minimizedRMSD -1
REMARK  0 active torsions:
REMARK  status: ('A' for Active; 'I' for Inactive)
ROOT
ATOM      1  C   UNL d   1      -1.245  -1.359   0.854  0.00  0.00     0.124 A 
ATOM      2  C1  UNL d   1      -1.231  -0.009   0.534  0.00  0.00     0.062 A 
ATOM      3  C2  UNL d   1      -0.231   0.506  -0.286  0.00  0.00     0.162 A 
ATOM      4  C3  UNL d   1       0.763  -0.331  -0.792  0.00  0.00    -0.034 A 
ATOM      5  C4  UNL d   1       0.743  -1.688  -0.465  0.00  0.00     0.162 A 
ATOM      6  C5  UNL d   1      -0.258  -2.197   0.355  0.00  0.00     0.062 A 
ATOM      7  F   UNL d   1      -0.270  -3.502   0.663  0.00  0.00    -0.097 F 
ATOM      8  F1  UNL d   1       1.684  -2.520  -0.935  0.00  0.00    -0.096 F 
ATOM      9  I   UNL d   1       2.261   0.435  -2.019  0.00  0.00    -0.060 I 
ATOM     10  F2  UNL d   1      -0.243   1.815  -0.579  0.00  0.00    -0.096 F 
ATOM     11  F3  UNL d   1      -2.183   0.803   1.016  0.00  0.00    -0.097 F 
ATOM     12  F4  UNL d   1      -2.208  -1.851   1.644  0.00  0.00    -0.092 F 
ENDROOT
TORSDOF 0
ENDMDL
