MODEL 1
REMARK minimizedAffinity -2.63053918
REMARK minimizedRMSD -1
REMARK  0 active torsions:
REMARK  status: ('A' for Active; 'I' for Inactive)
ROOT
ATOM      1  C   UNL d   1       0.196   0.052  -1.290  0.00  0.00     0.124 A 
ATOM      2  C1  UNL d   1      -0.303   0.225  -0.006  0.00  0.00     0.062 A 
ATOM      3  C2  UNL d   1       0.404   0.982   0.924  0.00  0.00     0.162 A 
ATOM      4  C3  UNL d   1       1.618   1.573   0.573  0.00  0.00    -0.034 A 
ATOM      5  C4  UNL d   1       2.114   1.394  -0.719  0.00  0.00     0.162 A 
ATOM      6  C5  UNL d   1       1.404   0.636  -1.645  0.00  0.00     0.062 A 
ATOM      7  F   UNL d   1       1.888   0.470  -2.885  0.00  0.00    -0.097 F 
ATOM      8  F1  UNL d   1       3.278   1.948  -1.090  0.00  0.00    -0.096 F 
ATOM      9  I   UNL d   1       2.678   2.705   1.961  0.00  0.00    -0.060 I 
ATOM     10  F2  UNL d   1      -0.102   1.132   2.157  0.00  0.00    -0.096 F 
ATOM     11  F3  UNL d   1      -1.469  -0.339   0.340  0.00  0.00    -0.097 F 
ATOM     12  F4  UNL d   1      -0.485  -0.678  -2.182  0.00  0.00    -0.092 F 
ENDROOT
TORSDOF 0
ENDMDL
