MODEL 1
REMARK minimizedAffinity -1.98825955
REMARK minimizedRMSD -1
REMARK  0 active torsions:
REMARK  status: ('A' for Active; 'I' for Inactive)
ROOT
ATOM      1  C   UNL d   1       1.594  -0.589  -1.975  0.00  0.00     0.124 A 
ATOM      2  C1  UNL d   1       0.932  -1.469  -1.131  0.00  0.00     0.062 A 
ATOM      3  C2  UNL d   1       0.474  -1.038   0.111  0.00  0.00     0.162 A 
ATOM      4  C3  UNL d   1       0.674   0.282   0.515  0.00  0.00    -0.034 A 
ATOM      5  C4  UNL d   1       1.341   1.161  -0.339  0.00  0.00     0.162 A 
ATOM      6  C5  UNL d   1       1.798   0.726  -1.578  0.00  0.00     0.062 A 
ATOM      7  F   UNL d   1       2.437   1.578  -2.393  0.00  0.00    -0.097 F 
ATOM      8  F1  UNL d   1       1.551   2.437   0.019  0.00  0.00    -0.096 F 
ATOM      9  I   UNL d   1      -0.010   0.930   2.371  0.00  0.00    -0.060 I 
ATOM     10  F2  UNL d   1      -0.163  -1.911   0.906  0.00  0.00    -0.096 F 
ATOM     11  F3  UNL d   1       0.735  -2.740  -1.511  0.00  0.00    -0.097 F 
ATOM     12  F4  UNL d   1       2.035  -1.006  -3.168  0.00  0.00    -0.092 F 
ENDROOT
TORSDOF 0
ENDMDL
