MODEL 1
REMARK minimizedAffinity -0.325203151
REMARK minimizedRMSD -1
REMARK  0 active torsions:
REMARK  status: ('A' for Active; 'I' for Inactive)
ROOT
ATOM      1  C   UNL d   1       1.572   0.173  -1.451  0.00  0.00     0.124 A 
ATOM      2  C1  UNL d   1       1.828   1.428  -0.916  0.00  0.00     0.062 A 
ATOM      3  C2  UNL d   1       1.448   1.722   0.391  0.00  0.00     0.162 A 
ATOM      4  C3  UNL d   1       0.808   0.760   1.171  0.00  0.00    -0.034 A 
ATOM      5  C4  UNL d   1       0.552  -0.499   0.626  0.00  0.00     0.162 A 
ATOM      6  C5  UNL d   1       0.934  -0.789  -0.680  0.00  0.00     0.062 A 
ATOM      7  F   UNL d   1       0.685  -2.002  -1.196  0.00  0.00    -0.097 F 
ATOM      8  F1  UNL d   1      -0.062  -1.448   1.349  0.00  0.00    -0.096 F 
ATOM      9  I   UNL d   1       0.238   1.197   3.125  0.00  0.00    -0.060 I 
ATOM     10  F2  UNL d   1       1.709   2.943   0.882  0.00  0.00    -0.096 F 
ATOM     11  F3  UNL d   1       2.443   2.359  -1.659  0.00  0.00    -0.097 F 
ATOM     12  F4  UNL d   1       1.937  -0.108  -2.708  0.00  0.00    -0.092 F 
ENDROOT
TORSDOF 0
ENDMDL
