MODEL 1
REMARK minimizedAffinity 0.338969171
REMARK minimizedRMSD -1
REMARK  0 active torsions:
REMARK  status: ('A' for Active; 'I' for Inactive)
ROOT
ATOM      1  C   UNL d   1       0.325  -1.897  -0.666  0.00  0.00     0.124 A 
ATOM      2  C1  UNL d   1       0.161  -0.578  -1.066  0.00  0.00     0.062 A 
ATOM      3  C2  UNL d   1      -0.774   0.234  -0.430  0.00  0.00     0.162 A 
ATOM      4  C3  UNL d   1      -1.552  -0.270   0.612  0.00  0.00    -0.034 A 
ATOM      5  C4  UNL d   1      -1.382  -1.598   1.008  0.00  0.00     0.162 A 
ATOM      6  C5  UNL d   1      -0.446  -2.406   0.370  0.00  0.00     0.062 A 
ATOM      7  F   UNL d   1      -0.289  -3.680   0.757  0.00  0.00    -0.097 F 
ATOM      8  F1  UNL d   1      -2.113  -2.115   2.006  0.00  0.00    -0.096 F 
ATOM      9  I   UNL d   1      -2.951   0.942   1.564  0.00  0.00    -0.060 I 
ATOM     10  F2  UNL d   1      -0.912   1.505  -0.837  0.00  0.00    -0.096 F 
ATOM     11  F3  UNL d   1       0.904  -0.085  -2.067  0.00  0.00    -0.097 F 
ATOM     12  F4  UNL d   1       1.224  -2.677  -1.280  0.00  0.00    -0.092 F 
ENDROOT
TORSDOF 0
ENDMDL
