MODEL 1
REMARK minimizedAffinity -0.0258401148
REMARK minimizedRMSD -1
REMARK  0 active torsions:
REMARK  status: ('A' for Active; 'I' for Inactive)
ROOT
ATOM      1  C   UNL d   1       1.307  -0.722  -2.013  0.00  0.00     0.124 A 
ATOM      2  C1  UNL d   1       0.791  -1.606  -1.075  0.00  0.00     0.062 A 
ATOM      3  C2  UNL d   1       0.521  -1.174   0.220  0.00  0.00     0.162 A 
ATOM      4  C3  UNL d   1       0.765   0.150   0.585  0.00  0.00    -0.034 A 
ATOM      5  C4  UNL d   1       1.285   1.033  -0.363  0.00  0.00     0.162 A 
ATOM      6  C5  UNL d   1       1.553   0.596  -1.656  0.00  0.00     0.062 A 
ATOM      7  F   UNL d   1       2.052   1.451  -2.561  0.00  0.00    -0.097 F 
ATOM      8  F1  UNL d   1       1.532   2.313  -0.045  0.00  0.00    -0.096 F 
ATOM      9  I   UNL d   1       0.363   0.800   2.521  0.00  0.00    -0.060 I 
ATOM     10  F2  UNL d   1       0.023  -2.050   1.105  0.00  0.00    -0.096 F 
ATOM     11  F3  UNL d   1       0.553  -2.881  -1.417  0.00  0.00    -0.097 F 
ATOM     12  F4  UNL d   1       1.567  -1.141  -3.258  0.00  0.00    -0.092 F 
ENDROOT
TORSDOF 0
ENDMDL
