MODEL 1
REMARK minimizedAffinity -0.103365399
REMARK minimizedRMSD -1
REMARK  0 active torsions:
REMARK  status: ('A' for Active; 'I' for Inactive)
ROOT
ATOM      1  C   UNL d   1      -2.115  -0.078   1.509  0.00  0.00     0.124 A 
ATOM      2  C1  UNL d   1      -0.926  -0.117   0.793  0.00  0.00     0.062 A 
ATOM      3  C2  UNL d   1       0.234   0.433   1.331  0.00  0.00     0.162 A 
ATOM      4  C3  UNL d   1       0.211   1.028   2.592  0.00  0.00    -0.034 A 
ATOM      5  C4  UNL d   1      -0.989   1.066   3.306  0.00  0.00     0.162 A 
ATOM      6  C5  UNL d   1      -2.145   0.514   2.764  0.00  0.00     0.062 A 
ATOM      7  F   UNL d   1      -3.292   0.553   3.457  0.00  0.00    -0.097 F 
ATOM      8  F1  UNL d   1      -1.046   1.630   4.521  0.00  0.00    -0.096 F 
ATOM      9  I   UNL d   1       1.943   1.853   3.399  0.00  0.00    -0.060 I 
ATOM     10  F2  UNL d   1       1.368   0.381   0.617  0.00  0.00    -0.096 F 
ATOM     11  F3  UNL d   1      -0.894  -0.687  -0.420  0.00  0.00    -0.097 F 
ATOM     12  F4  UNL d   1      -3.229  -0.608   0.989  0.00  0.00    -0.092 F 
ENDROOT
TORSDOF 0
ENDMDL
