MODEL 1
REMARK minimizedAffinity -2.26637554
REMARK minimizedRMSD -1
REMARK  0 active torsions:
REMARK  status: ('A' for Active; 'I' for Inactive)
ROOT
ATOM      1  C   UNL d   1       1.141  -0.525  -2.085  0.00  0.00     0.124 A 
ATOM      2  C1  UNL d   1       1.585   0.661  -1.517  0.00  0.00     0.062 A 
ATOM      3  C2  UNL d   1       1.345   0.926  -0.172  0.00  0.00     0.162 A 
ATOM      4  C3  UNL d   1       0.658   0.002   0.615  0.00  0.00    -0.034 A 
ATOM      5  C4  UNL d   1       0.213  -1.188   0.036  0.00  0.00     0.162 A 
ATOM      6  C5  UNL d   1       0.456  -1.448  -1.309  0.00  0.00     0.062 A 
ATOM      7  F   UNL d   1       0.026  -2.594  -1.856  0.00  0.00    -0.097 F 
ATOM      8  F1  UNL d   1      -0.451  -2.098   0.764  0.00  0.00    -0.096 F 
ATOM      9  I   UNL d   1       0.296   0.394   2.627  0.00  0.00    -0.060 I 
ATOM     10  F2  UNL d   1       1.786   2.080   0.351  0.00  0.00    -0.096 F 
ATOM     11  F3  UNL d   1       2.247   1.555  -2.266  0.00  0.00    -0.097 F 
ATOM     12  F4  UNL d   1       1.373  -0.776  -3.380  0.00  0.00    -0.092 F 
ENDROOT
TORSDOF 0
ENDMDL
