MODEL 1
REMARK minimizedAffinity -1.18777215
REMARK minimizedRMSD -1
REMARK  0 active torsions:
REMARK  status: ('A' for Active; 'I' for Inactive)
ROOT
ATOM      1  C   UNL d   1       2.032   0.403  -1.172  0.00  0.00     0.124 A 
ATOM      2  C1  UNL d   1       1.667   0.900   0.071  0.00  0.00     0.062 A 
ATOM      3  C2  UNL d   1       0.345   0.812   0.499  0.00  0.00     0.162 A 
ATOM      4  C3  UNL d   1      -0.621   0.225  -0.317  0.00  0.00    -0.034 A 
ATOM      5  C4  UNL d   1      -0.247  -0.271  -1.567  0.00  0.00     0.162 A 
ATOM      6  C5  UNL d   1       1.075  -0.181  -1.990  0.00  0.00     0.062 A 
ATOM      7  F   UNL d   1       1.426  -0.661  -3.192  0.00  0.00    -0.097 F 
ATOM      8  F1  UNL d   1      -1.151  -0.842  -2.377  0.00  0.00    -0.096 F 
ATOM      9  I   UNL d   1      -2.599   0.093   0.320  0.00  0.00    -0.060 I 
ATOM     10  F2  UNL d   1       0.021   1.300   1.706  0.00  0.00    -0.096 F 
ATOM     11  F3  UNL d   1       2.589   1.466   0.863  0.00  0.00    -0.097 F 
ATOM     12  F4  UNL d   1       3.304   0.490  -1.582  0.00  0.00    -0.092 F 
ENDROOT
TORSDOF 0
ENDMDL
