MODEL 1
REMARK minimizedAffinity 3.48343277
REMARK minimizedRMSD -1
REMARK  0 active torsions:
REMARK  status: ('A' for Active; 'I' for Inactive)
ROOT
ATOM      1  C   UNL d   1       0.155  -1.674  -1.276  0.00  0.00     0.124 A 
ATOM      2  C1  UNL d   1       0.537  -0.371  -1.566  0.00  0.00     0.062 A 
ATOM      3  C2  UNL d   1       0.738   0.545  -0.538  0.00  0.00     0.162 A 
ATOM      4  C3  UNL d   1       0.558   0.162   0.791  0.00  0.00    -0.034 A 
ATOM      5  C4  UNL d   1       0.172  -1.149   1.075  0.00  0.00     0.162 A 
ATOM      6  C5  UNL d   1      -0.028  -2.061   0.044  0.00  0.00     0.062 A 
ATOM      7  F   UNL d   1      -0.397  -3.319   0.326  0.00  0.00    -0.097 F 
ATOM      8  F1  UNL d   1      -0.010  -1.551   2.342  0.00  0.00    -0.096 F 
ATOM      9  I   UNL d   1       0.857   1.529   2.331  0.00  0.00    -0.060 I 
ATOM     10  F2  UNL d   1       1.108   1.797  -0.848  0.00  0.00    -0.096 F 
ATOM     11  F3  UNL d   1       0.713   0.006  -2.841  0.00  0.00    -0.097 F 
ATOM     12  F4  UNL d   1      -0.039  -2.553  -2.268  0.00  0.00    -0.092 F 
ENDROOT
TORSDOF 0
ENDMDL
