MODEL 1
REMARK minimizedAffinity 1.27420902
REMARK minimizedRMSD -1
REMARK  0 active torsions:
REMARK  status: ('A' for Active; 'I' for Inactive)
ROOT
ATOM      1  C   UNL d   1       0.587   0.895  -0.326  0.00  0.00     0.124 A 
ATOM      2  C1  UNL d   1       1.142   2.140  -0.586  0.00  0.00     0.062 A 
ATOM      3  C2  UNL d   1       1.754   2.861   0.436  0.00  0.00     0.162 A 
ATOM      4  C3  UNL d   1       1.814   2.337   1.728  0.00  0.00    -0.034 A 
ATOM      5  C4  UNL d   1       1.252   1.084   1.981  0.00  0.00     0.162 A 
ATOM      6  C5  UNL d   1       0.642   0.368   0.956  0.00  0.00     0.062 A 
ATOM      7  F   UNL d   1       0.106  -0.834   1.209  0.00  0.00    -0.097 F 
ATOM      8  F1  UNL d   1       1.292   0.551   3.211  0.00  0.00    -0.096 F 
ATOM      9  I   UNL d   1       2.728   3.411   3.259  0.00  0.00    -0.060 I 
ATOM     10  F2  UNL d   1       2.282   4.061   0.157  0.00  0.00    -0.096 F 
ATOM     11  F3  UNL d   1       1.089   2.652  -1.824  0.00  0.00    -0.097 F 
ATOM     12  F4  UNL d   1      -0.002   0.205  -1.311  0.00  0.00    -0.092 F 
ENDROOT
TORSDOF 0
ENDMDL
