MODEL 1
REMARK minimizedAffinity 19.605814
REMARK minimizedRMSD -1
REMARK  0 active torsions:
REMARK  status: ('A' for Active; 'I' for Inactive)
ROOT
ATOM      1  C   UNL d   1       4.432  -0.274  -1.740  0.00  0.00     0.124 A 
ATOM      2  C1  UNL d   1       3.421  -1.225  -1.714  0.00  0.00     0.062 A 
ATOM      3  C2  UNL d   1       2.134  -0.867  -1.323  0.00  0.00     0.162 A 
ATOM      4  C3  UNL d   1       1.850   0.449  -0.956  0.00  0.00    -0.034 A 
ATOM      5  C4  UNL d   1       2.872   1.399  -0.983  0.00  0.00     0.162 A 
ATOM      6  C5  UNL d   1       4.157   1.036  -1.375  0.00  0.00     0.062 A 
ATOM      7  F   UNL d   1       5.133   1.955  -1.399  0.00  0.00    -0.097 F 
ATOM      8  F1  UNL d   1       2.634   2.672  -0.636  0.00  0.00    -0.096 F 
ATOM      9  I   UNL d   1      -0.073   0.988  -0.370  0.00  0.00    -0.060 I 
ATOM     10  F2  UNL d   1       1.176  -1.806  -1.307  0.00  0.00    -0.096 F 
ATOM     11  F3  UNL d   1       3.684  -2.492  -2.065  0.00  0.00    -0.097 F 
ATOM     12  F4  UNL d   1       5.670  -0.622  -2.116  0.00  0.00    -0.092 F 
ENDROOT
TORSDOF 0
ENDMDL
