MODEL 1
REMARK minimizedAffinity 17.2882099
REMARK minimizedRMSD -1
REMARK  0 active torsions:
REMARK  status: ('A' for Active; 'I' for Inactive)
ROOT
ATOM      1  O1  BZF d   1       0.122  -0.368  -0.895  0.00  0.00    -0.204 OA
ATOM      2  C2  BZF d   1       1.173  -0.343   0.002  0.00  0.00     0.174 A 
ATOM      3  C3  BZF d   1       0.747   0.021   1.228  0.00  0.00    -0.012 A 
ATOM      4  C3A BZF d   1      -0.674   0.148   1.111  0.00  0.00    -0.107 A 
ATOM      5  C4  BZF d   1      -1.664   0.471   1.994  0.00  0.00     0.055 A 
ATOM      6  C5  BZF d   1      -2.941   0.579   1.544  0.00  0.00    -0.016 A 
ATOM      7  C6  BZF d   1      -3.263   0.376   0.218  0.00  0.00     0.022 A 
ATOM      8  C7  BZF d   1      -2.316   0.049  -0.695  0.00  0.00     0.029 A 
ATOM      9  C7A BZF d   1      -1.029  -0.093  -0.236  0.00  0.00     0.058 A 
ENDROOT
TORSDOF 0
ENDMDL
