MODEL 1
REMARK minimizedAffinity 8.70178318
REMARK minimizedRMSD -1
REMARK  0 active torsions:
REMARK  status: ('A' for Active; 'I' for Inactive)
ROOT
ATOM      1  O1  BZF d   1      -3.788  -0.384   2.602  0.00  0.00    -0.204 OA
ATOM      2  C2  BZF d   1      -3.817  -1.390   3.549  0.00  0.00     0.174 A 
ATOM      3  C3  BZF d   1      -2.568  -1.804   3.845  0.00  0.00    -0.012 A 
ATOM      4  C3A BZF d   1      -1.700  -0.943   3.101  0.00  0.00    -0.107 A 
ATOM      5  C4  BZF d   1      -0.342  -0.846   2.991  0.00  0.00     0.055 A 
ATOM      6  C5  BZF d   1       0.188   0.055   2.123  0.00  0.00    -0.016 A 
ATOM      7  C6  BZF d   1      -0.610   0.871   1.347  0.00  0.00     0.022 A 
ATOM      8  C7  BZF d   1      -1.961   0.815   1.425  0.00  0.00     0.029 A 
ATOM      9  C7A BZF d   1      -2.499  -0.072   2.326  0.00  0.00     0.058 A 
ENDROOT
TORSDOF 0
ENDMDL
