MODEL 1
REMARK minimizedAffinity 2.5585587
REMARK minimizedRMSD -1
REMARK  0 active torsions:
REMARK  status: ('A' for Active; 'I' for Inactive)
ROOT
ATOM      1  O1  BZF d   1       1.057  -0.566  -0.386  0.00  0.00    -0.204 OA
ATOM      2  C2  BZF d   1       1.764   0.106   0.592  0.00  0.00     0.174 A 
ATOM      3  C3  BZF d   1       0.932   0.815   1.382  0.00  0.00    -0.012 A 
ATOM      4  C3A BZF d   1      -0.385   0.497   0.922  0.00  0.00    -0.107 A 
ATOM      5  C4  BZF d   1      -1.635   0.877   1.319  0.00  0.00     0.055 A 
ATOM      6  C5  BZF d   1      -2.713   0.443   0.614  0.00  0.00    -0.016 A 
ATOM      7  C6  BZF d   1      -2.577  -0.366  -0.495  0.00  0.00     0.022 A 
ATOM      8  C7  BZF d   1      -1.357  -0.774  -0.924  0.00  0.00     0.029 A 
ATOM      9  C7A BZF d   1      -0.269  -0.364  -0.194  0.00  0.00     0.058 A 
ENDROOT
TORSDOF 0
ENDMDL
