MODEL 1
REMARK minimizedAffinity -0.565620184
REMARK minimizedRMSD -1
REMARK  0 active torsions:
REMARK  status: ('A' for Active; 'I' for Inactive)
ROOT
ATOM      1  O1  BZF d   1       0.396  -1.538   3.547  0.00  0.00    -0.204 OA
ATOM      2  C2  BZF d   1      -0.623  -1.425   4.473  0.00  0.00     0.174 A 
ATOM      3  C3  BZF d   1      -1.658  -0.728   3.962  0.00  0.00    -0.012 A 
ATOM      4  C3A BZF d   1      -1.299  -0.463   2.602  0.00  0.00    -0.107 A 
ATOM      5  C4  BZF d   1      -1.927   0.179   1.573  0.00  0.00     0.055 A 
ATOM      6  C5  BZF d   1      -1.274   0.328   0.391  0.00  0.00    -0.016 A 
ATOM      7  C6  BZF d   1       0.008  -0.147   0.205  0.00  0.00     0.022 A 
ATOM      8  C7  BZF d   1       0.669  -0.795   1.194  0.00  0.00     0.029 A 
ATOM      9  C7A BZF d   1      -0.001  -0.977   2.380  0.00  0.00     0.058 A 
ENDROOT
TORSDOF 0
ENDMDL
