MODEL 1
REMARK minimizedAffinity 0.160252929
REMARK minimizedRMSD -1
REMARK  0 active torsions:
REMARK  status: ('A' for Active; 'I' for Inactive)
ROOT
ATOM      1  O1  BZF d   1      -0.593  -0.653   3.278  0.00  0.00    -0.204 OA
ATOM      2  C2  BZF d   1      -1.902  -0.544   3.706  0.00  0.00     0.174 A 
ATOM      3  C3  BZF d   1      -2.735  -0.373   2.659  0.00  0.00    -0.012 A 
ATOM      4  C3A BZF d   1      -1.904  -0.468   1.498  0.00  0.00    -0.107 A 
ATOM      5  C4  BZF d   1      -2.153  -0.396   0.157  0.00  0.00     0.055 A 
ATOM      6  C5  BZF d   1      -1.110  -0.455  -0.713  0.00  0.00    -0.016 A 
ATOM      7  C6  BZF d   1       0.193  -0.579  -0.276  0.00  0.00     0.022 A 
ATOM      8  C7  BZF d   1       0.489  -0.658   1.044  0.00  0.00     0.029 A 
ATOM      9  C7A BZF d   1      -0.566  -0.633   1.924  0.00  0.00     0.058 A 
ENDROOT
TORSDOF 0
ENDMDL
