MODEL 1
REMARK minimizedAffinity 1.16445398
REMARK minimizedRMSD -1
REMARK  0 active torsions:
REMARK  status: ('A' for Active; 'I' for Inactive)
ROOT
ATOM      1  O1  BZF d   1      -1.248  -0.737   3.153  0.00  0.00    -0.204 OA
ATOM      2  C2  BZF d   1      -2.591  -0.698   3.472  0.00  0.00     0.174 A 
ATOM      3  C3  BZF d   1      -3.331  -0.376   2.391  0.00  0.00    -0.012 A 
ATOM      4  C3A BZF d   1      -2.399  -0.294   1.309  0.00  0.00    -0.107 A 
ATOM      5  C4  BZF d   1      -2.529  -0.024  -0.024  0.00  0.00     0.055 A 
ATOM      6  C5  BZF d   1      -1.413   0.051  -0.794  0.00  0.00    -0.016 A 
ATOM      7  C6  BZF d   1      -0.152  -0.132  -0.266  0.00  0.00     0.022 A 
ATOM      8  C7  BZF d   1       0.027  -0.406   1.049  0.00  0.00     0.029 A 
ATOM      9  C7A BZF d   1      -1.101  -0.516   1.824  0.00  0.00     0.058 A 
ENDROOT
TORSDOF 0
ENDMDL
