MODEL 1
REMARK minimizedAffinity 4.99380016
REMARK minimizedRMSD -1
REMARK  0 active torsions:
REMARK  status: ('A' for Active; 'I' for Inactive)
ROOT
ATOM      1  O1  BZF d   1       0.732  -1.456   3.649  0.00  0.00    -0.204 OA
ATOM      2  C2  BZF d   1       0.141  -1.579   4.892  0.00  0.00     0.174 A 
ATOM      3  C3  BZF d   1      -1.084  -1.013   4.896  0.00  0.00    -0.012 A 
ATOM      4  C3A BZF d   1      -1.307  -0.587   3.549  0.00  0.00    -0.107 A 
ATOM      5  C4  BZF d   1      -2.350   0.030   2.920  0.00  0.00     0.055 A 
ATOM      6  C5  BZF d   1      -2.222   0.375   1.611  0.00  0.00    -0.016 A 
ATOM      7  C6  BZF d   1      -1.065   0.122   0.904  0.00  0.00     0.022 A 
ATOM      8  C7  BZF d   1      -0.005  -0.493   1.484  0.00  0.00     0.029 A 
ATOM      9  C7A BZF d   1      -0.143  -0.871   2.797  0.00  0.00     0.058 A 
ENDROOT
TORSDOF 0
ENDMDL
