MODEL 1
REMARK minimizedAffinity 3.89579463
REMARK minimizedRMSD -1
REMARK  0 active torsions:
REMARK  status: ('A' for Active; 'I' for Inactive)
ROOT
ATOM      1  O1  BZF d   1      -1.867   0.388  -0.273  0.00  0.00    -0.204 OA
ATOM      2  C2  BZF d   1      -0.713   0.596  -1.003  0.00  0.00     0.174 A 
ATOM      3  C3  BZF d   1       0.373   0.217  -0.298  0.00  0.00    -0.012 A 
ATOM      4  C3A BZF d   1      -0.141  -0.343   0.914  0.00  0.00    -0.107 A 
ATOM      5  C4  BZF d   1       0.445  -0.907   2.011  0.00  0.00     0.055 A 
ATOM      6  C5  BZF d   1      -0.336  -1.288   3.055  0.00  0.00    -0.016 A 
ATOM      7  C6  BZF d   1      -1.705  -1.116   3.038  0.00  0.00     0.022 A 
ATOM      8  C7  BZF d   1      -2.332  -0.566   1.970  0.00  0.00     0.029 A 
ATOM      9  C7A BZF d   1      -1.549  -0.210   0.900  0.00  0.00     0.058 A 
ENDROOT
TORSDOF 0
ENDMDL
