MODEL 1
REMARK minimizedAffinity 2.66080379
REMARK minimizedRMSD -1
REMARK  0 active torsions:
REMARK  status: ('A' for Active; 'I' for Inactive)
ROOT
ATOM      1  O1  BZF d   1      -1.480  -2.228   4.280  0.00  0.00    -0.204 OA
ATOM      2  C2  BZF d   1      -0.224  -1.972   4.796  0.00  0.00     0.174 A 
ATOM      3  C3  BZF d   1       0.393  -1.000   4.094  0.00  0.00    -0.012 A 
ATOM      4  C3A BZF d   1      -0.571  -0.560   3.132  0.00  0.00    -0.107 A 
ATOM      5  C4  BZF d   1      -0.556   0.396   2.158  0.00  0.00     0.055 A 
ATOM      6  C5  BZF d   1      -1.635   0.524   1.341  0.00  0.00    -0.016 A 
ATOM      7  C6  BZF d   1      -2.742  -0.290   1.468  0.00  0.00     0.022 A 
ATOM      8  C7  BZF d   1      -2.805  -1.249   2.423  0.00  0.00     0.029 A 
ATOM      9  C7A BZF d   1      -1.730  -1.359   3.271  0.00  0.00     0.058 A 
ENDROOT
TORSDOF 0
ENDMDL
