MODEL 1
REMARK minimizedAffinity -0.19294697
REMARK minimizedRMSD -1
REMARK  0 active torsions:
REMARK  status: ('A' for Active; 'I' for Inactive)
ROOT
ATOM      1  O1  BZF d   1       0.808  -0.983   2.806  0.00  0.00    -0.204 OA
ATOM      2  C2  BZF d   1       1.822  -1.044   1.869  0.00  0.00     0.174 A 
ATOM      3  C3  BZF d   1       1.350  -0.779   0.634  0.00  0.00    -0.012 A 
ATOM      4  C3A BZF d   1      -0.029  -0.447   0.822  0.00  0.00    -0.107 A 
ATOM      5  C4  BZF d   1      -1.030  -0.076  -0.030  0.00  0.00     0.055 A 
ATOM      6  C5  BZF d   1      -2.284   0.105   0.463  0.00  0.00    -0.016 A 
ATOM      7  C6  BZF d   1      -2.573  -0.081   1.799  0.00  0.00     0.022 A 
ATOM      8  C7  BZF d   1      -1.612  -0.444   2.683  0.00  0.00     0.029 A 
ATOM      9  C7A BZF d   1      -0.337  -0.596   2.194  0.00  0.00     0.058 A 
ENDROOT
TORSDOF 0
ENDMDL
