MODEL 1
REMARK minimizedAffinity -0.308513284
REMARK minimizedRMSD -1
REMARK  0 active torsions:
REMARK  status: ('A' for Active; 'I' for Inactive)
ROOT
ATOM      1  O1  BZF d   1       5.364   5.931   4.127  0.00  0.00    -0.204 OA
ATOM      2  C2  BZF d   1       5.909   4.930   4.907  0.00  0.00     0.174 A 
ATOM      3  C3  BZF d   1       5.261   3.764   4.709  0.00  0.00    -0.012 A 
ATOM      4  C3A BZF d   1       4.306   4.034   3.678  0.00  0.00    -0.107 A 
ATOM      5  C4  BZF d   1       3.376   3.267   3.036  0.00  0.00     0.055 A 
ATOM      6  C5  BZF d   1       2.551   3.853   2.128  0.00  0.00    -0.016 A 
ATOM      7  C6  BZF d   1       2.625   5.200   1.843  0.00  0.00     0.022 A 
ATOM      8  C7  BZF d   1       3.535   6.000   2.451  0.00  0.00     0.029 A 
ATOM      9  C7A BZF d   1       4.392   5.405   3.344  0.00  0.00     0.058 A 
ENDROOT
TORSDOF 0
ENDMDL
