MODEL 1
REMARK minimizedAffinity 16.5642471
REMARK minimizedRMSD -1
REMARK  0 active torsions:
REMARK  status: ('A' for Active; 'I' for Inactive)
ROOT
ATOM      1  C4' PXY d   1       4.680  -1.445   0.019  0.00  0.00     0.077 C 
ATOM      2  C1' PXY d   1       0.173  -4.833  -1.258  0.00  0.00     0.077 C 
ATOM      3  C1  PXY d   1       1.347  -3.935  -0.918  0.00  0.00    -0.082 A 
ATOM      4  C2  PXY d   1       2.491  -4.081  -1.567  0.00  0.00     0.003 A 
ATOM      5  C3  PXY d   1       3.572  -3.300  -1.251  0.00  0.00     0.003 A 
ATOM      6  C4  PXY d   1       3.465  -2.323  -0.297  0.00  0.00    -0.082 A 
ATOM      7  C5  PXY d   1       2.298  -2.161   0.361  0.00  0.00     0.003 A 
ATOM      8  C6  PXY d   1       1.225  -2.992   0.054  0.00  0.00     0.003 A 
ENDROOT
TORSDOF 0
ENDMDL
