MODEL 1
REMARK minimizedAffinity 8.54137897
REMARK minimizedRMSD -1
REMARK  0 active torsions:
REMARK  status: ('A' for Active; 'I' for Inactive)
ROOT
ATOM      1  C4' PXY d   1      -1.175   1.905   0.954  0.00  0.00     0.077 C 
ATOM      2  C1' PXY d   1       0.803   6.000  -2.614  0.00  0.00     0.077 C 
ATOM      3  C1  PXY d   1       0.273   4.933  -1.677  0.00  0.00    -0.082 A 
ATOM      4  C2  PXY d   1       1.121   4.139  -1.043  0.00  0.00     0.003 A 
ATOM      5  C3  PXY d   1       0.658   3.148  -0.216  0.00  0.00     0.003 A 
ATOM      6  C4  PXY d   1      -0.685   3.002   0.006  0.00  0.00    -0.082 A 
ATOM      7  C5  PXY d   1      -1.556   3.815  -0.629  0.00  0.00     0.003 A 
ATOM      8  C6  PXY d   1      -1.068   4.788  -1.496  0.00  0.00     0.003 A 
ENDROOT
TORSDOF 0
ENDMDL
