MODEL 1
REMARK minimizedAffinity 10.342144
REMARK minimizedRMSD -1
REMARK  0 active torsions:
REMARK  status: ('A' for Active; 'I' for Inactive)
ROOT
ATOM      1  C4' PXY d   1       1.790   4.480  -2.419  0.00  0.00     0.077 C 
ATOM      2  C1' PXY d   1      -2.205   1.463   0.471  0.00  0.00     0.077 C 
ATOM      3  C1  PXY d   1      -1.148   2.248  -0.280  0.00  0.00    -0.082 A 
ATOM      4  C2  PXY d   1      -1.454   3.426  -0.798  0.00  0.00     0.003 A 
ATOM      5  C3  PXY d   1      -0.519   4.135  -1.508  0.00  0.00     0.003 A 
ATOM      6  C4  PXY d   1       0.757   3.657  -1.644  0.00  0.00    -0.082 A 
ATOM      7  C5  PXY d   1       1.079   2.460  -1.109  0.00  0.00     0.003 A 
ATOM      8  C6  PXY d   1       0.104   1.737  -0.428  0.00  0.00     0.003 A 
ENDROOT
TORSDOF 0
ENDMDL
