MODEL 1
REMARK minimizedAffinity 10.670022
REMARK minimizedRMSD -1
REMARK  0 active torsions:
REMARK  status: ('A' for Active; 'I' for Inactive)
ROOT
ATOM      1  C4' PXY d   1      -2.018   1.765   2.339  0.00  0.00     0.077 C 
ATOM      2  C1' PXY d   1       2.186   4.003  -0.938  0.00  0.00     0.077 C 
ATOM      3  C1  PXY d   1       1.093   3.409  -0.072  0.00  0.00    -0.082 A 
ATOM      4  C2  PXY d   1      -0.148   3.360  -0.528  0.00  0.00     0.003 A 
ATOM      5  C3  PXY d   1      -1.155   2.855   0.254  0.00  0.00     0.003 A 
ATOM      6  C4  PXY d   1      -0.880   2.347   1.496  0.00  0.00    -0.082 A 
ATOM      7  C5  PXY d   1       0.386   2.383   1.964  0.00  0.00     0.003 A 
ATOM      8  C6  PXY d   1       1.386   2.937   1.170  0.00  0.00     0.003 A 
ENDROOT
TORSDOF 0
ENDMDL
