MODEL 1
REMARK minimizedAffinity 10.4925756
REMARK minimizedRMSD -1
REMARK  0 active torsions:
REMARK  status: ('A' for Active; 'I' for Inactive)
ROOT
ATOM      1  C4' PXY d   1       1.502   1.590   2.405  0.00  0.00     0.077 C 
ATOM      2  C1' PXY d   1      -2.317   2.946  -1.717  0.00  0.00     0.077 C 
ATOM      3  C1  PXY d   1      -1.312   2.580  -0.643  0.00  0.00    -0.082 A 
ATOM      4  C2  PXY d   1      -1.523   2.960   0.607  0.00  0.00     0.003 A 
ATOM      5  C3  PXY d   1      -0.608   2.665   1.585  0.00  0.00     0.003 A 
ATOM      6  C4  PXY d   1       0.509   1.929   1.290  0.00  0.00    -0.082 A 
ATOM      7  C5  PXY d   1       0.725   1.529   0.019  0.00  0.00     0.003 A 
ATOM      8  C6  PXY d   1      -0.195   1.874  -0.967  0.00  0.00     0.003 A 
ENDROOT
TORSDOF 0
ENDMDL
