MODEL 1
REMARK minimizedAffinity 14.2665243
REMARK minimizedRMSD -1
REMARK  0 active torsions:
REMARK  status: ('A' for Active; 'I' for Inactive)
ROOT
ATOM      1  C4' PXY d   1      -2.510   4.921  -2.523  0.00  0.00     0.077 C 
ATOM      2  C1' PXY d   1       0.764   2.360   1.494  0.00  0.00     0.077 C 
ATOM      3  C1  PXY d   1      -0.104   3.035   0.450  0.00  0.00    -0.082 A 
ATOM      4  C2  PXY d   1      -0.003   2.671  -0.818  0.00  0.00     0.003 A 
ATOM      5  C3  PXY d   1      -0.757   3.293  -1.780  0.00  0.00     0.003 A 
ATOM      6  C4  PXY d   1      -1.661   4.260  -1.434  0.00  0.00    -0.082 A 
ATOM      7  C5  PXY d   1      -1.777   4.630  -0.140  0.00  0.00     0.003 A 
ATOM      8  C6  PXY d   1      -0.974   4.015   0.815  0.00  0.00     0.003 A 
ENDROOT
TORSDOF 0
ENDMDL
