MODEL 1
REMARK minimizedAffinity 12.2532043
REMARK minimizedRMSD -1
REMARK  0 active torsions:
REMARK  status: ('A' for Active; 'I' for Inactive)
ROOT
ATOM      1  C4' PXY d   1       0.465   3.657  -1.914  0.00  0.00     0.077 C 
ATOM      2  C1' PXY d   1      -2.119   2.002   2.985  0.00  0.00     0.077 C 
ATOM      3  C1  PXY d   1      -1.431   2.429   1.703  0.00  0.00    -0.082 A 
ATOM      4  C2  PXY d   1      -1.782   3.563   1.119  0.00  0.00     0.003 A 
ATOM      5  C3  PXY d   1      -1.192   3.949  -0.057  0.00  0.00     0.003 A 
ATOM      6  C4  PXY d   1      -0.196   3.192  -0.614  0.00  0.00    -0.082 A 
ATOM      7  C5  PXY d   1       0.175   2.038  -0.018  0.00  0.00     0.003 A 
ATOM      8  C6  PXY d   1      -0.465   1.644   1.154  0.00  0.00     0.003 A 
ENDROOT
TORSDOF 0
ENDMDL
