MODEL 1
REMARK minimizedAffinity 11.4944363
REMARK minimizedRMSD -1
REMARK  0 active torsions:
REMARK  status: ('A' for Active; 'I' for Inactive)
ROOT
ATOM      1  C4' PXY d   1      -1.855   2.284   2.181  0.00  0.00     0.077 C 
ATOM      2  C1' PXY d   1       1.098   4.249  -2.383  0.00  0.00     0.077 C 
ATOM      3  C1  PXY d   1       0.333   3.725  -1.184  0.00  0.00    -0.082 A 
ATOM      4  C2  PXY d   1      -0.970   3.938  -1.095  0.00  0.00     0.003 A 
ATOM      5  C3  PXY d   1      -1.672   3.499  -0.002  0.00  0.00     0.003 A 
ATOM      6  C4  PXY d   1      -1.043   2.787   0.984  0.00  0.00    -0.082 A 
ATOM      7  C5  PXY d   1       0.284   2.556   0.895  0.00  0.00     0.003 A 
ATOM      8  C6  PXY d   1       0.986   3.046  -0.202  0.00  0.00     0.003 A 
ENDROOT
TORSDOF 0
ENDMDL
