MODEL 1
REMARK minimizedAffinity 5.43126631
REMARK minimizedRMSD -1
REMARK  0 active torsions:
REMARK  status: ('A' for Active; 'I' for Inactive)
ROOT
ATOM      1  C4' PXY d   1       0.339   1.297   3.618  0.00  0.00     0.077 C 
ATOM      2  C1' PXY d   1       0.213   2.789  -1.966  0.00  0.00     0.077 C 
ATOM      3  C1  PXY d   1       0.237   2.406  -0.499  0.00  0.00    -0.082 A 
ATOM      4  C2  PXY d   1       1.324   1.856   0.016  0.00  0.00     0.003 A 
ATOM      5  C3  PXY d   1       1.352   1.474   1.333  0.00  0.00     0.003 A 
ATOM      6  C4  PXY d   1       0.274   1.708   2.144  0.00  0.00    -0.082 A 
ATOM      7  C5  PXY d   1      -0.836   2.279   1.629  0.00  0.00     0.003 A 
ATOM      8  C6  PXY d   1      -0.858   2.621   0.280  0.00  0.00     0.003 A 
ENDROOT
TORSDOF 0
ENDMDL
