MODEL 1
REMARK minimizedAffinity 12.3418312
REMARK minimizedRMSD -1
REMARK  0 active torsions:
REMARK  status: ('A' for Active; 'I' for Inactive)
ROOT
ATOM      1  C4' PXY d   1      -0.869   2.480   0.690  0.00  0.00     0.077 C 
ATOM      2  C1' PXY d   1      -5.341   1.266  -2.766  0.00  0.00     0.077 C 
ATOM      3  C1  PXY d   1      -4.170   1.573  -1.853  0.00  0.00    -0.082 A 
ATOM      4  C2  PXY d   1      -3.796   2.829  -1.668  0.00  0.00     0.003 A 
ATOM      5  C3  PXY d   1      -2.720   3.122  -0.871  0.00  0.00     0.003 A 
ATOM      6  C4  PXY d   1      -2.051   2.124  -0.215  0.00  0.00    -0.082 A 
ATOM      7  C5  PXY d   1      -2.433   0.841  -0.390  0.00  0.00     0.003 A 
ATOM      8  C6  PXY d   1      -3.502   0.561  -1.236  0.00  0.00     0.003 A 
ENDROOT
TORSDOF 0
ENDMDL
