MODEL 1
REMARK minimizedAffinity 4.28631639
REMARK minimizedRMSD -1
REMARK  0 active torsions:
REMARK  status: ('A' for Active; 'I' for Inactive)
ROOT
ATOM      1  C4' PXY d   1      -0.731  -2.186  -1.326  0.00  0.00     0.077 C 
ATOM      2  C1' PXY d   1       0.809   3.378  -1.021  0.00  0.00     0.077 C 
ATOM      3  C1  PXY d   1       0.395   1.921  -1.094  0.00  0.00    -0.082 A 
ATOM      4  C2  PXY d   1       1.305   0.994  -1.346  0.00  0.00     0.003 A 
ATOM      5  C3  PXY d   1       0.942  -0.324  -1.446  0.00  0.00     0.003 A 
ATOM      6  C4  PXY d   1      -0.357  -0.704  -1.234  0.00  0.00    -0.082 A 
ATOM      7  C5  PXY d   1      -1.289   0.235  -0.966  0.00  0.00     0.003 A 
ATOM      8  C6  PXY d   1      -0.907   1.572  -0.909  0.00  0.00     0.003 A 
ENDROOT
TORSDOF 0
ENDMDL
