MODEL 1
REMARK minimizedAffinity 10.8371143
REMARK minimizedRMSD -1
REMARK  0 active torsions:
REMARK  status: ('A' for Active; 'I' for Inactive)
ROOT
ATOM      1  C4' PXY d   1       2.667   2.274   2.227  0.00  0.00     0.077 C 
ATOM      2  C1' PXY d   1      -1.528   3.434  -1.577  0.00  0.00     0.077 C 
ATOM      3  C1  PXY d   1      -0.437   3.130  -0.570  0.00  0.00    -0.082 A 
ATOM      4  C2  PXY d   1       0.813   3.471  -0.837  0.00  0.00     0.003 A 
ATOM      5  C3  PXY d   1       1.817   3.174   0.049  0.00  0.00     0.003 A 
ATOM      6  C4  PXY d   1       1.531   2.570   1.244  0.00  0.00    -0.082 A 
ATOM      7  C5  PXY d   1       0.257   2.229   1.528  0.00  0.00     0.003 A 
ATOM      8  C6  PXY d   1      -0.742   2.501   0.598  0.00  0.00     0.003 A 
ENDROOT
TORSDOF 0
ENDMDL
