MODEL 1
REMARK minimizedAffinity 12.198081
REMARK minimizedRMSD -1
REMARK  0 active torsions:
REMARK  status: ('A' for Active; 'I' for Inactive)
ROOT
ATOM      1  C4' PXY d   1       4.469  -5.999  -3.321  0.00  0.00     0.077 C 
ATOM      2  C1' PXY d   1      -0.486  -3.624  -1.524  0.00  0.00     0.077 C 
ATOM      3  C1  PXY d   1       0.809  -4.247  -2.008  0.00  0.00    -0.082 A 
ATOM      4  C2  PXY d   1       1.568  -4.921  -1.158  0.00  0.00     0.003 A 
ATOM      5  C3  PXY d   1       2.758  -5.463  -1.571  0.00  0.00     0.003 A 
ATOM      6  C4  PXY d   1       3.149  -5.361  -2.879  0.00  0.00    -0.082 A 
ATOM      7  C5  PXY d   1       2.375  -4.685  -3.754  0.00  0.00     0.003 A 
ATOM      8  C6  PXY d   1       1.191  -4.106  -3.306  0.00  0.00     0.003 A 
ENDROOT
TORSDOF 0
ENDMDL
