MODEL 1
REMARK minimizedAffinity 11.6588974
REMARK minimizedRMSD -1
REMARK  0 active torsions:
REMARK  status: ('A' for Active; 'I' for Inactive)
ROOT
ATOM      1  C4' PXY d   1       3.367  -2.290   0.283  0.00  0.00     0.077 C 
ATOM      2  C1' PXY d   1      -1.185  -3.208  -3.160  0.00  0.00     0.077 C 
ATOM      3  C1  PXY d   1       0.006  -2.979  -2.251  0.00  0.00    -0.082 A 
ATOM      4  C2  PXY d   1       0.432  -1.746  -2.029  0.00  0.00     0.003 A 
ATOM      5  C3  PXY d   1       1.527  -1.522  -1.235  0.00  0.00     0.003 A 
ATOM      6  C4  PXY d   1       2.162  -2.568  -0.620  0.00  0.00    -0.082 A 
ATOM      7  C5  PXY d   1       1.727  -3.828  -0.833  0.00  0.00     0.003 A 
ATOM      8  C6  PXY d   1       0.638  -4.037  -1.675  0.00  0.00     0.003 A 
ENDROOT
TORSDOF 0
ENDMDL
