MODEL 1
REMARK minimizedAffinity -3.32299113
REMARK minimizedRMSD -1
REMARK  0 active torsions:
REMARK  status: ('A' for Active; 'I' for Inactive)
ROOT
ATOM      1  C   UNL d   1      -0.497   2.620  -1.820  0.00  0.00     0.077 C 
ATOM      2  C1  UNL d   1      -0.137   1.575  -0.806  0.00  0.00    -0.074 A 
ATOM      3  C2  UNL d   1      -0.036   1.895   0.552  0.00  0.00    -0.005 A 
ATOM      4  C3  UNL d   1       0.291   0.911   1.484  0.00  0.00     0.006 A 
ATOM      5  C4  UNL d   1       0.520  -0.402   1.069  0.00  0.00    -0.005 A 
ATOM      6  C5  UNL d   1       0.423  -0.741  -0.284  0.00  0.00    -0.074 A 
ATOM      7  C6  UNL d   1       0.656  -2.149  -0.746  0.00  0.00     0.077 C 
ATOM      8  C7  UNL d   1       0.087   0.253  -1.214  0.00  0.00    -0.001 A 
ENDROOT
TORSDOF 0
ENDMDL
