MODEL 1
REMARK minimizedAffinity -1.96940291
REMARK minimizedRMSD -1
REMARK  0 active torsions:
REMARK  status: ('A' for Active; 'I' for Inactive)
ROOT
ATOM      1  C   UNL d   1      -1.396  -3.368  -0.423  0.00  0.00     0.077 C 
ATOM      2  C1  UNL d   1      -0.677  -2.057  -0.308  0.00  0.00    -0.074 A 
ATOM      3  C2  UNL d   1       0.202  -1.629  -1.308  0.00  0.00    -0.005 A 
ATOM      4  C3  UNL d   1       0.857  -0.403  -1.191  0.00  0.00     0.006 A 
ATOM      5  C4  UNL d   1       0.640   0.406  -0.075  0.00  0.00    -0.005 A 
ATOM      6  C5  UNL d   1      -0.236  -0.005   0.934  0.00  0.00    -0.074 A 
ATOM      7  C6  UNL d   1      -0.488   0.857   2.135  0.00  0.00     0.077 C 
ATOM      8  C7  UNL d   1      -0.896  -1.235   0.806  0.00  0.00    -0.001 A 
ENDROOT
TORSDOF 0
ENDMDL
