MODEL 1
REMARK minimizedAffinity -2.69456029
REMARK minimizedRMSD -1
REMARK  0 active torsions:
REMARK  status: ('A' for Active; 'I' for Inactive)
ROOT
ATOM      1  C   UNL d   1       0.861  -1.193  -0.303  0.00  0.00     0.077 C 
ATOM      2  C1  UNL d   1       0.479   0.114   0.326  0.00  0.00    -0.074 A 
ATOM      3  C2  UNL d   1       0.187   0.197   1.691  0.00  0.00    -0.005 A 
ATOM      4  C3  UNL d   1      -0.157   1.421   2.263  0.00  0.00     0.006 A 
ATOM      5  C4  UNL d   1      -0.214   2.573   1.478  0.00  0.00    -0.005 A 
ATOM      6  C5  UNL d   1       0.076   2.510   0.111  0.00  0.00    -0.074 A 
ATOM      7  C6  UNL d   1       0.030   3.740  -0.746  0.00  0.00     0.077 C 
ATOM      8  C7  UNL d   1       0.428   1.277  -0.455  0.00  0.00    -0.001 A 
ENDROOT
TORSDOF 0
ENDMDL
