MODEL 1
REMARK minimizedAffinity -2.22790003
REMARK minimizedRMSD -1
REMARK  0 active torsions:
REMARK  status: ('A' for Active; 'I' for Inactive)
ROOT
ATOM      1  C   UNL d   1      -0.948  -4.028   0.183  0.00  0.00     0.077 C 
ATOM      2  C1  UNL d   1      -0.337  -2.742  -0.288  0.00  0.00    -0.074 A 
ATOM      3  C2  UNL d   1       0.283  -2.656  -1.539  0.00  0.00    -0.005 A 
ATOM      4  C3  UNL d   1       0.838  -1.451  -1.967  0.00  0.00     0.006 A 
ATOM      5  C4  UNL d   1       0.780  -0.321  -1.151  0.00  0.00    -0.005 A 
ATOM      6  C5  UNL d   1       0.163  -0.387   0.103  0.00  0.00    -0.074 A 
ATOM      7  C6  UNL d   1       0.083   0.821   0.988  0.00  0.00     0.077 C 
ATOM      8  C7  UNL d   1      -0.399  -1.600   0.523  0.00  0.00    -0.001 A 
ENDROOT
TORSDOF 0
ENDMDL
