MODEL 1
REMARK minimizedAffinity -1.47374129
REMARK minimizedRMSD -1
REMARK  0 active torsions:
REMARK  status: ('A' for Active; 'I' for Inactive)
ROOT
ATOM      1  C   UNL d   1      -0.641   0.421   2.095  0.00  0.00     0.077 C 
ATOM      2  C1  UNL d   1      -0.260  -0.391   0.892  0.00  0.00    -0.074 A 
ATOM      3  C2  UNL d   1       0.816  -0.015   0.083  0.00  0.00    -0.005 A 
ATOM      4  C3  UNL d   1       1.164  -0.785  -1.027  0.00  0.00     0.006 A 
ATOM      5  C4  UNL d   1       0.440  -1.936  -1.338  0.00  0.00    -0.005 A 
ATOM      6  C5  UNL d   1      -0.639  -2.328  -0.540  0.00  0.00    -0.074 A 
ATOM      7  C6  UNL d   1      -1.422  -3.568  -0.854  0.00  0.00     0.077 C 
ATOM      8  C7  UNL d   1      -0.978  -1.553   0.578  0.00  0.00    -0.001 A 
ENDROOT
TORSDOF 0
ENDMDL
