MODEL 1
REMARK minimizedAffinity -3.62401414
REMARK minimizedRMSD -1
REMARK  0 active torsions:
REMARK  status: ('A' for Active; 'I' for Inactive)
ROOT
ATOM      1  C   UNL d   1       0.851  -2.187  -0.762  0.00  0.00     0.077 C 
ATOM      2  C1  UNL d   1       0.144  -1.303   0.222  0.00  0.00    -0.074 A 
ATOM      3  C2  UNL d   1      -1.036  -1.721   0.846  0.00  0.00    -0.005 A 
ATOM      4  C3  UNL d   1      -1.677  -0.891   1.766  0.00  0.00     0.006 A 
ATOM      5  C4  UNL d   1      -1.147   0.363   2.070  0.00  0.00    -0.005 A 
ATOM      6  C5  UNL d   1       0.032   0.798   1.456  0.00  0.00    -0.074 A 
ATOM      7  C6  UNL d   1       0.621   2.139   1.779  0.00  0.00     0.077 C 
ATOM      8  C7  UNL d   1       0.675  -0.044   0.538  0.00  0.00    -0.001 A 
ENDROOT
TORSDOF 0
ENDMDL
