MODEL 1
REMARK minimizedAffinity -3.29582095
REMARK minimizedRMSD -1
REMARK  0 active torsions:
REMARK  status: ('A' for Active; 'I' for Inactive)
ROOT
ATOM      1  C   UNL d   1      -0.686   3.159  -1.460  0.00  0.00     0.077 C 
ATOM      2  C1  UNL d   1      -0.316   1.988  -0.598  0.00  0.00    -0.074 A 
ATOM      3  C2  UNL d   1      -0.239   2.115   0.792  0.00  0.00    -0.005 A 
ATOM      4  C3  UNL d   1       0.097   1.015   1.581  0.00  0.00     0.006 A 
ATOM      5  C4  UNL d   1       0.359  -0.221   0.989  0.00  0.00    -0.005 A 
ATOM      6  C5  UNL d   1       0.285  -0.367  -0.400  0.00  0.00    -0.074 A 
ATOM      7  C6  UNL d   1       0.553  -1.691  -1.052  0.00  0.00     0.077 C 
ATOM      8  C7  UNL d   1      -0.060   0.741  -1.186  0.00  0.00    -0.001 A 
ENDROOT
TORSDOF 0
ENDMDL
