MODEL 1
REMARK minimizedAffinity -1.5156188
REMARK minimizedRMSD -1
REMARK  0 active torsions:
REMARK  status: ('A' for Active; 'I' for Inactive)
ROOT
ATOM      1  C   UNL d   1       1.098  -4.884  -0.017  0.00  0.00     0.077 C 
ATOM      2  C1  UNL d   1       0.368  -3.730  -0.637  0.00  0.00    -0.074 A 
ATOM      3  C2  UNL d   1      -0.721  -3.942  -1.488  0.00  0.00    -0.005 A 
ATOM      4  C3  UNL d   1      -1.396  -2.859  -2.050  0.00  0.00     0.006 A 
ATOM      5  C4  UNL d   1      -0.989  -1.554  -1.768  0.00  0.00    -0.005 A 
ATOM      6  C5  UNL d   1       0.098  -1.323  -0.919  0.00  0.00    -0.074 A 
ATOM      7  C6  UNL d   1       0.542   0.073  -0.597  0.00  0.00     0.077 C 
ATOM      8  C7  UNL d   1       0.767  -2.416  -0.352  0.00  0.00    -0.001 A 
ENDROOT
TORSDOF 0
ENDMDL
