MODEL 1
REMARK minimizedAffinity 1.01125455
REMARK minimizedRMSD -1
REMARK  0 active torsions:
REMARK  status: ('A' for Active; 'I' for Inactive)
ROOT
ATOM      1  C   UNL d   1       0.544   4.967  -0.475  0.00  0.00     0.077 C 
ATOM      2  C1  UNL d   1       0.673   3.825   0.489  0.00  0.00    -0.074 A 
ATOM      3  C2  UNL d   1       1.049   4.046   1.818  0.00  0.00    -0.005 A 
ATOM      4  C3  UNL d   1       1.156   2.975   2.705  0.00  0.00     0.006 A 
ATOM      5  C4  UNL d   1       0.889   1.675   2.274  0.00  0.00    -0.005 A 
ATOM      6  C5  UNL d   1       0.512   1.435   0.949  0.00  0.00    -0.074 A 
ATOM      7  C6  UNL d   1       0.212   0.046   0.471  0.00  0.00     0.077 C 
ATOM      8  C7  UNL d   1       0.399   2.517   0.065  0.00  0.00    -0.001 A 
ENDROOT
TORSDOF 0
ENDMDL
