MODEL 1
REMARK minimizedAffinity 13.2054825
REMARK minimizedRMSD -1
REMARK  0 active torsions:
REMARK  status: ('A' for Active; 'I' for Inactive)
ROOT
ATOM      1  C   UNL d   1       1.210   2.668   0.029  0.00  0.00     0.124 A 
ATOM      2  C1  UNL d   1       2.431   2.079   0.325  0.00  0.00     0.062 A 
ATOM      3  C2  UNL d   1       2.477   0.802   0.877  0.00  0.00     0.162 A 
ATOM      4  C3  UNL d   1       1.297   0.105   1.136  0.00  0.00    -0.034 A 
ATOM      5  C4  UNL d   1       0.072   0.704   0.836  0.00  0.00     0.162 A 
ATOM      6  C5  UNL d   1       0.032   1.980   0.285  0.00  0.00     0.062 A 
ATOM      7  F   UNL d   1      -1.149   2.548  -0.001  0.00  0.00    -0.097 F 
ATOM      8  F1  UNL d   1      -1.081   0.061   1.072  0.00  0.00    -0.096 F 
ATOM      9  I   UNL d   1       1.362  -1.805   1.962  0.00  0.00    -0.060 I 
ATOM     10  F2  UNL d   1       3.671   0.258   1.153  0.00  0.00    -0.096 F 
ATOM     11  F3  UNL d   1       3.570   2.742   0.080  0.00  0.00    -0.097 F 
ATOM     12  F4  UNL d   1       1.168   3.897  -0.502  0.00  0.00    -0.092 F 
ENDROOT
TORSDOF 0
ENDMDL
