MODEL 1
REMARK minimizedAffinity 15.403244
REMARK minimizedRMSD -1
REMARK  0 active torsions:
REMARK  status: ('A' for Active; 'I' for Inactive)
ROOT
ATOM      1  C   UNL d   1       0.069  -2.433  -2.186  0.00  0.00     0.124 A 
ATOM      2  C1  UNL d   1      -0.469  -1.515  -1.295  0.00  0.00     0.062 A 
ATOM      3  C2  UNL d   1      -0.070  -1.518   0.039  0.00  0.00     0.162 A 
ATOM      4  C3  UNL d   1       0.873  -2.441   0.490  0.00  0.00    -0.034 A 
ATOM      5  C4  UNL d   1       1.409  -3.362  -0.413  0.00  0.00     0.162 A 
ATOM      6  C5  UNL d   1       1.007  -3.355  -1.744  0.00  0.00     0.062 A 
ATOM      7  F   UNL d   1       1.528  -4.243  -2.604  0.00  0.00    -0.097 F 
ATOM      8  F1  UNL d   1       2.318  -4.264  -0.013  0.00  0.00    -0.096 F 
ATOM      9  I   UNL d   1       1.472  -2.449   2.483  0.00  0.00    -0.060 I 
ATOM     10  F2  UNL d   1      -0.606  -0.619   0.878  0.00  0.00    -0.096 F 
ATOM     11  F3  UNL d   1      -1.376  -0.623  -1.719  0.00  0.00    -0.097 F 
ATOM     12  F4  UNL d   1      -0.317  -2.429  -3.468  0.00  0.00    -0.092 F 
ENDROOT
TORSDOF 0
ENDMDL
