MODEL 1
REMARK minimizedAffinity 19.536108
REMARK minimizedRMSD -1
REMARK  0 active torsions:
REMARK  status: ('A' for Active; 'I' for Inactive)
ROOT
ATOM      1  C   UNL d   1       2.654   1.908   1.411  0.00  0.00     0.124 A 
ATOM      2  C1  UNL d   1       2.814   0.816   0.569  0.00  0.00     0.062 A 
ATOM      3  C2  UNL d   1       2.725  -0.477   1.075  0.00  0.00     0.162 A 
ATOM      4  C3  UNL d   1       2.473  -0.686   2.431  0.00  0.00    -0.034 A 
ATOM      5  C4  UNL d   1       2.315   0.417   3.272  0.00  0.00     0.162 A 
ATOM      6  C5  UNL d   1       2.405   1.708   2.761  0.00  0.00     0.062 A 
ATOM      7  F   UNL d   1       2.250   2.761   3.576  0.00  0.00    -0.097 F 
ATOM      8  F1  UNL d   1       2.072   0.252   4.581  0.00  0.00    -0.096 F 
ATOM      9  I   UNL d   1       2.339  -2.619   3.192  0.00  0.00    -0.060 I 
ATOM     10  F2  UNL d   1       2.883  -1.514   0.239  0.00  0.00    -0.096 F 
ATOM     11  F3  UNL d   1       3.056   1.007  -0.736  0.00  0.00    -0.097 F 
ATOM     12  F4  UNL d   1       2.742   3.151   0.921  0.00  0.00    -0.092 F 
ENDROOT
TORSDOF 0
ENDMDL
