MODEL 1
REMARK minimizedAffinity 14.3894835
REMARK minimizedRMSD -1
REMARK  0 active torsions:
REMARK  status: ('A' for Active; 'I' for Inactive)
ROOT
ATOM      1  C   UNL d   1      -1.861  -0.880   0.196  0.00  0.00     0.124 A 
ATOM      2  C1  UNL d   1      -0.514  -0.812   0.525  0.00  0.00     0.062 A 
ATOM      3  C2  UNL d   1       0.424  -1.530  -0.212  0.00  0.00     0.162 A 
ATOM      4  C3  UNL d   1       0.018  -2.322  -1.285  0.00  0.00    -0.034 A 
ATOM      5  C4  UNL d   1      -1.338  -2.387  -1.610  0.00  0.00     0.162 A 
ATOM      6  C5  UNL d   1      -2.272  -1.667  -0.871  0.00  0.00     0.062 A 
ATOM      7  F   UNL d   1      -3.572  -1.735  -1.190  0.00  0.00    -0.097 F 
ATOM      8  F1  UNL d   1      -1.763  -3.139  -2.636  0.00  0.00    -0.096 F 
ATOM      9  I   UNL d   1       1.417  -3.397  -2.389  0.00  0.00    -0.060 I 
ATOM     10  F2  UNL d   1       1.718  -1.445   0.129  0.00  0.00    -0.096 F 
ATOM     11  F3  UNL d   1      -0.115  -0.052   1.555  0.00  0.00    -0.097 F 
ATOM     12  F4  UNL d   1      -2.761  -0.189   0.907  0.00  0.00    -0.092 F 
ENDROOT
TORSDOF 0
ENDMDL
