MODEL 1
REMARK minimizedAffinity 5.69571304
REMARK minimizedRMSD -1
REMARK  0 active torsions:
REMARK  status: ('A' for Active; 'I' for Inactive)
ROOT
ATOM      1  C   UNL d   1       2.766  -1.484   3.749  0.00  0.00     0.124 A 
ATOM      2  C1  UNL d   1       2.174  -2.706   3.463  0.00  0.00     0.062 A 
ATOM      3  C2  UNL d   1       1.622  -2.940   2.207  0.00  0.00     0.162 A 
ATOM      4  C3  UNL d   1       1.660  -1.950   1.226  0.00  0.00    -0.034 A 
ATOM      5  C4  UNL d   1       2.256  -0.723   1.521  0.00  0.00     0.162 A 
ATOM      6  C5  UNL d   1       2.807  -0.493   2.777  0.00  0.00     0.062 A 
ATOM      7  F   UNL d   1       3.379   0.688   3.051  0.00  0.00    -0.097 F 
ATOM      8  F1  UNL d   1       2.310   0.252   0.600  0.00  0.00    -0.096 F 
ATOM      9  I   UNL d   1       0.835  -2.296  -0.653  0.00  0.00    -0.060 I 
ATOM     10  F2  UNL d   1       1.056  -4.131   1.960  0.00  0.00    -0.096 F 
ATOM     11  F3  UNL d   1       2.133  -3.665   4.400  0.00  0.00    -0.097 F 
ATOM     12  F4  UNL d   1       3.296  -1.261   4.958  0.00  0.00    -0.092 F 
ENDROOT
TORSDOF 0
ENDMDL
