MODEL 1
REMARK minimizedAffinity 7.03090954
REMARK minimizedRMSD -1
REMARK  0 active torsions:
REMARK  status: ('A' for Active; 'I' for Inactive)
ROOT
ATOM      1  C   UNL d   1       2.113  -3.222  -3.137  0.00  0.00     0.124 A 
ATOM      2  C1  UNL d   1       3.409  -2.822  -2.840  0.00  0.00     0.062 A 
ATOM      3  C2  UNL d   1       3.643  -1.910  -1.815  0.00  0.00     0.162 A 
ATOM      4  C3  UNL d   1       2.578  -1.390  -1.079  0.00  0.00    -0.034 A 
ATOM      5  C4  UNL d   1       1.278  -1.796  -1.384  0.00  0.00     0.162 A 
ATOM      6  C5  UNL d   1       1.049  -2.708  -2.409  0.00  0.00     0.062 A 
ATOM      7  F   UNL d   1      -0.204  -3.092  -2.694  0.00  0.00    -0.097 F 
ATOM      8  F1  UNL d   1       0.231  -1.316  -0.696  0.00  0.00    -0.096 F 
ATOM      9  I   UNL d   1       2.924  -0.025   0.454  0.00  0.00    -0.060 I 
ATOM     10  F2  UNL d   1       4.905  -1.542  -1.550  0.00  0.00    -0.096 F 
ATOM     11  F3  UNL d   1       4.438  -3.316  -3.542  0.00  0.00    -0.097 F 
ATOM     12  F4  UNL d   1       1.891  -4.099  -4.124  0.00  0.00    -0.092 F 
ENDROOT
TORSDOF 0
ENDMDL
