MODEL 1
REMARK minimizedAffinity 15.0295219
REMARK minimizedRMSD -1
REMARK  0 active torsions:
REMARK  status: ('A' for Active; 'I' for Inactive)
ROOT
ATOM      1  C   UNL d   1       3.120   0.144   1.679  0.00  0.00     0.124 A 
ATOM      2  C1  UNL d   1       2.094  -0.690   2.099  0.00  0.00     0.062 A 
ATOM      3  C2  UNL d   1       1.460  -1.533   1.191  0.00  0.00     0.162 A 
ATOM      4  C3  UNL d   1       1.852  -1.547  -0.148  0.00  0.00    -0.034 A 
ATOM      5  C4  UNL d   1       2.885  -0.704  -0.563  0.00  0.00     0.162 A 
ATOM      6  C5  UNL d   1       3.515   0.137   0.349  0.00  0.00     0.062 A 
ATOM      7  F   UNL d   1       4.506   0.942  -0.059  0.00  0.00    -0.097 F 
ATOM      8  F1  UNL d   1       3.286  -0.692  -1.843  0.00  0.00    -0.096 F 
ATOM      9  I   UNL d   1       0.908  -2.806  -1.510  0.00  0.00    -0.060 I 
ATOM     10  F2  UNL d   1       0.472  -2.329   1.625  0.00  0.00    -0.096 F 
ATOM     11  F3  UNL d   1       1.710  -0.684   3.384  0.00  0.00    -0.097 F 
ATOM     12  F4  UNL d   1       3.727   0.955   2.555  0.00  0.00    -0.092 F 
ENDROOT
TORSDOF 0
ENDMDL
