MODEL 1
REMARK minimizedAffinity 10.042798
REMARK minimizedRMSD -1
REMARK  0 active torsions:
REMARK  status: ('A' for Active; 'I' for Inactive)
ROOT
ATOM      1  C   UNL d   1       2.074  -0.322   3.309  0.00  0.00     0.124 A 
ATOM      2  C1  UNL d   1       1.476  -1.420   2.706  0.00  0.00     0.062 A 
ATOM      3  C2  UNL d   1       1.422  -1.515   1.319  0.00  0.00     0.162 A 
ATOM      4  C3  UNL d   1       1.968  -0.508   0.523  0.00  0.00    -0.034 A 
ATOM      5  C4  UNL d   1       2.567   0.595   1.136  0.00  0.00     0.162 A 
ATOM      6  C5  UNL d   1       2.618   0.684   2.523  0.00  0.00     0.062 A 
ATOM      7  F   UNL d   1       3.196   1.746   3.103  0.00  0.00    -0.097 F 
ATOM      8  F1  UNL d   1       3.102   1.581   0.401  0.00  0.00    -0.096 F 
ATOM      9  I   UNL d   1       1.889  -0.645  -1.552  0.00  0.00    -0.060 I 
ATOM     10  F2  UNL d   1       0.838  -2.587   0.764  0.00  0.00    -0.096 F 
ATOM     11  F3  UNL d   1       0.948  -2.393   3.463  0.00  0.00    -0.097 F 
ATOM     12  F4  UNL d   1       2.124  -0.233   4.644  0.00  0.00    -0.092 F 
ENDROOT
TORSDOF 0
ENDMDL
