MODEL 1
REMARK minimizedAffinity 0.485810667
REMARK minimizedRMSD -1
REMARK  1 active torsions:
REMARK  status: ('A' for Active; 'I' for Inactive)
REMARK    1  A    between atoms: N_2  and  C1_3 
ROOT
ATOM      1  C1  UNL d   1      -0.954  -0.153   2.004  0.00  0.00     0.143 A 
ATOM      2  C2  UNL d   1      -2.110   0.586   2.275  0.00  0.00    -0.057 A 
ATOM      3  C3  UNL d   1      -3.165   0.647   1.356  0.00  0.00     0.033 A 
ATOM      4  C4  UNL d   1      -3.070  -0.010   0.134  0.00  0.00    -0.042 A 
ATOM      5  C5  UNL d   1      -1.919  -0.730  -0.167  0.00  0.00     0.033 A 
ATOM      6  C6  UNL d   1      -0.872  -0.793   0.757  0.00  0.00    -0.057 A 
ENDROOT
BRANCH   1   7
ATOM      7  N   UNL d   1       0.170  -0.172   2.834  0.00  0.00    -0.732 N 
ATOM      8  C   UNL d   1       0.604  -1.404   3.458  0.00  0.00     0.284 C 
ATOM      9  H3  UNL d   1       0.929   0.401   2.473  0.00  0.00     0.395 HD
ENDBRANCH   1   7
TORSDOF 1
ENDMDL
