MODEL 1
REMARK minimizedAffinity -0.969446957
REMARK minimizedRMSD -1
REMARK  1 active torsions:
REMARK  status: ('A' for Active; 'I' for Inactive)
REMARK    1  A    between atoms: N_2  and  C1_3 
ROOT
ATOM      1  C1  UNL d   1      -0.292  -2.068  -4.838  0.00  0.00     0.143 A 
ATOM      2  C2  UNL d   1      -0.792  -1.220  -3.845  0.00  0.00    -0.057 A 
ATOM      3  C3  UNL d   1      -0.647   0.170  -3.935  0.00  0.00     0.033 A 
ATOM      4  C4  UNL d   1       0.029   0.736  -5.011  0.00  0.00    -0.042 A 
ATOM      5  C5  UNL d   1       0.556  -0.090  -5.998  0.00  0.00     0.033 A 
ATOM      6  C6  UNL d   1       0.402  -1.476  -5.905  0.00  0.00    -0.057 A 
ENDROOT
BRANCH   1   7
ATOM      7  N   UNL d   1      -0.318  -3.463  -4.756  0.00  0.00    -0.732 N 
ATOM      8  C   UNL d   1       0.389  -4.271  -5.726  0.00  0.00     0.284 C 
ATOM      9  H3  UNL d   1      -0.237  -3.797  -3.798  0.00  0.00     0.395 HD
ENDBRANCH   1   7
TORSDOF 1
ENDMDL
