MODEL 1
REMARK minimizedAffinity 2.2225132
REMARK minimizedRMSD -1
REMARK  1 active torsions:
REMARK  status: ('A' for Active; 'I' for Inactive)
REMARK    1  A    between atoms: N_2  and  C1_3 
ROOT
ATOM      1  C1  UNL d   1       0.578  -0.182  -5.553  0.00  0.00     0.143 A 
ATOM      2  C2  UNL d   1      -0.343   0.683  -4.954  0.00  0.00    -0.057 A 
ATOM      3  C3  UNL d   1      -1.633   0.252  -4.619  0.00  0.00     0.033 A 
ATOM      4  C4  UNL d   1      -2.035  -1.048  -4.906  0.00  0.00    -0.042 A 
ATOM      5  C5  UNL d   1      -1.144  -1.918  -5.525  0.00  0.00     0.033 A 
ATOM      6  C6  UNL d   1       0.145  -1.484  -5.850  0.00  0.00    -0.057 A 
ENDROOT
BRANCH   1   7
ATOM      7  N   UNL d   1       1.841   0.214  -5.999  0.00  0.00    -0.732 N 
ATOM      8  C   UNL d   1       3.037  -0.410  -5.475  0.00  0.00     0.284 C 
ATOM      9  H3  UNL d   1       1.864   0.381  -7.003  0.00  0.00     0.395 HD
ENDBRANCH   1   7
TORSDOF 1
ENDMDL
