MODEL 1
REMARK minimizedAffinity 1.39651799
REMARK minimizedRMSD -1
REMARK  1 active torsions:
REMARK  status: ('A' for Active; 'I' for Inactive)
REMARK    1  A    between atoms: N_2  and  C1_3 
ROOT
ATOM      1  C1  UNL d   1       0.401  -1.451   2.781  0.00  0.00     0.143 A 
ATOM      2  C2  UNL d   1      -0.021  -0.222   2.262  0.00  0.00    -0.057 A 
ATOM      3  C3  UNL d   1      -1.356  -0.006   1.900  0.00  0.00     0.033 A 
ATOM      4  C4  UNL d   1      -2.290  -1.029   2.024  0.00  0.00    -0.042 A 
ATOM      5  C5  UNL d   1      -1.889  -2.266   2.514  0.00  0.00     0.033 A 
ATOM      6  C6  UNL d   1      -0.556  -2.473   2.880  0.00  0.00    -0.057 A 
ENDROOT
BRANCH   1   7
ATOM      7  N   UNL d   1       1.733  -1.759   3.067  0.00  0.00    -0.732 N 
ATOM      8  C   UNL d   1       2.305  -1.433   4.356  0.00  0.00     0.284 C 
ATOM      9  H3  UNL d   1       2.006  -2.671   2.709  0.00  0.00     0.395 HD
ENDBRANCH   1   7
TORSDOF 1
ENDMDL
