MODEL 1
REMARK minimizedAffinity -1.06634283
REMARK minimizedRMSD -1
REMARK  1 active torsions:
REMARK  status: ('A' for Active; 'I' for Inactive)
REMARK    1  A    between atoms: N_2  and  C1_3 
ROOT
ATOM      1  C1  UNL d   1       2.564  -0.748  -5.240  0.00  0.00     0.143 A 
ATOM      2  C2  UNL d   1       2.653  -1.614  -4.145  0.00  0.00    -0.057 A 
ATOM      3  C3  UNL d   1       1.518  -2.246  -3.624  0.00  0.00     0.033 A 
ATOM      4  C4  UNL d   1       0.264  -1.999  -4.173  0.00  0.00    -0.042 A 
ATOM      5  C5  UNL d   1       0.148  -1.123  -5.246  0.00  0.00     0.033 A 
ATOM      6  C6  UNL d   1       1.286  -0.500  -5.766  0.00  0.00    -0.057 A 
ENDROOT
BRANCH   1   7
ATOM      7  N   UNL d   1       3.642  -0.013  -5.741  0.00  0.00    -0.732 N 
ATOM      8  C   UNL d   1       4.915  -0.653  -5.996  0.00  0.00     0.284 C 
ATOM      9  H3  UNL d   1       3.359   0.651  -6.458  0.00  0.00     0.395 HD
ENDBRANCH   1   7
TORSDOF 1
ENDMDL
