MODEL 1
REMARK minimizedAffinity 8.33747387
REMARK minimizedRMSD -1
REMARK  0 active torsions:
REMARK  status: ('A' for Active; 'I' for Inactive)
ROOT
ATOM      1  C4' PXY d   1       5.993  -5.338   0.804  0.00  0.00     0.077 C 
ATOM      2  C1' PXY d   1       1.269  -2.254   2.066  0.00  0.00     0.077 C 
ATOM      3  C1  PXY d   1       2.512  -3.061   1.747  0.00  0.00    -0.082 A 
ATOM      4  C2  PXY d   1       2.934  -3.146   0.496  0.00  0.00     0.003 A 
ATOM      5  C3  PXY d   1       4.038  -3.897   0.186  0.00  0.00     0.003 A 
ATOM      6  C4  PXY d   1       4.748  -4.526   1.173  0.00  0.00    -0.082 A 
ATOM      7  C5  PXY d   1       4.330  -4.436   2.454  0.00  0.00     0.003 A 
ATOM      8  C6  PXY d   1       3.183  -3.702   2.742  0.00  0.00     0.003 A 
ENDROOT
TORSDOF 0
ENDMDL
