MODEL 1
REMARK minimizedAffinity 2.93973589
REMARK minimizedRMSD -1
REMARK  0 active torsions:
REMARK  status: ('A' for Active; 'I' for Inactive)
ROOT
ATOM      1  C4' PXY d   1      -4.327  -2.195  -1.169  0.00  0.00     0.077 C 
ATOM      2  C1' PXY d   1      -3.829   0.943  -5.999  0.00  0.00     0.077 C 
ATOM      3  C1  PXY d   1      -3.971   0.126  -4.729  0.00  0.00    -0.082 A 
ATOM      4  C2  PXY d   1      -2.900  -0.430  -4.187  0.00  0.00     0.003 A 
ATOM      5  C3  PXY d   1      -3.015  -1.198  -3.057  0.00  0.00     0.003 A 
ATOM      6  C4  PXY d   1      -4.230  -1.354  -2.446  0.00  0.00    -0.082 A 
ATOM      7  C5  PXY d   1      -5.326  -0.781  -2.987  0.00  0.00     0.003 A 
ATOM      8  C6  PXY d   1      -5.194  -0.039  -4.157  0.00  0.00     0.003 A 
ENDROOT
TORSDOF 0
ENDMDL
