MODEL 1
REMARK minimizedAffinity -0.954866588
REMARK minimizedRMSD -1
REMARK  0 active torsions:
REMARK  status: ('A' for Active; 'I' for Inactive)
ROOT
ATOM      1  C4' PXY d   1      -3.380  -1.455  -0.729  0.00  0.00     0.077 C 
ATOM      2  C1' PXY d   1      -4.800   0.446  -6.000  0.00  0.00     0.077 C 
ATOM      3  C1  PXY d   1      -4.419  -0.061  -4.623  0.00  0.00    -0.082 A 
ATOM      4  C2  PXY d   1      -5.276   0.058  -3.622  0.00  0.00     0.003 A 
ATOM      5  C3  PXY d   1      -4.936  -0.366  -2.363  0.00  0.00     0.003 A 
ATOM      6  C4  PXY d   1      -3.726  -0.966  -2.138  0.00  0.00    -0.082 A 
ATOM      7  C5  PXY d   1      -2.850  -1.101  -3.156  0.00  0.00     0.003 A 
ATOM      8  C6  PXY d   1      -3.199  -0.627  -4.417  0.00  0.00     0.003 A 
ENDROOT
TORSDOF 0
ENDMDL
