MODEL 1
REMARK minimizedAffinity 0.75037235
REMARK minimizedRMSD -1
REMARK  0 active torsions:
REMARK  status: ('A' for Active; 'I' for Inactive)
ROOT
ATOM      1  C4' PXY d   1      -2.943   3.275  -3.150  0.00  0.00     0.077 C 
ATOM      2  C1' PXY d   1      -5.064  -2.049  -3.902  0.00  0.00     0.077 C 
ATOM      3  C1  PXY d   1      -4.506  -0.652  -3.718  0.00  0.00    -0.082 A 
ATOM      4  C2  PXY d   1      -3.959  -0.313  -2.562  0.00  0.00     0.003 A 
ATOM      5  C3  PXY d   1      -3.478   0.956  -2.367  0.00  0.00     0.003 A 
ATOM      6  C4  PXY d   1      -3.510   1.872  -3.384  0.00  0.00    -0.082 A 
ATOM      7  C5  PXY d   1      -4.058   1.531  -4.570  0.00  0.00     0.003 A 
ATOM      8  C6  PXY d   1      -4.577   0.250  -4.734  0.00  0.00     0.003 A 
ENDROOT
TORSDOF 0
ENDMDL
