MODEL 1
REMARK minimizedAffinity -1.60533583
REMARK minimizedRMSD -1
REMARK  0 active torsions:
REMARK  status: ('A' for Active; 'I' for Inactive)
ROOT
ATOM      1  C4' PXY d   1      -1.708  -2.121  -4.870  0.00  0.00     0.077 C 
ATOM      2  C1' PXY d   1      -6.000   1.748  -4.696  0.00  0.00     0.077 C 
ATOM      3  C1  PXY d   1      -4.875   0.732  -4.729  0.00  0.00    -0.082 A 
ATOM      4  C2  PXY d   1      -4.001   0.755  -5.722  0.00  0.00     0.003 A 
ATOM      5  C3  PXY d   1      -2.997  -0.177  -5.784  0.00  0.00     0.003 A 
ATOM      6  C4  PXY d   1      -2.854  -1.108  -4.791  0.00  0.00    -0.082 A 
ATOM      7  C5  PXY d   1      -3.736  -1.132  -3.769  0.00  0.00     0.003 A 
ATOM      8  C6  PXY d   1      -4.772  -0.204  -3.746  0.00  0.00     0.003 A 
ENDROOT
TORSDOF 0
ENDMDL
