MODEL 1
REMARK minimizedAffinity 0.386030316
REMARK minimizedRMSD -1
REMARK  0 active torsions:
REMARK  status: ('A' for Active; 'I' for Inactive)
ROOT
ATOM      1  C4' PXY d   1       4.931  -5.128   2.282  0.00  0.00     0.077 C 
ATOM      2  C1' PXY d   1       2.235  -0.832  -0.490  0.00  0.00     0.077 C 
ATOM      3  C1  PXY d   1       2.953  -1.956   0.230  0.00  0.00    -0.082 A 
ATOM      4  C2  PXY d   1       2.254  -2.955   0.745  0.00  0.00     0.003 A 
ATOM      5  C3  PXY d   1       2.885  -3.964   1.427  0.00  0.00     0.003 A 
ATOM      6  C4  PXY d   1       4.249  -3.977   1.538  0.00  0.00    -0.082 A 
ATOM      7  C5  PXY d   1       4.970  -2.967   1.007  0.00  0.00     0.003 A 
ATOM      8  C6  PXY d   1       4.308  -1.932   0.354  0.00  0.00     0.003 A 
ENDROOT
TORSDOF 0
ENDMDL
