MODEL 1
REMARK minimizedAffinity 25.0263367
REMARK minimizedRMSD -1
REMARK  0 active torsions:
REMARK  status: ('A' for Active; 'I' for Inactive)
ROOT
ATOM      1  C1  DEN d   1      -1.588  -1.072  -2.580  0.00  0.00     0.130 A 
ATOM      2  C2  DEN d   1      -2.104  -2.430  -2.731  0.00  0.00    -0.031 A 
ATOM      3  C3  DEN d   1      -1.050  -3.369  -2.298  0.00  0.00     0.027 A 
ATOM      4  C4  DEN d   1       1.316  -2.856  -1.408  0.00  0.00     0.027 A 
ATOM      5  C5  DEN d   1       2.210  -1.852  -1.113  0.00  0.00    -0.003 A 
ATOM      6  C6  DEN d   1       1.917  -0.529  -1.316  0.00  0.00     0.001 A 
ATOM      7  C7  DEN d   1       0.681  -0.173  -1.787  0.00  0.00     0.017 A 
ATOM      8  C8  DEN d   1      -0.224  -1.181  -2.094  0.00  0.00    -0.094 A 
ATOM      9  C9  DEN d   1       0.087  -2.511  -1.870  0.00  0.00    -0.072 A 
ENDROOT
TORSDOF 0
ENDMDL
