MODEL 1
REMARK minimizedAffinity 16.4248447
REMARK minimizedRMSD -1
REMARK  0 active torsions:
REMARK  status: ('A' for Active; 'I' for Inactive)
ROOT
ATOM      1  C1  DEN d   1       2.051  -2.981  -5.554  0.00  0.00     0.130 A 
ATOM      2  C2  DEN d   1       1.383  -1.689  -5.423  0.00  0.00    -0.031 A 
ATOM      3  C3  DEN d   1       2.411  -0.632  -5.506  0.00  0.00     0.027 A 
ATOM      4  C4  DEN d   1       4.959  -0.870  -5.828  0.00  0.00     0.027 A 
ATOM      5  C5  DEN d   1       5.993  -1.768  -5.977  0.00  0.00    -0.003 A 
ATOM      6  C6  DEN d   1       5.791  -3.123  -5.962  0.00  0.00     0.001 A 
ATOM      7  C7  DEN d   1       4.520  -3.619  -5.839  0.00  0.00     0.017 A 
ATOM      8  C8  DEN d   1       3.474  -2.719  -5.680  0.00  0.00    -0.094 A 
ATOM      9  C9  DEN d   1       3.697  -1.353  -5.711  0.00  0.00    -0.072 A 
ENDROOT
TORSDOF 0
ENDMDL
