MODEL 1
REMARK minimizedAffinity 13.8738613
REMARK minimizedRMSD -1
REMARK  0 active torsions:
REMARK  status: ('A' for Active; 'I' for Inactive)
ROOT
ATOM      1  C1  DEN d   1       2.540  -2.533  -1.808  0.00  0.00     0.130 A 
ATOM      2  C2  DEN d   1       1.989  -1.416  -1.045  0.00  0.00    -0.031 A 
ATOM      3  C3  DEN d   1       0.516  -1.515  -1.090  0.00  0.00     0.027 A 
ATOM      4  C4  DEN d   1      -0.957  -3.282  -2.256  0.00  0.00     0.027 A 
ATOM      5  C5  DEN d   1      -0.943  -4.416  -3.037  0.00  0.00    -0.003 A 
ATOM      6  C6  DEN d   1       0.222  -4.979  -3.487  0.00  0.00     0.001 A 
ATOM      7  C7  DEN d   1       1.424  -4.433  -3.122  0.00  0.00     0.017 A 
ATOM      8  C8  DEN d   1       1.418  -3.285  -2.342  0.00  0.00    -0.094 A 
ATOM      9  C9  DEN d   1       0.230  -2.738  -1.887  0.00  0.00    -0.072 A 
ENDROOT
TORSDOF 0
ENDMDL
