MODEL 1
REMARK minimizedAffinity 11.8258514
REMARK minimizedRMSD -1
REMARK  0 active torsions:
REMARK  status: ('A' for Active; 'I' for Inactive)
ROOT
ATOM      1  C1  DEN d   1      -4.128  -1.219   6.000  0.00  0.00     0.130 A 
ATOM      2  C2  DEN d   1      -4.293  -2.185   4.917  0.00  0.00    -0.031 A 
ATOM      3  C3  DEN d   1      -4.188  -1.457   3.636  0.00  0.00     0.027 A 
ATOM      4  C4  DEN d   1      -3.784   1.058   3.228  0.00  0.00     0.027 A 
ATOM      5  C5  DEN d   1      -3.595   2.278   3.838  0.00  0.00    -0.003 A 
ATOM      6  C6  DEN d   1      -3.603   2.422   5.200  0.00  0.00     0.001 A 
ATOM      7  C7  DEN d   1      -3.761   1.320   5.998  0.00  0.00     0.017 A 
ATOM      8  C8  DEN d   1      -3.960   0.088   5.390  0.00  0.00    -0.094 A 
ATOM      9  C9  DEN d   1      -3.936  -0.039   4.012  0.00  0.00    -0.072 A 
ENDROOT
TORSDOF 0
ENDMDL
