MODEL 1
REMARK minimizedAffinity 2.73725986
REMARK minimizedRMSD -1
REMARK  0 active torsions:
REMARK  status: ('A' for Active; 'I' for Inactive)
ROOT
ATOM      1  C1  DEN d   1      -3.589  -2.639  -4.720  0.00  0.00     0.130 A 
ATOM      2  C2  DEN d   1      -4.607  -3.124  -5.648  0.00  0.00    -0.031 A 
ATOM      3  C3  DEN d   1      -4.276  -4.520  -5.999  0.00  0.00     0.027 A 
ATOM      4  C4  DEN d   1      -2.301  -5.971  -5.196  0.00  0.00     0.027 A 
ATOM      5  C5  DEN d   1      -1.168  -5.991  -4.412  0.00  0.00    -0.003 A 
ATOM      6  C6  DEN d   1      -0.748  -4.893  -3.709  0.00  0.00     0.001 A 
ATOM      7  C7  DEN d   1      -1.490  -3.742  -3.739  0.00  0.00     0.017 A 
ATOM      8  C8  DEN d   1      -2.629  -3.712  -4.533  0.00  0.00    -0.094 A 
ATOM      9  C9  DEN d   1      -3.044  -4.836  -5.227  0.00  0.00    -0.072 A 
ENDROOT
TORSDOF 0
ENDMDL
