MODEL 1
REMARK minimizedAffinity -2.9768889
REMARK minimizedRMSD -1
REMARK  0 active torsions:
REMARK  status: ('A' for Active; 'I' for Inactive)
ROOT
ATOM      1  C1  DEN d   1      -1.289  -6.000  -4.550  0.00  0.00     0.130 A 
ATOM      2  C2  DEN d   1      -0.405  -5.516  -3.493  0.00  0.00    -0.031 A 
ATOM      3  C3  DEN d   1      -0.779  -4.120  -3.188  0.00  0.00     0.027 A 
ATOM      4  C4  DEN d   1      -2.633  -2.670  -4.241  0.00  0.00     0.027 A 
ATOM      5  C5  DEN d   1      -3.636  -2.642  -5.184  0.00  0.00    -0.003 A 
ATOM      6  C6  DEN d   1      -3.902  -3.710  -5.999  0.00  0.00     0.001 A 
ATOM      7  C7  DEN d   1      -3.186  -4.869  -5.855  0.00  0.00     0.017 A 
ATOM      8  C8  DEN d   1      -2.169  -4.903  -4.911  0.00  0.00    -0.094 A 
ATOM      9  C9  DEN d   1      -1.923  -3.817  -4.088  0.00  0.00    -0.072 A 
ENDROOT
TORSDOF 0
ENDMDL
