MODEL 1
REMARK minimizedAffinity 4.15615559
REMARK minimizedRMSD -1
REMARK  0 active torsions:
REMARK  status: ('A' for Active; 'I' for Inactive)
ROOT
ATOM      1  C1  DEN d   1      -3.596  -5.993  -5.996  0.00  0.00     0.130 A 
ATOM      2  C2  DEN d   1      -4.943  -5.429  -6.000  0.00  0.00    -0.031 A 
ATOM      3  C3  DEN d   1      -4.968  -4.302  -5.046  0.00  0.00     0.027 A 
ATOM      4  C4  DEN d   1      -3.062  -3.378  -3.574  0.00  0.00     0.027 A 
ATOM      5  C5  DEN d   1      -1.741  -3.536  -3.219  0.00  0.00    -0.003 A 
ATOM      6  C6  DEN d   1      -0.961  -4.538  -3.734  0.00  0.00     0.001 A 
ATOM      7  C7  DEN d   1      -1.484  -5.392  -4.669  0.00  0.00     0.017 A 
ATOM      8  C8  DEN d   1      -2.817  -5.243  -5.027  0.00  0.00    -0.094 A 
ATOM      9  C9  DEN d   1      -3.586  -4.217  -4.504  0.00  0.00    -0.072 A 
ENDROOT
TORSDOF 0
ENDMDL
