MODEL 1
REMARK minimizedAffinity 5.02519941
REMARK minimizedRMSD -1
REMARK  0 active torsions:
REMARK  status: ('A' for Active; 'I' for Inactive)
ROOT
ATOM      1  C1  DEN d   1      -1.559  -4.300  -2.475  0.00  0.00     0.130 A 
ATOM      2  C2  DEN d   1      -0.563  -5.321  -2.788  0.00  0.00    -0.031 A 
ATOM      3  C3  DEN d   1      -0.827  -5.811  -4.156  0.00  0.00     0.027 A 
ATOM      4  C4  DEN d   1      -2.667  -5.087  -5.812  0.00  0.00     0.027 A 
ATOM      5  C5  DEN d   1      -3.754  -4.260  -5.991  0.00  0.00    -0.003 A 
ATOM      6  C6  DEN d   1      -4.202  -3.420  -5.007  0.00  0.00     0.001 A 
ATOM      7  C7  DEN d   1      -3.533  -3.355  -3.813  0.00  0.00     0.017 A 
ATOM      8  C8  DEN d   1      -2.441  -4.191  -3.622  0.00  0.00    -0.094 A 
ATOM      9  C9  DEN d   1      -1.996  -5.024  -4.634  0.00  0.00    -0.072 A 
ENDROOT
TORSDOF 0
ENDMDL
