MODEL 1
REMARK minimizedAffinity 7.4875083
REMARK minimizedRMSD -1
REMARK  0 active torsions:
REMARK  status: ('A' for Active; 'I' for Inactive)
ROOT
ATOM      1  C1  DEN d   1      -1.137  -4.240  -3.261  0.00  0.00     0.130 A 
ATOM      2  C2  DEN d   1      -0.667  -5.560  -3.673  0.00  0.00    -0.031 A 
ATOM      3  C3  DEN d   1      -1.485  -5.999  -4.821  0.00  0.00     0.027 A 
ATOM      4  C4  DEN d   1      -3.420  -4.767  -6.000  0.00  0.00     0.027 A 
ATOM      5  C5  DEN d   1      -4.188  -3.623  -6.000  0.00  0.00    -0.003 A 
ATOM      6  C6  DEN d   1      -4.017  -2.628  -5.074  0.00  0.00     0.001 A 
ATOM      7  C7  DEN d   1      -3.024  -2.738  -4.136  0.00  0.00     0.017 A 
ATOM      8  C8  DEN d   1      -2.251  -3.891  -4.125  0.00  0.00    -0.094 A 
ATOM      9  C9  DEN d   1      -2.432  -4.880  -5.077  0.00  0.00    -0.072 A 
ENDROOT
TORSDOF 0
ENDMDL
