MODEL 1
REMARK minimizedAffinity -3.8026545
REMARK minimizedRMSD -1
REMARK  0 active torsions:
REMARK  status: ('A' for Active; 'I' for Inactive)
ROOT
ATOM      1  C1  DEN d   1      -0.756  -5.250  -3.690  0.00  0.00     0.130 A 
ATOM      2  C2  DEN d   1      -0.359  -3.934  -3.196  0.00  0.00    -0.031 A 
ATOM      3  C3  DEN d   1      -1.299  -2.937  -3.745  0.00  0.00     0.027 A 
ATOM      4  C4  DEN d   1      -3.325  -3.301  -5.300  0.00  0.00     0.027 A 
ATOM      5  C5  DEN d   1      -4.051  -4.242  -5.996  0.00  0.00    -0.003 A 
ATOM      6  C6  DEN d   1      -3.713  -5.570  -5.999  0.00  0.00     0.001 A 
ATOM      7  C7  DEN d   1      -2.646  -6.000  -5.255  0.00  0.00     0.017 A 
ATOM      8  C8  DEN d   1      -1.904  -5.056  -4.558  0.00  0.00    -0.094 A 
ATOM      9  C9  DEN d   1      -2.269  -3.720  -4.557  0.00  0.00    -0.072 A 
ENDROOT
TORSDOF 0
ENDMDL
