MODEL 1
REMARK minimizedAffinity 5.44113064
REMARK minimizedRMSD -1
REMARK  0 active torsions:
REMARK  status: ('A' for Active; 'I' for Inactive)
ROOT
ATOM      1  C1  DEN d   1      -1.376  -5.997  -4.293  0.00  0.00     0.130 A 
ATOM      2  C2  DEN d   1      -0.787  -5.582  -3.023  0.00  0.00    -0.031 A 
ATOM      3  C3  DEN d   1      -1.380  -4.283  -2.648  0.00  0.00     0.027 A 
ATOM      4  C4  DEN d   1      -3.146  -2.883  -3.902  0.00  0.00     0.027 A 
ATOM      5  C5  DEN d   1      -3.935  -2.819  -5.030  0.00  0.00    -0.003 A 
ATOM      6  C6  DEN d   1      -3.901  -3.786  -6.000  0.00  0.00     0.001 A 
ATOM      7  C7  DEN d   1      -3.094  -4.881  -5.838  0.00  0.00     0.017 A 
ATOM      8  C8  DEN d   1      -2.291  -4.949  -4.707  0.00  0.00    -0.094 A 
ATOM      9  C9  DEN d   1      -2.348  -3.967  -3.733  0.00  0.00    -0.072 A 
ENDROOT
TORSDOF 0
ENDMDL
