MODEL 1
REMARK minimizedAffinity 13.3159428
REMARK minimizedRMSD -1
REMARK  0 active torsions:
REMARK  status: ('A' for Active; 'I' for Inactive)
ROOT
ATOM      1  C1  DEN d   1       3.017  -1.760  -0.242  0.00  0.00     0.130 A 
ATOM      2  C2  DEN d   1       1.669  -1.788  -0.804  0.00  0.00    -0.031 A 
ATOM      3  C3  DEN d   1       1.421  -0.488  -1.459  0.00  0.00     0.027 A 
ATOM      4  C4  DEN d   1       2.986   1.552  -1.661  0.00  0.00     0.027 A 
ATOM      5  C5  DEN d   1       4.227   2.053  -1.332  0.00  0.00    -0.003 A 
ATOM      6  C6  DEN d   1       5.130   1.336  -0.593  0.00  0.00     0.001 A 
ATOM      7  C7  DEN d   1       4.824   0.060  -0.197  0.00  0.00     0.017 A 
ATOM      8  C8  DEN d   1       3.573  -0.448  -0.519  0.00  0.00    -0.094 A 
ATOM      9  C9  DEN d   1       2.678   0.288  -1.278  0.00  0.00    -0.072 A 
ENDROOT
TORSDOF 0
ENDMDL
