MODEL 1
REMARK minimizedAffinity 9.98175812
REMARK minimizedRMSD -1
REMARK  0 active torsions:
REMARK  status: ('A' for Active; 'I' for Inactive)
ROOT
ATOM      1  C1  DEN d   1      -1.439  -4.111  -3.759  0.00  0.00     0.130 A 
ATOM      2  C2  DEN d   1      -1.114  -5.496  -4.085  0.00  0.00    -0.031 A 
ATOM      3  C3  DEN d   1      -2.140  -5.998  -5.020  0.00  0.00     0.027 A 
ATOM      4  C4  DEN d   1      -4.189  -4.770  -5.993  0.00  0.00     0.027 A 
ATOM      5  C5  DEN d   1      -4.887  -3.582  -5.999  0.00  0.00    -0.003 A 
ATOM      6  C6  DEN d   1      -4.508  -2.508  -5.239  0.00  0.00     0.001 A 
ATOM      7  C7  DEN d   1      -3.373  -2.584  -4.475  0.00  0.00     0.017 A 
ATOM      8  C8  DEN d   1      -2.668  -3.780  -4.458  0.00  0.00    -0.094 A 
ATOM      9  C9  DEN d   1      -3.061  -4.851  -5.243  0.00  0.00    -0.072 A 
ENDROOT
TORSDOF 0
ENDMDL
