MODEL 1
REMARK minimizedAffinity 6.25726414
REMARK minimizedRMSD -1
REMARK  0 active torsions:
REMARK  status: ('A' for Active; 'I' for Inactive)
ROOT
ATOM      1  C1  DEN d   1      -1.752  -5.947  -4.623  0.00  0.00     0.130 A 
ATOM      2  C2  DEN d   1      -1.131  -5.812  -3.308  0.00  0.00    -0.031 A 
ATOM      3  C3  DEN d   1      -1.516  -4.498  -2.754  0.00  0.00     0.027 A 
ATOM      4  C4  DEN d   1      -3.009  -2.671  -3.798  0.00  0.00     0.027 A 
ATOM      5  C5  DEN d   1      -3.753  -2.327  -4.904  0.00  0.00    -0.003 A 
ATOM      6  C6  DEN d   1      -3.854  -3.143  -5.999  0.00  0.00     0.001 A 
ATOM      7  C7  DEN d   1      -3.237  -4.365  -5.994  0.00  0.00     0.017 A 
ATOM      8  C8  DEN d   1      -2.478  -4.717  -4.885  0.00  0.00    -0.094 A 
ATOM      9  C9  DEN d   1      -2.398  -3.883  -3.783  0.00  0.00    -0.072 A 
ENDROOT
TORSDOF 0
ENDMDL
