MODEL 1
REMARK minimizedAffinity 11.8380365
REMARK minimizedRMSD -1
REMARK  0 active torsions:
REMARK  status: ('A' for Active; 'I' for Inactive)
ROOT
ATOM      1  C1  DEN d   1      -0.058   0.731  -4.654  0.00  0.00     0.130 A 
ATOM      2  C2  DEN d   1      -0.352   0.171  -3.337  0.00  0.00    -0.031 A 
ATOM      3  C3  DEN d   1      -1.520   0.887  -2.787  0.00  0.00     0.027 A 
ATOM      4  C4  DEN d   1      -2.899   2.795  -3.842  0.00  0.00     0.027 A 
ATOM      5  C5  DEN d   1      -3.023   3.614  -4.942  0.00  0.00    -0.003 A 
ATOM      6  C6  DEN d   1      -2.154   3.554  -6.000  0.00  0.00     0.001 A 
ATOM      7  C7  DEN d   1      -1.148   2.624  -6.000  0.00  0.00     0.017 A 
ATOM      8  C8  DEN d   1      -1.012   1.799  -4.891  0.00  0.00    -0.094 A 
ATOM      9  C9  DEN d   1      -1.908   1.867  -3.837  0.00  0.00    -0.072 A 
ENDROOT
TORSDOF 0
ENDMDL
