MODEL 1
REMARK minimizedAffinity 4.74749231
REMARK minimizedRMSD -1
REMARK  0 active torsions:
REMARK  status: ('A' for Active; 'I' for Inactive)
ROOT
ATOM      1  C1  DEN d   1      -1.406  -3.702  -3.623  0.00  0.00     0.130 A 
ATOM      2  C2  DEN d   1      -0.982  -5.062  -3.304  0.00  0.00    -0.031 A 
ATOM      3  C3  DEN d   1      -1.914  -5.998  -3.965  0.00  0.00     0.027 A 
ATOM      4  C4  DEN d   1      -3.958  -5.475  -5.449  0.00  0.00     0.027 A 
ATOM      5  C5  DEN d   1      -4.720  -4.466  -5.994  0.00  0.00    -0.003 A 
ATOM      6  C6  DEN d   1      -4.454  -3.142  -5.762  0.00  0.00     0.001 A 
ATOM      7  C7  DEN d   1      -3.371  -2.792  -5.000  0.00  0.00     0.017 A 
ATOM      8  C8  DEN d   1      -2.602  -3.804  -4.440  0.00  0.00    -0.094 A 
ATOM      9  C9  DEN d   1      -2.880  -5.135  -4.697  0.00  0.00    -0.072 A 
ENDROOT
TORSDOF 0
ENDMDL
