MODEL 1
REMARK minimizedAffinity 0.217947468
REMARK minimizedRMSD -1
REMARK  0 active torsions:
REMARK  status: ('A' for Active; 'I' for Inactive)
ROOT
ATOM      1  C1  DEN d   1      -0.763  -3.501  -3.851  0.00  0.00     0.130 A 
ATOM      2  C2  DEN d   1      -0.128  -4.788  -4.121  0.00  0.00    -0.031 A 
ATOM      3  C3  DEN d   1      -1.027  -5.567  -4.995  0.00  0.00     0.027 A 
ATOM      4  C4  DEN d   1      -3.328  -4.907  -5.958  0.00  0.00     0.027 A 
ATOM      5  C5  DEN d   1      -4.286  -3.918  -5.997  0.00  0.00    -0.003 A 
ATOM      6  C6  DEN d   1      -4.154  -2.745  -5.303  0.00  0.00     0.001 A 
ATOM      7  C7  DEN d   1      -3.017  -2.512  -4.575  0.00  0.00     0.017 A 
ATOM      8  C8  DEN d   1      -2.050  -3.507  -4.523  0.00  0.00    -0.094 A 
ATOM      9  C9  DEN d   1      -2.197  -4.681  -5.242  0.00  0.00    -0.072 A 
ENDROOT
TORSDOF 0
ENDMDL
