MODEL 1
REMARK minimizedAffinity -2.28417325
REMARK minimizedRMSD -1
REMARK  0 active torsions:
REMARK  status: ('A' for Active; 'I' for Inactive)
ROOT
ATOM      1  C   UNL d   1      -1.769  -2.291  -1.374  0.00  0.00     0.078 C 
ATOM      2  C1  UNL d   1      -1.126  -1.234  -0.526  0.00  0.00    -0.077 A 
ATOM      3  C2  UNL d   1       0.240  -0.950  -0.641  0.00  0.00    -0.001 A 
ATOM      4  C3  UNL d   1       0.827   0.030   0.161  0.00  0.00     0.003 A 
ATOM      5  C4  UNL d   1       0.056   0.732   1.086  0.00  0.00    -0.005 A 
ATOM      6  C5  UNL d   1      -1.303   0.454   1.209  0.00  0.00     0.003 A 
ATOM      7  C6  UNL d   1      -1.892  -0.525   0.407  0.00  0.00    -0.001 A 
ENDROOT
TORSDOF 0
ENDMDL
