MODEL 1
REMARK minimizedAffinity -3.71531773
REMARK minimizedRMSD -1
REMARK  0 active torsions:
REMARK  status: ('A' for Active; 'I' for Inactive)
ROOT
ATOM      1  C   UNL d   1      -0.379  -3.131  -2.206  0.00  0.00     0.078 C 
ATOM      2  C1  UNL d   1       0.075  -1.859  -2.858  0.00  0.00    -0.077 A 
ATOM      3  C2  UNL d   1       1.062  -1.060  -2.269  0.00  0.00    -0.001 A 
ATOM      4  C3  UNL d   1       1.469   0.126  -2.882  0.00  0.00     0.003 A 
ATOM      5  C4  UNL d   1       0.892   0.525  -4.087  0.00  0.00    -0.005 A 
ATOM      6  C5  UNL d   1      -0.093  -0.263  -4.679  0.00  0.00     0.003 A 
ATOM      7  C6  UNL d   1      -0.500  -1.450  -4.067  0.00  0.00    -0.001 A 
ENDROOT
TORSDOF 0
ENDMDL
