MODEL 1
REMARK minimizedAffinity -3.40498662
REMARK minimizedRMSD -1
REMARK  0 active torsions:
REMARK  status: ('A' for Active; 'I' for Inactive)
ROOT
ATOM      1  C   UNL d   1       0.384  -0.676  -0.785  0.00  0.00     0.078 C 
ATOM      2  C1  UNL d   1      -0.075   0.105   0.410  0.00  0.00    -0.077 A 
ATOM      3  C2  UNL d   1      -1.406   0.046   0.843  0.00  0.00    -0.001 A 
ATOM      4  C3  UNL d   1      -1.822   0.786   1.951  0.00  0.00     0.003 A 
ATOM      5  C4  UNL d   1      -0.913   1.591   2.635  0.00  0.00    -0.005 A 
ATOM      6  C5  UNL d   1       0.412   1.658   2.211  0.00  0.00     0.003 A 
ATOM      7  C6  UNL d   1       0.830   0.919   1.103  0.00  0.00    -0.001 A 
ENDROOT
TORSDOF 0
ENDMDL
