MODEL 1
REMARK minimizedAffinity -2.68470764
REMARK minimizedRMSD -1
REMARK  0 active torsions:
REMARK  status: ('A' for Active; 'I' for Inactive)
ROOT
ATOM      1  C   UNL d   1      -0.801   2.035   2.836  0.00  0.00     0.078 C 
ATOM      2  C1  UNL d   1      -0.113   1.039   1.952  0.00  0.00    -0.077 A 
ATOM      3  C2  UNL d   1       1.115   0.475   2.320  0.00  0.00    -0.001 A 
ATOM      4  C3  UNL d   1       1.749  -0.444   1.482  0.00  0.00     0.003 A 
ATOM      5  C4  UNL d   1       1.163  -0.807   0.271  0.00  0.00    -0.005 A 
ATOM      6  C5  UNL d   1      -0.058  -0.250  -0.104  0.00  0.00     0.003 A 
ATOM      7  C6  UNL d   1      -0.693   0.669   0.732  0.00  0.00    -0.001 A 
ENDROOT
TORSDOF 0
ENDMDL
