MODEL 1
REMARK minimizedAffinity -4.98651361
REMARK minimizedRMSD -1
REMARK  0 active torsions:
REMARK  status: ('A' for Active; 'I' for Inactive)
ROOT
ATOM      1  C   UNL d   1      -0.032  -0.035  -0.527  0.00  0.00     0.078 C 
ATOM      2  C1  UNL d   1       0.239   0.326   0.903  0.00  0.00    -0.077 A 
ATOM      3  C2  UNL d   1       1.374  -0.157   1.567  0.00  0.00    -0.001 A 
ATOM      4  C3  UNL d   1       1.608   0.180   2.901  0.00  0.00     0.003 A 
ATOM      5  C4  UNL d   1       0.712   1.000   3.583  0.00  0.00    -0.005 A 
ATOM      6  C5  UNL d   1      -0.421   1.483   2.932  0.00  0.00     0.003 A 
ATOM      7  C6  UNL d   1      -0.657   1.148   1.598  0.00  0.00    -0.001 A 
ENDROOT
TORSDOF 0
ENDMDL
