MODEL 1
REMARK minimizedAffinity -1.49374986
REMARK minimizedRMSD -1
REMARK  0 active torsions:
REMARK  status: ('A' for Active; 'I' for Inactive)
ROOT
ATOM      1  C   UNL d   1       0.376  -0.392   0.972  0.00  0.00     0.078 C 
ATOM      2  C1  UNL d   1       0.088  -0.921  -0.402  0.00  0.00    -0.077 A 
ATOM      3  C2  UNL d   1      -0.937  -1.851  -0.617  0.00  0.00    -0.001 A 
ATOM      4  C3  UNL d   1      -1.187  -2.342  -1.899  0.00  0.00     0.003 A 
ATOM      5  C4  UNL d   1      -0.415  -1.911  -2.976  0.00  0.00    -0.005 A 
ATOM      6  C5  UNL d   1       0.609  -0.989  -2.771  0.00  0.00     0.003 A 
ATOM      7  C6  UNL d   1       0.860  -0.496  -1.490  0.00  0.00    -0.001 A 
ENDROOT
TORSDOF 0
ENDMDL
