MODEL 1
REMARK minimizedAffinity -1.62095785
REMARK minimizedRMSD -1
REMARK  0 active torsions:
REMARK  status: ('A' for Active; 'I' for Inactive)
ROOT
ATOM      1  C   UNL d   1      -1.097  -1.718  -1.056  0.00  0.00     0.078 C 
ATOM      2  C1  UNL d   1      -0.458  -0.629  -0.246  0.00  0.00    -0.077 A 
ATOM      3  C2  UNL d   1       0.178  -0.913   0.969  0.00  0.00    -0.001 A 
ATOM      4  C3  UNL d   1       0.761   0.112   1.716  0.00  0.00     0.003 A 
ATOM      5  C4  UNL d   1       0.712   1.427   1.258  0.00  0.00    -0.005 A 
ATOM      6  C5  UNL d   1       0.079   1.719   0.052  0.00  0.00     0.003 A 
ATOM      7  C6  UNL d   1      -0.504   0.696  -0.697  0.00  0.00    -0.001 A 
ENDROOT
TORSDOF 0
ENDMDL
