MODEL 1
REMARK minimizedAffinity 0.0988402665
REMARK minimizedRMSD -1
REMARK  1 active torsions:
REMARK  status: ('A' for Active; 'I' for Inactive)
REMARK    1  A    between atoms: C1_2  and  C2_3 
ROOT
ATOM      1  C2  UNL d   1       0.638   2.056   0.781  0.00  0.00    -0.081 A 
ATOM      2  C3  UNL d   1       0.604   1.083   1.788  0.00  0.00     0.006 A 
ATOM      3  C4  UNL d   1       0.415  -0.263   1.465  0.00  0.00     0.002 A 
ATOM      4  C5  UNL d   1       0.264  -0.659   0.132  0.00  0.00    -0.080 A 
ATOM      5  C6  UNL d   1       0.090  -2.104  -0.230  0.00  0.00     0.076 C 
ATOM      6  C7  UNL d   1       0.280   0.315  -0.872  0.00  0.00     0.002 A 
ATOM      7  C8  UNL d   1       0.469   1.661  -0.550  0.00  0.00     0.006 A 
ENDROOT
BRANCH   1   8
ATOM      8  C1  UNL d   1       0.907   3.500   1.120  0.00  0.00     0.054 C 
ATOM      9  C   UNL d   1       0.757   4.393  -0.104  0.00  0.00     0.018 C 
ENDBRANCH   1   8
TORSDOF 1
ENDMDL
