MODEL 1
REMARK minimizedAffinity 6.44458389
REMARK minimizedRMSD -1
REMARK  1 active torsions:
REMARK  status: ('A' for Active; 'I' for Inactive)
REMARK    1  A    between atoms: C1_2  and  C2_3 
ROOT
ATOM      1  C2  UNL d   1       0.812   1.275   2.135  0.00  0.00    -0.081 A 
ATOM      2  C3  UNL d   1      -0.186   0.993   1.194  0.00  0.00     0.006 A 
ATOM      3  C4  UNL d   1      -0.318  -0.293   0.665  0.00  0.00     0.002 A 
ATOM      4  C5  UNL d   1       0.540  -1.319   1.072  0.00  0.00    -0.080 A 
ATOM      5  C6  UNL d   1       0.390  -2.711   0.534  0.00  0.00     0.076 C 
ATOM      6  C7  UNL d   1       1.549  -1.034   1.998  0.00  0.00     0.002 A 
ATOM      7  C8  UNL d   1       1.682   0.251   2.528  0.00  0.00     0.006 A 
ENDROOT
BRANCH   1   8
ATOM      8  C1  UNL d   1       0.916   2.644   2.756  0.00  0.00     0.054 C 
ATOM      9  C   UNL d   1       2.081   2.722   3.733  0.00  0.00     0.018 C 
ENDBRANCH   1   8
TORSDOF 1
ENDMDL
