MODEL 1
REMARK minimizedAffinity 6.7069273
REMARK minimizedRMSD -1
REMARK  1 active torsions:
REMARK  status: ('A' for Active; 'I' for Inactive)
REMARK    1  A    between atoms: C1_2  and  C2_3 
ROOT
ATOM      1  C2  UNL d   1       0.437   1.483   2.348  0.00  0.00    -0.081 A 
ATOM      2  C3  UNL d   1       0.631   0.320   3.103  0.00  0.00     0.006 A 
ATOM      3  C4  UNL d   1       0.484  -0.939   2.514  0.00  0.00     0.002 A 
ATOM      4  C5  UNL d   1       0.149  -1.055   1.161  0.00  0.00    -0.080 A 
ATOM      5  C6  UNL d   1       0.019  -2.400   0.510  0.00  0.00     0.076 C 
ATOM      6  C7  UNL d   1      -0.062   0.107   0.411  0.00  0.00     0.002 A 
ATOM      7  C8  UNL d   1       0.084   1.366   0.999  0.00  0.00     0.006 A 
ENDROOT
BRANCH   1   8
ATOM      8  C1  UNL d   1       0.657   2.841   2.963  0.00  0.00     0.054 C 
ATOM      9  C   UNL d   1       1.420   3.759   2.019  0.00  0.00     0.018 C 
ENDBRANCH   1   8
TORSDOF 1
ENDMDL
