MODEL 1
REMARK minimizedAffinity -0.0432060696
REMARK minimizedRMSD -1
REMARK  1 active torsions:
REMARK  status: ('A' for Active; 'I' for Inactive)
REMARK    1  A    between atoms: C1_2  and  C2_3 
ROOT
ATOM      1  C2  UNL d   1      -2.854   1.888  -0.526  0.00  0.00    -0.081 A 
ATOM      2  C3  UNL d   1      -2.548   2.909  -1.433  0.00  0.00     0.006 A 
ATOM      3  C4  UNL d   1      -3.562   3.534  -2.164  0.00  0.00     0.002 A 
ATOM      4  C5  UNL d   1      -4.897   3.153  -1.994  0.00  0.00    -0.080 A 
ATOM      5  C6  UNL d   1      -5.998   3.837  -2.751  0.00  0.00     0.076 C 
ATOM      6  C7  UNL d   1      -5.201   2.121  -1.101  0.00  0.00     0.002 A 
ATOM      7  C8  UNL d   1      -4.188   1.495  -0.370  0.00  0.00     0.006 A 
ENDROOT
BRANCH   1   8
ATOM      8  C1  UNL d   1      -1.771   1.256   0.311  0.00  0.00     0.054 C 
ATOM      9  C   UNL d   1      -0.392   1.523  -0.276  0.00  0.00     0.018 C 
ENDBRANCH   1   8
TORSDOF 1
ENDMDL
