MODEL 1
REMARK minimizedAffinity -0.990862846
REMARK minimizedRMSD -1
REMARK  1 active torsions:
REMARK  status: ('A' for Active; 'I' for Inactive)
REMARK    1  A    between atoms: C1_2  and  C2_3 
ROOT
ATOM      1  C2  UNL d   1       0.652   0.687   1.641  0.00  0.00    -0.081 A 
ATOM      2  C3  UNL d   1       0.461   0.854   0.263  0.00  0.00     0.006 A 
ATOM      3  C4  UNL d   1       0.521   2.126  -0.311  0.00  0.00     0.002 A 
ATOM      4  C5  UNL d   1       0.778   3.250   0.480  0.00  0.00    -0.080 A 
ATOM      5  C6  UNL d   1       0.875   4.618  -0.128  0.00  0.00     0.076 C 
ATOM      6  C7  UNL d   1       0.951   3.086   1.859  0.00  0.00     0.002 A 
ATOM      7  C8  UNL d   1       0.891   1.814   2.434  0.00  0.00     0.006 A 
ENDROOT
BRANCH   1   8
ATOM      8  C1  UNL d   1       0.653  -0.690   2.253  0.00  0.00     0.054 C 
ATOM      9  C   UNL d   1       2.025  -1.050   2.803  0.00  0.00     0.018 C 
ENDBRANCH   1   8
TORSDOF 1
ENDMDL
