MODEL 1
REMARK minimizedAffinity 1.00728154
REMARK minimizedRMSD -1
REMARK  1 active torsions:
REMARK  status: ('A' for Active; 'I' for Inactive)
REMARK    1  A    between atoms: C1_2  and  C2_3 
ROOT
ATOM      1  C2  UNL d   1       1.216   1.443   1.725  0.00  0.00    -0.081 A 
ATOM      2  C3  UNL d   1       2.203   0.545   2.150  0.00  0.00     0.006 A 
ATOM      3  C4  UNL d   1       2.438  -0.637   1.444  0.00  0.00     0.002 A 
ATOM      4  C5  UNL d   1       1.695  -0.938   0.297  0.00  0.00    -0.080 A 
ATOM      5  C6  UNL d   1       1.958  -2.189  -0.487  0.00  0.00     0.076 C 
ATOM      6  C7  UNL d   1       0.697  -0.050  -0.118  0.00  0.00     0.002 A 
ATOM      7  C8  UNL d   1       0.462   1.132   0.588  0.00  0.00     0.006 A 
ENDROOT
BRANCH   1   8
ATOM      8  C1  UNL d   1       1.005   2.749   2.447  0.00  0.00     0.054 C 
ATOM      9  C   UNL d   1       2.239   3.146   3.244  0.00  0.00     0.018 C 
ENDBRANCH   1   8
TORSDOF 1
ENDMDL
