MODEL 1
REMARK minimizedAffinity 0.367301583
REMARK minimizedRMSD -1
REMARK  1 active torsions:
REMARK  status: ('A' for Active; 'I' for Inactive)
REMARK    1  A    between atoms: C1_2  and  C2_3 
ROOT
ATOM      1  C2  UNL d   1       0.374   0.441   0.679  0.00  0.00    -0.081 A 
ATOM      2  C3  UNL d   1      -0.723   1.071   0.078  0.00  0.00     0.006 A 
ATOM      3  C4  UNL d   1      -1.135   0.703  -1.205  0.00  0.00     0.002 A 
ATOM      4  C5  UNL d   1      -0.464  -0.306  -1.904  0.00  0.00    -0.080 A 
ATOM      5  C6  UNL d   1      -0.915  -0.732  -3.269  0.00  0.00     0.076 C 
ATOM      6  C7  UNL d   1       0.642  -0.923  -1.310  0.00  0.00     0.002 A 
ATOM      7  C8  UNL d   1       1.055  -0.555  -0.028  0.00  0.00     0.006 A 
ENDROOT
BRANCH   1   8
ATOM      8  C1  UNL d   1       0.781   0.791   2.088  0.00  0.00     0.054 C 
ATOM      9  C   UNL d   1       0.322   2.193   2.465  0.00  0.00     0.018 C 
ENDBRANCH   1   8
TORSDOF 1
ENDMDL
