MODEL 1
REMARK minimizedAffinity 14.5461302
REMARK minimizedRMSD -1
REMARK  0 active torsions:
REMARK  status: ('A' for Active; 'I' for Inactive)
ROOT
ATOM      1  O1  BZF d   1      -5.844   5.637  -2.214  0.00  0.00    -0.204 OA
ATOM      2  C2  BZF d   1      -5.833   5.022  -0.976  0.00  0.00     0.174 A 
ATOM      3  C3  BZF d   1      -5.929   3.683  -1.106  0.00  0.00    -0.012 A 
ATOM      4  C3A BZF d   1      -5.911   3.440  -2.516  0.00  0.00    -0.107 A 
ATOM      5  C4  BZF d   1      -5.961   2.304  -3.273  0.00  0.00     0.055 A 
ATOM      6  C5  BZF d   1      -5.998   2.415  -4.627  0.00  0.00    -0.016 A 
ATOM      7  C6  BZF d   1      -5.991   3.643  -5.256  0.00  0.00     0.022 A 
ATOM      8  C7  BZF d   1      -5.938   4.797  -4.547  0.00  0.00     0.029 A 
ATOM      9  C7A BZF d   1      -5.867   4.687  -3.180  0.00  0.00     0.058 A 
ENDROOT
TORSDOF 0
ENDMDL
