MODEL 1
REMARK minimizedAffinity 8.3243742
REMARK minimizedRMSD -1
REMARK  0 active torsions:
REMARK  status: ('A' for Active; 'I' for Inactive)
ROOT
ATOM      1  O1  BZF d   1      -1.298   1.567   0.194  0.00  0.00    -0.204 OA
ATOM      2  C2  BZF d   1      -0.649   0.471   0.729  0.00  0.00     0.174 A 
ATOM      3  C3  BZF d   1       0.658   0.481   0.399  0.00  0.00    -0.012 A 
ATOM      4  C3A BZF d   1       0.857   1.706  -0.314  0.00  0.00    -0.107 A 
ATOM      5  C4  BZF d   1       1.950   2.292  -0.885  0.00  0.00     0.055 A 
ATOM      6  C5  BZF d   1       1.792   3.456  -1.569  0.00  0.00    -0.016 A 
ATOM      7  C6  BZF d   1       0.558   4.057  -1.706  0.00  0.00     0.022 A 
ATOM      8  C7  BZF d   1      -0.554   3.515  -1.152  0.00  0.00     0.029 A 
ATOM      9  C7A BZF d   1      -0.393   2.356  -0.432  0.00  0.00     0.058 A 
ENDROOT
TORSDOF 0
ENDMDL
