MODEL 1
REMARK minimizedAffinity 14.0438147
REMARK minimizedRMSD -1
REMARK  0 active torsions:
REMARK  status: ('A' for Active; 'I' for Inactive)
ROOT
ATOM      1  O1  BZF d   1       1.470   2.635  -0.873  0.00  0.00    -0.204 OA
ATOM      2  C2  BZF d   1       2.263   3.767  -0.861  0.00  0.00     0.174 A 
ATOM      3  C3  BZF d   1       3.406   3.543  -0.182  0.00  0.00    -0.012 A 
ATOM      4  C3A BZF d   1       3.364   2.159   0.179  0.00  0.00    -0.107 A 
ATOM      5  C4  BZF d   1       4.223   1.338   0.852  0.00  0.00     0.055 A 
ATOM      6  C5  BZF d   1       3.851   0.054   1.101  0.00  0.00    -0.016 A 
ATOM      7  C6  BZF d   1       2.629  -0.439   0.696  0.00  0.00     0.022 A 
ATOM      8  C7  BZF d   1       1.745   0.336   0.020  0.00  0.00     0.029 A 
ATOM      9  C7A BZF d   1       2.132   1.624  -0.261  0.00  0.00     0.058 A 
ENDROOT
TORSDOF 0
ENDMDL
