MODEL 1
REMARK minimizedAffinity 10.2865343
REMARK minimizedRMSD -1
REMARK  0 active torsions:
REMARK  status: ('A' for Active; 'I' for Inactive)
ROOT
ATOM      1  O1  BZF d   1       2.063  -0.080   3.223  0.00  0.00    -0.204 OA
ATOM      2  C2  BZF d   1       3.149   0.036   2.376  0.00  0.00     0.174 A 
ATOM      3  C3  BZF d   1       2.835  -0.390   1.136  0.00  0.00    -0.012 A 
ATOM      4  C3A BZF d   1       1.442  -0.711   1.189  0.00  0.00    -0.107 A 
ATOM      5  C4  BZF d   1       0.548  -1.171   0.264  0.00  0.00     0.055 A 
ATOM      6  C5  BZF d   1      -0.722  -1.451   0.656  0.00  0.00    -0.016 A 
ATOM      7  C6  BZF d   1      -1.132  -1.288   1.963  0.00  0.00     0.022 A 
ATOM      8  C7  BZF d   1      -0.283  -0.829   2.914  0.00  0.00     0.029 A 
ATOM      9  C7A BZF d   1       0.993  -0.514   2.515  0.00  0.00     0.058 A 
ENDROOT
TORSDOF 0
ENDMDL
