MODEL 1
REMARK minimizedAffinity 13.7109566
REMARK minimizedRMSD -1
REMARK  0 active torsions:
REMARK  status: ('A' for Active; 'I' for Inactive)
ROOT
ATOM      1  O1  BZF d   1      -4.746  -4.143   2.899  0.00  0.00    -0.204 OA
ATOM      2  C2  BZF d   1      -5.402  -5.147   3.584  0.00  0.00     0.174 A 
ATOM      3  C3  BZF d   1      -5.999  -6.000   2.727  0.00  0.00    -0.012 A 
ATOM      4  C3A BZF d   1      -5.620  -5.550   1.423  0.00  0.00    -0.107 A 
ATOM      5  C4  BZF d   1      -5.886  -6.000   0.161  0.00  0.00     0.055 A 
ATOM      6  C5  BZF d   1      -5.424  -5.292  -0.903  0.00  0.00    -0.016 A 
ATOM      7  C6  BZF d   1      -4.698  -4.129  -0.742  0.00  0.00     0.022 A 
ATOM      8  C7  BZF d   1      -4.405  -3.647   0.490  0.00  0.00     0.029 A 
ATOM      9  C7A BZF d   1      -4.842  -4.378   1.568  0.00  0.00     0.058 A 
ENDROOT
TORSDOF 0
ENDMDL
