MODEL 1
REMARK minimizedAffinity 0.998624802
REMARK minimizedRMSD -1
REMARK  0 active torsions:
REMARK  status: ('A' for Active; 'I' for Inactive)
ROOT
ATOM      1  O1  BZF d   1      -0.555   0.367   1.399  0.00  0.00    -0.204 OA
ATOM      2  C2  BZF d   1       0.397  -0.428   0.789  0.00  0.00     0.174 A 
ATOM      3  C3  BZF d   1      -0.163  -1.195  -0.169  0.00  0.00    -0.012 A 
ATOM      4  C3A BZF d   1      -1.535  -0.791  -0.219  0.00  0.00    -0.107 A 
ATOM      5  C4  BZF d   1      -2.600  -1.177  -0.983  0.00  0.00     0.055 A 
ATOM      6  C5  BZF d   1      -3.822  -0.639  -0.732  0.00  0.00    -0.016 A 
ATOM      7  C6  BZF d   1      -4.017   0.282   0.276  0.00  0.00     0.022 A 
ATOM      8  C7  BZF d   1      -2.990   0.699   1.057  0.00  0.00     0.029 A 
ATOM      9  C7A BZF d   1      -1.748   0.182   0.785  0.00  0.00     0.058 A 
ENDROOT
TORSDOF 0
ENDMDL
