MODEL 1
REMARK minimizedAffinity 7.95411015
REMARK minimizedRMSD -1
REMARK  0 active torsions:
REMARK  status: ('A' for Active; 'I' for Inactive)
ROOT
ATOM      1  O1  BZF d   1       2.765  -0.521   2.899  0.00  0.00    -0.204 OA
ATOM      2  C2  BZF d   1       4.138  -0.380   2.842  0.00  0.00     0.174 A 
ATOM      3  C3  BZF d   1       4.552  -0.240   1.566  0.00  0.00    -0.012 A 
ATOM      4  C3A BZF d   1       3.354  -0.204   0.784  0.00  0.00    -0.107 A 
ATOM      5  C4  BZF d   1       3.109  -0.066  -0.553  0.00  0.00     0.055 A 
ATOM      6  C5  BZF d   1       1.829  -0.146  -1.001  0.00  0.00    -0.016 A 
ATOM      7  C6  BZF d   1       0.771  -0.368  -0.143  0.00  0.00     0.022 A 
ATOM      8  C7  BZF d   1       0.964  -0.506   1.191  0.00  0.00     0.029 A 
ATOM      9  C7A BZF d   1       2.254  -0.393   1.651  0.00  0.00     0.058 A 
ENDROOT
TORSDOF 0
ENDMDL
