MODEL 1
REMARK minimizedAffinity 11.1953611
REMARK minimizedRMSD -1
REMARK  0 active torsions:
REMARK  status: ('A' for Active; 'I' for Inactive)
ROOT
ATOM      1  O1  BZF d   1      -0.717  -3.765  -3.993  0.00  0.00    -0.204 OA
ATOM      2  C2  BZF d   1      -0.360  -4.937  -4.630  0.00  0.00     0.174 A 
ATOM      3  C3  BZF d   1      -0.948  -6.000  -4.043  0.00  0.00    -0.012 A 
ATOM      4  C3A BZF d   1      -1.794  -5.448  -3.029  0.00  0.00    -0.107 A 
ATOM      5  C4  BZF d   1      -2.649  -6.000  -2.117  0.00  0.00     0.055 A 
ATOM      6  C5  BZF d   1      -3.269  -5.190  -1.220  0.00  0.00    -0.016 A 
ATOM      7  C6  BZF d   1      -3.054  -3.827  -1.202  0.00  0.00     0.022 A 
ATOM      8  C7  BZF d   1      -2.220  -3.234  -2.090  0.00  0.00     0.029 A 
ATOM      9  C7A BZF d   1      -1.617  -4.046  -3.019  0.00  0.00     0.058 A 
ENDROOT
TORSDOF 0
ENDMDL
