MODEL 1
REMARK minimizedAffinity 14.796114
REMARK minimizedRMSD -1
REMARK  0 active torsions:
REMARK  status: ('A' for Active; 'I' for Inactive)
ROOT
ATOM      1  O1  BZF d   1       0.330  -0.557   3.167  0.00  0.00    -0.204 OA
ATOM      2  C2  BZF d   1      -0.536  -0.703   2.100  0.00  0.00     0.174 A 
ATOM      3  C3  BZF d   1       0.127  -0.607   0.929  0.00  0.00    -0.012 A 
ATOM      4  C3A BZF d   1       1.506  -0.478   1.287  0.00  0.00    -0.107 A 
ATOM      5  C4  BZF d   1       2.657  -0.359   0.562  0.00  0.00     0.055 A 
ATOM      6  C5  BZF d   1       3.834  -0.179   1.216  0.00  0.00    -0.016 A 
ATOM      7  C6  BZF d   1       3.896  -0.107   2.592  0.00  0.00     0.022 A 
ATOM      8  C7  BZF d   1       2.782  -0.224   3.355  0.00  0.00     0.029 A 
ATOM      9  C7A BZF d   1       1.595  -0.440   2.698  0.00  0.00     0.058 A 
ENDROOT
TORSDOF 0
ENDMDL
