MODEL 1
REMARK minimizedAffinity 3.29649091
REMARK minimizedRMSD -1
REMARK  0 active torsions:
REMARK  status: ('A' for Active; 'I' for Inactive)
ROOT
ATOM      1  O1  BZF d   1      -5.026  -4.148  -3.133  0.00  0.00    -0.204 OA
ATOM      2  C2  BZF d   1      -5.887  -5.097  -2.618  0.00  0.00     0.174 A 
ATOM      3  C3  BZF d   1      -5.215  -6.000  -1.875  0.00  0.00    -0.012 A 
ATOM      4  C3A BZF d   1      -3.861  -5.536  -1.853  0.00  0.00    -0.107 A 
ATOM      5  C4  BZF d   1      -2.719  -6.000  -1.265  0.00  0.00     0.055 A 
ATOM      6  C5  BZF d   1      -1.547  -5.355  -1.500  0.00  0.00    -0.016 A 
ATOM      7  C6  BZF d   1      -1.478  -4.248  -2.321  0.00  0.00     0.022 A 
ATOM      8  C7  BZF d   1      -2.585  -3.749  -2.923  0.00  0.00     0.029 A 
ATOM      9  C7A BZF d   1      -3.777  -4.378  -2.661  0.00  0.00     0.058 A 
ENDROOT
TORSDOF 0
ENDMDL
