MODEL 1
REMARK minimizedAffinity 2.74906564
REMARK minimizedRMSD -1
REMARK  0 active torsions:
REMARK  status: ('A' for Active; 'I' for Inactive)
ROOT
ATOM      1  O1  BZF d   1       3.452  -1.970   0.302  0.00  0.00    -0.204 OA
ATOM      2  C2  BZF d   1       3.747  -0.721   0.813  0.00  0.00     0.174 A 
ATOM      3  C3  BZF d   1       2.618  -0.020   1.043  0.00  0.00    -0.012 A 
ATOM      4  C3A BZF d   1       1.548  -0.919   0.738  0.00  0.00    -0.107 A 
ATOM      5  C4  BZF d   1       0.187  -0.810   0.784  0.00  0.00     0.055 A 
ATOM      6  C5  BZF d   1      -0.574  -1.848   0.349  0.00  0.00    -0.016 A 
ATOM      7  C6  BZF d   1      -0.009  -3.007  -0.143  0.00  0.00     0.022 A 
ATOM      8  C7  BZF d   1       1.336  -3.164  -0.203  0.00  0.00     0.029 A 
ATOM      9  C7A BZF d   1       2.108  -2.129   0.266  0.00  0.00     0.058 A 
ENDROOT
TORSDOF 0
ENDMDL
