MODEL 1
REMARK minimizedAffinity -3.93889546
REMARK minimizedRMSD -1
REMARK  0 active torsions:
REMARK  status: ('A' for Active; 'I' for Inactive)
ROOT
ATOM      1  O1  BZF d   1      -0.942   1.222   0.865  0.00  0.00    -0.204 OA
ATOM      2  C2  BZF d   1      -1.959   1.445  -0.043  0.00  0.00     0.174 A 
ATOM      3  C3  BZF d   1      -2.112   0.383  -0.860  0.00  0.00    -0.012 A 
ATOM      4  C3A BZF d   1      -1.190  -0.599  -0.377  0.00  0.00    -0.107 A 
ATOM      5  C4  BZF d   1      -0.887  -1.873  -0.765  0.00  0.00     0.055 A 
ATOM      6  C5  BZF d   1       0.114  -2.536  -0.129  0.00  0.00    -0.016 A 
ATOM      7  C6  BZF d   1       0.834  -1.956   0.895  0.00  0.00     0.022 A 
ATOM      8  C7  BZF d   1       0.566  -0.697   1.318  0.00  0.00     0.029 A 
ATOM      9  C7A BZF d   1      -0.466  -0.035   0.699  0.00  0.00     0.058 A 
ENDROOT
TORSDOF 0
ENDMDL
