MODEL 1
REMARK minimizedAffinity 11.9807243
REMARK minimizedRMSD -1
REMARK  0 active torsions:
REMARK  status: ('A' for Active; 'I' for Inactive)
ROOT
ATOM      1  O1  BZF d   1      -2.294  -4.837   4.008  0.00  0.00    -0.204 OA
ATOM      2  C2  BZF d   1      -1.748  -3.673   4.513  0.00  0.00     0.174 A 
ATOM      3  C3  BZF d   1      -2.661  -2.987   5.229  0.00  0.00    -0.012 A 
ATOM      4  C3A BZF d   1      -3.827  -3.817   5.245  0.00  0.00    -0.107 A 
ATOM      5  C4  BZF d   1      -5.063  -3.688   5.811  0.00  0.00     0.055 A 
ATOM      6  C5  BZF d   1      -6.000  -4.644   5.576  0.00  0.00    -0.016 A 
ATOM      7  C6  BZF d   1      -5.737  -5.738   4.777  0.00  0.00     0.022 A 
ATOM      8  C7  BZF d   1      -4.523  -5.912   4.199  0.00  0.00     0.029 A 
ATOM      9  C7A BZF d   1      -3.564  -4.964   4.461  0.00  0.00     0.058 A 
ENDROOT
TORSDOF 0
ENDMDL
