MODEL 1
REMARK minimizedAffinity 5.98106432
REMARK minimizedRMSD -1
REMARK  0 active torsions:
REMARK  status: ('A' for Active; 'I' for Inactive)
ROOT
ATOM      1  O1  BZF d   1      -2.064  -3.378  -2.493  0.00  0.00    -0.204 OA
ATOM      2  C2  BZF d   1      -2.361  -3.911  -1.253  0.00  0.00     0.174 A 
ATOM      3  C3  BZF d   1      -1.616  -5.008  -1.013  0.00  0.00    -0.012 A 
ATOM      4  C3A BZF d   1      -0.736  -5.119  -2.135  0.00  0.00    -0.107 A 
ATOM      5  C4  BZF d   1       0.253  -5.999  -2.470  0.00  0.00     0.055 A 
ATOM      6  C5  BZF d   1       0.873  -5.871  -3.672  0.00  0.00    -0.016 A 
ATOM      7  C6  BZF d   1       0.526  -4.879  -4.566  0.00  0.00     0.022 A 
ATOM      8  C7  BZF d   1      -0.446  -3.980  -4.277  0.00  0.00     0.029 A 
ATOM      9  C7A BZF d   1      -1.051  -4.086  -3.048  0.00  0.00     0.058 A 
ENDROOT
TORSDOF 0
ENDMDL
