MODEL 1
REMARK minimizedAffinity -0.924699962
REMARK minimizedRMSD -1
REMARK  0 active torsions:
REMARK  status: ('A' for Active; 'I' for Inactive)
ROOT
ATOM      1  O1  BZF d   1      -3.694  -4.542   1.405  0.00  0.00    -0.204 OA
ATOM      2  C2  BZF d   1      -4.499  -5.344   2.191  0.00  0.00     0.174 A 
ATOM      3  C3  BZF d   1      -5.404  -5.999   1.436  0.00  0.00    -0.012 A 
ATOM      4  C3A BZF d   1      -5.089  -5.652   0.084  0.00  0.00    -0.107 A 
ATOM      5  C4  BZF d   1      -5.622  -6.000  -1.124  0.00  0.00     0.055 A 
ATOM      6  C5  BZF d   1      -5.129  -5.427  -2.253  0.00  0.00    -0.016 A 
ATOM      7  C6  BZF d   1      -4.109  -4.500  -2.211  0.00  0.00     0.022 A 
ATOM      8  C7  BZF d   1      -3.544  -4.127  -1.037  0.00  0.00     0.029 A 
ATOM      9  C7A BZF d   1      -4.018  -4.728   0.103  0.00  0.00     0.058 A 
ENDROOT
TORSDOF 0
ENDMDL
