MODEL 1
REMARK minimizedAffinity 7.25387812
REMARK minimizedRMSD -1
REMARK  0 active torsions:
REMARK  status: ('A' for Active; 'I' for Inactive)
ROOT
ATOM      1  O1  BZF d   1      -2.125   3.390  -4.429  0.00  0.00    -0.204 OA
ATOM      2  C2  BZF d   1      -1.618   4.266  -5.370  0.00  0.00     0.174 A 
ATOM      3  C3  BZF d   1      -0.553   4.931  -4.879  0.00  0.00    -0.012 A 
ATOM      4  C3A BZF d   1      -0.326   4.374  -3.581  0.00  0.00    -0.107 A 
ATOM      5  C4  BZF d   1       0.601   4.611  -2.607  0.00  0.00     0.055 A 
ATOM      6  C5  BZF d   1       0.502   3.947  -1.425  0.00  0.00    -0.016 A 
ATOM      7  C6  BZF d   1      -0.513   3.045  -1.183  0.00  0.00     0.022 A 
ATOM      8  C7  BZF d   1      -1.453   2.773  -2.121  0.00  0.00     0.029 A 
ATOM      9  C7A BZF d   1      -1.336   3.418  -3.328  0.00  0.00     0.058 A 
ENDROOT
TORSDOF 0
ENDMDL
