MODEL 1
REMARK minimizedAffinity -1.92459965
REMARK minimizedRMSD -1
REMARK  0 active torsions:
REMARK  status: ('A' for Active; 'I' for Inactive)
ROOT
ATOM      1  C   UNL d   1       1.497  -5.638  -4.581  0.00  0.00    -0.002 A 
ATOM      2  C1  UNL d   1       2.073  -5.688  -5.843  0.00  0.00     0.010 A 
ATOM      3  C2  UNL d   1       3.457  -5.799  -5.988  0.00  0.00     0.041 A 
ATOM      4  C3  UNL d   1       4.261  -5.861  -4.833  0.00  0.00    -0.075 A 
ATOM      5  S   UNL d   1       5.978  -6.000  -4.768  0.00  0.00     0.015 SA
ATOM      6  C4  UNL d   1       5.988  -5.997  -3.063  0.00  0.00     0.022 A 
ATOM      7  C5  UNL d   1       4.721  -5.894  -2.540  0.00  0.00     0.026 A 
ATOM      8  C6  UNL d   1       3.704  -5.814  -3.551  0.00  0.00    -0.082 A 
ATOM      9  C7  UNL d   1       2.298  -5.701  -3.437  0.00  0.00     0.045 A 
ENDROOT
TORSDOF 0
ENDMDL
