MODEL 1
REMARK minimizedAffinity 2.92222762
REMARK minimizedRMSD -1
REMARK  0 active torsions:
REMARK  status: ('A' for Active; 'I' for Inactive)
ROOT
ATOM      1  C   UNL d   1       2.495  -5.861  -5.687  0.00  0.00    -0.002 A 
ATOM      2  C1  UNL d   1       3.847  -5.734  -5.971  0.00  0.00     0.010 A 
ATOM      3  C2  UNL d   1       4.789  -5.693  -4.940  0.00  0.00     0.041 A 
ATOM      4  C3  UNL d   1       4.344  -5.783  -3.607  0.00  0.00    -0.075 A 
ATOM      5  S   UNL d   1       5.315  -5.755  -2.183  0.00  0.00     0.015 SA
ATOM      6  C4  UNL d   1       3.958  -5.912  -1.164  0.00  0.00     0.022 A 
ATOM      7  C5  UNL d   1       2.784  -5.985  -1.876  0.00  0.00     0.026 A 
ATOM      8  C6  UNL d   1       2.987  -5.913  -3.296  0.00  0.00    -0.082 A 
ATOM      9  C7  UNL d   1       2.057  -5.951  -4.363  0.00  0.00     0.045 A 
ENDROOT
TORSDOF 0
ENDMDL
