MODEL 1
REMARK minimizedAffinity 0.00536154956
REMARK minimizedRMSD -1
REMARK  0 active torsions:
REMARK  status: ('A' for Active; 'I' for Inactive)
ROOT
ATOM      1  C   UNL d   1       3.189  -5.994  -6.000  0.00  0.00    -0.002 A 
ATOM      2  C1  UNL d   1       4.575  -5.995  -5.943  0.00  0.00     0.010 A 
ATOM      3  C2  UNL d   1       5.236  -5.995  -4.713  0.00  0.00     0.041 A 
ATOM      4  C3  UNL d   1       4.472  -5.997  -3.529  0.00  0.00    -0.075 A 
ATOM      5  S   UNL d   1       5.064  -5.998  -1.910  0.00  0.00     0.015 SA
ATOM      6  C4  UNL d   1       3.490  -5.999  -1.255  0.00  0.00     0.022 A 
ATOM      7  C5  UNL d   1       2.525  -5.998  -2.234  0.00  0.00     0.026 A 
ATOM      8  C6  UNL d   1       3.074  -5.997  -3.561  0.00  0.00    -0.082 A 
ATOM      9  C7  UNL d   1       2.434  -5.996  -4.823  0.00  0.00     0.045 A 
ENDROOT
TORSDOF 0
ENDMDL
