MODEL 1
REMARK minimizedAffinity 2.06836867
REMARK minimizedRMSD -1
REMARK  0 active torsions:
REMARK  status: ('A' for Active; 'I' for Inactive)
ROOT
ATOM      1  C   UNL d   1       2.904  -4.911  -1.681  0.00  0.00    -0.002 A 
ATOM      2  C1  UNL d   1       1.917  -5.075  -2.643  0.00  0.00     0.010 A 
ATOM      3  C2  UNL d   1       2.253  -5.410  -3.956  0.00  0.00     0.041 A 
ATOM      4  C3  UNL d   1       3.611  -5.582  -4.289  0.00  0.00    -0.075 A 
ATOM      5  S   UNL d   1       4.259  -5.994  -5.832  0.00  0.00     0.015 SA
ATOM      6  C4  UNL d   1       5.861  -5.963  -5.251  0.00  0.00     0.022 A 
ATOM      7  C5  UNL d   1       5.919  -5.648  -3.914  0.00  0.00     0.026 A 
ATOM      8  C6  UNL d   1       4.623  -5.423  -3.337  0.00  0.00    -0.082 A 
ATOM      9  C7  UNL d   1       4.250  -5.082  -2.015  0.00  0.00     0.045 A 
ENDROOT
TORSDOF 0
ENDMDL
