MODEL 1
REMARK minimizedAffinity -2.72500443
REMARK minimizedRMSD -1
REMARK  0 active torsions:
REMARK  status: ('A' for Active; 'I' for Inactive)
ROOT
ATOM      1  C   UNL d   1       1.789  -5.688  -3.016  0.00  0.00    -0.002 A 
ATOM      2  C1  UNL d   1       2.702  -5.171  -2.107  0.00  0.00     0.010 A 
ATOM      3  C2  UNL d   1       4.028  -4.946  -2.483  0.00  0.00     0.041 A 
ATOM      4  C3  UNL d   1       4.424  -5.250  -3.800  0.00  0.00    -0.075 A 
ATOM      5  S   UNL d   1       5.995  -5.056  -4.484  0.00  0.00     0.015 SA
ATOM      6  C4  UNL d   1       5.491  -5.654  -5.998  0.00  0.00     0.022 A 
ATOM      7  C5  UNL d   1       4.160  -5.998  -6.000  0.00  0.00     0.026 A 
ATOM      8  C6  UNL d   1       3.523  -5.771  -4.733  0.00  0.00    -0.082 A 
ATOM      9  C7  UNL d   1       2.186  -5.989  -4.321  0.00  0.00     0.045 A 
ENDROOT
TORSDOF 0
ENDMDL
