MODEL 1
REMARK minimizedAffinity 1.42782068
REMARK minimizedRMSD -1
REMARK  0 active torsions:
REMARK  status: ('A' for Active; 'I' for Inactive)
ROOT
ATOM      1  C   UNL d   1       1.820   2.944   1.482  0.00  0.00    -0.002 A 
ATOM      2  C1  UNL d   1       2.347   1.682   1.720  0.00  0.00     0.010 A 
ATOM      3  C2  UNL d   1       3.632   1.536   2.246  0.00  0.00     0.041 A 
ATOM      4  C3  UNL d   1       4.385   2.691   2.534  0.00  0.00    -0.075 A 
ATOM      5  S   UNL d   1       5.981   2.756   3.185  0.00  0.00     0.015 SA
ATOM      6  C4  UNL d   1       6.000   4.460   3.164  0.00  0.00     0.022 A 
ATOM      7  C5  UNL d   1       4.826   4.983   2.675  0.00  0.00     0.026 A 
ATOM      8  C6  UNL d   1       3.876   3.973   2.305  0.00  0.00    -0.082 A 
ATOM      9  C7  UNL d   1       2.570   4.087   1.770  0.00  0.00     0.045 A 
ENDROOT
TORSDOF 0
ENDMDL
