MODEL 1
REMARK minimizedAffinity -0.79976815
REMARK minimizedRMSD -1
REMARK  0 active torsions:
REMARK  status: ('A' for Active; 'I' for Inactive)
ROOT
ATOM      1  C   UNL d   1       3.133  -5.919  -5.951  0.00  0.00    -0.002 A 
ATOM      2  C1  UNL d   1       2.083  -5.947  -5.043  0.00  0.00     0.010 A 
ATOM      3  C2  UNL d   1       2.331  -5.914  -3.670  0.00  0.00     0.041 A 
ATOM      4  C3  UNL d   1       3.665  -5.849  -3.219  0.00  0.00    -0.075 A 
ATOM      5  S   UNL d   1       4.208  -5.797  -1.584  0.00  0.00     0.015 SA
ATOM      6  C4  UNL d   1       5.846  -5.736  -2.051  0.00  0.00     0.022 A 
ATOM      7  C5  UNL d   1       5.993  -5.754  -3.418  0.00  0.00     0.026 A 
ATOM      8  C6  UNL d   1       4.738  -5.819  -4.114  0.00  0.00    -0.082 A 
ATOM      9  C7  UNL d   1       4.454  -5.855  -5.500  0.00  0.00     0.045 A 
ENDROOT
TORSDOF 0
ENDMDL
