MODEL 1
REMARK minimizedAffinity -4.49082661
REMARK minimizedRMSD -1
REMARK  1 active torsions:
REMARK  status: ('A' for Active; 'I' for Inactive)
REMARK    1  A    between atoms: N_2  and  C1_3 
ROOT
ATOM      1  C1  UNL d   1      -0.132  -1.460  -0.448  0.00  0.00     0.143 A 
ATOM      2  C2  UNL d   1       0.574  -0.640   0.439  0.00  0.00    -0.057 A 
ATOM      3  C3  UNL d   1       0.453   0.754   0.394  0.00  0.00     0.033 A 
ATOM      4  C4  UNL d   1      -0.358   1.356  -0.563  0.00  0.00    -0.042 A 
ATOM      5  C5  UNL d   1      -1.049   0.563  -1.471  0.00  0.00     0.033 A 
ATOM      6  C6  UNL d   1      -0.929  -0.829  -1.416  0.00  0.00    -0.057 A 
ENDROOT
BRANCH   1   7
ATOM      7  N   UNL d   1       0.022  -2.846  -0.517  0.00  0.00    -0.732 N 
ATOM      8  C   UNL d   1      -0.363  -3.572  -1.708  0.00  0.00     0.284 C 
ATOM      9  H3  UNL d   1       0.896  -3.161  -0.103  0.00  0.00     0.395 HD
ENDBRANCH   1   7
TORSDOF 1
ENDMDL
