MODEL 1
REMARK minimizedAffinity -3.72825074
REMARK minimizedRMSD -1
REMARK  1 active torsions:
REMARK  status: ('A' for Active; 'I' for Inactive)
REMARK    1  A    between atoms: N_2  and  C1_3 
ROOT
ATOM      1  C1  UNL d   1      -0.097  -0.483   0.057  0.00  0.00     0.143 A 
ATOM      2  C2  UNL d   1       0.978   0.409  -0.017  0.00  0.00    -0.057 A 
ATOM      3  C3  UNL d   1       0.788   1.788   0.134  0.00  0.00     0.033 A 
ATOM      4  C4  UNL d   1      -0.489   2.303   0.334  0.00  0.00    -0.042 A 
ATOM      5  C5  UNL d   1      -1.575   1.436   0.386  0.00  0.00     0.033 A 
ATOM      6  C6  UNL d   1      -1.378   0.060   0.241  0.00  0.00    -0.057 A 
ENDROOT
BRANCH   1   7
ATOM      7  N   UNL d   1       0.014  -1.855  -0.183  0.00  0.00    -0.732 N 
ATOM      8  C   UNL d   1      -0.000  -2.370  -1.535  0.00  0.00     0.284 C 
ATOM      9  H3  UNL d   1       0.697  -2.302   0.425  0.00  0.00     0.395 HD
ENDBRANCH   1   7
TORSDOF 1
ENDMDL
