MODEL 1
REMARK minimizedAffinity -3.19554663
REMARK minimizedRMSD -1
REMARK  1 active torsions:
REMARK  status: ('A' for Active; 'I' for Inactive)
REMARK    1  A    between atoms: N_2  and  C1_3 
ROOT
ATOM      1  C1  UNL d   1      -0.612   1.006   0.106  0.00  0.00     0.143 A 
ATOM      2  C2  UNL d   1       0.557   0.412  -0.383  0.00  0.00    -0.057 A 
ATOM      3  C3  UNL d   1       0.710  -0.980  -0.403  0.00  0.00     0.033 A 
ATOM      4  C4  UNL d   1      -0.294  -1.804   0.094  0.00  0.00    -0.042 A 
ATOM      5  C5  UNL d   1      -1.454  -1.235   0.607  0.00  0.00     0.033 A 
ATOM      6  C6  UNL d   1      -1.604   0.155   0.619  0.00  0.00    -0.057 A 
ENDROOT
BRANCH   1   7
ATOM      7  N   UNL d   1      -0.785   2.385   0.244  0.00  0.00    -0.732 N 
ATOM      8  C   UNL d   1       0.148   3.170   1.024  0.00  0.00     0.284 C 
ATOM      9  H3  UNL d   1      -1.078   2.828  -0.624  0.00  0.00     0.395 HD
ENDBRANCH   1   7
TORSDOF 1
ENDMDL
