MODEL 1
REMARK minimizedAffinity -3.16048145
REMARK minimizedRMSD -1
REMARK  1 active torsions:
REMARK  status: ('A' for Active; 'I' for Inactive)
REMARK    1  A    between atoms: N_2  and  C1_3 
ROOT
ATOM      1  C1  UNL d   1      -0.215   0.154   0.170  0.00  0.00     0.143 A 
ATOM      2  C2  UNL d   1      -1.516  -0.311   0.387  0.00  0.00    -0.057 A 
ATOM      3  C3  UNL d   1      -2.548   0.563   0.749  0.00  0.00     0.033 A 
ATOM      4  C4  UNL d   1      -2.290   1.917   0.930  0.00  0.00    -0.042 A 
ATOM      5  C5  UNL d   1      -0.998   2.398   0.744  0.00  0.00     0.033 A 
ATOM      6  C6  UNL d   1       0.027   1.521   0.375  0.00  0.00    -0.057 A 
ENDROOT
BRANCH   1   7
ATOM      7  N   UNL d   1       0.875  -0.679  -0.096  0.00  0.00    -0.732 N 
ATOM      8  C   UNL d   1       2.199  -0.333   0.373  0.00  0.00     0.284 C 
ATOM      9  H3  UNL d   1       0.643  -1.665   0.003  0.00  0.00     0.395 HD
ENDBRANCH   1   7
TORSDOF 1
ENDMDL
