MODEL 1
REMARK minimizedAffinity -3.31848192
REMARK minimizedRMSD -1
REMARK  1 active torsions:
REMARK  status: ('A' for Active; 'I' for Inactive)
REMARK    1  A    between atoms: N_2  and  C1_3 
ROOT
ATOM      1  C1  UNL d   1      -0.664  -1.339  -1.166  0.00  0.00     0.143 A 
ATOM      2  C2  UNL d   1      -0.331  -1.151  -2.511  0.00  0.00    -0.057 A 
ATOM      3  C3  UNL d   1      -0.429  -2.197  -3.437  0.00  0.00     0.033 A 
ATOM      4  C4  UNL d   1      -0.836  -3.462  -3.025  0.00  0.00    -0.042 A 
ATOM      5  C5  UNL d   1      -1.149  -3.678  -1.688  0.00  0.00     0.033 A 
ATOM      6  C6  UNL d   1      -1.056  -2.628  -0.770  0.00  0.00    -0.057 A 
ENDROOT
BRANCH   1   7
ATOM      7  N   UNL d   1      -0.494  -0.366  -0.178  0.00  0.00    -0.732 N 
ATOM      8  C   UNL d   1      -0.252   1.015  -0.539  0.00  0.00     0.284 C 
ATOM      9  H3  UNL d   1      -1.137  -0.485   0.601  0.00  0.00     0.395 HD
ENDBRANCH   1   7
TORSDOF 1
ENDMDL
