MODEL 1
REMARK minimizedAffinity -3.48363256
REMARK minimizedRMSD -1
REMARK  1 active torsions:
REMARK  status: ('A' for Active; 'I' for Inactive)
REMARK    1  A    between atoms: N_2  and  C1_3 
ROOT
ATOM      1  C1  UNL d   1      -0.350   0.772   0.247  0.00  0.00     0.143 A 
ATOM      2  C2  UNL d   1      -1.084   1.641   1.062  0.00  0.00    -0.057 A 
ATOM      3  C3  UNL d   1      -0.873   3.025   1.022  0.00  0.00     0.033 A 
ATOM      4  C4  UNL d   1       0.100   3.562   0.185  0.00  0.00    -0.042 A 
ATOM      5  C5  UNL d   1       0.858   2.715  -0.614  0.00  0.00     0.033 A 
ATOM      6  C6  UNL d   1       0.638   1.335  -0.575  0.00  0.00    -0.057 A 
ENDROOT
BRANCH   1   7
ATOM      7  N   UNL d   1      -0.445  -0.621   0.312  0.00  0.00    -0.732 N 
ATOM      8  C   UNL d   1      -0.627  -1.404  -0.891  0.00  0.00     0.284 C 
ATOM      9  H3  UNL d   1       0.213  -1.024   0.975  0.00  0.00     0.395 HD
ENDBRANCH   1   7
TORSDOF 1
ENDMDL
