MODEL 1
REMARK minimizedAffinity -4.59753942
REMARK minimizedRMSD -1
REMARK  1 active torsions:
REMARK  status: ('A' for Active; 'I' for Inactive)
REMARK    1  A    between atoms: N_2  and  C1_3 
ROOT
ATOM      1  C1  UNL d   1      -0.562  -0.275  -0.142  0.00  0.00     0.143 A 
ATOM      2  C2  UNL d   1      -0.305   0.520  -1.265  0.00  0.00    -0.057 A 
ATOM      3  C3  UNL d   1      -0.512   1.904  -1.237  0.00  0.00     0.033 A 
ATOM      4  C4  UNL d   1      -1.010   2.516  -0.091  0.00  0.00    -0.042 A 
ATOM      5  C5  UNL d   1      -1.296   1.742   1.028  0.00  0.00     0.033 A 
ATOM      6  C6  UNL d   1      -1.081   0.361   0.996  0.00  0.00    -0.057 A 
ENDROOT
BRANCH   1   7
ATOM      7  N   UNL d   1      -0.470  -1.669  -0.139  0.00  0.00    -0.732 N 
ATOM      8  C   UNL d   1      -0.559  -2.417  -1.375  0.00  0.00     0.284 C 
ATOM      9  H3  UNL d   1       0.243  -2.009   0.503  0.00  0.00     0.395 HD
ENDBRANCH   1   7
TORSDOF 1
ENDMDL
