MODEL 1
REMARK minimizedAffinity -5.1648345
REMARK minimizedRMSD -1
REMARK  1 active torsions:
REMARK  status: ('A' for Active; 'I' for Inactive)
REMARK    1  A    between atoms: N_2  and  C1_3 
ROOT
ATOM      1  C1  UNL d   1       0.576   0.509   0.061  0.00  0.00     0.143 A 
ATOM      2  C2  UNL d   1       1.959   0.690   0.168  0.00  0.00    -0.057 A 
ATOM      3  C3  UNL d   1       2.498   1.869   0.698  0.00  0.00     0.033 A 
ATOM      4  C4  UNL d   1       1.660   2.902   1.105  0.00  0.00    -0.042 A 
ATOM      5  C5  UNL d   1       0.283   2.753   0.985  0.00  0.00     0.033 A 
ATOM      6  C6  UNL d   1      -0.249   1.571   0.461  0.00  0.00    -0.057 A 
ENDROOT
BRANCH   1   7
ATOM      7  N   UNL d   1      -0.018  -0.599  -0.548  0.00  0.00    -0.732 N 
ATOM      8  C   UNL d   1       0.055  -1.907   0.068  0.00  0.00     0.284 C 
ATOM      9  H3  UNL d   1      -0.926  -0.380  -0.952  0.00  0.00     0.395 HD
ENDBRANCH   1   7
TORSDOF 1
ENDMDL
