MODEL 1
REMARK minimizedAffinity -3.20511198
REMARK minimizedRMSD -1
REMARK  1 active torsions:
REMARK  status: ('A' for Active; 'I' for Inactive)
REMARK    1  A    between atoms: N_2  and  C1_3 
ROOT
ATOM      1  C1  UNL d   1      -1.009   2.278   0.977  0.00  0.00     0.143 A 
ATOM      2  C2  UNL d   1       0.153   2.948   0.579  0.00  0.00    -0.057 A 
ATOM      3  C3  UNL d   1       0.896   2.518  -0.527  0.00  0.00     0.033 A 
ATOM      4  C4  UNL d   1       0.505   1.388  -1.239  0.00  0.00    -0.042 A 
ATOM      5  C5  UNL d   1      -0.632   0.692  -0.846  0.00  0.00     0.033 A 
ATOM      6  C6  UNL d   1      -1.375   1.131   0.255  0.00  0.00    -0.057 A 
ENDROOT
BRANCH   1   7
ATOM      7  N   UNL d   1      -1.737   2.598   2.126  0.00  0.00    -0.732 N 
ATOM      8  C   UNL d   1      -1.060   3.018   3.334  0.00  0.00     0.284 C 
ATOM      9  H3  UNL d   1      -2.581   3.127   1.916  0.00  0.00     0.395 HD
ENDBRANCH   1   7
TORSDOF 1
ENDMDL
