MODEL 1
REMARK minimizedAffinity -2.4794066
REMARK minimizedRMSD -1
REMARK  1 active torsions:
REMARK  status: ('A' for Active; 'I' for Inactive)
REMARK    1  A    between atoms: N_2  and  C1_3 
ROOT
ATOM      1  C1  UNL d   1       0.424  -0.348   0.486  0.00  0.00     0.143 A 
ATOM      2  C2  UNL d   1      -0.574   0.602   0.727  0.00  0.00    -0.057 A 
ATOM      3  C3  UNL d   1      -0.254   1.941   0.985  0.00  0.00     0.033 A 
ATOM      4  C4  UNL d   1       1.075   2.348   1.035  0.00  0.00    -0.042 A 
ATOM      5  C5  UNL d   1       2.084   1.415   0.824  0.00  0.00     0.033 A 
ATOM      6  C6  UNL d   1       1.758   0.081   0.560  0.00  0.00    -0.057 A 
ENDROOT
BRANCH   1   7
ATOM      7  N   UNL d   1       0.174  -1.713   0.321  0.00  0.00    -0.732 N 
ATOM      8  C   UNL d   1      -0.172  -2.247  -0.979  0.00  0.00     0.284 C 
ATOM      9  H3  UNL d   1       0.822  -2.293   0.850  0.00  0.00     0.395 HD
ENDBRANCH   1   7
TORSDOF 1
ENDMDL
