MODEL 1
REMARK minimizedAffinity -5.32728338
REMARK minimizedRMSD -1
REMARK  1 active torsions:
REMARK  status: ('A' for Active; 'I' for Inactive)
REMARK    1  A    between atoms: N_2  and  C1_3 
ROOT
ATOM      1  C1  UNL d   1       0.463   0.940  -0.012  0.00  0.00     0.143 A 
ATOM      2  C2  UNL d   1       1.767   0.724   0.447  0.00  0.00    -0.057 A 
ATOM      3  C3  UNL d   1       2.561   1.782   0.905  0.00  0.00     0.033 A 
ATOM      4  C4  UNL d   1       2.073   3.085   0.885  0.00  0.00    -0.042 A 
ATOM      5  C5  UNL d   1       0.789   3.327   0.409  0.00  0.00     0.033 A 
ATOM      6  C6  UNL d   1      -0.001   2.265  -0.040  0.00  0.00    -0.057 A 
ENDROOT
BRANCH   1   7
ATOM      7  N   UNL d   1      -0.340  -0.056  -0.572  0.00  0.00    -0.732 N 
ATOM      8  C   UNL d   1      -0.209  -1.434  -0.148  0.00  0.00     0.284 C 
ATOM      9  H3  UNL d   1      -1.302   0.249  -0.703  0.00  0.00     0.395 HD
ENDBRANCH   1   7
TORSDOF 1
ENDMDL
