MODEL 1
REMARK minimizedAffinity 0.831743479
REMARK minimizedRMSD -1
REMARK  1 active torsions:
REMARK  status: ('A' for Active; 'I' for Inactive)
REMARK    1  A    between atoms: N_2  and  C1_3 
ROOT
ATOM      1  C1  UNL d   1      -0.703   0.885   0.368  0.00  0.00     0.143 A 
ATOM      2  C2  UNL d   1      -1.088   1.369   1.623  0.00  0.00    -0.057 A 
ATOM      3  C3  UNL d   1      -0.818   2.687   2.008  0.00  0.00     0.033 A 
ATOM      4  C4  UNL d   1      -0.128   3.540   1.152  0.00  0.00    -0.042 A 
ATOM      5  C5  UNL d   1       0.287   3.074  -0.090  0.00  0.00     0.033 A 
ATOM      6  C6  UNL d   1       0.008   1.758  -0.471  0.00  0.00    -0.057 A 
ENDROOT
BRANCH   1   7
ATOM      7  N   UNL d   1      -0.855  -0.444  -0.034  0.00  0.00    -0.732 N 
ATOM      8  C   UNL d   1       0.260  -1.364   0.022  0.00  0.00     0.284 C 
ATOM      9  H3  UNL d   1      -1.740  -0.843   0.272  0.00  0.00     0.395 HD
ENDBRANCH   1   7
TORSDOF 1
ENDMDL
