MODEL 1
REMARK minimizedAffinity -0.562743247
REMARK minimizedRMSD -1
REMARK  1 active torsions:
REMARK  status: ('A' for Active; 'I' for Inactive)
REMARK    1  A    between atoms: N_2  and  C1_3 
ROOT
ATOM      1  C1  UNL d   1       0.288  -1.602   0.171  0.00  0.00     0.143 A 
ATOM      2  C2  UNL d   1       1.569  -1.096   0.417  0.00  0.00    -0.057 A 
ATOM      3  C3  UNL d   1       1.806   0.283   0.481  0.00  0.00     0.033 A 
ATOM      4  C4  UNL d   1       0.767   1.183   0.272  0.00  0.00    -0.042 A 
ATOM      5  C5  UNL d   1      -0.510   0.703   0.001  0.00  0.00     0.033 A 
ATOM      6  C6  UNL d   1      -0.741  -0.674  -0.055  0.00  0.00    -0.057 A 
ENDROOT
BRANCH   1   7
ATOM      7  N   UNL d   1       0.008  -2.959  -0.003  0.00  0.00    -0.732 N 
ATOM      8  C   UNL d   1      -0.639  -3.430  -1.208  0.00  0.00     0.284 C 
ATOM      9  H3  UNL d   1       0.764  -3.557   0.324  0.00  0.00     0.395 HD
ENDBRANCH   1   7
TORSDOF 1
ENDMDL
