MODEL 1
REMARK minimizedAffinity 3.63099694
REMARK minimizedRMSD -1
REMARK  1 active torsions:
REMARK  status: ('A' for Active; 'I' for Inactive)
REMARK    1  A    between atoms: N_2  and  C1_3 
ROOT
ATOM      1  C1  UNL d   1       1.551   2.119   0.060  0.00  0.00     0.143 A 
ATOM      2  C2  UNL d   1       1.300   3.194  -0.799  0.00  0.00    -0.057 A 
ATOM      3  C3  UNL d   1       0.178   4.014  -0.628  0.00  0.00     0.033 A 
ATOM      4  C4  UNL d   1      -0.732   3.753   0.391  0.00  0.00    -0.042 A 
ATOM      5  C5  UNL d   1      -0.516   2.675   1.242  0.00  0.00     0.033 A 
ATOM      6  C6  UNL d   1       0.610   1.864   1.070  0.00  0.00    -0.057 A 
ENDROOT
BRANCH   1   7
ATOM      7  N   UNL d   1       2.596   1.208  -0.117  0.00  0.00    -0.732 N 
ATOM      8  C   UNL d   1       2.423  -0.187   0.225  0.00  0.00     0.284 C 
ATOM      9  H3  UNL d   1       3.103   1.364  -0.985  0.00  0.00     0.395 HD
ENDBRANCH   1   7
TORSDOF 1
ENDMDL
