MODEL 1
REMARK minimizedAffinity 4.79591942
REMARK minimizedRMSD -1
REMARK  1 active torsions:
REMARK  status: ('A' for Active; 'I' for Inactive)
REMARK    1  A    between atoms: N_2  and  C1_3 
ROOT
ATOM      1  C1  UNL d   1       0.571  -2.235  -0.931  0.00  0.00     0.143 A 
ATOM      2  C2  UNL d   1       1.421  -2.387  -2.032  0.00  0.00    -0.057 A 
ATOM      3  C3  UNL d   1       1.101  -3.255  -3.083  0.00  0.00     0.033 A 
ATOM      4  C4  UNL d   1      -0.065  -4.011  -3.037  0.00  0.00    -0.042 A 
ATOM      5  C5  UNL d   1      -0.913  -3.895  -1.941  0.00  0.00     0.033 A 
ATOM      6  C6  UNL d   1      -0.591  -3.022  -0.898  0.00  0.00    -0.057 A 
ENDROOT
BRANCH   1   7
ATOM      7  N   UNL d   1       0.881  -1.463   0.191  0.00  0.00    -0.732 N 
ATOM      8  C   UNL d   1       2.206  -0.907   0.360  0.00  0.00     0.284 C 
ATOM      9  H3  UNL d   1       0.128  -0.828   0.445  0.00  0.00     0.395 HD
ENDBRANCH   1   7
TORSDOF 1
ENDMDL
