MODEL 1
REMARK minimizedAffinity 14.4521685
REMARK minimizedRMSD -1
REMARK  0 active torsions:
REMARK  status: ('A' for Active; 'I' for Inactive)
ROOT
ATOM      1  C   UNL d   1      -0.615  -2.703   0.822  0.00  0.00     0.023 A 
ATOM      2  C1  UNL d   1      -1.311  -3.860   1.173  0.00  0.00     0.003 A 
ATOM      3  C2  UNL d   1      -2.698  -3.824   1.323  0.00  0.00     0.048 A 
ATOM      4  C3  UNL d   1      -3.385  -2.627   1.120  0.00  0.00     0.023 A 
ATOM      5  C4  UNL d   1      -2.693  -1.467   0.768  0.00  0.00     0.048 A 
ATOM      6  C5  UNL d   1      -1.306  -1.508   0.620  0.00  0.00     0.003 A 
ATOM      7  I   UNL d   1      -5.450  -2.570   1.343  0.00  0.00    -0.146 I 
ENDROOT
TORSDOF 0
ENDMDL
