MODEL 1
REMARK minimizedAffinity 8.89107132
REMARK minimizedRMSD -1
REMARK  0 active torsions:
REMARK  status: ('A' for Active; 'I' for Inactive)
ROOT
ATOM      1  C   UNL d   1       4.476   2.708   4.196  0.00  0.00     0.023 A 
ATOM      2  C1  UNL d   1       5.290   1.877   3.426  0.00  0.00     0.003 A 
ATOM      3  C2  UNL d   1       5.728   0.655   3.940  0.00  0.00     0.048 A 
ATOM      4  C3  UNL d   1       5.348   0.270   5.226  0.00  0.00     0.023 A 
ATOM      5  C4  UNL d   1       4.533   1.098   5.999  0.00  0.00     0.048 A 
ATOM      6  C5  UNL d   1       4.098   2.319   5.481  0.00  0.00     0.003 A 
ATOM      7  I   UNL d   1       6.000  -1.548   5.994  0.00  0.00    -0.146 I 
ENDROOT
TORSDOF 0
ENDMDL
