MODEL 1
REMARK minimizedAffinity 1.64435363
REMARK minimizedRMSD -1
REMARK  0 active torsions:
REMARK  status: ('A' for Active; 'I' for Inactive)
ROOT
ATOM      1  C   UNL d   1      -1.223  -3.186  -1.020  0.00  0.00     0.023 A 
ATOM      2  C1  UNL d   1      -1.542  -1.902  -0.579  0.00  0.00     0.003 A 
ATOM      3  C2  UNL d   1      -1.579  -1.620   0.788  0.00  0.00     0.048 A 
ATOM      4  C3  UNL d   1      -1.295  -2.628   1.709  0.00  0.00     0.023 A 
ATOM      5  C4  UNL d   1      -0.975  -3.914   1.273  0.00  0.00     0.048 A 
ATOM      6  C5  UNL d   1      -0.940  -4.191  -0.095  0.00  0.00     0.003 A 
ATOM      7  I   UNL d   1      -1.350  -2.211   3.745  0.00  0.00    -0.146 I 
ENDROOT
TORSDOF 0
ENDMDL
