MODEL 1
REMARK minimizedAffinity 8.77576733
REMARK minimizedRMSD -1
REMARK  0 active torsions:
REMARK  status: ('A' for Active; 'I' for Inactive)
ROOT
ATOM      1  C   UNL d   1      -5.218   4.693   1.221  0.00  0.00     0.023 A 
ATOM      2  C1  UNL d   1      -4.091   4.140   0.612  0.00  0.00     0.003 A 
ATOM      3  C2  UNL d   1      -3.745   4.513  -0.689  0.00  0.00     0.048 A 
ATOM      4  C3  UNL d   1      -4.529   5.441  -1.374  0.00  0.00     0.023 A 
ATOM      5  C4  UNL d   1      -5.657   5.997  -0.768  0.00  0.00     0.048 A 
ATOM      6  C5  UNL d   1      -6.000   5.620   0.532  0.00  0.00     0.003 A 
ATOM      7  I   UNL d   1      -4.016   5.998  -3.309  0.00  0.00    -0.146 I 
ENDROOT
TORSDOF 0
ENDMDL
