MODEL 1
REMARK minimizedAffinity 19.4377232
REMARK minimizedRMSD -1
REMARK  0 active torsions:
REMARK  status: ('A' for Active; 'I' for Inactive)
ROOT
ATOM      1  C   UNL d   1      -1.114  -2.548   4.183  0.00  0.00     0.023 A 
ATOM      2  C1  UNL d   1      -0.645  -1.829   5.283  0.00  0.00     0.003 A 
ATOM      3  C2  UNL d   1      -1.401  -0.777   5.805  0.00  0.00     0.048 A 
ATOM      4  C3  UNL d   1      -2.625  -0.450   5.224  0.00  0.00     0.023 A 
ATOM      5  C4  UNL d   1      -3.099  -1.167   4.123  0.00  0.00     0.048 A 
ATOM      6  C5  UNL d   1      -2.339  -2.217   3.604  0.00  0.00     0.003 A 
ATOM      7  I   UNL d   1      -3.752   1.115   6.000  0.00  0.00    -0.146 I 
ENDROOT
TORSDOF 0
ENDMDL
