MODEL 1
REMARK minimizedAffinity 18.6655293
REMARK minimizedRMSD -1
REMARK  0 active torsions:
REMARK  status: ('A' for Active; 'I' for Inactive)
ROOT
ATOM      1  C   UNL d   1      -1.794  -5.955   5.672  0.00  0.00     0.023 A 
ATOM      2  C1  UNL d   1      -0.913  -4.923   5.998  0.00  0.00     0.003 A 
ATOM      3  C2  UNL d   1      -0.916  -3.740   5.256  0.00  0.00     0.048 A 
ATOM      4  C3  UNL d   1      -1.802  -3.595   4.190  0.00  0.00     0.023 A 
ATOM      5  C4  UNL d   1      -2.686  -4.624   3.860  0.00  0.00     0.048 A 
ATOM      6  C5  UNL d   1      -2.679  -5.805   4.604  0.00  0.00     0.003 A 
ATOM      7  I   UNL d   1      -1.808  -1.835   3.084  0.00  0.00    -0.146 I 
ENDROOT
TORSDOF 0
ENDMDL
