MODEL 1
REMARK minimizedAffinity 15.1683817
REMARK minimizedRMSD -1
REMARK  0 active torsions:
REMARK  status: ('A' for Active; 'I' for Inactive)
ROOT
ATOM      1  C   UNL d   1      -1.723  -2.023  -3.741  0.00  0.00     0.023 A 
ATOM      2  C1  UNL d   1      -1.319  -2.883  -2.719  0.00  0.00     0.003 A 
ATOM      3  C2  UNL d   1      -1.894  -2.781  -1.451  0.00  0.00     0.048 A 
ATOM      4  C3  UNL d   1      -2.873  -1.817  -1.211  0.00  0.00     0.023 A 
ATOM      5  C4  UNL d   1      -3.280  -0.955  -2.231  0.00  0.00     0.048 A 
ATOM      6  C5  UNL d   1      -2.702  -1.060  -3.497  0.00  0.00     0.003 A 
ATOM      7  I   UNL d   1      -3.730  -1.663   0.676  0.00  0.00    -0.146 I 
ENDROOT
TORSDOF 0
ENDMDL
