MODEL 1
REMARK minimizedAffinity 9.06310654
REMARK minimizedRMSD -1
REMARK  0 active torsions:
REMARK  status: ('A' for Active; 'I' for Inactive)
ROOT
ATOM      1  C   UNL d   1      -4.654   5.985  -5.553  0.00  0.00     0.023 A 
ATOM      2  C1  UNL d   1      -5.906   5.979  -4.937  0.00  0.00     0.003 A 
ATOM      3  C2  UNL d   1      -6.000   5.982  -3.544  0.00  0.00     0.048 A 
ATOM      4  C3  UNL d   1      -4.838   5.993  -2.772  0.00  0.00     0.023 A 
ATOM      5  C4  UNL d   1      -3.584   6.000  -3.384  0.00  0.00     0.048 A 
ATOM      6  C5  UNL d   1      -3.494   5.995  -4.777  0.00  0.00     0.003 A 
ATOM      7  I   UNL d   1      -4.976   5.998  -0.698  0.00  0.00    -0.146 I 
ENDROOT
TORSDOF 0
ENDMDL
