MODEL 1
REMARK minimizedAffinity 3.77369094
REMARK minimizedRMSD -1
REMARK  0 active torsions:
REMARK  status: ('A' for Active; 'I' for Inactive)
ROOT
ATOM      1  C   UNL d   1      -5.443   4.348   1.497  0.00  0.00     0.023 A 
ATOM      2  C1  UNL d   1      -5.991   5.529   0.997  0.00  0.00     0.003 A 
ATOM      3  C2  UNL d   1      -5.610   6.000  -0.261  0.00  0.00     0.048 A 
ATOM      4  C3  UNL d   1      -4.679   5.284  -1.014  0.00  0.00     0.023 A 
ATOM      5  C4  UNL d   1      -4.128   4.102  -0.518  0.00  0.00     0.048 A 
ATOM      6  C5  UNL d   1      -4.512   3.635   0.741  0.00  0.00     0.003 A 
ATOM      7  I   UNL d   1      -4.110   5.983  -2.887  0.00  0.00    -0.146 I 
ENDROOT
TORSDOF 0
ENDMDL
