MODEL 1
REMARK minimizedAffinity 13.9067326
REMARK minimizedRMSD -1
REMARK  0 active torsions:
REMARK  status: ('A' for Active; 'I' for Inactive)
ROOT
ATOM      1  C   UNL d   1      -2.173  -1.694  -1.042  0.00  0.00     0.023 A 
ATOM      2  C1  UNL d   1      -1.729  -1.390  -2.329  0.00  0.00     0.003 A 
ATOM      3  C2  UNL d   1      -0.422  -0.941  -2.531  0.00  0.00     0.048 A 
ATOM      4  C3  UNL d   1       0.436  -0.800  -1.440  0.00  0.00     0.023 A 
ATOM      5  C4  UNL d   1      -0.004  -1.104  -0.151  0.00  0.00     0.048 A 
ATOM      6  C5  UNL d   1      -1.312  -1.551   0.045  0.00  0.00     0.003 A 
ATOM      7  I   UNL d   1       2.381  -0.132  -1.737  0.00  0.00    -0.146 I 
ENDROOT
TORSDOF 0
ENDMDL
