MODEL 1
REMARK minimizedAffinity 12.933959
REMARK minimizedRMSD -1
REMARK  0 active torsions:
REMARK  status: ('A' for Active; 'I' for Inactive)
ROOT
ATOM      1  C   UNL d   1      -6.000   5.822  -4.670  0.00  0.00     0.023 A 
ATOM      2  C1  UNL d   1      -4.958   5.997  -3.759  0.00  0.00     0.003 A 
ATOM      3  C2  UNL d   1      -3.911   5.075  -3.707  0.00  0.00     0.048 A 
ATOM      4  C3  UNL d   1      -3.912   3.979  -4.570  0.00  0.00     0.023 A 
ATOM      5  C4  UNL d   1      -4.952   3.801  -5.484  0.00  0.00     0.048 A 
ATOM      6  C5  UNL d   1      -5.997   4.725  -5.531  0.00  0.00     0.003 A 
ATOM      7  I   UNL d   1      -2.355   2.605  -4.495  0.00  0.00    -0.146 I 
ENDROOT
TORSDOF 0
ENDMDL
