MODEL 1
REMARK minimizedAffinity 9.13628387
REMARK minimizedRMSD -1
REMARK  0 active torsions:
REMARK  status: ('A' for Active; 'I' for Inactive)
ROOT
ATOM      1  C   UNL d   1       4.123   4.322   0.694  0.00  0.00     0.023 A 
ATOM      2  C1  UNL d   1       3.754   3.003   0.429  0.00  0.00     0.003 A 
ATOM      3  C2  UNL d   1       4.291   2.334  -0.672  0.00  0.00     0.048 A 
ATOM      4  C3  UNL d   1       5.198   2.989  -1.504  0.00  0.00     0.023 A 
ATOM      5  C4  UNL d   1       5.572   4.308  -1.242  0.00  0.00     0.048 A 
ATOM      6  C5  UNL d   1       5.031   4.973  -0.141  0.00  0.00     0.003 A 
ATOM      7  I   UNL d   1       6.000   1.994  -3.144  0.00  0.00    -0.146 I 
ENDROOT
TORSDOF 0
ENDMDL
