MODEL 1
REMARK minimizedAffinity 5.99390793
REMARK minimizedRMSD -1
REMARK  0 active torsions:
REMARK  status: ('A' for Active; 'I' for Inactive)
ROOT
ATOM      1  C   UNL d   1      -1.632  -2.142  -0.010  0.00  0.00     0.023 A 
ATOM      2  C1  UNL d   1      -2.616  -1.434   0.681  0.00  0.00     0.003 A 
ATOM      3  C2  UNL d   1      -2.610  -1.409   2.077  0.00  0.00     0.048 A 
ATOM      4  C3  UNL d   1      -1.617  -2.092   2.776  0.00  0.00     0.023 A 
ATOM      5  C4  UNL d   1      -0.629  -2.801   2.090  0.00  0.00     0.048 A 
ATOM      6  C5  UNL d   1      -0.640  -2.824   0.694  0.00  0.00     0.003 A 
ATOM      7  I   UNL d   1      -1.605  -2.056   4.854  0.00  0.00    -0.146 I 
ENDROOT
TORSDOF 0
ENDMDL
