MODEL 1
REMARK minimizedAffinity 11.9486799
REMARK minimizedRMSD -1
REMARK  0 active torsions:
REMARK  status: ('A' for Active; 'I' for Inactive)
ROOT
ATOM      1  C   UNL d   1      -5.983   5.941  -4.780  0.00  0.00     0.023 A 
ATOM      2  C1  UNL d   1      -5.999   4.881  -5.687  0.00  0.00     0.003 A 
ATOM      3  C2  UNL d   1      -5.031   3.878  -5.608  0.00  0.00     0.048 A 
ATOM      4  C3  UNL d   1      -4.051   3.940  -4.619  0.00  0.00     0.023 A 
ATOM      5  C4  UNL d   1      -4.031   4.998  -3.709  0.00  0.00     0.048 A 
ATOM      6  C5  UNL d   1      -5.000   5.999  -3.792  0.00  0.00     0.003 A 
ATOM      7  I   UNL d   1      -2.609   2.447  -4.499  0.00  0.00    -0.146 I 
ENDROOT
TORSDOF 0
ENDMDL
