MODEL 1
REMARK minimizedAffinity 8.89813423
REMARK minimizedRMSD -1
REMARK  0 active torsions:
REMARK  status: ('A' for Active; 'I' for Inactive)
ROOT
ATOM      1  C   UNL d   1      -1.180  -2.989   0.399  0.00  0.00     0.023 A 
ATOM      2  C1  UNL d   1      -2.382  -2.330   0.657  0.00  0.00     0.003 A 
ATOM      3  C2  UNL d   1      -2.701  -1.940   1.959  0.00  0.00     0.048 A 
ATOM      4  C3  UNL d   1      -1.813  -2.212   2.999  0.00  0.00     0.023 A 
ATOM      5  C4  UNL d   1      -0.609  -2.871   2.747  0.00  0.00     0.048 A 
ATOM      6  C5  UNL d   1      -0.295  -3.260   1.443  0.00  0.00     0.003 A 
ATOM      7  I   UNL d   1      -2.286  -1.633   4.939  0.00  0.00    -0.146 I 
ENDROOT
TORSDOF 0
ENDMDL
