MODEL 1
REMARK minimizedAffinity 7.72754431
REMARK minimizedRMSD -1
REMARK  0 active torsions:
REMARK  status: ('A' for Active; 'I' for Inactive)
ROOT
ATOM      1  C   UNL d   1      -2.868  -0.818   5.997  0.00  0.00     0.023 A 
ATOM      2  C1  UNL d   1      -3.544  -1.943   5.525  0.00  0.00     0.003 A 
ATOM      3  C2  UNL d   1      -3.023  -2.675   4.455  0.00  0.00     0.048 A 
ATOM      4  C3  UNL d   1      -1.825  -2.276   3.864  0.00  0.00     0.023 A 
ATOM      5  C4  UNL d   1      -1.145  -1.152   4.334  0.00  0.00     0.048 A 
ATOM      6  C5  UNL d   1      -1.670  -0.423   5.402  0.00  0.00     0.003 A 
ATOM      7  I   UNL d   1      -1.047  -3.363   2.273  0.00  0.00    -0.146 I 
ENDROOT
TORSDOF 0
ENDMDL
