MODEL 1
REMARK minimizedAffinity -4.96792269
REMARK minimizedRMSD -1
REMARK  2 active torsions:
REMARK  status: ('A' for Active; 'I' for Inactive)
REMARK    1  A    between atoms: C1_2  and  C2_3 
REMARK    2  A    between atoms: C2_3  and  C3_4 
ROOT
ATOM      1  C3  UNL d   1      -0.067   0.370   0.052  0.00  0.00    -0.075 A 
ATOM      2  C4  UNL d   1      -0.832   0.328   1.226  0.00  0.00     0.002 A 
ATOM      3  C5  UNL d   1      -1.231  -0.894   1.768  0.00  0.00     0.002 A 
ATOM      4  C6  UNL d   1      -0.881  -2.086   1.138  0.00  0.00    -0.004 A 
ATOM      5  C7  UNL d   1      -0.135  -2.056  -0.038  0.00  0.00     0.002 A 
ATOM      6  C8  UNL d   1       0.270  -0.835  -0.580  0.00  0.00     0.002 A 
ENDROOT
BRANCH   1   7
ATOM      7  C2  UNL d   1       0.394   1.688  -0.523  0.00  0.00     0.056 C 
BRANCH   7   8
ATOM      8  C1  UNL d   1       0.977   2.652   0.515  0.00  0.00     0.007 C 
ATOM      9  C   UNL d   1       2.422   3.039   0.230  0.00  0.00     0.009 C 
ENDBRANCH   7   8
ENDBRANCH   1   7
TORSDOF 2
ENDMDL
