MODEL 1
REMARK minimizedAffinity -5.1631937
REMARK minimizedRMSD -1
REMARK  2 active torsions:
REMARK  status: ('A' for Active; 'I' for Inactive)
REMARK    1  A    between atoms: C1_2  and  C2_3 
REMARK    2  A    between atoms: C2_3  and  C3_4 
ROOT
ATOM      1  C3  UNL d   1       0.078  -0.320  -0.272  0.00  0.00    -0.075 A 
ATOM      2  C4  UNL d   1      -0.756  -0.668   0.801  0.00  0.00     0.002 A 
ATOM      3  C5  UNL d   1      -0.700  -1.947   1.356  0.00  0.00     0.002 A 
ATOM      4  C6  UNL d   1       0.181  -2.895   0.841  0.00  0.00    -0.004 A 
ATOM      5  C7  UNL d   1       1.001  -2.566  -0.236  0.00  0.00     0.002 A 
ATOM      6  C8  UNL d   1       0.951  -1.286  -0.790  0.00  0.00     0.002 A 
ENDROOT
BRANCH   1   7
ATOM      7  C2  UNL d   1       0.043   1.071  -0.858  0.00  0.00     0.056 C 
BRANCH   7   8
ATOM      8  C1  UNL d   1       0.127   2.190   0.186  0.00  0.00     0.007 C 
ATOM      9  C   UNL d   1       1.522   2.789   0.313  0.00  0.00     0.009 C 
ENDBRANCH   7   8
ENDBRANCH   1   7
TORSDOF 2
ENDMDL
