MODEL 1
REMARK minimizedAffinity -4.40489054
REMARK minimizedRMSD -1
REMARK  2 active torsions:
REMARK  status: ('A' for Active; 'I' for Inactive)
REMARK    1  A    between atoms: C1_2  and  C2_3 
REMARK    2  A    between atoms: C2_3  and  C3_4 
ROOT
ATOM      1  C3  UNL d   1      -0.043   0.407  -0.014  0.00  0.00    -0.075 A 
ATOM      2  C4  UNL d   1       0.840  -0.636  -0.329  0.00  0.00     0.002 A 
ATOM      3  C5  UNL d   1       0.541  -1.950   0.031  0.00  0.00     0.002 A 
ATOM      4  C6  UNL d   1      -0.636  -2.237   0.719  0.00  0.00    -0.004 A 
ATOM      5  C7  UNL d   1      -1.512  -1.206   1.052  0.00  0.00     0.002 A 
ATOM      6  C8  UNL d   1      -1.218   0.109   0.688  0.00  0.00     0.002 A 
ENDROOT
BRANCH   1   7
ATOM      7  C2  UNL d   1       0.260   1.827  -0.428  0.00  0.00     0.056 C 
BRANCH   7   8
ATOM      8  C1  UNL d   1       1.741   2.207  -0.315  0.00  0.00     0.007 C 
ATOM      9  C   UNL d   1       1.971   3.505   0.448  0.00  0.00     0.009 C 
ENDBRANCH   7   8
ENDBRANCH   1   7
TORSDOF 2
ENDMDL
