MODEL 1
REMARK minimizedAffinity -5.61573124
REMARK minimizedRMSD -1
REMARK  2 active torsions:
REMARK  status: ('A' for Active; 'I' for Inactive)
REMARK    1  A    between atoms: C1_2  and  C2_3 
REMARK    2  A    between atoms: C2_3  and  C3_4 
ROOT
ATOM      1  C3  UNL d   1       0.197   0.209   0.260  0.00  0.00    -0.075 A 
ATOM      2  C4  UNL d   1      -0.614  -0.282   1.294  0.00  0.00     0.002 A 
ATOM      3  C5  UNL d   1      -0.814  -1.654   1.447  0.00  0.00     0.002 A 
ATOM      4  C6  UNL d   1      -0.217  -2.551   0.564  0.00  0.00    -0.004 A 
ATOM      5  C7  UNL d   1       0.577  -2.074  -0.476  0.00  0.00     0.002 A 
ATOM      6  C8  UNL d   1       0.783  -0.702  -0.629  0.00  0.00     0.002 A 
ENDROOT
BRANCH   1   7
ATOM      7  C2  UNL d   1       0.442   1.691   0.107  0.00  0.00     0.056 C 
BRANCH   7   8
ATOM      8  C1  UNL d   1       1.920   2.067  -0.038  0.00  0.00     0.007 C 
ATOM      9  C   UNL d   1       2.316   3.278   0.797  0.00  0.00     0.009 C 
ENDBRANCH   7   8
ENDBRANCH   1   7
TORSDOF 2
ENDMDL
