MODEL 1
REMARK minimizedAffinity -5.16019201
REMARK minimizedRMSD -1
REMARK  2 active torsions:
REMARK  status: ('A' for Active; 'I' for Inactive)
REMARK    1  A    between atoms: C1_2  and  C2_3 
REMARK    2  A    between atoms: C2_3  and  C3_4 
ROOT
ATOM      1  C3  UNL d   1       0.056   0.020  -0.264  0.00  0.00    -0.075 A 
ATOM      2  C4  UNL d   1      -0.861  -0.214   0.771  0.00  0.00     0.002 A 
ATOM      3  C5  UNL d   1      -1.069  -1.506   1.254  0.00  0.00     0.002 A 
ATOM      4  C6  UNL d   1      -0.373  -2.580   0.704  0.00  0.00    -0.004 A 
ATOM      5  C7  UNL d   1       0.529  -2.361  -0.336  0.00  0.00     0.002 A 
ATOM      6  C8  UNL d   1       0.742  -1.069  -0.818  0.00  0.00     0.002 A 
ENDROOT
BRANCH   1   7
ATOM      7  C2  UNL d   1       0.308   1.420  -0.771  0.00  0.00     0.056 C 
BRANCH   7   8
ATOM      8  C1  UNL d   1       0.544   2.452   0.337  0.00  0.00     0.007 C 
ATOM      9  C   UNL d   1       1.917   3.106   0.266  0.00  0.00     0.009 C 
ENDBRANCH   7   8
ENDBRANCH   1   7
TORSDOF 2
ENDMDL
