MODEL 1
REMARK minimizedAffinity -5.88012075
REMARK minimizedRMSD -1
REMARK  2 active torsions:
REMARK  status: ('A' for Active; 'I' for Inactive)
REMARK    1  A    between atoms: C1_2  and  C2_3 
REMARK    2  A    between atoms: C2_3  and  C3_4 
ROOT
ATOM      1  C3  UNL d   1       0.514  -1.247  -0.043  0.00  0.00    -0.075 A 
ATOM      2  C4  UNL d   1       0.749  -1.023  -1.408  0.00  0.00     0.002 A 
ATOM      3  C5  UNL d   1       0.574   0.248  -1.957  0.00  0.00     0.002 A 
ATOM      4  C6  UNL d   1       0.153   1.305  -1.155  0.00  0.00    -0.004 A 
ATOM      5  C7  UNL d   1      -0.099   1.090   0.199  0.00  0.00     0.002 A 
ATOM      6  C8  UNL d   1       0.079  -0.179   0.752  0.00  0.00     0.002 A 
ENDROOT
BRANCH   1   7
ATOM      7  C2  UNL d   1       0.730  -2.613   0.564  0.00  0.00     0.056 C 
BRANCH   7   8
ATOM      8  C1  UNL d   1      -0.386  -3.616   0.254  0.00  0.00     0.007 C 
ATOM      9  C   UNL d   1      -1.781  -3.058   0.502  0.00  0.00     0.009 C 
ENDBRANCH   7   8
ENDBRANCH   1   7
TORSDOF 2
ENDMDL
