MODEL 1
REMARK minimizedAffinity -6.21939325
REMARK minimizedRMSD -1
REMARK  2 active torsions:
REMARK  status: ('A' for Active; 'I' for Inactive)
REMARK    1  A    between atoms: C1_2  and  C2_3 
REMARK    2  A    between atoms: C2_3  and  C3_4 
ROOT
ATOM      1  C3  UNL d   1       0.163  -0.016   0.372  0.00  0.00    -0.075 A 
ATOM      2  C4  UNL d   1      -0.335  -0.633   1.529  0.00  0.00     0.002 A 
ATOM      3  C5  UNL d   1      -0.460  -2.021   1.593  0.00  0.00     0.002 A 
ATOM      4  C6  UNL d   1      -0.101  -2.808   0.500  0.00  0.00    -0.004 A 
ATOM      5  C7  UNL d   1       0.378  -2.204  -0.660  0.00  0.00     0.002 A 
ATOM      6  C8  UNL d   1       0.510  -0.816  -0.726  0.00  0.00     0.002 A 
ENDROOT
BRANCH   1   7
ATOM      7  C2  UNL d   1       0.329   1.483   0.306  0.00  0.00     0.056 C 
BRANCH   7   8
ATOM      8  C1  UNL d   1       1.787   1.952   0.356  0.00  0.00     0.007 C 
ATOM      9  C   UNL d   1       2.082   2.873   1.531  0.00  0.00     0.009 C 
ENDBRANCH   7   8
ENDBRANCH   1   7
TORSDOF 2
ENDMDL
