MODEL 1
REMARK minimizedAffinity -2.7964232
REMARK minimizedRMSD -1
REMARK  2 active torsions:
REMARK  status: ('A' for Active; 'I' for Inactive)
REMARK    1  A    between atoms: C1_2  and  C2_3 
REMARK    2  A    between atoms: C2_3  and  C3_4 
ROOT
ATOM      1  C3  UNL d   1      -0.298  -1.186   0.446  0.00  0.00    -0.075 A 
ATOM      2  C4  UNL d   1       0.330  -0.799  -0.747  0.00  0.00     0.002 A 
ATOM      3  C5  UNL d   1       0.371   0.544  -1.123  0.00  0.00     0.002 A 
ATOM      4  C6  UNL d   1      -0.223   1.514  -0.319  0.00  0.00    -0.004 A 
ATOM      5  C7  UNL d   1      -0.864   1.139   0.860  0.00  0.00     0.002 A 
ATOM      6  C8  UNL d   1      -0.903  -0.203   1.241  0.00  0.00     0.002 A 
ENDROOT
BRANCH   1   7
ATOM      7  C2  UNL d   1      -0.320  -2.634   0.873  0.00  0.00     0.056 C 
BRANCH   7   8
ATOM      8  C1  UNL d   1      -1.171  -3.537  -0.026  0.00  0.00     0.007 C 
ATOM      9  C   UNL d   1      -2.665  -3.272   0.098  0.00  0.00     0.009 C 
ENDBRANCH   7   8
ENDBRANCH   1   7
TORSDOF 2
ENDMDL
