MODEL 1
REMARK minimizedAffinity -3.60023499
REMARK minimizedRMSD -1
REMARK  2 active torsions:
REMARK  status: ('A' for Active; 'I' for Inactive)
REMARK    1  A    between atoms: C1_2  and  C2_3 
REMARK    2  A    between atoms: C2_3  and  C3_4 
ROOT
ATOM      1  C3  UNL d   1       0.599   0.448   0.758  0.00  0.00    -0.075 A 
ATOM      2  C4  UNL d   1       1.374   1.559   1.122  0.00  0.00     0.002 A 
ATOM      3  C5  UNL d   1       1.643   2.568   0.197  0.00  0.00     0.002 A 
ATOM      4  C6  UNL d   1       1.152   2.475  -1.103  0.00  0.00    -0.004 A 
ATOM      5  C7  UNL d   1       0.395   1.368  -1.480  0.00  0.00     0.002 A 
ATOM      6  C8  UNL d   1       0.120   0.359  -0.556  0.00  0.00     0.002 A 
ENDROOT
BRANCH   1   7
ATOM      7  C2  UNL d   1       0.280  -0.633   1.763  0.00  0.00     0.056 C 
BRANCH   7   8
ATOM      8  C1  UNL d   1      -1.024  -1.385   1.476  0.00  0.00     0.007 C 
ATOM      9  C   UNL d   1      -0.800  -2.802   0.966  0.00  0.00     0.009 C 
ENDBRANCH   7   8
ENDBRANCH   1   7
TORSDOF 2
ENDMDL
