MODEL 1
REMARK minimizedAffinity -4.9463954
REMARK minimizedRMSD -1
REMARK  2 active torsions:
REMARK  status: ('A' for Active; 'I' for Inactive)
REMARK    1  A    between atoms: C1_2  and  C2_3 
REMARK    2  A    between atoms: C2_3  and  C3_4 
ROOT
ATOM      1  C3  UNL d   1      -0.004  -1.162  -0.292  0.00  0.00    -0.075 A 
ATOM      2  C4  UNL d   1       0.583  -1.306  -1.557  0.00  0.00     0.002 A 
ATOM      3  C5  UNL d   1       0.869  -2.573  -2.066  0.00  0.00     0.002 A 
ATOM      4  C6  UNL d   1       0.582  -3.710  -1.313  0.00  0.00    -0.004 A 
ATOM      5  C7  UNL d   1       0.015  -3.578  -0.047  0.00  0.00     0.002 A 
ATOM      6  C8  UNL d   1      -0.277  -2.312   0.462  0.00  0.00     0.002 A 
ENDROOT
BRANCH   1   7
ATOM      7  C2  UNL d   1      -0.343   0.205   0.252  0.00  0.00     0.056 C 
BRANCH   7   8
ATOM      8  C1  UNL d   1       0.424   1.350  -0.418  0.00  0.00     0.007 C 
ATOM      9  C   UNL d   1       0.890   2.416   0.565  0.00  0.00     0.009 C 
ENDBRANCH   7   8
ENDBRANCH   1   7
TORSDOF 2
ENDMDL
