MODEL 1
REMARK minimizedAffinity -6.24624348
REMARK minimizedRMSD -1
REMARK  2 active torsions:
REMARK  status: ('A' for Active; 'I' for Inactive)
REMARK    1  A    between atoms: C1_2  and  C2_3 
REMARK    2  A    between atoms: C2_3  and  C3_4 
ROOT
ATOM      1  C3  UNL d   1       0.189  -0.138  -0.123  0.00  0.00    -0.075 A 
ATOM      2  C4  UNL d   1      -0.413  -0.804   0.955  0.00  0.00     0.002 A 
ATOM      3  C5  UNL d   1      -0.425  -2.198   1.008  0.00  0.00     0.002 A 
ATOM      4  C6  UNL d   1       0.153  -2.942  -0.018  0.00  0.00    -0.004 A 
ATOM      5  C7  UNL d   1       0.740  -2.291  -1.101  0.00  0.00     0.002 A 
ATOM      6  C8  UNL d   1       0.757  -0.896  -1.155  0.00  0.00     0.002 A 
ENDROOT
BRANCH   1   7
ATOM      7  C2  UNL d   1       0.232   1.371  -0.171  0.00  0.00     0.056 C 
BRANCH   7   8
ATOM      8  C1  UNL d   1       1.542   1.975   0.347  0.00  0.00     0.007 C 
ATOM      9  C   UNL d   1       1.567   3.496   0.285  0.00  0.00     0.009 C 
ENDBRANCH   7   8
ENDBRANCH   1   7
TORSDOF 2
ENDMDL
