MODEL 1
REMARK minimizedAffinity 4.22545147
REMARK minimizedRMSD -1
REMARK  0 active torsions:
REMARK  status: ('A' for Active; 'I' for Inactive)
ROOT
ATOM      1  C   UNL d   1      -3.360  -0.049  -0.777  0.00  0.00    -0.002 A 
ATOM      2  C1  UNL d   1      -2.680  -1.157  -1.262  0.00  0.00     0.010 A 
ATOM      3  C2  UNL d   1      -1.405  -1.472  -0.786  0.00  0.00     0.041 A 
ATOM      4  C3  UNL d   1      -0.821  -0.648   0.196  0.00  0.00    -0.075 A 
ATOM      5  S   UNL d   1       0.728  -0.841   0.927  0.00  0.00     0.015 SA
ATOM      6  C4  UNL d   1       0.523   0.543   1.901  0.00  0.00     0.022 A 
ATOM      7  C5  UNL d   1      -0.692   1.149   1.686  0.00  0.00     0.026 A 
ATOM      8  C6  UNL d   1      -1.487   0.472   0.701  0.00  0.00    -0.082 A 
ATOM      9  C7  UNL d   1      -2.778   0.766   0.198  0.00  0.00     0.045 A 
ENDROOT
TORSDOF 0
ENDMDL
