MODEL 1
REMARK minimizedAffinity 11.6336441
REMARK minimizedRMSD -1
REMARK  0 active torsions:
REMARK  status: ('A' for Active; 'I' for Inactive)
ROOT
ATOM      1  C   UNL d   1      -2.992  -1.277   4.530  0.00  0.00    -0.002 A 
ATOM      2  C1  UNL d   1      -3.848  -1.582   3.482  0.00  0.00     0.010 A 
ATOM      3  C2  UNL d   1      -3.556  -1.165   2.182  0.00  0.00     0.041 A 
ATOM      4  C3  UNL d   1      -2.375  -0.432   1.950  0.00  0.00    -0.075 A 
ATOM      5  S   UNL d   1      -1.811   0.182   0.441  0.00  0.00     0.015 SA
ATOM      6  C4  UNL d   1      -0.420   0.862   1.152  0.00  0.00     0.022 A 
ATOM      7  C5  UNL d   1      -0.371   0.636   2.507  0.00  0.00     0.026 A 
ATOM      8  C6  UNL d   1      -1.496  -0.114   2.990  0.00  0.00    -0.082 A 
ATOM      9  C7  UNL d   1      -1.822  -0.550   4.297  0.00  0.00     0.045 A 
ENDROOT
TORSDOF 0
ENDMDL
