MODEL 1
REMARK minimizedAffinity 13.0186014
REMARK minimizedRMSD -1
REMARK  0 active torsions:
REMARK  status: ('A' for Active; 'I' for Inactive)
ROOT
ATOM      1  C   UNL d   1       2.914   0.884  -3.311  0.00  0.00    -0.002 A 
ATOM      2  C1  UNL d   1       1.536   0.953  -3.459  0.00  0.00     0.010 A 
ATOM      3  C2  UNL d   1       0.836  -0.079  -4.087  0.00  0.00     0.041 A 
ATOM      4  C3  UNL d   1       1.551  -1.194  -4.567  0.00  0.00    -0.075 A 
ATOM      5  S   UNL d   1       0.905  -2.577  -5.368  0.00  0.00     0.015 SA
ATOM      6  C4  UNL d   1       2.442  -3.293  -5.532  0.00  0.00     0.022 A 
ATOM      7  C5  UNL d   1       3.436  -2.510  -4.994  0.00  0.00     0.026 A 
ATOM      8  C6  UNL d   1       2.939  -1.287  -4.429  0.00  0.00    -0.082 A 
ATOM      9  C7  UNL d   1       3.620  -0.224  -3.789  0.00  0.00     0.045 A 
ENDROOT
TORSDOF 0
ENDMDL
