MODEL 1
REMARK minimizedAffinity 6.78947687
REMARK minimizedRMSD -1
REMARK  0 active torsions:
REMARK  status: ('A' for Active; 'I' for Inactive)
ROOT
ATOM      1  C   UNL d   1       0.991   1.045  -4.418  0.00  0.00    -0.002 A 
ATOM      2  C1  UNL d   1      -0.019   0.099  -4.520  0.00  0.00     0.010 A 
ATOM      3  C2  UNL d   1      -0.310  -0.747  -3.448  0.00  0.00     0.041 A 
ATOM      4  C3  UNL d   1       0.437  -0.623  -2.260  0.00  0.00    -0.075 A 
ATOM      5  S   UNL d   1       0.257  -1.551  -0.818  0.00  0.00     0.015 SA
ATOM      6  C4  UNL d   1       1.516  -0.712  -0.032  0.00  0.00     0.022 A 
ATOM      7  C5  UNL d   1       2.071   0.255  -0.836  0.00  0.00     0.026 A 
ATOM      8  C6  UNL d   1       1.458   0.322  -2.133  0.00  0.00    -0.082 A 
ATOM      9  C7  UNL d   1       1.730   1.165  -3.238  0.00  0.00     0.045 A 
ENDROOT
TORSDOF 0
ENDMDL
