MODEL 1
REMARK minimizedAffinity 5.33069563
REMARK minimizedRMSD -1
REMARK  0 active torsions:
REMARK  status: ('A' for Active; 'I' for Inactive)
ROOT
ATOM      1  C   UNL d   1       2.085   0.400   1.876  0.00  0.00    -0.002 A 
ATOM      2  C1  UNL d   1       1.756  -0.851   1.374  0.00  0.00     0.010 A 
ATOM      3  C2  UNL d   1       1.561  -1.038   0.004  0.00  0.00     0.041 A 
ATOM      4  C3  UNL d   1       1.705   0.064  -0.861  0.00  0.00    -0.075 A 
ATOM      5  S   UNL d   1       1.515   0.071  -2.575  0.00  0.00     0.015 SA
ATOM      6  C4  UNL d   1       1.866   1.735  -2.682  0.00  0.00     0.022 A 
ATOM      7  C5  UNL d   1       2.125   2.288  -1.450  0.00  0.00     0.026 A 
ATOM      8  C6  UNL d   1       2.037   1.333  -0.380  0.00  0.00    -0.082 A 
ATOM      9  C7  UNL d   1       2.227   1.491   1.014  0.00  0.00     0.045 A 
ENDROOT
TORSDOF 0
ENDMDL
