MODEL 1
REMARK minimizedAffinity 9.39100933
REMARK minimizedRMSD -1
REMARK  0 active torsions:
REMARK  status: ('A' for Active; 'I' for Inactive)
ROOT
ATOM      1  C   UNL d   1       1.982   1.075  -4.224  0.00  0.00    -0.002 A 
ATOM      2  C1  UNL d   1       0.907   0.378  -4.756  0.00  0.00     0.010 A 
ATOM      3  C2  UNL d   1       0.290  -0.640  -4.028  0.00  0.00     0.041 A 
ATOM      4  C3  UNL d   1       0.775  -0.948  -2.741  0.00  0.00    -0.075 A 
ATOM      5  S   UNL d   1       0.175  -2.155  -1.666  0.00  0.00     0.015 SA
ATOM      6  C4  UNL d   1       1.332  -1.774  -0.474  0.00  0.00     0.022 A 
ATOM      7  C5  UNL d   1       2.163  -0.753  -0.870  0.00  0.00     0.026 A 
ATOM      8  C6  UNL d   1       1.856  -0.260  -2.183  0.00  0.00    -0.082 A 
ATOM      9  C7  UNL d   1       2.461   0.766  -2.947  0.00  0.00     0.045 A 
ENDROOT
TORSDOF 0
ENDMDL
