MODEL 1
REMARK minimizedAffinity 7.69327354
REMARK minimizedRMSD -1
REMARK  1 active torsions:
REMARK  status: ('A' for Active; 'I' for Inactive)
REMARK    1  A    between atoms: C1_2  and  C2_3 
ROOT
ATOM      1  C2  UNL d   1       0.857   1.718   2.388  0.00  0.00    -0.073 A 
ATOM      2  C3  UNL d   1       1.821   1.759   3.402  0.00  0.00    -0.002 A 
ATOM      3  C4  UNL d   1       2.465   2.957   3.715  0.00  0.00     0.004 A 
ATOM      4  C5  UNL d   1       2.147   4.126   3.023  0.00  0.00    -0.004 A 
ATOM      5  C6  UNL d   1       1.178   4.107   2.014  0.00  0.00    -0.075 A 
ATOM      6  C7  UNL d   1       0.827   5.355   1.259  0.00  0.00     0.076 C 
ATOM      7  C8  UNL d   1       0.538   2.900   1.704  0.00  0.00     0.001 A 
ENDROOT
BRANCH   1   8
ATOM      8  C1  UNL d   1       0.155   0.428   2.052  0.00  0.00     0.053 C 
ATOM      9  C   UNL d   1       0.291   0.072   0.580  0.00  0.00     0.018 C 
ENDBRANCH   1   8
TORSDOF 1
ENDMDL
