MODEL 1
REMARK minimizedAffinity 10.6515875
REMARK minimizedRMSD -1
REMARK  1 active torsions:
REMARK  status: ('A' for Active; 'I' for Inactive)
REMARK    1  A    between atoms: C1_2  and  C2_3 
ROOT
ATOM      1  C2  UNL d   1       0.314   2.387   1.116  0.00  0.00    -0.073 A 
ATOM      2  C3  UNL d   1       0.276   3.624   0.464  0.00  0.00    -0.002 A 
ATOM      3  C4  UNL d   1       0.978   4.715   0.979  0.00  0.00     0.004 A 
ATOM      4  C5  UNL d   1       1.731   4.578   2.145  0.00  0.00    -0.004 A 
ATOM      5  C6  UNL d   1       1.791   3.346   2.805  0.00  0.00    -0.075 A 
ATOM      6  C7  UNL d   1       2.594   3.182   4.062  0.00  0.00     0.076 C 
ATOM      7  C8  UNL d   1       1.081   2.256   2.283  0.00  0.00     0.001 A 
ENDROOT
BRANCH   1   8
ATOM      8  C1  UNL d   1      -0.438   1.205   0.561  0.00  0.00     0.053 C 
ATOM      9  C   UNL d   1       0.499   0.137   0.019  0.00  0.00     0.018 C 
ENDBRANCH   1   8
TORSDOF 1
ENDMDL
