MODEL 1
REMARK minimizedAffinity -3.08780503
REMARK minimizedRMSD -1
REMARK  1 active torsions:
REMARK  status: ('A' for Active; 'I' for Inactive)
REMARK    1  A    between atoms: C1_2  and  C2_3 
ROOT
ATOM      1  C2  UNL d   1      -0.424   1.526   0.682  0.00  0.00    -0.073 A 
ATOM      2  C3  UNL d   1      -1.367   2.542   0.484  0.00  0.00    -0.002 A 
ATOM      3  C4  UNL d   1      -1.252   3.753   1.168  0.00  0.00     0.004 A 
ATOM      4  C5  UNL d   1      -0.192   3.964   2.049  0.00  0.00    -0.004 A 
ATOM      5  C6  UNL d   1       0.767   2.966   2.251  0.00  0.00    -0.075 A 
ATOM      6  C7  UNL d   1       1.913   3.176   3.197  0.00  0.00     0.076 C 
ATOM      7  C8  UNL d   1       0.644   1.751   1.563  0.00  0.00     0.001 A 
ENDROOT
BRANCH   1   8
ATOM      8  C1  UNL d   1      -0.540   0.219  -0.059  0.00  0.00     0.053 C 
ATOM      9  C   UNL d   1       0.545  -0.765   0.349  0.00  0.00     0.018 C 
ENDBRANCH   1   8
TORSDOF 1
ENDMDL
