MODEL 1
REMARK minimizedAffinity -4.74440813
REMARK minimizedRMSD -1
REMARK  1 active torsions:
REMARK  status: ('A' for Active; 'I' for Inactive)
REMARK    1  A    between atoms: C1_2  and  C2_3 
ROOT
ATOM      1  C2  UNL d   1      -0.403   0.822   0.485  0.00  0.00    -0.073 A 
ATOM      2  C3  UNL d   1      -1.449   1.657   0.076  0.00  0.00    -0.002 A 
ATOM      3  C4  UNL d   1      -1.487   2.991   0.484  0.00  0.00     0.004 A 
ATOM      4  C5  UNL d   1      -0.478   3.506   1.297  0.00  0.00    -0.004 A 
ATOM      5  C6  UNL d   1       0.583   2.691   1.706  0.00  0.00    -0.075 A 
ATOM      6  C7  UNL d   1       1.675   3.229   2.582  0.00  0.00     0.076 C 
ATOM      7  C8  UNL d   1       0.612   1.351   1.295  0.00  0.00     0.001 A 
ENDROOT
BRANCH   1   8
ATOM      8  C1  UNL d   1      -0.354  -0.617   0.042  0.00  0.00     0.053 C 
ATOM      9  C   UNL d   1       0.959  -0.958  -0.644  0.00  0.00     0.018 C 
ENDBRANCH   1   8
TORSDOF 1
ENDMDL
