MODEL 1
REMARK minimizedAffinity 3.93540812
REMARK minimizedRMSD -1
REMARK  1 active torsions:
REMARK  status: ('A' for Active; 'I' for Inactive)
REMARK    1  A    between atoms: C1_2  and  C2_3 
ROOT
ATOM      1  C2  UNL d   1      -0.645   0.197  -0.203  0.00  0.00    -0.073 A 
ATOM      2  C3  UNL d   1      -0.265   0.379  -1.538  0.00  0.00    -0.002 A 
ATOM      3  C4  UNL d   1       1.018   0.030  -1.960  0.00  0.00     0.004 A 
ATOM      4  C5  UNL d   1       1.932  -0.510  -1.056  0.00  0.00    -0.004 A 
ATOM      5  C6  UNL d   1       1.568  -0.711   0.280  0.00  0.00    -0.075 A 
ATOM      6  C7  UNL d   1       2.540  -1.289   1.266  0.00  0.00     0.076 C 
ATOM      7  C8  UNL d   1       0.278  -0.356   0.697  0.00  0.00     0.001 A 
ENDROOT
BRANCH   1   8
ATOM      8  C1  UNL d   1      -2.031   0.566   0.256  0.00  0.00     0.053 C 
ATOM      9  C   UNL d   1      -2.963   0.848  -0.913  0.00  0.00     0.018 C 
ENDBRANCH   1   8
TORSDOF 1
ENDMDL
