MODEL 1
REMARK minimizedAffinity -1.017331
REMARK minimizedRMSD -1
REMARK  1 active torsions:
REMARK  status: ('A' for Active; 'I' for Inactive)
REMARK    1  A    between atoms: C1_2  and  C2_3 
ROOT
ATOM      1  C2  UNL d   1       0.470   1.547   0.370  0.00  0.00    -0.073 A 
ATOM      2  C3  UNL d   1       0.726   1.903   1.699  0.00  0.00    -0.002 A 
ATOM      3  C4  UNL d   1       0.923   3.241   2.045  0.00  0.00     0.004 A 
ATOM      4  C5  UNL d   1       0.859   4.235   1.069  0.00  0.00    -0.004 A 
ATOM      5  C6  UNL d   1       0.593   3.900  -0.263  0.00  0.00    -0.075 A 
ATOM      6  C7  UNL d   1       0.523   4.957  -1.325  0.00  0.00     0.076 C 
ATOM      7  C8  UNL d   1       0.398   2.554  -0.602  0.00  0.00     0.001 A 
ENDROOT
BRANCH   1   8
ATOM      8  C1  UNL d   1       0.250   0.105  -0.007  0.00  0.00     0.053 C 
ATOM      9  C   UNL d   1       1.453  -0.487  -0.725  0.00  0.00     0.018 C 
ENDBRANCH   1   8
TORSDOF 1
ENDMDL
