MODEL 1
REMARK minimizedAffinity 0.467965096
REMARK minimizedRMSD -1
REMARK  1 active torsions:
REMARK  status: ('A' for Active; 'I' for Inactive)
REMARK    1  A    between atoms: C1_2  and  C2_3 
ROOT
ATOM      1  C2  UNL d   1       1.821   4.863   0.516  0.00  0.00    -0.073 A 
ATOM      2  C3  UNL d   1       0.739   4.048   0.163  0.00  0.00    -0.002 A 
ATOM      3  C4  UNL d   1       0.345   3.001   0.997  0.00  0.00     0.004 A 
ATOM      4  C5  UNL d   1       1.022   2.763   2.193  0.00  0.00    -0.004 A 
ATOM      5  C6  UNL d   1       2.097   3.574   2.569  0.00  0.00    -0.075 A 
ATOM      6  C7  UNL d   1       2.837   3.330   3.851  0.00  0.00     0.076 C 
ATOM      7  C8  UNL d   1       2.489   4.622   1.725  0.00  0.00     0.001 A 
ENDROOT
BRANCH   1   8
ATOM      8  C1  UNL d   1       2.247   5.999  -0.378  0.00  0.00     0.053 C 
ATOM      9  C   UNL d   1       1.492   5.999  -1.698  0.00  0.00     0.018 C 
ENDBRANCH   1   8
TORSDOF 1
ENDMDL
