MODEL 1
REMARK minimizedAffinity -1.2201184
REMARK minimizedRMSD -1
REMARK  0 active torsions:
REMARK  status: ('A' for Active; 'I' for Inactive)
ROOT
ATOM      1  C2' OXE d   1       0.090   0.076  -0.722  0.00  0.00     0.078 C 
ATOM      2  C1' OXE d   1       0.882  -0.173   1.959  0.00  0.00     0.078 C 
ATOM      3  C1  OXE d   1       0.686   1.218   1.411  0.00  0.00    -0.078 A 
ATOM      4  C2  OXE d   1       0.344   1.332   0.085  0.00  0.00    -0.078 A 
ATOM      5  C3  OXE d   1       0.097   2.590  -0.458  0.00  0.00     0.003 A 
ATOM      6  C4  OXE d   1       0.343   3.746   0.292  0.00  0.00    -0.002 A 
ATOM      7  C5  OXE d   1       0.731   3.653   1.633  0.00  0.00    -0.002 A 
ATOM      8  C6  OXE d   1       0.865   2.399   2.218  0.00  0.00     0.003 A 
ENDROOT
TORSDOF 0
ENDMDL
