MODEL 1
REMARK minimizedAffinity 1.19167995
REMARK minimizedRMSD -1
REMARK  0 active torsions:
REMARK  status: ('A' for Active; 'I' for Inactive)
ROOT
ATOM      1  C2' OXE d   1       0.855   3.744   0.302  0.00  0.00     0.078 C 
ATOM      2  C1' OXE d   1       1.743   2.799   2.791  0.00  0.00     0.078 C 
ATOM      3  C1  OXE d   1       1.048   1.823   1.875  0.00  0.00    -0.078 A 
ATOM      4  C2  OXE d   1       0.575   2.305   0.679  0.00  0.00    -0.078 A 
ATOM      5  C3  OXE d   1      -0.025   1.435  -0.227  0.00  0.00     0.003 A 
ATOM      6  C4  OXE d   1      -0.289   0.108   0.134  0.00  0.00    -0.002 A 
ATOM      7  C5  OXE d   1       0.149  -0.394   1.364  0.00  0.00    -0.002 A 
ATOM      8  C6  OXE d   1       0.855   0.438   2.227  0.00  0.00     0.003 A 
ENDROOT
TORSDOF 0
ENDMDL
