MODEL 1
REMARK minimizedAffinity 4.13932562
REMARK minimizedRMSD -1
REMARK  0 active torsions:
REMARK  status: ('A' for Active; 'I' for Inactive)
ROOT
ATOM      1  C2' OXE d   1      -0.390   2.705   1.425  0.00  0.00     0.078 C 
ATOM      2  C1' OXE d   1      -0.593   4.779  -0.457  0.00  0.00     0.078 C 
ATOM      3  C1  OXE d   1      -0.520   3.364  -0.974  0.00  0.00    -0.078 A 
ATOM      4  C2  OXE d   1      -0.373   2.359  -0.048  0.00  0.00    -0.078 A 
ATOM      5  C3  OXE d   1      -0.355   1.032  -0.468  0.00  0.00     0.003 A 
ATOM      6  C4  OXE d   1      -0.330   0.721  -1.833  0.00  0.00    -0.002 A 
ATOM      7  C5  OXE d   1      -0.439   1.732  -2.794  0.00  0.00    -0.002 A 
ATOM      8  C6  OXE d   1      -0.577   3.052  -2.381  0.00  0.00     0.003 A 
ENDROOT
TORSDOF 0
ENDMDL
