MODEL 1
REMARK minimizedAffinity 0.570963562
REMARK minimizedRMSD -1
REMARK  0 active torsions:
REMARK  status: ('A' for Active; 'I' for Inactive)
ROOT
ATOM      1  C2' OXE d   1      -1.888   5.016   1.212  0.00  0.00     0.078 C 
ATOM      2  C1' OXE d   1      -0.897   3.528  -0.952  0.00  0.00     0.078 C 
ATOM      3  C1  OXE d   1      -0.823   2.908   0.420  0.00  0.00    -0.078 A 
ATOM      4  C2  OXE d   1      -1.267   3.662   1.480  0.00  0.00    -0.078 A 
ATOM      5  C3  OXE d   1      -1.271   3.116   2.761  0.00  0.00     0.003 A 
ATOM      6  C4  OXE d   1      -0.686   1.867   3.001  0.00  0.00    -0.002 A 
ATOM      7  C5  OXE d   1      -0.191   1.099   1.941  0.00  0.00    -0.002 A 
ATOM      8  C6  OXE d   1      -0.291   1.586   0.643  0.00  0.00     0.003 A 
ENDROOT
TORSDOF 0
ENDMDL
