MODEL 1
REMARK minimizedAffinity -1.35645545
REMARK minimizedRMSD -1
REMARK  0 active torsions:
REMARK  status: ('A' for Active; 'I' for Inactive)
ROOT
ATOM      1  C2' OXE d   1      -0.719   2.200   1.919  0.00  0.00     0.078 C 
ATOM      2  C1' OXE d   1      -1.385   4.549   0.533  0.00  0.00     0.078 C 
ATOM      3  C1  OXE d   1      -1.180   3.291  -0.273  0.00  0.00    -0.078 A 
ATOM      4  C2  OXE d   1      -0.809   2.157   0.409  0.00  0.00    -0.078 A 
ATOM      5  C3  OXE d   1      -0.661   0.956  -0.280  0.00  0.00     0.003 A 
ATOM      6  C4  OXE d   1      -0.737   0.926  -1.677  0.00  0.00    -0.002 A 
ATOM      7  C5  OXE d   1      -1.075   2.079  -2.395  0.00  0.00    -0.002 A 
ATOM      8  C6  OXE d   1      -1.341   3.257  -1.706  0.00  0.00     0.003 A 
ENDROOT
TORSDOF 0
ENDMDL
