MODEL 1
REMARK minimizedAffinity 7.21554852
REMARK minimizedRMSD -1
REMARK  0 active torsions:
REMARK  status: ('A' for Active; 'I' for Inactive)
ROOT
ATOM      1  C2' OXE d   1       1.615   3.000   1.980  0.00  0.00     0.078 C 
ATOM      2  C1' OXE d   1      -0.943   3.744   1.095  0.00  0.00     0.078 C 
ATOM      3  C1  OXE d   1      -0.827   2.507   1.950  0.00  0.00    -0.078 A 
ATOM      4  C2  OXE d   1       0.434   2.124   2.340  0.00  0.00    -0.078 A 
ATOM      5  C3  OXE d   1       0.592   1.022   3.176  0.00  0.00     0.003 A 
ATOM      6  C4  OXE d   1      -0.504   0.212   3.496  0.00  0.00    -0.002 A 
ATOM      7  C5  OXE d   1      -1.792   0.562   3.076  0.00  0.00    -0.002 A 
ATOM      8  C6  OXE d   1      -1.976   1.727   2.340  0.00  0.00     0.003 A 
ENDROOT
TORSDOF 0
ENDMDL
