MODEL 1
REMARK minimizedAffinity -1.62042379
REMARK minimizedRMSD -1
REMARK  0 active torsions:
REMARK  status: ('A' for Active; 'I' for Inactive)
ROOT
ATOM      1  C2' OXE d   1      -2.003   2.308   2.527  0.00  0.00     0.078 C 
ATOM      2  C1' OXE d   1      -1.905   3.566   0.019  0.00  0.00     0.078 C 
ATOM      3  C1  OXE d   1      -0.663   3.603   0.874  0.00  0.00    -0.078 A 
ATOM      4  C2  OXE d   1      -0.734   3.025   2.119  0.00  0.00    -0.078 A 
ATOM      5  C3  OXE d   1       0.399   2.984   2.926  0.00  0.00     0.003 A 
ATOM      6  C4  OXE d   1       1.566   3.658   2.545  0.00  0.00    -0.002 A 
ATOM      7  C5  OXE d   1       1.647   4.286   1.298  0.00  0.00    -0.002 A 
ATOM      8  C6  OXE d   1       0.558   4.231   0.434  0.00  0.00     0.003 A 
ENDROOT
TORSDOF 0
ENDMDL
