MODEL 1
REMARK minimizedAffinity 3.22930574
REMARK minimizedRMSD -1
REMARK  0 active torsions:
REMARK  status: ('A' for Active; 'I' for Inactive)
ROOT
ATOM      1  C2' OXE d   1      -2.513   4.508   1.284  0.00  0.00     0.078 C 
ATOM      2  C1' OXE d   1      -1.000   2.314   2.165  0.00  0.00     0.078 C 
ATOM      3  C1  OXE d   1      -0.860   2.730   0.722  0.00  0.00    -0.078 A 
ATOM      4  C2  OXE d   1      -1.640   3.776   0.288  0.00  0.00    -0.078 A 
ATOM      5  C3  OXE d   1      -1.510   4.235  -1.020  0.00  0.00     0.003 A 
ATOM      6  C4  OXE d   1      -0.708   3.546  -1.937  0.00  0.00    -0.002 A 
ATOM      7  C5  OXE d   1       0.064   2.454  -1.525  0.00  0.00    -0.002 A 
ATOM      8  C6  OXE d   1       0.031   2.061  -0.192  0.00  0.00     0.003 A 
ENDROOT
TORSDOF 0
ENDMDL
