MODEL 1
REMARK minimizedAffinity 2.49936223
REMARK minimizedRMSD -1
REMARK  0 active torsions:
REMARK  status: ('A' for Active; 'I' for Inactive)
ROOT
ATOM      1  C2' OXE d   1      -1.822   2.391   2.524  0.00  0.00     0.078 C 
ATOM      2  C1' OXE d   1      -1.616   3.466  -0.061  0.00  0.00     0.078 C 
ATOM      3  C1  OXE d   1      -0.410   3.564   0.840  0.00  0.00    -0.078 A 
ATOM      4  C2  OXE d   1      -0.535   3.077   2.119  0.00  0.00    -0.078 A 
ATOM      5  C3  OXE d   1       0.564   3.092   2.973  0.00  0.00     0.003 A 
ATOM      6  C4  OXE d   1       1.747   3.737   2.594  0.00  0.00    -0.002 A 
ATOM      7  C5  OXE d   1       1.882   4.275   1.309  0.00  0.00    -0.002 A 
ATOM      8  C6  OXE d   1       0.830   4.159   0.408  0.00  0.00     0.003 A 
ENDROOT
TORSDOF 0
ENDMDL
