MODEL 1
REMARK minimizedAffinity 3.74799705
REMARK minimizedRMSD -1
REMARK  0 active torsions:
REMARK  status: ('A' for Active; 'I' for Inactive)
ROOT
ATOM      1  C2' OXE d   1      -0.082   0.571   2.347  0.00  0.00     0.078 C 
ATOM      2  C1' OXE d   1       2.232  -1.016   2.281  0.00  0.00     0.078 C 
ATOM      3  C1  OXE d   1       1.600  -0.639   0.964  0.00  0.00    -0.078 A 
ATOM      4  C2  OXE d   1       0.442   0.099   1.007  0.00  0.00    -0.078 A 
ATOM      5  C3  OXE d   1      -0.152   0.520  -0.179  0.00  0.00     0.003 A 
ATOM      6  C4  OXE d   1       0.334   0.071  -1.413  0.00  0.00    -0.002 A 
ATOM      7  C5  OXE d   1       1.490  -0.714  -1.478  0.00  0.00    -0.002 A 
ATOM      8  C6  OXE d   1       2.158  -1.042  -0.303  0.00  0.00     0.003 A 
ENDROOT
TORSDOF 0
ENDMDL
