MODEL 1
REMARK minimizedAffinity -2.02212858
REMARK minimizedRMSD -1
REMARK  0 active torsions:
REMARK  status: ('A' for Active; 'I' for Inactive)
ROOT
ATOM      1  N1  IND d   1      -1.881  -0.238   2.976  0.00  0.00    -0.196 N 
ATOM      2  C2  IND d   1      -2.870  -1.014   2.437  0.00  0.00     0.054 A 
ATOM      3  C3  IND d   1      -2.641  -1.220   1.121  0.00  0.00    -0.031 A 
ATOM      4  C4  IND d   1      -0.654  -0.466  -0.332  0.00  0.00     0.051 A 
ATOM      5  C5  IND d   1       0.480   0.295  -0.294  0.00  0.00    -0.031 A 
ATOM      6  C6  IND d   1       0.896   0.928   0.860  0.00  0.00     0.015 A 
ATOM      7  C7  IND d   1       0.195   0.813   2.027  0.00  0.00    -0.016 A 
ATOM      8  C8  IND d   1      -0.962   0.047   1.990  0.00  0.00    -0.047 A 
ATOM      9  C9  IND d   1      -1.411  -0.563   0.812  0.00  0.00    -0.096 A 
ATOM     10  HN1 IND d   1      -1.840   0.027   3.793  0.00  0.00     0.298 HD
ENDROOT
TORSDOF 0
ENDMDL
