MODEL 1
REMARK minimizedAffinity -3.70777702
REMARK minimizedRMSD -1
REMARK  0 active torsions:
REMARK  status: ('A' for Active; 'I' for Inactive)
ROOT
ATOM      1  N1  IND d   1      -1.198  -0.264  -0.981  0.00  0.00    -0.196 N 
ATOM      2  C2  IND d   1      -0.033  -0.567  -1.629  0.00  0.00     0.054 A 
ATOM      3  C3  IND d   1       1.031  -0.202  -0.879  0.00  0.00    -0.031 A 
ATOM      4  C4  IND d   1       1.093   0.815   1.485  0.00  0.00     0.051 A 
ATOM      5  C5  IND d   1       0.281   1.305   2.469  0.00  0.00    -0.031 A 
ATOM      6  C6  IND d   1      -1.094   1.295   2.351  0.00  0.00     0.015 A 
ATOM      7  C7  IND d   1      -1.710   0.781   1.246  0.00  0.00    -0.016 A 
ATOM      8  C8  IND d   1      -0.888   0.289   0.242  0.00  0.00    -0.047 A 
ATOM      9  C9  IND d   1       0.508   0.336   0.337  0.00  0.00    -0.096 A 
ATOM     10  HN1 IND d   1      -1.991  -0.396  -1.287  0.00  0.00     0.298 HD
ENDROOT
TORSDOF 0
ENDMDL
