MODEL 1
REMARK minimizedAffinity -3.05100441
REMARK minimizedRMSD -1
REMARK  0 active torsions:
REMARK  status: ('A' for Active; 'I' for Inactive)
ROOT
ATOM      1  N1  IND d   1      -1.348   0.977   1.948  0.00  0.00    -0.196 N 
ATOM      2  C2  IND d   1      -0.434   1.399   2.873  0.00  0.00     0.054 A 
ATOM      3  C3  IND d   1       0.816   1.056   2.489  0.00  0.00    -0.031 A 
ATOM      4  C4  IND d   1       1.603  -0.110   0.333  0.00  0.00     0.051 A 
ATOM      5  C5  IND d   1       1.131  -0.718  -0.797  0.00  0.00    -0.031 A 
ATOM      6  C6  IND d   1      -0.218  -0.791  -1.076  0.00  0.00     0.015 A 
ATOM      7  C7  IND d   1      -1.149  -0.246  -0.238  0.00  0.00    -0.016 A 
ATOM      8  C8  IND d   1      -0.675   0.365   0.913  0.00  0.00    -0.047 A 
ATOM      9  C9  IND d   1       0.691   0.405   1.224  0.00  0.00    -0.096 A 
ATOM     10  HN1 IND d   1      -2.201   1.076   2.003  0.00  0.00     0.298 HD
ENDROOT
TORSDOF 0
ENDMDL
