MODEL 1
REMARK minimizedAffinity -0.800474107
REMARK minimizedRMSD -1
REMARK  0 active torsions:
REMARK  status: ('A' for Active; 'I' for Inactive)
ROOT
ATOM      1  N1  IND d   1       2.437  -1.006   1.312  0.00  0.00    -0.196 N 
ATOM      2  C2  IND d   1       2.228  -0.192   2.391  0.00  0.00     0.054 A 
ATOM      3  C3  IND d   1       1.167   0.616   2.172  0.00  0.00    -0.031 A 
ATOM      4  C4  IND d   1      -0.435   0.703   0.158  0.00  0.00     0.051 A 
ATOM      5  C5  IND d   1      -0.628   0.177  -1.088  0.00  0.00    -0.031 A 
ATOM      6  C6  IND d   1       0.206  -0.792  -1.608  0.00  0.00     0.015 A 
ATOM      7  C7  IND d   1       1.262  -1.281  -0.892  0.00  0.00    -0.016 A 
ATOM      8  C8  IND d   1       1.465  -0.744   0.371  0.00  0.00    -0.047 A 
ATOM      9  C9  IND d   1       0.647   0.270   0.887  0.00  0.00    -0.096 A 
ATOM     10  HN1 IND d   1       3.068  -1.584   1.235  0.00  0.00     0.298 HD
ENDROOT
TORSDOF 0
ENDMDL
