MODEL 1
REMARK minimizedAffinity -1.44665313
REMARK minimizedRMSD -1
REMARK  0 active torsions:
REMARK  status: ('A' for Active; 'I' for Inactive)
ROOT
ATOM      1  N1  IND d   1       2.032  -0.251  -0.167  0.00  0.00    -0.196 N 
ATOM      2  C2  IND d   1       1.756  -0.876  -1.351  0.00  0.00     0.054 A 
ATOM      3  C3  IND d   1       0.423  -0.882  -1.580  0.00  0.00    -0.031 A 
ATOM      4  C4  IND d   1      -1.479   0.164  -0.197  0.00  0.00     0.051 A 
ATOM      5  C5  IND d   1      -1.724   0.808   0.984  0.00  0.00    -0.031 A 
ATOM      6  C6  IND d   1      -0.709   1.141   1.857  0.00  0.00     0.015 A 
ATOM      7  C7  IND d   1       0.596   0.851   1.576  0.00  0.00    -0.016 A 
ATOM      8  C8  IND d   1       0.848   0.191   0.382  0.00  0.00    -0.047 A 
ATOM      9  C9  IND d   1      -0.182  -0.187  -0.489  0.00  0.00    -0.096 A 
ATOM     10  HN1 IND d   1       2.813  -0.151   0.178  0.00  0.00     0.298 HD
ENDROOT
TORSDOF 0
ENDMDL
