MODEL 1
REMARK minimizedAffinity -4.99364519
REMARK minimizedRMSD -1
REMARK  0 active torsions:
REMARK  status: ('A' for Active; 'I' for Inactive)
ROOT
ATOM      1  N1  IND d   1       0.944  -0.092   0.052  0.00  0.00    -0.196 N 
ATOM      2  C2  IND d   1       0.497  -0.379  -1.208  0.00  0.00     0.054 A 
ATOM      3  C3  IND d   1      -0.854  -0.428  -1.228  0.00  0.00    -0.031 A 
ATOM      4  C4  IND d   1      -2.536   0.031   0.666  0.00  0.00     0.051 A 
ATOM      5  C5  IND d   1      -2.604   0.295   2.005  0.00  0.00    -0.031 A 
ATOM      6  C6  IND d   1      -1.471   0.449   2.777  0.00  0.00     0.015 A 
ATOM      7  C7  IND d   1      -0.221   0.356   2.233  0.00  0.00    -0.016 A 
ATOM      8  C8  IND d   1      -0.147   0.081   0.875  0.00  0.00    -0.047 A 
ATOM      9  C9  IND d   1      -1.294  -0.119   0.095  0.00  0.00    -0.096 A 
ATOM     10  HN1 IND d   1       1.768  -0.031   0.290  0.00  0.00     0.298 HD
ENDROOT
TORSDOF 0
ENDMDL
