MODEL 1
REMARK minimizedAffinity -4.57143402
REMARK minimizedRMSD -1
REMARK  0 active torsions:
REMARK  status: ('A' for Active; 'I' for Inactive)
ROOT
ATOM      1  N1  IND d   1      -1.489   1.281   2.149  0.00  0.00    -0.196 N 
ATOM      2  C2  IND d   1      -0.270   1.803   2.483  0.00  0.00     0.054 A 
ATOM      3  C3  IND d   1       0.691   1.312   1.669  0.00  0.00    -0.031 A 
ATOM      4  C4  IND d   1       0.475  -0.280  -0.342  0.00  0.00     0.051 A 
ATOM      5  C5  IND d   1      -0.432  -1.051  -1.014  0.00  0.00    -0.031 A 
ATOM      6  C6  IND d   1      -1.765  -1.082  -0.660  0.00  0.00     0.015 A 
ATOM      7  C7  IND d   1      -2.245  -0.332   0.376  0.00  0.00    -0.016 A 
ATOM      8  C8  IND d   1      -1.325   0.447   1.065  0.00  0.00    -0.047 A 
ATOM      9  C9  IND d   1       0.037   0.450   0.737  0.00  0.00    -0.096 A 
ATOM     10  HN1 IND d   1      -2.232   1.446   2.548  0.00  0.00     0.298 HD
ENDROOT
TORSDOF 0
ENDMDL
