MODEL 1
REMARK minimizedAffinity 18.0107632
REMARK minimizedRMSD -1
REMARK  0 active torsions:
REMARK  status: ('A' for Active; 'I' for Inactive)
ROOT
ATOM      1  N1  IND d   1      -2.563   2.560  -0.811  0.00  0.00    -0.196 N 
ATOM      2  C2  IND d   1      -1.474   2.538   0.016  0.00  0.00     0.054 A 
ATOM      3  C3  IND d   1      -1.469   3.627   0.817  0.00  0.00    -0.031 A 
ATOM      4  C4  IND d   1      -3.202   5.521   1.013  0.00  0.00     0.051 A 
ATOM      5  C5  IND d   1      -4.348   5.995   0.441  0.00  0.00    -0.031 A 
ATOM      6  C6  IND d   1      -4.973   5.334  -0.597  0.00  0.00     0.015 A 
ATOM      7  C7  IND d   1      -4.478   4.162  -1.096  0.00  0.00    -0.016 A 
ATOM      8  C8  IND d   1      -3.309   3.681  -0.522  0.00  0.00    -0.047 A 
ATOM      9  C9  IND d   1      -2.648   4.370   0.503  0.00  0.00    -0.096 A 
ATOM     10  HN1 IND d   1      -2.750   1.972  -1.410  0.00  0.00     0.298 HD
ENDROOT
TORSDOF 0
ENDMDL
