MODEL 1
REMARK minimizedAffinity 12.5563774
REMARK minimizedRMSD -1
REMARK  0 active torsions:
REMARK  status: ('A' for Active; 'I' for Inactive)
ROOT
ATOM      1  N1  IND d   1      -3.154   0.073   5.040  0.00  0.00    -0.196 N 
ATOM      2  C2  IND d   1      -2.186   0.558   4.206  0.00  0.00     0.054 A 
ATOM      3  C3  IND d   1      -2.471   1.829   3.845  0.00  0.00    -0.031 A 
ATOM      4  C4  IND d   1      -4.418   3.343   4.584  0.00  0.00     0.051 A 
ATOM      5  C5  IND d   1      -5.575   3.331   5.310  0.00  0.00    -0.031 A 
ATOM      6  C6  IND d   1      -5.992   2.211   6.000  0.00  0.00     0.015 A 
ATOM      7  C7  IND d   1      -5.258   1.059   5.998  0.00  0.00    -0.016 A 
ATOM      8  C8  IND d   1      -4.085   1.065   5.256  0.00  0.00    -0.047 A 
ATOM      9  C9  IND d   1      -3.679   2.185   4.520  0.00  0.00    -0.096 A 
ATOM     10  HN1 IND d   1      -3.178  -0.719   5.374  0.00  0.00     0.298 HD
ENDROOT
TORSDOF 0
ENDMDL
