MODEL 1
REMARK minimizedAffinity 18.6398563
REMARK minimizedRMSD -1
REMARK  0 active torsions:
REMARK  status: ('A' for Active; 'I' for Inactive)
ROOT
ATOM      1  N1  IND d   1      -1.799  -1.888   4.209  0.00  0.00    -0.196 N 
ATOM      2  C2  IND d   1      -2.288  -0.645   4.501  0.00  0.00     0.054 A 
ATOM      3  C3  IND d   1      -2.759  -0.050   3.383  0.00  0.00    -0.031 A 
ATOM      4  C4  IND d   1      -2.920  -0.970   0.984  0.00  0.00     0.051 A 
ATOM      5  C5  IND d   1      -2.568  -2.045   0.217  0.00  0.00    -0.031 A 
ATOM      6  C6  IND d   1      -1.932  -3.146   0.753  0.00  0.00     0.015 A 
ATOM      7  C7  IND d   1      -1.633  -3.218   2.084  0.00  0.00    -0.016 A 
ATOM      8  C8  IND d   1      -1.982  -2.125   2.864  0.00  0.00    -0.047 A 
ATOM      9  C9  IND d   1      -2.589  -0.987   2.318  0.00  0.00    -0.096 A 
ATOM     10  HN1 IND d   1      -1.438  -2.430   4.770  0.00  0.00     0.298 HD
ENDROOT
TORSDOF 0
ENDMDL
