MODEL 1
REMARK minimizedAffinity 8.79916954
REMARK minimizedRMSD -1
REMARK  0 active torsions:
REMARK  status: ('A' for Active; 'I' for Inactive)
ROOT
ATOM      1  N1  IND d   1      -4.734   1.543   5.679  0.00  0.00    -0.196 N 
ATOM      2  C2  IND d   1      -5.976   1.048   5.963  0.00  0.00     0.054 A 
ATOM      3  C3  IND d   1      -5.946  -0.303   5.999  0.00  0.00    -0.031 A 
ATOM      4  C4  IND d   1      -3.949  -1.904   5.724  0.00  0.00     0.051 A 
ATOM      5  C5  IND d   1      -2.618  -1.922   5.414  0.00  0.00    -0.031 A 
ATOM      6  C6  IND d   1      -1.909  -0.763   5.175  0.00  0.00     0.015 A 
ATOM      7  C7  IND d   1      -2.505   0.464   5.248  0.00  0.00    -0.016 A 
ATOM      8  C8  IND d   1      -3.858   0.486   5.555  0.00  0.00    -0.047 A 
ATOM      9  C9  IND d   1      -4.593  -0.690   5.757  0.00  0.00    -0.096 A 
ATOM     10  HN1 IND d   1      -4.533   2.374   5.592  0.00  0.00     0.298 HD
ENDROOT
TORSDOF 0
ENDMDL
