MODEL 1
REMARK minimizedAffinity 6.06992054
REMARK minimizedRMSD -1
REMARK  0 active torsions:
REMARK  status: ('A' for Active; 'I' for Inactive)
ROOT
ATOM      1  N1  IND d   1       4.220  -5.540   5.328  0.00  0.00    -0.196 N 
ATOM      2  C2  IND d   1       5.410  -5.589   5.999  0.00  0.00     0.054 A 
ATOM      3  C3  IND d   1       6.000  -4.372   5.999  0.00  0.00    -0.031 A 
ATOM      4  C4  IND d   1       5.144  -2.139   5.047  0.00  0.00     0.051 A 
ATOM      5  C5  IND d   1       4.124  -1.601   4.313  0.00  0.00    -0.031 A 
ATOM      6  C6  IND d   1       3.062  -2.364   3.873  0.00  0.00     0.015 A 
ATOM      7  C7  IND d   1       2.973  -3.696   4.162  0.00  0.00    -0.016 A 
ATOM      8  C8  IND d   1       4.010  -4.247   4.901  0.00  0.00    -0.047 A 
ATOM      9  C9  IND d   1       5.112  -3.487   5.314  0.00  0.00    -0.096 A 
ATOM     10  HN1 IND d   1       3.692  -6.205   5.195  0.00  0.00     0.298 HD
ENDROOT
TORSDOF 0
ENDMDL
