MODEL 1
REMARK minimizedAffinity 10.929657
REMARK minimizedRMSD -1
REMARK  0 active torsions:
REMARK  status: ('A' for Active; 'I' for Inactive)
ROOT
ATOM      1  N1  IND d   1       5.999  -2.182   5.204  0.00  0.00    -0.196 N 
ATOM      2  C2  IND d   1       5.570  -1.023   4.620  0.00  0.00     0.054 A 
ATOM      3  C3  IND d   1       4.236  -1.070   4.407  0.00  0.00    -0.031 A 
ATOM      4  C4  IND d   1       2.544  -2.907   5.030  0.00  0.00     0.051 A 
ATOM      5  C5  IND d   1       2.466  -4.170   5.546  0.00  0.00    -0.031 A 
ATOM      6  C6  IND d   1       3.585  -4.848   5.986  0.00  0.00     0.015 A 
ATOM      7  C7  IND d   1       4.827  -4.280   5.936  0.00  0.00    -0.016 A 
ATOM      8  C8  IND d   1       4.910  -3.001   5.406  0.00  0.00    -0.047 A 
ATOM      9  C9  IND d   1       3.784  -2.324   4.919  0.00  0.00    -0.096 A 
ATOM     10  HN1 IND d   1       6.813  -2.368   5.409  0.00  0.00     0.298 HD
ENDROOT
TORSDOF 0
ENDMDL
