MODEL 1
REMARK minimizedAffinity -2.42702007
REMARK minimizedRMSD -1
REMARK  0 active torsions:
REMARK  status: ('A' for Active; 'I' for Inactive)
ROOT
ATOM      1  N1  IND d   1       4.908  -4.527   4.113  0.00  0.00    -0.196 N 
ATOM      2  C2  IND d   1       6.000  -3.734   3.893  0.00  0.00     0.054 A 
ATOM      3  C3  IND d   1       5.774  -2.484   4.355  0.00  0.00    -0.031 A 
ATOM      4  C4  IND d   1       3.724  -1.546   5.599  0.00  0.00     0.051 A 
ATOM      5  C5  IND d   1       2.461  -1.880   6.000  0.00  0.00    -0.031 A 
ATOM      6  C6  IND d   1       1.940  -3.141   5.791  0.00  0.00     0.015 A 
ATOM      7  C7  IND d   1       2.670  -4.121   5.180  0.00  0.00    -0.016 A 
ATOM      8  C8  IND d   1       3.950  -3.783   4.765  0.00  0.00    -0.047 A 
ATOM      9  C9  IND d   1       4.469  -2.493   4.936  0.00  0.00    -0.096 A 
ATOM     10  HN1 IND d   1       4.833  -5.352   3.882  0.00  0.00     0.298 HD
ENDROOT
TORSDOF 0
ENDMDL
