MODEL 1
REMARK minimizedAffinity 7.50690937
REMARK minimizedRMSD -1
REMARK  0 active torsions:
REMARK  status: ('A' for Active; 'I' for Inactive)
ROOT
ATOM      1  N1  IND d   1       3.724  -1.706  -3.985  0.00  0.00    -0.196 N 
ATOM      2  C2  IND d   1       4.889  -1.168  -3.512  0.00  0.00     0.054 A 
ATOM      3  C3  IND d   1       5.943  -1.926  -3.887  0.00  0.00    -0.031 A 
ATOM      4  C4  IND d   1       6.000  -4.034  -5.363  0.00  0.00     0.051 A 
ATOM      5  C5  IND d   1       5.182  -4.925  -6.000  0.00  0.00    -0.031 A 
ATOM      6  C6  IND d   1       3.810  -4.785  -6.000  0.00  0.00     0.015 A 
ATOM      7  C7  IND d   1       3.201  -3.736  -5.369  0.00  0.00    -0.016 A 
ATOM      8  C8  IND d   1       4.028  -2.833  -4.716  0.00  0.00    -0.047 A 
ATOM      9  C9  IND d   1       5.419  -2.994  -4.677  0.00  0.00    -0.096 A 
ATOM     10  HN1 IND d   1       2.935  -1.393  -3.848  0.00  0.00     0.298 HD
ENDROOT
TORSDOF 0
ENDMDL
