MODEL 1
REMARK minimizedAffinity 3.12334704
REMARK minimizedRMSD -1
REMARK  0 active torsions:
REMARK  status: ('A' for Active; 'I' for Inactive)
ROOT
ATOM      1  N1  IND d   1       3.786  -4.921  -5.441  0.00  0.00    -0.196 N 
ATOM      2  C2  IND d   1       4.939  -5.399  -5.999  0.00  0.00     0.054 A 
ATOM      3  C3  IND d   1       5.963  -4.548  -5.764  0.00  0.00    -0.031 A 
ATOM      4  C4  IND d   1       5.996  -2.366  -4.400  0.00  0.00     0.051 A 
ATOM      5  C5  IND d   1       5.177  -1.502  -3.729  0.00  0.00    -0.031 A 
ATOM      6  C6  IND d   1       3.825  -1.740  -3.589  0.00  0.00     0.015 A 
ATOM      7  C7  IND d   1       3.242  -2.862  -4.108  0.00  0.00    -0.016 A 
ATOM      8  C8  IND d   1       4.070  -3.737  -4.796  0.00  0.00    -0.047 A 
ATOM      9  C9  IND d   1       5.434  -3.480  -4.978  0.00  0.00    -0.096 A 
ATOM     10  HN1 IND d   1       3.014  -5.296  -5.485  0.00  0.00     0.298 HD
ENDROOT
TORSDOF 0
ENDMDL
