MODEL 1
REMARK minimizedAffinity 1.4111985
REMARK minimizedRMSD -1
REMARK  0 active torsions:
REMARK  status: ('A' for Active; 'I' for Inactive)
ROOT
ATOM      1  N1  IND d   1       5.363  -4.939  -4.780  0.00  0.00    -0.196 N 
ATOM      2  C2  IND d   1       4.639  -4.702  -5.915  0.00  0.00     0.054 A 
ATOM      3  C3  IND d   1       4.190  -3.427  -5.928  0.00  0.00    -0.031 A 
ATOM      4  C4  IND d   1       4.608  -1.527  -4.241  0.00  0.00     0.051 A 
ATOM      5  C5  IND d   1       5.179  -1.272  -3.026  0.00  0.00    -0.031 A 
ATOM      6  C6  IND d   1       5.858  -2.245  -2.321  0.00  0.00     0.015 A 
ATOM      7  C7  IND d   1       6.000  -3.512  -2.812  0.00  0.00    -0.016 A 
ATOM      8  C8  IND d   1       5.415  -3.777  -4.042  0.00  0.00    -0.047 A 
ATOM      9  C9  IND d   1       4.689  -2.805  -4.742  0.00  0.00    -0.096 A 
ATOM     10  HN1 IND d   1       5.726  -5.688  -4.563  0.00  0.00     0.298 HD
ENDROOT
TORSDOF 0
ENDMDL
