MODEL 1
REMARK minimizedAffinity 16.5561981
REMARK minimizedRMSD -1
REMARK  0 active torsions:
REMARK  status: ('A' for Active; 'I' for Inactive)
ROOT
ATOM      1  N1  IND d   1      -2.861  -2.265   4.013  0.00  0.00    -0.196 N 
ATOM      2  C2  IND d   1      -2.815  -1.648   5.232  0.00  0.00     0.054 A 
ATOM      3  C3  IND d   1      -2.437  -0.357   5.092  0.00  0.00    -0.031 A 
ATOM      4  C4  IND d   1      -1.944   0.979   2.947  0.00  0.00     0.051 A 
ATOM      5  C5  IND d   1      -1.819   0.836   1.594  0.00  0.00    -0.031 A 
ATOM      6  C6  IND d   1      -2.043  -0.371   0.964  0.00  0.00     0.015 A 
ATOM      7  C7  IND d   1      -2.412  -1.483   1.667  0.00  0.00    -0.016 A 
ATOM      8  C8  IND d   1      -2.533  -1.344   3.043  0.00  0.00    -0.047 A 
ATOM      9  C9  IND d   1      -2.265  -0.131   3.692  0.00  0.00    -0.096 A 
ATOM     10  HN1 IND d   1      -3.062  -3.089   3.876  0.00  0.00     0.298 HD
ENDROOT
TORSDOF 0
ENDMDL
