MODEL 1
REMARK minimizedAffinity 0.330726236
REMARK minimizedRMSD -1
REMARK  0 active torsions:
REMARK  status: ('A' for Active; 'I' for Inactive)
ROOT
ATOM      1  N1  IND d   1       2.377   4.229  -3.772  0.00  0.00    -0.196 N 
ATOM      2  C2  IND d   1       1.585   5.187  -3.203  0.00  0.00     0.054 A 
ATOM      3  C3  IND d   1       2.323   5.998  -2.411  0.00  0.00    -0.031 A 
ATOM      4  C4  IND d   1       4.861   6.000  -1.985  0.00  0.00     0.051 A 
ATOM      5  C5  IND d   1       6.000   5.294  -2.256  0.00  0.00    -0.031 A 
ATOM      6  C6  IND d   1       5.989   4.175  -3.065  0.00  0.00     0.015 A 
ATOM      7  C7  IND d   1       4.836   3.727  -3.644  0.00  0.00    -0.016 A 
ATOM      8  C8  IND d   1       3.677   4.437  -3.366  0.00  0.00    -0.047 A 
ATOM      9  C9  IND d   1       3.675   5.548  -2.512  0.00  0.00    -0.096 A 
ATOM     10  HN1 IND d   1       2.109   3.603  -4.296  0.00  0.00     0.298 HD
ENDROOT
TORSDOF 0
ENDMDL
