MODEL 1
REMARK minimizedAffinity -0.941295624
REMARK minimizedRMSD -1
REMARK  0 active torsions:
REMARK  status: ('A' for Active; 'I' for Inactive)
ROOT
ATOM      1  N1  IND d   1      -1.809   1.490   0.051  0.00  0.00    -0.196 N 
ATOM      2  C2  IND d   1      -2.235   0.735   1.108  0.00  0.00     0.054 A 
ATOM      3  C3  IND d   1      -1.348  -0.251   1.369  0.00  0.00    -0.031 A 
ATOM      4  C4  IND d   1       0.918  -0.751   0.254  0.00  0.00     0.051 A 
ATOM      5  C5  IND d   1       1.719  -0.358  -0.781  0.00  0.00    -0.031 A 
ATOM      6  C6  IND d   1       1.380   0.694  -1.607  0.00  0.00     0.015 A 
ATOM      7  C7  IND d   1       0.227   1.403  -1.420  0.00  0.00    -0.016 A 
ATOM      8  C8  IND d   1      -0.593   1.002  -0.374  0.00  0.00    -0.047 A 
ATOM      9  C9  IND d   1      -0.274  -0.092   0.441  0.00  0.00    -0.096 A 
ATOM     10  HN1 IND d   1      -2.230   2.157  -0.291  0.00  0.00     0.298 HD
ENDROOT
TORSDOF 0
ENDMDL
