MODEL 1
REMARK minimizedAffinity -2.51574564
REMARK minimizedRMSD -1
REMARK  0 active torsions:
REMARK  status: ('A' for Active; 'I' for Inactive)
ROOT
ATOM      1  C1  BNZ d   1      -0.361  -0.356   1.421  0.00  0.00     0.000 A 
ATOM      2  C2  BNZ d   1      -1.167   0.750   1.391  0.00  0.00     0.000 A 
ATOM      3  C3  BNZ d   1      -1.216   1.551   0.285  0.00  0.00     0.000 A 
ATOM      4  C4  BNZ d   1      -0.430   1.269  -0.773  0.00  0.00     0.000 A 
ATOM      5  C5  BNZ d   1       0.396   0.162  -0.756  0.00  0.00     0.000 A 
ATOM      6  C6  BNZ d   1       0.413  -0.664   0.344  0.00  0.00     0.000 A 
ENDROOT
TORSDOF 0
ENDMDL
