MODEL 1
REMARK minimizedAffinity -3.38447785
REMARK minimizedRMSD -1
REMARK  0 active torsions:
REMARK  status: ('A' for Active; 'I' for Inactive)
ROOT
ATOM      1  C1  BNZ d   1      -0.172  -0.176   0.980  0.00  0.00     0.000 A 
ATOM      2  C2  BNZ d   1       0.625  -0.237  -0.131  0.00  0.00     0.000 A 
ATOM      3  C3  BNZ d   1       0.454   0.643  -1.164  0.00  0.00     0.000 A 
ATOM      4  C4  BNZ d   1      -0.537   1.555  -1.101  0.00  0.00     0.000 A 
ATOM      5  C5  BNZ d   1      -1.355   1.622   0.009  0.00  0.00     0.000 A 
ATOM      6  C6  BNZ d   1      -1.155   0.760   1.064  0.00  0.00     0.000 A 
ENDROOT
TORSDOF 0
ENDMDL
