MODEL 1
REMARK minimizedAffinity -3.88606286
REMARK minimizedRMSD -1
REMARK  0 active torsions:
REMARK  status: ('A' for Active; 'I' for Inactive)
ROOT
ATOM      1  C1  BNZ d   1       0.303  -0.237   1.361  0.00  0.00     0.000 A 
ATOM      2  C2  BNZ d   1      -0.603   0.747   1.654  0.00  0.00     0.000 A 
ATOM      3  C3  BNZ d   1      -1.218   1.452   0.658  0.00  0.00     0.000 A 
ATOM      4  C4  BNZ d   1      -0.898   1.200  -0.628  0.00  0.00     0.000 A 
ATOM      5  C5  BNZ d   1       0.020   0.217  -0.940  0.00  0.00     0.000 A 
ATOM      6  C6  BNZ d   1       0.609  -0.517   0.065  0.00  0.00     0.000 A 
ENDROOT
TORSDOF 0
ENDMDL
