MODEL 1
REMARK minimizedAffinity -4.29993582
REMARK minimizedRMSD -1
REMARK  0 active torsions:
REMARK  status: ('A' for Active; 'I' for Inactive)
ROOT
ATOM      1  C1  BNZ d   1      -0.611   2.310  -0.360  0.00  0.00     0.000 A 
ATOM      2  C2  BNZ d   1       0.103   1.174  -0.635  0.00  0.00     0.000 A 
ATOM      3  C3  BNZ d   1       0.125   0.131   0.248  0.00  0.00     0.000 A 
ATOM      4  C4  BNZ d   1      -0.534   0.239   1.420  0.00  0.00     0.000 A 
ATOM      5  C5  BNZ d   1      -1.251   1.382   1.715  0.00  0.00     0.000 A 
ATOM      6  C6  BNZ d   1      -1.302   2.415   0.808  0.00  0.00     0.000 A 
ENDROOT
TORSDOF 0
ENDMDL
