MODEL 1
REMARK minimizedAffinity -3.1595118
REMARK minimizedRMSD -1
REMARK  0 active torsions:
REMARK  status: ('A' for Active; 'I' for Inactive)
ROOT
ATOM      1  C1  BNZ d   1       0.398  -0.898  -0.138  0.00  0.00     0.000 A 
ATOM      2  C2  BNZ d   1       1.221  -0.530  -1.168  0.00  0.00     0.000 A 
ATOM      3  C3  BNZ d   1       1.404   0.788  -1.482  0.00  0.00     0.000 A 
ATOM      4  C4  BNZ d   1       0.733   1.733  -0.792  0.00  0.00     0.000 A 
ATOM      5  C5  BNZ d   1      -0.108   1.377   0.244  0.00  0.00     0.000 A 
ATOM      6  C6  BNZ d   1      -0.259   0.052   0.582  0.00  0.00     0.000 A 
ENDROOT
TORSDOF 0
ENDMDL
