MODEL 1
REMARK minimizedAffinity -3.32348204
REMARK minimizedRMSD -1
REMARK  0 active torsions:
REMARK  status: ('A' for Active; 'I' for Inactive)
ROOT
ATOM      1  C1  BNZ d   1      -0.812   0.710  -0.817  0.00  0.00     0.000 A 
ATOM      2  C2  BNZ d   1      -1.885   1.430  -0.364  0.00  0.00     0.000 A 
ATOM      3  C3  BNZ d   1      -2.213   1.438   0.963  0.00  0.00     0.000 A 
ATOM      4  C4  BNZ d   1      -1.493   0.696   1.828  0.00  0.00     0.000 A 
ATOM      5  C5  BNZ d   1      -0.414  -0.043   1.385  0.00  0.00     0.000 A 
ATOM      6  C6  BNZ d   1      -0.063  -0.018   0.055  0.00  0.00     0.000 A 
ENDROOT
TORSDOF 0
ENDMDL
