MODEL 1
REMARK minimizedAffinity -4.18426943
REMARK minimizedRMSD -1
REMARK  0 active torsions:
REMARK  status: ('A' for Active; 'I' for Inactive)
ROOT
ATOM      1  C1  BNZ d   1       0.024  -0.502   0.626  0.00  0.00     0.000 A 
ATOM      2  C2  BNZ d   1      -0.871   0.518   0.807  0.00  0.00     0.000 A 
ATOM      3  C3  BNZ d   1      -0.898   1.585  -0.047  0.00  0.00     0.000 A 
ATOM      4  C4  BNZ d   1      -0.005   1.649  -1.056  0.00  0.00     0.000 A 
ATOM      5  C5  BNZ d   1       0.910   0.633  -1.246  0.00  0.00     0.000 A 
ATOM      6  C6  BNZ d   1       0.909  -0.458  -0.407  0.00  0.00     0.000 A 
ENDROOT
TORSDOF 0
ENDMDL
