MODEL 1
REMARK minimizedAffinity -4.17756844
REMARK minimizedRMSD -1
REMARK  0 active torsions:
REMARK  status: ('A' for Active; 'I' for Inactive)
ROOT
ATOM      1  C1  BNZ d   1      -0.256   0.262   1.925  0.00  0.00     0.000 A 
ATOM      2  C2  BNZ d   1      -0.773   1.453   2.362  0.00  0.00     0.000 A 
ATOM      3  C3  BNZ d   1      -1.460   2.272   1.511  0.00  0.00     0.000 A 
ATOM      4  C4  BNZ d   1      -1.594   1.920   0.216  0.00  0.00     0.000 A 
ATOM      5  C5  BNZ d   1      -1.071   0.727  -0.242  0.00  0.00     0.000 A 
ATOM      6  C6  BNZ d   1      -0.414  -0.113   0.627  0.00  0.00     0.000 A 
ENDROOT
TORSDOF 0
ENDMDL
