MODEL 1
REMARK minimizedAffinity -4.40959978
REMARK minimizedRMSD -1
REMARK  0 active torsions:
REMARK  status: ('A' for Active; 'I' for Inactive)
ROOT
ATOM      1  C1  BNZ d   1      -0.730  -0.404   1.780  0.00  0.00     0.000 A 
ATOM      2  C2  BNZ d   1      -1.515   0.688   2.038  0.00  0.00     0.000 A 
ATOM      3  C3  BNZ d   1      -1.675   1.672   1.103  0.00  0.00     0.000 A 
ATOM      4  C4  BNZ d   1      -1.019   1.582  -0.072  0.00  0.00     0.000 A 
ATOM      5  C5  BNZ d   1      -0.217   0.492  -0.344  0.00  0.00     0.000 A 
ATOM      6  C6  BNZ d   1      -0.089  -0.516   0.585  0.00  0.00     0.000 A 
ENDROOT
TORSDOF 0
ENDMDL
