MODEL 1
REMARK minimizedAffinity -4.37942743
REMARK minimizedRMSD -1
REMARK  0 active torsions:
REMARK  status: ('A' for Active; 'I' for Inactive)
ROOT
ATOM      1  C1  BNZ d   1      -0.221  -0.270   1.851  0.00  0.00     0.000 A 
ATOM      2  C2  BNZ d   1      -1.100   0.723   2.192  0.00  0.00     0.000 A 
ATOM      3  C3  BNZ d   1      -1.470   1.674   1.281  0.00  0.00     0.000 A 
ATOM      4  C4  BNZ d   1      -0.929   1.654   0.046  0.00  0.00     0.000 A 
ATOM      5  C5  BNZ d   1      -0.034   0.665  -0.310  0.00  0.00     0.000 A 
ATOM      6  C6  BNZ d   1       0.306  -0.313   0.597  0.00  0.00     0.000 A 
ENDROOT
TORSDOF 0
ENDMDL
