MODEL 1
REMARK minimizedAffinity -3.42826033
REMARK minimizedRMSD -1
REMARK  0 active torsions:
REMARK  status: ('A' for Active; 'I' for Inactive)
ROOT
ATOM      1  C1  BNZ d   1       0.806  -0.748  -0.016  0.00  0.00     0.000 A 
ATOM      2  C2  BNZ d   1       0.255  -0.735   1.237  0.00  0.00     0.000 A 
ATOM      3  C3  BNZ d   1      -0.668   0.211   1.587  0.00  0.00     0.000 A 
ATOM      4  C4  BNZ d   1      -1.008   1.166   0.697  0.00  0.00     0.000 A 
ATOM      5  C5  BNZ d   1      -0.454   1.172  -0.567  0.00  0.00     0.000 A 
ATOM      6  C6  BNZ d   1       0.445   0.196  -0.929  0.00  0.00     0.000 A 
ENDROOT
TORSDOF 0
ENDMDL
