MODEL 1
REMARK minimizedAffinity -3.51338387
REMARK minimizedRMSD -1
REMARK  0 active torsions:
REMARK  status: ('A' for Active; 'I' for Inactive)
ROOT
ATOM      1  C1  BNZ d   1      -0.772   1.466  -0.293  0.00  0.00     0.000 A 
ATOM      2  C2  BNZ d   1      -0.070   0.348  -0.656  0.00  0.00     0.000 A 
ATOM      3  C3  BNZ d   1       0.170  -0.651   0.246  0.00  0.00     0.000 A 
ATOM      4  C4  BNZ d   1      -0.256  -0.512   1.518  0.00  0.00     0.000 A 
ATOM      5  C5  BNZ d   1      -0.957   0.614   1.902  0.00  0.00     0.000 A 
ATOM      6  C6  BNZ d   1      -1.231   1.600   0.981  0.00  0.00     0.000 A 
ENDROOT
TORSDOF 0
ENDMDL
