MODEL 1
REMARK minimizedAffinity -4.63467598
REMARK minimizedRMSD -1
REMARK  0 active torsions:
REMARK  status: ('A' for Active; 'I' for Inactive)
ROOT
ATOM      1  C1  BNZ d   1      -1.074   1.637   0.032  0.00  0.00     0.000 A 
ATOM      2  C2  BNZ d   1      -0.345   0.582  -0.449  0.00  0.00     0.000 A 
ATOM      3  C3  BNZ d   1       0.048  -0.433   0.377  0.00  0.00     0.000 A 
ATOM      4  C4  BNZ d   1      -0.252  -0.372   1.691  0.00  0.00     0.000 A 
ATOM      5  C5  BNZ d   1      -0.978   0.689   2.194  0.00  0.00     0.000 A 
ATOM      6  C6  BNZ d   1      -1.406   1.690   1.351  0.00  0.00     0.000 A 
ENDROOT
TORSDOF 0
ENDMDL
