MODEL 1
REMARK minimizedAffinity -5.14016008
REMARK minimizedRMSD -1
REMARK  0 active torsions:
REMARK  status: ('A' for Active; 'I' for Inactive)
ROOT
ATOM      1  C1  BNZ d   1      -0.679   2.583  -0.506  0.00  0.00     0.000 A 
ATOM      2  C2  BNZ d   1       0.056   1.443  -0.699  0.00  0.00     0.000 A 
ATOM      3  C3  BNZ d   1      -0.059   0.384   0.157  0.00  0.00     0.000 A 
ATOM      4  C4  BNZ d   1      -0.877   0.480   1.225  0.00  0.00     0.000 A 
ATOM      5  C5  BNZ d   1      -1.616   1.626   1.438  0.00  0.00     0.000 A 
ATOM      6  C6  BNZ d   1      -1.528   2.676   0.553  0.00  0.00     0.000 A 
ENDROOT
TORSDOF 0
ENDMDL
