MODEL 1
REMARK minimizedAffinity -2.44894624
REMARK minimizedRMSD -1
REMARK  0 active torsions:
REMARK  status: ('A' for Active; 'I' for Inactive)
ROOT
ATOM      1  C1  BNZ d   1      -0.666   1.971  -0.392  0.00  0.00     0.000 A 
ATOM      2  C2  BNZ d   1       0.539   1.714  -0.989  0.00  0.00     0.000 A 
ATOM      3  C3  BNZ d   1       1.177   0.520  -0.793  0.00  0.00     0.000 A 
ATOM      4  C4  BNZ d   1       0.629  -0.397   0.030  0.00  0.00     0.000 A 
ATOM      5  C5  BNZ d   1      -0.581  -0.148   0.647  0.00  0.00     0.000 A 
ATOM      6  C6  BNZ d   1      -1.239   1.038   0.417  0.00  0.00     0.000 A 
ENDROOT
TORSDOF 0
ENDMDL
