MODEL 1
REMARK minimizedAffinity -4.19252157
REMARK minimizedRMSD -1
REMARK  0 active torsions:
REMARK  status: ('A' for Active; 'I' for Inactive)
ROOT
ATOM      1  C1  BNZ d   1       0.795  -0.355   0.147  0.00  0.00     0.000 A 
ATOM      2  C2  BNZ d   1      -0.196  -0.142   1.068  0.00  0.00     0.000 A 
ATOM      3  C3  BNZ d   1      -0.985   0.972   1.002  0.00  0.00     0.000 A 
ATOM      4  C4  BNZ d   1      -0.758   1.889   0.039  0.00  0.00     0.000 A 
ATOM      5  C5  BNZ d   1       0.242   1.693  -0.891  0.00  0.00     0.000 A 
ATOM      6  C6  BNZ d   1       1.010   0.552  -0.844  0.00  0.00     0.000 A 
ENDROOT
TORSDOF 0
ENDMDL
