MODEL 1
REMARK minimizedAffinity -4.55861998
REMARK minimizedRMSD -1
REMARK  0 active torsions:
REMARK  status: ('A' for Active; 'I' for Inactive)
ROOT
ATOM      1  C1  BNZ d   1      -0.055  -0.312   1.574  0.00  0.00     0.000 A 
ATOM      2  C2  BNZ d   1      -0.844   0.747   1.938  0.00  0.00     0.000 A 
ATOM      3  C3  BNZ d   1      -1.685   1.336   1.036  0.00  0.00     0.000 A 
ATOM      4  C4  BNZ d   1      -1.707   0.892  -0.238  0.00  0.00     0.000 A 
ATOM      5  C5  BNZ d   1      -0.911  -0.169  -0.622  0.00  0.00     0.000 A 
ATOM      6  C6  BNZ d   1      -0.094  -0.784   0.299  0.00  0.00     0.000 A 
ENDROOT
TORSDOF 0
ENDMDL
