MODEL 1
REMARK minimizedAffinity -3.5725441
REMARK minimizedRMSD -1
REMARK  0 active torsions:
REMARK  status: ('A' for Active; 'I' for Inactive)
ROOT
ATOM      1  C   UNL d   1      -4.924  -4.472  -2.713  0.00  0.00     0.078 C 
ATOM      2  C1  UNL d   1      -4.941  -3.442  -3.803  0.00  0.00    -0.077 A 
ATOM      3  C2  UNL d   1      -5.699  -2.272  -3.676  0.00  0.00    -0.001 A 
ATOM      4  C3  UNL d   1      -5.714  -1.326  -4.703  0.00  0.00     0.003 A 
ATOM      5  C4  UNL d   1      -4.973  -1.542  -5.864  0.00  0.00    -0.005 A 
ATOM      6  C5  UNL d   1      -4.218  -2.705  -5.999  0.00  0.00     0.003 A 
ATOM      7  C6  UNL d   1      -4.202  -3.651  -4.974  0.00  0.00    -0.001 A 
ENDROOT
TORSDOF 0
ENDMDL
