MODEL 1
REMARK minimizedAffinity -2.76206136
REMARK minimizedRMSD -1
REMARK  0 active torsions:
REMARK  status: ('A' for Active; 'I' for Inactive)
ROOT
ATOM      1  C   UNL d   1      -5.472  -4.527  -5.988  0.00  0.00     0.078 C 
ATOM      2  C1  UNL d   1      -5.662  -3.229  -5.263  0.00  0.00    -0.077 A 
ATOM      3  C2  UNL d   1      -5.665  -2.011  -5.954  0.00  0.00    -0.001 A 
ATOM      4  C3  UNL d   1      -5.834  -0.809  -5.264  0.00  0.00     0.003 A 
ATOM      5  C4  UNL d   1      -5.999  -0.813  -3.881  0.00  0.00    -0.005 A 
ATOM      6  C5  UNL d   1      -5.995  -2.019  -3.184  0.00  0.00     0.003 A 
ATOM      7  C6  UNL d   1      -5.827  -3.222  -3.872  0.00  0.00    -0.001 A 
ENDROOT
TORSDOF 0
ENDMDL
