MODEL 1
REMARK minimizedAffinity 2.62768102
REMARK minimizedRMSD -1
REMARK  0 active torsions:
REMARK  status: ('A' for Active; 'I' for Inactive)
ROOT
ATOM      1  C   UNL d   1       0.631  -0.909   0.711  0.00  0.00     0.078 C 
ATOM      2  C1  UNL d   1      -0.823  -0.995   0.351  0.00  0.00    -0.077 A 
ATOM      3  C2  UNL d   1      -1.632   0.148   0.341  0.00  0.00    -0.001 A 
ATOM      4  C3  UNL d   1      -2.985   0.052   0.014  0.00  0.00     0.003 A 
ATOM      5  C4  UNL d   1      -3.542  -1.186  -0.304  0.00  0.00    -0.005 A 
ATOM      6  C5  UNL d   1      -2.745  -2.329  -0.294  0.00  0.00     0.003 A 
ATOM      7  C6  UNL d   1      -1.391  -2.234   0.033  0.00  0.00    -0.001 A 
ENDROOT
TORSDOF 0
ENDMDL
