MODEL 1
REMARK minimizedAffinity -2.61781049
REMARK minimizedRMSD -1
REMARK  0 active torsions:
REMARK  status: ('A' for Active; 'I' for Inactive)
ROOT
ATOM      1  C   UNL d   1      -0.793  -5.841  -4.432  0.00  0.00     0.078 C 
ATOM      2  C1  UNL d   1      -2.118  -5.265  -4.832  0.00  0.00    -0.077 A 
ATOM      3  C2  UNL d   1      -3.012  -5.995  -5.626  0.00  0.00    -0.001 A 
ATOM      4  C3  UNL d   1      -4.238  -5.442  -5.999  0.00  0.00     0.003 A 
ATOM      5  C4  UNL d   1      -4.581  -4.156  -5.585  0.00  0.00    -0.005 A 
ATOM      6  C5  UNL d   1      -3.697  -3.422  -4.797  0.00  0.00     0.003 A 
ATOM      7  C6  UNL d   1      -2.471  -3.973  -4.423  0.00  0.00    -0.001 A 
ENDROOT
TORSDOF 0
ENDMDL
