MODEL 1
REMARK minimizedAffinity -3.2498455
REMARK minimizedRMSD -1
REMARK  0 active torsions:
REMARK  status: ('A' for Active; 'I' for Inactive)
ROOT
ATOM      1  C   UNL d   1      -1.318  -5.841  -5.253  0.00  0.00     0.078 C 
ATOM      2  C1  UNL d   1      -2.704  -5.267  -5.264  0.00  0.00    -0.077 A 
ATOM      3  C2  UNL d   1      -3.008  -4.103  -4.548  0.00  0.00    -0.001 A 
ATOM      4  C3  UNL d   1      -4.304  -3.585  -4.560  0.00  0.00     0.003 A 
ATOM      5  C4  UNL d   1      -5.307  -4.226  -5.285  0.00  0.00    -0.005 A 
ATOM      6  C5  UNL d   1      -5.014  -5.387  -5.999  0.00  0.00     0.003 A 
ATOM      7  C6  UNL d   1      -3.718  -5.905  -5.988  0.00  0.00    -0.001 A 
ENDROOT
TORSDOF 0
ENDMDL
