MODEL 1
REMARK minimizedAffinity -3.44289589
REMARK minimizedRMSD -1
REMARK  0 active torsions:
REMARK  status: ('A' for Active; 'I' for Inactive)
ROOT
ATOM      1  C   UNL d   1      -5.884  -2.648  -3.750  0.00  0.00     0.078 C 
ATOM      2  C1  UNL d   1      -4.874  -3.591  -4.330  0.00  0.00    -0.077 A 
ATOM      3  C2  UNL d   1      -3.589  -3.697  -3.784  0.00  0.00    -0.001 A 
ATOM      4  C3  UNL d   1      -2.655  -4.572  -4.341  0.00  0.00     0.003 A 
ATOM      5  C4  UNL d   1      -2.995  -5.347  -5.448  0.00  0.00    -0.005 A 
ATOM      6  C5  UNL d   1      -4.270  -5.247  -6.000  0.00  0.00     0.003 A 
ATOM      7  C6  UNL d   1      -5.206  -4.372  -5.444  0.00  0.00    -0.001 A 
ENDROOT
TORSDOF 0
ENDMDL
