MODEL 1
REMARK minimizedAffinity -2.89961982
REMARK minimizedRMSD -1
REMARK  0 active torsions:
REMARK  status: ('A' for Active; 'I' for Inactive)
ROOT
ATOM      1  C   UNL d   1      -1.467  -5.674  -5.614  0.00  0.00     0.078 C 
ATOM      2  C1  UNL d   1      -2.881  -5.174  -5.604  0.00  0.00    -0.077 A 
ATOM      3  C2  UNL d   1      -3.941  -6.000  -5.999  0.00  0.00    -0.001 A 
ATOM      4  C3  UNL d   1      -5.251  -5.518  -5.994  0.00  0.00     0.003 A 
ATOM      5  C4  UNL d   1      -5.513  -4.208  -5.596  0.00  0.00    -0.005 A 
ATOM      6  C5  UNL d   1      -4.465  -3.379  -5.203  0.00  0.00     0.003 A 
ATOM      7  C6  UNL d   1      -3.154  -3.859  -5.208  0.00  0.00    -0.001 A 
ENDROOT
TORSDOF 0
ENDMDL
