MODEL 1
REMARK minimizedAffinity -2.75385737
REMARK minimizedRMSD -1
REMARK  0 active torsions:
REMARK  status: ('A' for Active; 'I' for Inactive)
ROOT
ATOM      1  C   UNL d   1      -5.911  -2.596  -5.945  0.00  0.00     0.078 C 
ATOM      2  C1  UNL d   1      -4.849  -3.654  -5.970  0.00  0.00    -0.077 A 
ATOM      3  C2  UNL d   1      -5.184  -5.013  -5.964  0.00  0.00    -0.001 A 
ATOM      4  C3  UNL d   1      -4.185  -5.987  -5.978  0.00  0.00     0.003 A 
ATOM      5  C4  UNL d   1      -2.843  -5.612  -5.996  0.00  0.00    -0.005 A 
ATOM      6  C5  UNL d   1      -2.499  -4.262  -6.000  0.00  0.00     0.003 A 
ATOM      7  C6  UNL d   1      -3.497  -3.287  -5.986  0.00  0.00    -0.001 A 
ENDROOT
TORSDOF 0
ENDMDL
