MODEL 1
REMARK minimizedAffinity -0.333977729
REMARK minimizedRMSD -1
REMARK  0 active torsions:
REMARK  status: ('A' for Active; 'I' for Inactive)
ROOT
ATOM      1  C   UNL d   1      -1.663  -4.856  -5.926  0.00  0.00     0.078 C 
ATOM      2  C1  UNL d   1      -3.162  -4.818  -5.942  0.00  0.00    -0.077 A 
ATOM      3  C2  UNL d   1      -3.913  -5.999  -5.937  0.00  0.00    -0.001 A 
ATOM      4  C3  UNL d   1      -5.308  -5.949  -5.961  0.00  0.00     0.003 A 
ATOM      5  C4  UNL d   1      -5.964  -4.720  -5.992  0.00  0.00    -0.005 A 
ATOM      6  C5  UNL d   1      -5.224  -3.539  -6.000  0.00  0.00     0.003 A 
ATOM      7  C6  UNL d   1      -3.830  -3.587  -5.975  0.00  0.00    -0.001 A 
ENDROOT
TORSDOF 0
ENDMDL
