MODEL 1
REMARK minimizedAffinity -3.50724435
REMARK minimizedRMSD -1
REMARK  0 active torsions:
REMARK  status: ('A' for Active; 'I' for Inactive)
ROOT
ATOM      1  C   UNL d   1      -5.996  -2.814  -4.152  0.00  0.00     0.078 C 
ATOM      2  C1  UNL d   1      -5.026  -3.890  -4.541  0.00  0.00    -0.077 A 
ATOM      3  C2  UNL d   1      -5.269  -4.715  -5.646  0.00  0.00    -0.001 A 
ATOM      4  C3  UNL d   1      -4.362  -5.719  -5.990  0.00  0.00     0.003 A 
ATOM      5  C4  UNL d   1      -3.207  -5.908  -5.234  0.00  0.00    -0.005 A 
ATOM      6  C5  UNL d   1      -2.959  -5.094  -4.131  0.00  0.00     0.003 A 
ATOM      7  C6  UNL d   1      -3.864  -4.090  -3.785  0.00  0.00    -0.001 A 
ENDROOT
TORSDOF 0
ENDMDL
