MODEL 1
REMARK minimizedAffinity -3.21735954
REMARK minimizedRMSD -1
REMARK  0 active torsions:
REMARK  status: ('A' for Active; 'I' for Inactive)
ROOT
ATOM      1  C   UNL d   1      -2.470  -5.999  -5.284  0.00  0.00     0.078 C 
ATOM      2  C1  UNL d   1      -3.693  -5.136  -5.194  0.00  0.00    -0.077 A 
ATOM      3  C2  UNL d   1      -3.751  -4.059  -4.301  0.00  0.00    -0.001 A 
ATOM      4  C3  UNL d   1      -4.900  -3.270  -4.220  0.00  0.00     0.003 A 
ATOM      5  C4  UNL d   1      -6.000  -3.551  -5.028  0.00  0.00    -0.005 A 
ATOM      6  C5  UNL d   1      -5.952  -4.623  -5.918  0.00  0.00     0.003 A 
ATOM      7  C6  UNL d   1      -4.804  -5.412  -6.000  0.00  0.00    -0.001 A 
ENDROOT
TORSDOF 0
ENDMDL
