MODEL 1
REMARK minimizedAffinity -3.42293692
REMARK minimizedRMSD -1
REMARK  0 active torsions:
REMARK  status: ('A' for Active; 'I' for Inactive)
ROOT
ATOM      1  C   UNL d   1      -4.138  -1.344  -5.370  0.00  0.00     0.078 C 
ATOM      2  C1  UNL d   1      -4.364  -2.686  -4.739  0.00  0.00    -0.077 A 
ATOM      3  C2  UNL d   1      -3.291  -3.452  -4.269  0.00  0.00    -0.001 A 
ATOM      4  C3  UNL d   1      -3.515  -4.703  -3.693  0.00  0.00     0.003 A 
ATOM      5  C4  UNL d   1      -4.812  -5.201  -3.584  0.00  0.00    -0.005 A 
ATOM      6  C5  UNL d   1      -5.886  -4.447  -4.051  0.00  0.00     0.003 A 
ATOM      7  C6  UNL d   1      -5.664  -3.195  -4.627  0.00  0.00    -0.001 A 
ENDROOT
TORSDOF 0
ENDMDL
