MODEL 1
REMARK minimizedAffinity -3.6452775
REMARK minimizedRMSD -1
REMARK  0 active torsions:
REMARK  status: ('A' for Active; 'I' for Inactive)
ROOT
ATOM      1  C   UNL d   1      -4.544  -3.106  -5.981  0.00  0.00     0.078 C 
ATOM      2  C1  UNL d   1      -3.604  -4.095  -5.358  0.00  0.00    -0.077 A 
ATOM      3  C2  UNL d   1      -3.903  -4.701  -4.131  0.00  0.00    -0.001 A 
ATOM      4  C3  UNL d   1      -3.014  -5.612  -3.559  0.00  0.00     0.003 A 
ATOM      5  C4  UNL d   1      -1.820  -5.924  -4.205  0.00  0.00    -0.005 A 
ATOM      6  C5  UNL d   1      -1.512  -5.324  -5.424  0.00  0.00     0.003 A 
ATOM      7  C6  UNL d   1      -2.400  -4.413  -5.998  0.00  0.00    -0.001 A 
ENDROOT
TORSDOF 0
ENDMDL
