MODEL 1
REMARK minimizedAffinity -2.92426848
REMARK minimizedRMSD -1
REMARK  0 active torsions:
REMARK  status: ('A' for Active; 'I' for Inactive)
ROOT
ATOM      1  C   UNL d   1      -1.565  -5.056  -5.386  0.00  0.00     0.078 C 
ATOM      2  C1  UNL d   1      -3.062  -4.977  -5.404  0.00  0.00    -0.077 A 
ATOM      3  C2  UNL d   1      -3.831  -5.994  -5.982  0.00  0.00    -0.001 A 
ATOM      4  C3  UNL d   1      -5.224  -5.903  -6.000  0.00  0.00     0.003 A 
ATOM      5  C4  UNL d   1      -5.859  -4.795  -5.443  0.00  0.00    -0.005 A 
ATOM      6  C5  UNL d   1      -5.102  -3.777  -4.867  0.00  0.00     0.003 A 
ATOM      7  C6  UNL d   1      -3.710  -3.867  -4.848  0.00  0.00    -0.001 A 
ENDROOT
TORSDOF 0
ENDMDL
