MODEL 1
REMARK minimizedAffinity 0.273683906
REMARK minimizedRMSD -1
REMARK  0 active torsions:
REMARK  status: ('A' for Active; 'I' for Inactive)
ROOT
ATOM      1  C   UNL d   1      -5.983  -0.323  -2.362  0.00  0.00     0.078 C 
ATOM      2  C1  UNL d   1      -5.991  -1.240  -3.549  0.00  0.00    -0.077 A 
ATOM      3  C2  UNL d   1      -5.977  -2.631  -3.386  0.00  0.00    -0.001 A 
ATOM      4  C3  UNL d   1      -5.975  -3.472  -4.500  0.00  0.00     0.003 A 
ATOM      5  C4  UNL d   1      -5.986  -2.932  -5.785  0.00  0.00    -0.005 A 
ATOM      6  C5  UNL d   1      -5.998  -1.549  -5.957  0.00  0.00     0.003 A 
ATOM      7  C6  UNL d   1      -6.000  -0.706  -4.844  0.00  0.00    -0.001 A 
ENDROOT
TORSDOF 0
ENDMDL
