MODEL 1
REMARK minimizedAffinity -1.95254707
REMARK minimizedRMSD -1
REMARK  0 active torsions:
REMARK  status: ('A' for Active; 'I' for Inactive)
ROOT
ATOM      1  C   UNL d   1      -0.144  -5.980  -5.011  0.00  0.00     0.078 C 
ATOM      2  C1  UNL d   1      -1.542  -5.440  -5.062  0.00  0.00    -0.077 A 
ATOM      3  C2  UNL d   1      -1.940  -4.388  -4.228  0.00  0.00    -0.001 A 
ATOM      4  C3  UNL d   1      -3.248  -3.903  -4.280  0.00  0.00     0.003 A 
ATOM      5  C4  UNL d   1      -4.168  -4.463  -5.163  0.00  0.00    -0.005 A 
ATOM      6  C5  UNL d   1      -3.782  -5.512  -5.995  0.00  0.00     0.003 A 
ATOM      7  C6  UNL d   1      -2.475  -5.999  -5.945  0.00  0.00    -0.001 A 
ENDROOT
TORSDOF 0
ENDMDL
