MODEL 1
REMARK minimizedAffinity -1.02910793
REMARK minimizedRMSD -1
REMARK  0 active torsions:
REMARK  status: ('A' for Active; 'I' for Inactive)
ROOT
ATOM      1  C   UNL d   1      -5.322  -2.749  -5.109  0.00  0.00     0.078 C 
ATOM      2  C1  UNL d   1      -4.224  -3.750  -4.912  0.00  0.00    -0.077 A 
ATOM      3  C2  UNL d   1      -3.643  -3.944  -3.652  0.00  0.00    -0.001 A 
ATOM      4  C3  UNL d   1      -2.614  -4.873  -3.485  0.00  0.00     0.003 A 
ATOM      5  C4  UNL d   1      -2.156  -5.614  -4.573  0.00  0.00    -0.005 A 
ATOM      6  C5  UNL d   1      -2.727  -5.426  -5.830  0.00  0.00     0.003 A 
ATOM      7  C6  UNL d   1      -3.755  -4.498  -5.999  0.00  0.00    -0.001 A 
ENDROOT
TORSDOF 0
ENDMDL
