MODEL 1
REMARK minimizedAffinity -5.14626932
REMARK minimizedRMSD -1
REMARK  1 active torsions:
REMARK  status: ('A' for Active; 'I' for Inactive)
REMARK    1  A    between atoms: N_2  and  C1_3 
ROOT
ATOM      1  C1  UNL d   1       0.247  -0.048  -0.026  0.00  0.00     0.143 A 
ATOM      2  C2  UNL d   1      -0.425   1.096  -0.468  0.00  0.00    -0.057 A 
ATOM      3  C3  UNL d   1      -1.290   1.802   0.377  0.00  0.00     0.033 A 
ATOM      4  C4  UNL d   1      -1.521   1.357   1.675  0.00  0.00    -0.042 A 
ATOM      5  C5  UNL d   1      -0.882   0.208   2.128  0.00  0.00     0.033 A 
ATOM      6  C6  UNL d   1      -0.015  -0.489   1.281  0.00  0.00    -0.057 A 
ENDROOT
BRANCH   1   7
ATOM      7  N   UNL d   1       1.043  -0.849  -0.848  0.00  0.00    -0.732 N 
ATOM      8  C   UNL d   1       0.444  -1.680  -1.870  0.00  0.00     0.284 C 
ATOM      9  H3  UNL d   1       1.896  -0.378  -1.142  0.00  0.00     0.395 HD
ENDBRANCH   1   7
TORSDOF 1
ENDMDL
