MODEL 1
REMARK minimizedAffinity -4.58811712
REMARK minimizedRMSD -1
REMARK  1 active torsions:
REMARK  status: ('A' for Active; 'I' for Inactive)
REMARK    1  A    between atoms: N_2  and  C1_3 
ROOT
ATOM      1  C1  UNL d   1      -0.118  -0.009   0.255  0.00  0.00     0.143 A 
ATOM      2  C2  UNL d   1      -0.634  -0.300   1.523  0.00  0.00    -0.057 A 
ATOM      3  C3  UNL d   1      -1.598   0.521   2.121  0.00  0.00     0.033 A 
ATOM      4  C4  UNL d   1      -2.042   1.668   1.472  0.00  0.00    -0.042 A 
ATOM      5  C5  UNL d   1      -1.525   1.991   0.223  0.00  0.00     0.033 A 
ATOM      6  C6  UNL d   1      -0.568   1.163  -0.373  0.00  0.00    -0.057 A 
ENDROOT
BRANCH   1   7
ATOM      7  N   UNL d   1       0.912  -0.732  -0.350  0.00  0.00    -0.732 N 
ATOM      8  C   UNL d   1       0.625  -1.694  -1.392  0.00  0.00     0.284 C 
ATOM      9  H3  UNL d   1       1.735  -0.160  -0.527  0.00  0.00     0.395 HD
ENDBRANCH   1   7
TORSDOF 1
ENDMDL
