MODEL 1
REMARK minimizedAffinity -4.02292681
REMARK minimizedRMSD -1
REMARK  1 active torsions:
REMARK  status: ('A' for Active; 'I' for Inactive)
REMARK    1  A    between atoms: N_2  and  C1_3 
ROOT
ATOM      1  C1  UNL d   1       0.580  -1.631  -1.290  0.00  0.00     0.143 A 
ATOM      2  C2  UNL d   1       1.109  -2.843  -0.834  0.00  0.00    -0.057 A 
ATOM      3  C3  UNL d   1       1.020  -4.009  -1.603  0.00  0.00     0.033 A 
ATOM      4  C4  UNL d   1       0.373  -3.991  -2.834  0.00  0.00    -0.042 A 
ATOM      5  C5  UNL d   1      -0.183  -2.803  -3.296  0.00  0.00     0.033 A 
ATOM      6  C6  UNL d   1      -0.085  -1.640  -2.527  0.00  0.00    -0.057 A 
ENDROOT
BRANCH   1   7
ATOM      7  N   UNL d   1       0.549  -0.460  -0.529  0.00  0.00    -0.732 N 
ATOM      8  C   UNL d   1      -0.466  -0.265   0.484  0.00  0.00     0.284 C 
ATOM      9  H3  UNL d   1       1.478  -0.153  -0.251  0.00  0.00     0.395 HD
ENDBRANCH   1   7
TORSDOF 1
ENDMDL
