MODEL 1
REMARK minimizedAffinity -3.78665233
REMARK minimizedRMSD -1
REMARK  1 active torsions:
REMARK  status: ('A' for Active; 'I' for Inactive)
REMARK    1  A    between atoms: N_2  and  C1_3 
ROOT
ATOM      1  C1  UNL d   1       0.060  -0.221  -0.515  0.00  0.00     0.143 A 
ATOM      2  C2  UNL d   1      -0.255   1.090  -0.887  0.00  0.00    -0.057 A 
ATOM      3  C3  UNL d   1      -1.045   1.907  -0.068  0.00  0.00     0.033 A 
ATOM      4  C4  UNL d   1      -1.558   1.415   1.127  0.00  0.00    -0.042 A 
ATOM      5  C5  UNL d   1      -1.278   0.107   1.505  0.00  0.00     0.033 A 
ATOM      6  C6  UNL d   1      -0.483  -0.702   0.687  0.00  0.00    -0.057 A 
ENDROOT
BRANCH   1   7
ATOM      7  N   UNL d   1       0.758  -1.115  -1.331  0.00  0.00    -0.732 N 
ATOM      8  C   UNL d   1       0.048  -2.087  -2.135  0.00  0.00     0.284 C 
ATOM      9  H3  UNL d   1       1.542  -0.675  -1.807  0.00  0.00     0.395 HD
ENDBRANCH   1   7
TORSDOF 1
ENDMDL
