MODEL 1
REMARK minimizedAffinity -0.628522217
REMARK minimizedRMSD -1
REMARK  1 active torsions:
REMARK  status: ('A' for Active; 'I' for Inactive)
REMARK    1  A    between atoms: N_2  and  C1_3 
ROOT
ATOM      1  C1  UNL d   1      -0.704   1.122   0.303  0.00  0.00     0.143 A 
ATOM      2  C2  UNL d   1      -0.247   1.772  -0.849  0.00  0.00    -0.057 A 
ATOM      3  C3  UNL d   1       0.707   1.180  -1.686  0.00  0.00     0.033 A 
ATOM      4  C4  UNL d   1       1.243  -0.064  -1.369  0.00  0.00    -0.042 A 
ATOM      5  C5  UNL d   1       0.822  -0.717  -0.216  0.00  0.00     0.033 A 
ATOM      6  C6  UNL d   1      -0.136  -0.124   0.612  0.00  0.00    -0.057 A 
ENDROOT
BRANCH   1   7
ATOM      7  N   UNL d   1      -1.577   1.701   1.228  0.00  0.00    -0.732 N 
ATOM      8  C   UNL d   1      -1.114   2.068   2.548  0.00  0.00     0.284 C 
ATOM      9  H3  UNL d   1      -2.199   2.383   0.800  0.00  0.00     0.395 HD
ENDBRANCH   1   7
TORSDOF 1
ENDMDL
