MODEL 1
REMARK minimizedAffinity -1.49927664
REMARK minimizedRMSD -1
REMARK  1 active torsions:
REMARK  status: ('A' for Active; 'I' for Inactive)
REMARK    1  A    between atoms: N_2  and  C1_3 
ROOT
ATOM      1  C1  UNL d   1       1.035  -1.244  -0.820  0.00  0.00     0.143 A 
ATOM      2  C2  UNL d   1       1.004  -0.144  -1.682  0.00  0.00    -0.057 A 
ATOM      3  C3  UNL d   1       0.441   1.075  -1.285  0.00  0.00     0.033 A 
ATOM      4  C4  UNL d   1      -0.129   1.205  -0.022  0.00  0.00    -0.042 A 
ATOM      5  C5  UNL d   1      -0.132   0.117   0.843  0.00  0.00     0.033 A 
ATOM      6  C6  UNL d   1       0.438  -1.095   0.442  0.00  0.00    -0.057 A 
ENDROOT
BRANCH   1   7
ATOM      7  N   UNL d   1       1.492  -2.511  -1.192  0.00  0.00    -0.732 N 
ATOM      8  C   UNL d   1       0.820  -3.262  -2.231  0.00  0.00     0.284 C 
ATOM      9  H3  UNL d   1       2.507  -2.561  -1.233  0.00  0.00     0.395 HD
ENDBRANCH   1   7
TORSDOF 1
ENDMDL
