MODEL 1
REMARK minimizedAffinity -4.95605993
REMARK minimizedRMSD -1
REMARK  1 active torsions:
REMARK  status: ('A' for Active; 'I' for Inactive)
REMARK    1  A    between atoms: N_2  and  C1_3 
ROOT
ATOM      1  C1  UNL d   1       0.118   0.209   0.036  0.00  0.00     0.143 A 
ATOM      2  C2  UNL d   1      -0.416  -0.026   1.308  0.00  0.00    -0.057 A 
ATOM      3  C3  UNL d   1      -1.358   0.844   1.872  0.00  0.00     0.033 A 
ATOM      4  C4  UNL d   1      -1.761   1.983   1.183  0.00  0.00    -0.042 A 
ATOM      5  C5  UNL d   1      -1.225   2.249  -0.072  0.00  0.00     0.033 A 
ATOM      6  C6  UNL d   1      -0.290   1.374  -0.632  0.00  0.00    -0.057 A 
ENDROOT
BRANCH   1   7
ATOM      7  N   UNL d   1       1.131  -0.564  -0.537  0.00  0.00    -0.732 N 
ATOM      8  C   UNL d   1       0.810  -1.633  -1.458  0.00  0.00     0.284 C 
ATOM      9  H3  UNL d   1       1.937  -0.008  -0.811  0.00  0.00     0.395 HD
ENDBRANCH   1   7
TORSDOF 1
ENDMDL
