MODEL 1
REMARK minimizedAffinity -3.19680333
REMARK minimizedRMSD -1
REMARK  1 active torsions:
REMARK  status: ('A' for Active; 'I' for Inactive)
REMARK    1  A    between atoms: N_2  and  C1_3 
ROOT
ATOM      1  C1  UNL d   1       0.460   1.018  -0.549  0.00  0.00     0.143 A 
ATOM      2  C2  UNL d   1       1.041  -0.117   0.025  0.00  0.00    -0.057 A 
ATOM      3  C3  UNL d   1       0.354  -0.884   0.974  0.00  0.00     0.033 A 
ATOM      4  C4  UNL d   1      -0.921  -0.511   1.387  0.00  0.00    -0.042 A 
ATOM      5  C5  UNL d   1      -1.508   0.628   0.848  0.00  0.00     0.033 A 
ATOM      6  C6  UNL d   1      -0.819   1.386  -0.104  0.00  0.00    -0.057 A 
ENDROOT
BRANCH   1   7
ATOM      7  N   UNL d   1       1.130   1.877  -1.424  0.00  0.00    -0.732 N 
ATOM      8  C   UNL d   1       0.514   3.111  -1.862  0.00  0.00     0.284 C 
ATOM      9  H3  UNL d   1       2.119   1.962  -1.202  0.00  0.00     0.395 HD
ENDBRANCH   1   7
TORSDOF 1
ENDMDL
