MODEL 1
REMARK minimizedAffinity -4.8471961
REMARK minimizedRMSD -1
REMARK  1 active torsions:
REMARK  status: ('A' for Active; 'I' for Inactive)
REMARK    1  A    between atoms: N_2  and  C1_3 
ROOT
ATOM      1  C1  UNL d   1       0.259   0.369   0.028  0.00  0.00     0.143 A 
ATOM      2  C2  UNL d   1      -0.449   1.515  -0.349  0.00  0.00    -0.057 A 
ATOM      3  C3  UNL d   1      -1.522   1.990   0.416  0.00  0.00     0.033 A 
ATOM      4  C4  UNL d   1      -1.925   1.308   1.559  0.00  0.00    -0.042 A 
ATOM      5  C5  UNL d   1      -1.252   0.152   1.938  0.00  0.00     0.033 A 
ATOM      6  C6  UNL d   1      -0.177  -0.314   1.174  0.00  0.00    -0.057 A 
ENDROOT
BRANCH   1   7
ATOM      7  N   UNL d   1       1.270  -0.209  -0.743  0.00  0.00    -0.732 N 
ATOM      8  C   UNL d   1       1.067  -1.489  -1.387  0.00  0.00     0.284 C 
ATOM      9  H3  UNL d   1       1.757   0.474  -1.320  0.00  0.00     0.395 HD
ENDBRANCH   1   7
TORSDOF 1
ENDMDL
