MODEL 1
REMARK minimizedAffinity -4.54236031
REMARK minimizedRMSD -1
REMARK  1 active torsions:
REMARK  status: ('A' for Active; 'I' for Inactive)
REMARK    1  A    between atoms: N_2  and  C1_3 
ROOT
ATOM      1  C1  UNL d   1       0.009   0.006   0.052  0.00  0.00     0.143 A 
ATOM      2  C2  UNL d   1      -0.698   1.173  -0.256  0.00  0.00    -0.057 A 
ATOM      3  C3  UNL d   1      -1.601   1.737   0.654  0.00  0.00     0.033 A 
ATOM      4  C4  UNL d   1      -1.834   1.125   1.881  0.00  0.00    -0.042 A 
ATOM      5  C5  UNL d   1      -1.161  -0.049   2.198  0.00  0.00     0.033 A 
ATOM      6  C6  UNL d   1      -0.256  -0.604   1.288  0.00  0.00    -0.057 A 
ENDROOT
BRANCH   1   7
ATOM      7  N   UNL d   1       0.846  -0.657  -0.848  0.00  0.00    -0.732 N 
ATOM      8  C   UNL d   1       0.331  -1.711  -1.695  0.00  0.00     0.284 C 
ATOM      9  H3  UNL d   1       1.490  -0.024  -1.318  0.00  0.00     0.395 HD
ENDBRANCH   1   7
TORSDOF 1
ENDMDL
