MODEL 1
REMARK minimizedAffinity -5.07248163
REMARK minimizedRMSD -1
REMARK  1 active torsions:
REMARK  status: ('A' for Active; 'I' for Inactive)
REMARK    1  A    between atoms: N_2  and  C1_3 
ROOT
ATOM      1  C1  UNL d   1       0.014   1.702  -1.558  0.00  0.00     0.143 A 
ATOM      2  C2  UNL d   1       0.611   2.956  -1.726  0.00  0.00    -0.057 A 
ATOM      3  C3  UNL d   1      -0.157   4.125  -1.776  0.00  0.00     0.033 A 
ATOM      4  C4  UNL d   1      -1.543   4.058  -1.689  0.00  0.00    -0.042 A 
ATOM      5  C5  UNL d   1      -2.160   2.820  -1.546  0.00  0.00     0.033 A 
ATOM      6  C6  UNL d   1      -1.387   1.657  -1.490  0.00  0.00    -0.057 A 
ENDROOT
BRANCH   1   7
ATOM      7  N   UNL d   1       0.715   0.495  -1.599  0.00  0.00    -0.732 N 
ATOM      8  C   UNL d   1       0.063  -0.723  -2.030  0.00  0.00     0.284 C 
ATOM      9  H3  UNL d   1       1.662   0.607  -1.954  0.00  0.00     0.395 HD
ENDBRANCH   1   7
TORSDOF 1
ENDMDL
