MODEL 1
REMARK minimizedAffinity 10.3697081
REMARK minimizedRMSD -1
REMARK  1 active torsions:
REMARK  status: ('A' for Active; 'I' for Inactive)
REMARK    1  A    between atoms: C1_2  and  C2_3 
ROOT
ATOM      1  C2  UNL d   1       1.646  -2.936   0.501  0.00  0.00    -0.076 A 
ATOM      2  C3  UNL d   1       0.256  -2.771   0.626  0.00  0.00     0.004 A 
ATOM      3  C4  UNL d   1      -0.278  -1.743   1.401  0.00  0.00    -0.003 A 
ATOM      4  C5  UNL d   1       0.570  -0.862   2.063  0.00  0.00     0.000 A 
ATOM      5  C6  UNL d   1       1.951  -0.999   1.935  0.00  0.00     0.000 A 
ATOM      6  C7  UNL d   1       2.506  -2.021   1.145  0.00  0.00    -0.073 A 
ATOM      7  C8  UNL d   1       4.003  -2.126   1.048  0.00  0.00     0.078 C 
ENDROOT
BRANCH   1   8
ATOM      8  C1  UNL d   1       2.167  -4.086  -0.331  0.00  0.00     0.053 C 
ATOM      9  C   UNL d   1       2.123  -5.411   0.414  0.00  0.00     0.018 C 
ENDBRANCH   1   8
TORSDOF 1
ENDMDL
