MODEL 1
REMARK minimizedAffinity 15.8053102
REMARK minimizedRMSD -1
REMARK  1 active torsions:
REMARK  status: ('A' for Active; 'I' for Inactive)
REMARK    1  A    between atoms: C1_2  and  C2_3 
ROOT
ATOM      1  C2  UNL d   1       2.789  -2.204   2.104  0.00  0.00    -0.076 A 
ATOM      2  C3  UNL d   1       1.979  -1.111   2.458  0.00  0.00     0.004 A 
ATOM      3  C4  UNL d   1       0.764  -0.881   1.816  0.00  0.00    -0.003 A 
ATOM      4  C5  UNL d   1       0.338  -1.740   0.810  0.00  0.00     0.000 A 
ATOM      5  C6  UNL d   1       1.120  -2.840   0.457  0.00  0.00     0.000 A 
ATOM      6  C7  UNL d   1       2.341  -3.096   1.106  0.00  0.00    -0.073 A 
ATOM      7  C8  UNL d   1       3.147  -4.293   0.682  0.00  0.00     0.078 C 
ENDROOT
BRANCH   1   8
ATOM      8  C1  UNL d   1       4.110  -2.388   2.817  0.00  0.00     0.053 C 
ATOM      9  C   UNL d   1       4.001  -2.151   4.315  0.00  0.00     0.018 C 
ENDBRANCH   1   8
TORSDOF 1
ENDMDL
