MODEL 1
REMARK minimizedAffinity 11.824482
REMARK minimizedRMSD -1
REMARK  1 active torsions:
REMARK  status: ('A' for Active; 'I' for Inactive)
REMARK    1  A    between atoms: C1_2  and  C2_3 
ROOT
ATOM      1  C2  UNL d   1       5.971   0.945  -0.015  0.00  0.00    -0.076 A 
ATOM      2  C3  UNL d   1       5.992   1.630   1.212  0.00  0.00     0.004 A 
ATOM      3  C4  UNL d   1       6.000   3.023   1.257  0.00  0.00    -0.003 A 
ATOM      4  C5  UNL d   1       5.986   3.754   0.074  0.00  0.00     0.000 A 
ATOM      5  C6  UNL d   1       5.947   3.091  -1.152  0.00  0.00     0.000 A 
ATOM      6  C7  UNL d   1       5.922   1.688  -1.214  0.00  0.00    -0.073 A 
ATOM      7  C8  UNL d   1       5.887   1.025  -2.564  0.00  0.00     0.078 C 
ENDROOT
BRANCH   1   8
ATOM      8  C1  UNL d   1       5.991  -0.567  -0.001  0.00  0.00     0.053 C 
ATOM      9  C   UNL d   1       5.999  -1.136   1.409  0.00  0.00     0.018 C 
ENDBRANCH   1   8
TORSDOF 1
ENDMDL
