MODEL 1
REMARK minimizedAffinity 14.0301552
REMARK minimizedRMSD -1
REMARK  1 active torsions:
REMARK  status: ('A' for Active; 'I' for Inactive)
REMARK    1  A    between atoms: C1_2  and  C2_3 
ROOT
ATOM      1  C2  UNL d   1       2.502  -2.118   1.268  0.00  0.00    -0.076 A 
ATOM      2  C3  UNL d   1       2.001  -0.807   1.192  0.00  0.00     0.004 A 
ATOM      3  C4  UNL d   1       0.903  -0.505   0.387  0.00  0.00    -0.003 A 
ATOM      4  C5  UNL d   1       0.289  -1.509  -0.353  0.00  0.00     0.000 A 
ATOM      5  C6  UNL d   1       0.763  -2.818  -0.276  0.00  0.00     0.000 A 
ATOM      6  C7  UNL d   1       1.858  -3.143   0.543  0.00  0.00    -0.073 A 
ATOM      7  C8  UNL d   1       2.330  -4.570   0.584  0.00  0.00     0.078 C 
ENDROOT
BRANCH   1   8
ATOM      8  C1  UNL d   1       3.712  -2.381   2.137  0.00  0.00     0.053 C 
ATOM      9  C   UNL d   1       3.531  -1.872   3.558  0.00  0.00     0.018 C 
ENDBRANCH   1   8
TORSDOF 1
ENDMDL
