MODEL 1
REMARK minimizedAffinity 10.0221567
REMARK minimizedRMSD -1
REMARK  1 active torsions:
REMARK  status: ('A' for Active; 'I' for Inactive)
REMARK    1  A    between atoms: C1_2  and  C2_3 
ROOT
ATOM      1  C2  UNL d   1       1.822  -3.168   0.800  0.00  0.00    -0.076 A 
ATOM      2  C3  UNL d   1       0.423  -3.117   0.928  0.00  0.00     0.004 A 
ATOM      3  C4  UNL d   1      -0.202  -2.031   1.539  0.00  0.00    -0.003 A 
ATOM      4  C5  UNL d   1       0.562  -0.978   2.031  0.00  0.00     0.000 A 
ATOM      5  C6  UNL d   1       1.950  -1.004   1.896  0.00  0.00     0.000 A 
ATOM      6  C7  UNL d   1       2.594  -2.084   1.268  0.00  0.00    -0.073 A 
ATOM      7  C8  UNL d   1       4.094  -2.062   1.155  0.00  0.00     0.078 C 
ENDROOT
BRANCH   1   8
ATOM      8  C1  UNL d   1       2.445  -4.384   0.152  0.00  0.00     0.053 C 
ATOM      9  C   UNL d   1       1.967  -5.686   0.776  0.00  0.00     0.018 C 
ENDBRANCH   1   8
TORSDOF 1
ENDMDL
