MODEL 1
REMARK minimizedAffinity 8.55962944
REMARK minimizedRMSD -1
REMARK  1 active torsions:
REMARK  status: ('A' for Active; 'I' for Inactive)
REMARK    1  A    between atoms: C1_2  and  C2_3 
ROOT
ATOM      1  C2  UNL d   1       0.085  -2.278   2.170  0.00  0.00    -0.076 A 
ATOM      2  C3  UNL d   1       0.396  -3.268   1.222  0.00  0.00     0.004 A 
ATOM      3  C4  UNL d   1       1.599  -3.236   0.520  0.00  0.00    -0.003 A 
ATOM      4  C5  UNL d   1       2.512  -2.213   0.754  0.00  0.00     0.000 A 
ATOM      5  C6  UNL d   1       2.227  -1.232   1.704  0.00  0.00     0.000 A 
ATOM      6  C7  UNL d   1       1.026  -1.259   2.432  0.00  0.00    -0.073 A 
ATOM      7  C8  UNL d   1       0.768  -0.172   3.440  0.00  0.00     0.078 C 
ENDROOT
BRANCH   1   8
ATOM      8  C1  UNL d   1      -1.247  -2.349   2.882  0.00  0.00     0.053 C 
ATOM      9  C   UNL d   1      -2.134  -3.463   2.347  0.00  0.00     0.018 C 
ENDBRANCH   1   8
TORSDOF 1
ENDMDL
