MODEL 1
REMARK minimizedAffinity 20.8066463
REMARK minimizedRMSD -1
REMARK  1 active torsions:
REMARK  status: ('A' for Active; 'I' for Inactive)
REMARK    1  A    between atoms: C1_2  and  C2_3 
ROOT
ATOM      1  C2  UNL d   1       3.278   0.302   0.259  0.00  0.00    -0.076 A 
ATOM      2  C3  UNL d   1       4.374  -0.213  -0.454  0.00  0.00     0.004 A 
ATOM      3  C4  UNL d   1       5.465   0.593  -0.773  0.00  0.00    -0.003 A 
ATOM      4  C5  UNL d   1       5.478   1.928  -0.383  0.00  0.00     0.000 A 
ATOM      5  C6  UNL d   1       4.407   2.451   0.341  0.00  0.00     0.000 A 
ATOM      6  C7  UNL d   1       3.306   1.647   0.684  0.00  0.00    -0.073 A 
ATOM      7  C8  UNL d   1       2.175   2.265   1.461  0.00  0.00     0.078 C 
ENDROOT
BRANCH   1   8
ATOM      8  C1  UNL d   1       2.110  -0.614   0.553  0.00  0.00     0.053 C 
ATOM      9  C   UNL d   1       2.519  -2.078   0.613  0.00  0.00     0.018 C 
ENDBRANCH   1   8
TORSDOF 1
ENDMDL
