MODEL 1
REMARK minimizedAffinity 8.90715981
REMARK minimizedRMSD -1
REMARK  1 active torsions:
REMARK  status: ('A' for Active; 'I' for Inactive)
REMARK    1  A    between atoms: C1_2  and  C2_3 
ROOT
ATOM      1  C2  UNL d   1      -0.535   3.113  -4.174  0.00  0.00    -0.076 A 
ATOM      2  C3  UNL d   1      -1.469   3.817  -3.395  0.00  0.00     0.004 A 
ATOM      3  C4  UNL d   1      -2.757   3.323  -3.200  0.00  0.00    -0.003 A 
ATOM      4  C5  UNL d   1      -3.133   2.117  -3.780  0.00  0.00     0.000 A 
ATOM      5  C6  UNL d   1      -2.214   1.396  -4.542  0.00  0.00     0.000 A 
ATOM      6  C7  UNL d   1      -0.905   1.871  -4.735  0.00  0.00    -0.073 A 
ATOM      7  C8  UNL d   1       0.043   1.056  -5.571  0.00  0.00     0.078 C 
ENDROOT
BRANCH   1   8
ATOM      8  C1  UNL d   1       0.840   3.711  -4.374  0.00  0.00     0.053 C 
ATOM      9  C   UNL d   1       0.804   5.227  -4.489  0.00  0.00     0.018 C 
ENDBRANCH   1   8
TORSDOF 1
ENDMDL
