MODEL 1
REMARK minimizedAffinity 11.1436663
REMARK minimizedRMSD -1
REMARK  0 active torsions:
REMARK  status: ('A' for Active; 'I' for Inactive)
ROOT
ATOM      1  C1  DEN d   1       1.237   3.865   0.627  0.00  0.00     0.130 A 
ATOM      2  C2  DEN d   1       0.064   3.963   1.492  0.00  0.00    -0.031 A 
ATOM      3  C3  DEN d   1      -0.034   2.713   2.272  0.00  0.00     0.027 A 
ATOM      4  C4  DEN d   1       1.511   0.648   2.229  0.00  0.00     0.027 A 
ATOM      5  C5  DEN d   1       2.630   0.096   1.647  0.00  0.00    -0.003 A 
ATOM      6  C6  DEN d   1       3.338   0.741   0.667  0.00  0.00     0.001 A 
ATOM      7  C7  DEN d   1       2.960   1.997   0.273  0.00  0.00     0.017 A 
ATOM      8  C8  DEN d   1       1.828   2.558   0.850  0.00  0.00    -0.094 A 
ATOM      9  C9  DEN d   1       1.133   1.895   1.847  0.00  0.00    -0.072 A 
ENDROOT
TORSDOF 0
ENDMDL
