MODEL 1
REMARK minimizedAffinity 13.5830908
REMARK minimizedRMSD -1
REMARK  0 active torsions:
REMARK  status: ('A' for Active; 'I' for Inactive)
ROOT
ATOM      1  C1  DEN d   1       3.977   0.129  -2.306  0.00  0.00     0.130 A 
ATOM      2  C2  DEN d   1       3.924   1.255  -3.234  0.00  0.00    -0.031 A 
ATOM      3  C3  DEN d   1       3.149   2.337  -2.596  0.00  0.00     0.027 A 
ATOM      4  C4  DEN d   1       2.035   2.381  -0.270  0.00  0.00     0.027 A 
ATOM      5  C5  DEN d   1       1.798   1.653   0.875  0.00  0.00    -0.003 A 
ATOM      6  C6  DEN d   1       2.238   0.364   1.025  0.00  0.00     0.001 A 
ATOM      7  C7  DEN d   1       2.978  -0.221   0.031  0.00  0.00     0.017 A 
ATOM      8  C8  DEN d   1       3.214   0.505  -1.129  0.00  0.00    -0.094 A 
ATOM      9  C9  DEN d   1       2.771   1.810  -1.257  0.00  0.00    -0.072 A 
ENDROOT
TORSDOF 0
ENDMDL
