MODEL 1
REMARK minimizedAffinity 10.2491951
REMARK minimizedRMSD -1
REMARK  0 active torsions:
REMARK  status: ('A' for Active; 'I' for Inactive)
ROOT
ATOM      1  C1  DEN d   1       1.842  -2.589  -5.994  0.00  0.00     0.130 A 
ATOM      2  C2  DEN d   1       2.935  -3.556  -5.957  0.00  0.00    -0.031 A 
ATOM      3  C3  DEN d   1       2.346  -4.910  -5.942  0.00  0.00     0.027 A 
ATOM      4  C4  DEN d   1      -0.139  -5.599  -5.976  0.00  0.00     0.027 A 
ATOM      5  C5  DEN d   1      -1.434  -5.130  -5.996  0.00  0.00    -0.003 A 
ATOM      6  C6  DEN d   1      -1.726  -3.792  -5.982  0.00  0.00     0.001 A 
ATOM      7  C7  DEN d   1      -0.708  -2.875  -5.993  0.00  0.00     0.017 A 
ATOM      8  C8  DEN d   1       0.600  -3.340  -5.966  0.00  0.00    -0.094 A 
ATOM      9  C9  DEN d   1       0.875  -4.697  -5.992  0.00  0.00    -0.072 A 
ENDROOT
TORSDOF 0
ENDMDL
