MODEL 1
REMARK minimizedAffinity 17.2136059
REMARK minimizedRMSD -1
REMARK  0 active torsions:
REMARK  status: ('A' for Active; 'I' for Inactive)
ROOT
ATOM      1  C1  DEN d   1       0.704   3.419   1.054  0.00  0.00     0.130 A 
ATOM      2  C2  DEN d   1      -0.383   3.490   2.027  0.00  0.00    -0.031 A 
ATOM      3  C3  DEN d   1      -0.248   2.342   2.946  0.00  0.00     0.027 A 
ATOM      4  C4  DEN d   1       1.530   0.474   2.960  0.00  0.00     0.027 A 
ATOM      5  C5  DEN d   1       2.648  -0.017   2.322  0.00  0.00    -0.003 A 
ATOM      6  C6  DEN d   1       3.172   0.579   1.205  0.00  0.00     0.001 A 
ATOM      7  C7  DEN d   1       2.604   1.727   0.719  0.00  0.00     0.017 A 
ATOM      8  C8  DEN d   1       1.473   2.224   1.353  0.00  0.00    -0.094 A 
ATOM      9  C9  DEN d   1       0.965   1.613   2.487  0.00  0.00    -0.072 A 
ENDROOT
TORSDOF 0
ENDMDL
