MODEL 1
REMARK minimizedAffinity 20.4805984
REMARK minimizedRMSD -1
REMARK  0 active torsions:
REMARK  status: ('A' for Active; 'I' for Inactive)
ROOT
ATOM      1  C1  DEN d   1      -3.802   2.515   4.257  0.00  0.00     0.130 A 
ATOM      2  C2  DEN d   1      -4.068   1.694   3.079  0.00  0.00    -0.031 A 
ATOM      3  C3  DEN d   1      -4.887   2.490   2.143  0.00  0.00     0.027 A 
ATOM      4  C4  DEN d   1      -5.760   4.904   2.400  0.00  0.00     0.027 A 
ATOM      5  C5  DEN d   1      -5.801   6.000   3.233  0.00  0.00    -0.003 A 
ATOM      6  C6  DEN d   1      -5.212   6.000   4.470  0.00  0.00     0.001 A 
ATOM      7  C7  DEN d   1      -4.518   4.897   4.890  0.00  0.00     0.017 A 
ATOM      8  C8  DEN d   1      -4.478   3.785   4.059  0.00  0.00    -0.094 A 
ATOM      9  C9  DEN d   1      -5.070   3.809   2.808  0.00  0.00    -0.072 A 
ENDROOT
TORSDOF 0
ENDMDL
