MODEL 1
REMARK minimizedAffinity -0.909581959
REMARK minimizedRMSD -1
REMARK  0 active torsions:
REMARK  status: ('A' for Active; 'I' for Inactive)
ROOT
ATOM      1  C1  DEN d   1       5.911   1.250   0.084  0.00  0.00     0.130 A 
ATOM      2  C2  DEN d   1       5.987   2.579  -0.518  0.00  0.00    -0.031 A 
ATOM      3  C3  DEN d   1       4.660   3.213  -0.394  0.00  0.00     0.027 A 
ATOM      4  C4  DEN d   1       2.506   2.275   0.671  0.00  0.00     0.027 A 
ATOM      5  C5  DEN d   1       1.948   1.185   1.301  0.00  0.00    -0.003 A 
ATOM      6  C6  DEN d   1       2.657   0.037   1.538  0.00  0.00     0.001 A 
ATOM      7  C7  DEN d   1       3.978  -0.031   1.182  0.00  0.00     0.017 A 
ATOM      8  C8  DEN d   1       4.545   1.061   0.539  0.00  0.00    -0.094 A 
ATOM      9  C9  DEN d   1       3.815   2.217   0.319  0.00  0.00    -0.072 A 
ENDROOT
TORSDOF 0
ENDMDL
