MODEL 1
REMARK minimizedAffinity 9.92461586
REMARK minimizedRMSD -1
REMARK  0 active torsions:
REMARK  status: ('A' for Active; 'I' for Inactive)
ROOT
ATOM      1  C1  DEN d   1      -1.846  -4.348  -1.986  0.00  0.00     0.130 A 
ATOM      2  C2  DEN d   1      -1.728  -2.908  -2.202  0.00  0.00    -0.031 A 
ATOM      3  C3  DEN d   1      -3.082  -2.371  -2.447  0.00  0.00     0.027 A 
ATOM      4  C4  DEN d   1      -5.337  -3.621  -2.508  0.00  0.00     0.027 A 
ATOM      5  C5  DEN d   1      -5.941  -4.853  -2.393  0.00  0.00    -0.003 A 
ATOM      6  C6  DEN d   1      -5.225  -5.999  -2.170  0.00  0.00     0.001 A 
ATOM      7  C7  DEN d   1      -3.866  -5.930  -2.010  0.00  0.00     0.017 A 
ATOM      8  C8  DEN d   1      -3.249  -4.692  -2.132  0.00  0.00    -0.094 A 
ATOM      9  C9  DEN d   1      -3.992  -3.543  -2.345  0.00  0.00    -0.072 A 
ENDROOT
TORSDOF 0
ENDMDL
