MODEL 1
REMARK minimizedAffinity 7.05844879
REMARK minimizedRMSD -1
REMARK  0 active torsions:
REMARK  status: ('A' for Active; 'I' for Inactive)
ROOT
ATOM      1  C1  DEN d   1      -2.412  -2.243  -2.434  0.00  0.00     0.130 A 
ATOM      2  C2  DEN d   1      -3.752  -2.786  -2.640  0.00  0.00    -0.031 A 
ATOM      3  C3  DEN d   1      -4.224  -3.338  -1.355  0.00  0.00     0.027 A 
ATOM      4  C4  DEN d   1      -3.018  -3.401   0.925  0.00  0.00     0.027 A 
ATOM      5  C5  DEN d   1      -1.857  -3.072   1.590  0.00  0.00    -0.003 A 
ATOM      6  C6  DEN d   1      -0.796  -2.480   0.958  0.00  0.00     0.001 A 
ATOM      7  C7  DEN d   1      -0.891  -2.157  -0.369  0.00  0.00     0.017 A 
ATOM      8  C8  DEN d   1      -2.055  -2.492  -1.049  0.00  0.00    -0.094 A 
ATOM      9  C9  DEN d   1      -3.121  -3.079  -0.390  0.00  0.00    -0.072 A 
ENDROOT
TORSDOF 0
ENDMDL
