MODEL 1
REMARK minimizedAffinity 5.70775414
REMARK minimizedRMSD -1
REMARK  0 active torsions:
REMARK  status: ('A' for Active; 'I' for Inactive)
ROOT
ATOM      1  C1  DEN d   1       3.375   5.946  -5.230  0.00  0.00     0.130 A 
ATOM      2  C2  DEN d   1       2.000   5.999  -5.720  0.00  0.00    -0.031 A 
ATOM      3  C3  DEN d   1       1.296   4.796  -5.234  0.00  0.00     0.027 A 
ATOM      4  C4  DEN d   1       2.194   2.867  -3.776  0.00  0.00     0.027 A 
ATOM      5  C5  DEN d   1       3.304   2.375  -3.126  0.00  0.00    -0.003 A 
ATOM      6  C6  DEN d   1       4.514   3.015  -3.159  0.00  0.00     0.001 A 
ATOM      7  C7  DEN d   1       4.632   4.209  -3.820  0.00  0.00     0.017 A 
ATOM      8  C8  DEN d   1       3.519   4.708  -4.485  0.00  0.00    -0.094 A 
ATOM      9  C9  DEN d   1       2.302   4.052  -4.429  0.00  0.00    -0.072 A 
ENDROOT
TORSDOF 0
ENDMDL
