MODEL 1
REMARK minimizedAffinity 11.9487925
REMARK minimizedRMSD -1
REMARK  0 active torsions:
REMARK  status: ('A' for Active; 'I' for Inactive)
ROOT
ATOM      1  C1  DEN d   1      -3.904  -2.060  -2.956  0.00  0.00     0.130 A 
ATOM      2  C2  DEN d   1      -2.635  -2.069  -2.235  0.00  0.00    -0.031 A 
ATOM      3  C3  DEN d   1      -2.428  -3.426  -1.691  0.00  0.00     0.027 A 
ATOM      4  C4  DEN d   1      -3.941  -5.505  -1.900  0.00  0.00     0.027 A 
ATOM      5  C5  DEN d   1      -5.128  -5.983  -2.409  0.00  0.00    -0.003 A 
ATOM      6  C6  DEN d   1      -6.000  -5.184  -3.102  0.00  0.00     0.001 A 
ATOM      7  C7  DEN d   1      -5.675  -3.875  -3.343  0.00  0.00     0.017 A 
ATOM      8  C8  DEN d   1      -4.483  -3.384  -2.826  0.00  0.00    -0.094 A 
ATOM      9  C9  DEN d   1      -3.610  -4.211  -2.140  0.00  0.00    -0.072 A 
ENDROOT
TORSDOF 0
ENDMDL
