MODEL 1
REMARK minimizedAffinity 18.7622089
REMARK minimizedRMSD -1
REMARK  0 active torsions:
REMARK  status: ('A' for Active; 'I' for Inactive)
ROOT
ATOM      1  C1  DEN d   1       0.847   0.617   2.472  0.00  0.00     0.130 A 
ATOM      2  C2  DEN d   1       0.183   1.913   2.362  0.00  0.00    -0.031 A 
ATOM      3  C3  DEN d   1       0.984   2.760   1.456  0.00  0.00     0.027 A 
ATOM      4  C4  DEN d   1       3.172   2.193   0.215  0.00  0.00     0.027 A 
ATOM      5  C5  DEN d   1       4.124   1.219   0.006  0.00  0.00    -0.003 A 
ATOM      6  C6  DEN d   1       4.069  -0.001   0.625  0.00  0.00     0.001 A 
ATOM      7  C7  DEN d   1       3.016  -0.296   1.450  0.00  0.00     0.017 A 
ATOM      8  C8  DEN d   1       2.056   0.683   1.672  0.00  0.00    -0.094 A 
ATOM      9  C9  DEN d   1       2.123   1.906   1.026  0.00  0.00    -0.072 A 
ENDROOT
TORSDOF 0
ENDMDL
