MODEL 1
REMARK minimizedAffinity 16.9162674
REMARK minimizedRMSD -1
REMARK  0 active torsions:
REMARK  status: ('A' for Active; 'I' for Inactive)
ROOT
ATOM      1  C1  DEN d   1      -3.623  -2.262  -2.980  0.00  0.00     0.130 A 
ATOM      2  C2  DEN d   1      -2.349  -2.333  -2.270  0.00  0.00    -0.031 A 
ATOM      3  C3  DEN d   1      -2.260  -3.657  -1.623  0.00  0.00     0.027 A 
ATOM      4  C4  DEN d   1      -3.960  -5.596  -1.655  0.00  0.00     0.027 A 
ATOM      5  C5  DEN d   1      -5.194  -6.000  -2.116  0.00  0.00    -0.003 A 
ATOM      6  C6  DEN d   1      -5.999  -5.180  -2.862  0.00  0.00     0.001 A 
ATOM      7  C7  DEN d   1      -5.559  -3.930  -3.208  0.00  0.00     0.017 A 
ATOM      8  C8  DEN d   1      -4.320  -3.513  -2.741  0.00  0.00    -0.094 A 
ATOM      9  C9  DEN d   1      -3.516  -4.361  -1.998  0.00  0.00    -0.072 A 
ENDROOT
TORSDOF 0
ENDMDL
