MODEL 1
REMARK minimizedAffinity 9.92383575
REMARK minimizedRMSD -1
REMARK  0 active torsions:
REMARK  status: ('A' for Active; 'I' for Inactive)
ROOT
ATOM      1  C1  DEN d   1      -4.617  -2.352  -1.307  0.00  0.00     0.130 A 
ATOM      2  C2  DEN d   1      -3.267  -2.446  -1.855  0.00  0.00    -0.031 A 
ATOM      3  C3  DEN d   1      -2.702  -3.750  -1.456  0.00  0.00     0.027 A 
ATOM      4  C4  DEN d   1      -3.783  -5.627  -0.055  0.00  0.00     0.027 A 
ATOM      5  C5  DEN d   1      -4.912  -6.000   0.640  0.00  0.00    -0.003 A 
ATOM      6  C6  DEN d   1      -6.000  -5.177   0.763  0.00  0.00     0.001 A 
ATOM      7  C7  DEN d   1      -6.000  -3.955   0.143  0.00  0.00     0.017 A 
ATOM      8  C8  DEN d   1      -4.862  -3.569  -0.554  0.00  0.00    -0.094 A 
ATOM      9  C9  DEN d   1      -3.777  -4.420  -0.676  0.00  0.00    -0.072 A 
ENDROOT
TORSDOF 0
ENDMDL
