MODEL 1
REMARK minimizedAffinity 0.632493854
REMARK minimizedRMSD -1
REMARK  0 active torsions:
REMARK  status: ('A' for Active; 'I' for Inactive)
ROOT
ATOM      1  C1  DEN d   1       0.428   2.182   2.218  0.00  0.00     0.130 A 
ATOM      2  C2  DEN d   1       1.376   1.140   1.833  0.00  0.00    -0.031 A 
ATOM      3  C3  DEN d   1       0.651  -0.145   1.794  0.00  0.00     0.027 A 
ATOM      4  C4  DEN d   1      -1.836  -0.621   2.284  0.00  0.00     0.027 A 
ATOM      5  C5  DEN d   1      -3.034  -0.056   2.662  0.00  0.00    -0.003 A 
ATOM      6  C6  DEN d   1      -3.153   1.278   2.949  0.00  0.00     0.001 A 
ATOM      7  C7  DEN d   1      -2.065   2.100   2.819  0.00  0.00     0.017 A 
ATOM      8  C8  DEN d   1      -0.852   1.536   2.446  0.00  0.00    -0.094 A 
ATOM      9  C9  DEN d   1      -0.755   0.188   2.148  0.00  0.00    -0.072 A 
ENDROOT
TORSDOF 0
ENDMDL
