MODEL 1
REMARK minimizedAffinity 9.78565979
REMARK minimizedRMSD -1
REMARK  0 active torsions:
REMARK  status: ('A' for Active; 'I' for Inactive)
ROOT
ATOM      1  C1  DEN d   1      -2.429   0.670   2.966  0.00  0.00     0.130 A 
ATOM      2  C2  DEN d   1      -2.844   2.029   2.628  0.00  0.00    -0.031 A 
ATOM      3  C3  DEN d   1      -1.696   2.715   2.002  0.00  0.00     0.027 A 
ATOM      4  C4  DEN d   1       0.671   1.808   1.521  0.00  0.00     0.027 A 
ATOM      5  C5  DEN d   1       1.499   0.714   1.639  0.00  0.00    -0.003 A 
ATOM      6  C6  DEN d   1       1.090  -0.451   2.233  0.00  0.00     0.001 A 
ATOM      7  C7  DEN d   1      -0.196  -0.564   2.692  0.00  0.00     0.017 A 
ATOM      8  C8  DEN d   1      -1.034   0.538   2.583  0.00  0.00    -0.094 A 
ATOM      9  C9  DEN d   1      -0.606   1.702   1.968  0.00  0.00    -0.072 A 
ENDROOT
TORSDOF 0
ENDMDL
