MODEL 1
REMARK minimizedAffinity 2.05806851
REMARK minimizedRMSD -1
REMARK  0 active torsions:
REMARK  status: ('A' for Active; 'I' for Inactive)
ROOT
ATOM      1  C1  DEN d   1      -1.429  -0.678   2.473  0.00  0.00     0.130 A 
ATOM      2  C2  DEN d   1      -2.624   0.162   2.432  0.00  0.00    -0.031 A 
ATOM      3  C3  DEN d   1      -2.190   1.566   2.285  0.00  0.00     0.027 A 
ATOM      4  C4  DEN d   1       0.202   2.515   2.113  0.00  0.00     0.027 A 
ATOM      5  C5  DEN d   1       1.541   2.192   2.112  0.00  0.00    -0.003 A 
ATOM      6  C6  DEN d   1       1.981   0.903   2.263  0.00  0.00     0.001 A 
ATOM      7  C7  DEN d   1       1.072  -0.115   2.377  0.00  0.00     0.017 A 
ATOM      8  C8  DEN d   1      -0.279   0.204   2.387  0.00  0.00    -0.094 A 
ATOM      9  C9  DEN d   1      -0.704   1.511   2.221  0.00  0.00    -0.072 A 
ENDROOT
TORSDOF 0
ENDMDL
