MODEL 1
REMARK minimizedAffinity -4.26112747
REMARK minimizedRMSD -1
REMARK  0 active torsions:
REMARK  status: ('A' for Active; 'I' for Inactive)
ROOT
ATOM      1  C   UNL d   1      -0.897   1.762  -2.120  0.00  0.00     0.077 C 
ATOM      2  C1  UNL d   1      -0.220   0.711  -1.293  0.00  0.00    -0.074 A 
ATOM      3  C2  UNL d   1       0.731  -0.146  -1.856  0.00  0.00    -0.005 A 
ATOM      4  C3  UNL d   1       1.359  -1.113  -1.072  0.00  0.00     0.006 A 
ATOM      5  C4  UNL d   1       1.044  -1.232   0.282  0.00  0.00    -0.005 A 
ATOM      6  C5  UNL d   1       0.097  -0.383   0.864  0.00  0.00    -0.074 A 
ATOM      7  C6  UNL d   1      -0.246  -0.492   2.320  0.00  0.00     0.077 C 
ATOM      8  C7  UNL d   1      -0.525   0.590   0.070  0.00  0.00    -0.001 A 
ENDROOT
TORSDOF 0
ENDMDL
