MODEL 1
REMARK minimizedAffinity 4.56157446
REMARK minimizedRMSD -1
REMARK  0 active torsions:
REMARK  status: ('A' for Active; 'I' for Inactive)
ROOT
ATOM      1  C   UNL d   1      -2.540   1.034   3.338  0.00  0.00     0.077 C 
ATOM      2  C1  UNL d   1      -1.466   0.377   2.523  0.00  0.00    -0.074 A 
ATOM      3  C2  UNL d   1      -0.436  -0.342   3.138  0.00  0.00    -0.005 A 
ATOM      4  C3  UNL d   1       0.551  -0.956   2.367  0.00  0.00     0.006 A 
ATOM      5  C4  UNL d   1       0.518  -0.858   0.976  0.00  0.00    -0.005 A 
ATOM      6  C5  UNL d   1      -0.504  -0.143   0.343  0.00  0.00    -0.074 A 
ATOM      7  C6  UNL d   1      -0.559  -0.035  -1.152  0.00  0.00     0.077 C 
ATOM      8  C7  UNL d   1      -1.496   0.465   1.124  0.00  0.00    -0.001 A 
ENDROOT
TORSDOF 0
ENDMDL
