MODEL 1
REMARK minimizedAffinity -1.56313932
REMARK minimizedRMSD -1
REMARK  0 active torsions:
REMARK  status: ('A' for Active; 'I' for Inactive)
ROOT
ATOM      1  C   UNL d   1       2.471  -1.050  -0.942  0.00  0.00     0.077 C 
ATOM      2  C1  UNL d   1       1.099  -0.496  -0.697  0.00  0.00    -0.074 A 
ATOM      3  C2  UNL d   1       0.452  -0.693   0.527  0.00  0.00    -0.005 A 
ATOM      4  C3  UNL d   1      -0.820  -0.164   0.744  0.00  0.00     0.006 A 
ATOM      5  C4  UNL d   1      -1.458   0.566  -0.259  0.00  0.00    -0.005 A 
ATOM      6  C5  UNL d   1      -0.827   0.774  -1.490  0.00  0.00    -0.074 A 
ATOM      7  C6  UNL d   1      -1.494   1.564  -2.576  0.00  0.00     0.077 C 
ATOM      8  C7  UNL d   1       0.455   0.245  -1.698  0.00  0.00    -0.001 A 
ENDROOT
TORSDOF 0
ENDMDL
