MODEL 1
REMARK minimizedAffinity -3.22142053
REMARK minimizedRMSD -1
REMARK  0 active torsions:
REMARK  status: ('A' for Active; 'I' for Inactive)
ROOT
ATOM      1  C   UNL d   1       0.107  -0.726   2.832  0.00  0.00     0.077 C 
ATOM      2  C1  UNL d   1       0.349  -0.506   1.368  0.00  0.00    -0.074 A 
ATOM      3  C2  UNL d   1       1.507  -0.990   0.751  0.00  0.00    -0.005 A 
ATOM      4  C3  UNL d   1       1.714  -0.786  -0.614  0.00  0.00     0.006 A 
ATOM      5  C4  UNL d   1       0.766  -0.098  -1.373  0.00  0.00    -0.005 A 
ATOM      6  C5  UNL d   1      -0.398   0.392  -0.773  0.00  0.00    -0.074 A 
ATOM      7  C6  UNL d   1      -1.431   1.125  -1.576  0.00  0.00     0.077 C 
ATOM      8  C7  UNL d   1      -0.601   0.178   0.597  0.00  0.00    -0.001 A 
ENDROOT
TORSDOF 0
ENDMDL
