MODEL 1
REMARK minimizedAffinity -3.31109834
REMARK minimizedRMSD -1
REMARK  0 active torsions:
REMARK  status: ('A' for Active; 'I' for Inactive)
ROOT
ATOM      1  C   UNL d   1       1.983  -0.753   2.844  0.00  0.00     0.077 C 
ATOM      2  C1  UNL d   1       0.736  -0.630   2.020  0.00  0.00    -0.074 A 
ATOM      3  C2  UNL d   1      -0.490  -1.106   2.497  0.00  0.00    -0.005 A 
ATOM      4  C3  UNL d   1      -1.643  -0.976   1.724  0.00  0.00     0.006 A 
ATOM      5  C4  UNL d   1      -1.583  -0.370   0.468  0.00  0.00    -0.005 A 
ATOM      6  C5  UNL d   1      -0.366   0.112  -0.025  0.00  0.00    -0.074 A 
ATOM      7  C6  UNL d   1      -0.285   0.775  -1.368  0.00  0.00     0.077 C 
ATOM      8  C7  UNL d   1       0.787  -0.016   0.761  0.00  0.00    -0.001 A 
ENDROOT
TORSDOF 0
ENDMDL
