MODEL 1
REMARK minimizedAffinity -5.45055246
REMARK minimizedRMSD -1
REMARK  0 active torsions:
REMARK  status: ('A' for Active; 'I' for Inactive)
ROOT
ATOM      1  C   UNL d   1       0.023  -0.749   3.277  0.00  0.00     0.077 C 
ATOM      2  C1  UNL d   1       0.608  -0.903   1.905  0.00  0.00    -0.074 A 
ATOM      3  C2  UNL d   1       1.733  -1.706   1.688  0.00  0.00    -0.005 A 
ATOM      4  C3  UNL d   1       2.260  -1.847   0.405  0.00  0.00     0.006 A 
ATOM      5  C4  UNL d   1       1.669  -1.187  -0.674  0.00  0.00    -0.005 A 
ATOM      6  C5  UNL d   1       0.544  -0.381  -0.477  0.00  0.00    -0.074 A 
ATOM      7  C6  UNL d   1      -0.109   0.327  -1.627  0.00  0.00     0.077 C 
ATOM      8  C7  UNL d   1       0.016  -0.250   0.815  0.00  0.00    -0.001 A 
ENDROOT
TORSDOF 0
ENDMDL
