MODEL 1
REMARK minimizedAffinity -1.53196788
REMARK minimizedRMSD -1
REMARK  0 active torsions:
REMARK  status: ('A' for Active; 'I' for Inactive)
ROOT
ATOM      1  C   UNL d   1       0.530  -0.055   0.682  0.00  0.00     0.077 C 
ATOM      2  C1  UNL d   1      -0.260   0.502  -0.465  0.00  0.00    -0.074 A 
ATOM      3  C2  UNL d   1      -1.471  -0.081  -0.855  0.00  0.00    -0.005 A 
ATOM      4  C3  UNL d   1      -2.199   0.454  -1.917  0.00  0.00     0.006 A 
ATOM      5  C4  UNL d   1      -1.725   1.574  -2.601  0.00  0.00    -0.005 A 
ATOM      6  C5  UNL d   1      -0.518   2.171  -2.225  0.00  0.00    -0.074 A 
ATOM      7  C6  UNL d   1       0.001   3.382  -2.943  0.00  0.00     0.077 C 
ATOM      8  C7  UNL d   1       0.205   1.632  -1.152  0.00  0.00    -0.001 A 
ENDROOT
TORSDOF 0
ENDMDL
