MODEL 1
REMARK minimizedAffinity -3.16049409
REMARK minimizedRMSD -1
REMARK  0 active torsions:
REMARK  status: ('A' for Active; 'I' for Inactive)
ROOT
ATOM      1  C   UNL d   1      -1.265   3.035  -2.524  0.00  0.00     0.077 C 
ATOM      2  C1  UNL d   1      -0.492   2.183  -1.561  0.00  0.00    -0.074 A 
ATOM      3  C2  UNL d   1       0.815   2.518  -1.194  0.00  0.00    -0.005 A 
ATOM      4  C3  UNL d   1       1.518   1.721  -0.291  0.00  0.00     0.006 A 
ATOM      5  C4  UNL d   1       0.922   0.583   0.254  0.00  0.00    -0.005 A 
ATOM      6  C5  UNL d   1      -0.385   0.232  -0.101  0.00  0.00    -0.074 A 
ATOM      7  C6  UNL d   1      -1.044  -0.982   0.482  0.00  0.00     0.077 C 
ATOM      8  C7  UNL d   1      -1.087   1.042  -1.004  0.00  0.00    -0.001 A 
ENDROOT
TORSDOF 0
ENDMDL
