MODEL 1
REMARK minimizedAffinity -4.98387432
REMARK minimizedRMSD -1
REMARK  0 active torsions:
REMARK  status: ('A' for Active; 'I' for Inactive)
ROOT
ATOM      1  C   UNL d   1       1.732  -0.588   3.036  0.00  0.00     0.077 C 
ATOM      2  C1  UNL d   1       0.625  -0.272   2.075  0.00  0.00    -0.074 A 
ATOM      3  C2  UNL d   1      -0.697  -0.633   2.357  0.00  0.00    -0.005 A 
ATOM      4  C3  UNL d   1      -1.718  -0.324   1.459  0.00  0.00     0.006 A 
ATOM      5  C4  UNL d   1      -1.428   0.348   0.270  0.00  0.00    -0.005 A 
ATOM      6  C5  UNL d   1      -0.113   0.717  -0.029  0.00  0.00    -0.074 A 
ATOM      7  C6  UNL d   1       0.214   1.448  -1.297  0.00  0.00     0.077 C 
ATOM      8  C7  UNL d   1       0.906   0.409   0.883  0.00  0.00    -0.001 A 
ENDROOT
TORSDOF 0
ENDMDL
