MODEL 1
REMARK minimizedAffinity -0.452561259
REMARK minimizedRMSD -1
REMARK  0 active torsions:
REMARK  status: ('A' for Active; 'I' for Inactive)
ROOT
ATOM      1  C2' OXE d   1       2.935   4.343  -4.090  0.00  0.00     0.078 C 
ATOM      2  C1' OXE d   1       4.662   3.220  -2.183  0.00  0.00     0.078 C 
ATOM      3  C1  OXE d   1       3.373   2.494  -2.478  0.00  0.00    -0.078 A 
ATOM      4  C2  OXE d   1       2.513   3.075  -3.378  0.00  0.00    -0.078 A 
ATOM      5  C3  OXE d   1       1.336   2.420  -3.728  0.00  0.00     0.003 A 
ATOM      6  C4  OXE d   1       0.948   1.253  -3.058  0.00  0.00    -0.002 A 
ATOM      7  C5  OXE d   1       1.791   0.666  -2.109  0.00  0.00    -0.002 A 
ATOM      8  C6  OXE d   1       3.024   1.249  -1.839  0.00  0.00     0.003 A 
ENDROOT
TORSDOF 0
ENDMDL
