MODEL 1
REMARK minimizedAffinity 6.28557587
REMARK minimizedRMSD -1
REMARK  0 active torsions:
REMARK  status: ('A' for Active; 'I' for Inactive)
ROOT
ATOM      1  C2' OXE d   1       1.307   2.120  -0.664  0.00  0.00     0.078 C 
ATOM      2  C1' OXE d   1      -1.076   1.313  -1.910  0.00  0.00     0.078 C 
ATOM      3  C1  OXE d   1      -0.388   0.325  -1.002  0.00  0.00    -0.078 A 
ATOM      4  C2  OXE d   1       0.802   0.712  -0.433  0.00  0.00    -0.078 A 
ATOM      5  C3  OXE d   1       1.450  -0.140   0.456  0.00  0.00     0.003 A 
ATOM      6  C4  OXE d   1       0.982  -1.444   0.657  0.00  0.00    -0.002 A 
ATOM      7  C5  OXE d   1      -0.206  -1.872   0.056  0.00  0.00    -0.002 A 
ATOM      8  C6  OXE d   1      -0.924  -0.987  -0.741  0.00  0.00     0.003 A 
ENDROOT
TORSDOF 0
ENDMDL
