MODEL 1
REMARK minimizedAffinity 8.91221523
REMARK minimizedRMSD -1
REMARK  0 active torsions:
REMARK  status: ('A' for Active; 'I' for Inactive)
ROOT
ATOM      1  C2' OXE d   1       1.016  -5.579   1.066  0.00  0.00     0.078 C 
ATOM      2  C1' OXE d   1       2.302  -3.098   1.339  0.00  0.00     0.078 C 
ATOM      3  C1  OXE d   1       0.894  -3.105   0.798  0.00  0.00    -0.078 A 
ATOM      4  C2  OXE d   1       0.290  -4.327   0.623  0.00  0.00    -0.078 A 
ATOM      5  C3  OXE d   1      -1.028  -4.387   0.179  0.00  0.00     0.003 A 
ATOM      6  C4  OXE d   1      -1.689  -3.226  -0.238  0.00  0.00    -0.002 A 
ATOM      7  C5  OXE d   1      -1.077  -1.974  -0.106  0.00  0.00    -0.002 A 
ATOM      8  C6  OXE d   1       0.196  -1.893   0.448  0.00  0.00     0.003 A 
ENDROOT
TORSDOF 0
ENDMDL
