MODEL 1
REMARK minimizedAffinity 4.4076457
REMARK minimizedRMSD -1
REMARK  0 active torsions:
REMARK  status: ('A' for Active; 'I' for Inactive)
ROOT
ATOM      1  C2' OXE d   1       3.200  -3.162  -6.000  0.00  0.00     0.078 C 
ATOM      2  C1' OXE d   1       5.999  -3.151  -5.786  0.00  0.00     0.078 C 
ATOM      3  C1  OXE d   1       5.292  -1.819  -5.842  0.00  0.00    -0.078 A 
ATOM      4  C2  OXE d   1       3.926  -1.834  -5.994  0.00  0.00    -0.078 A 
ATOM      5  C3  OXE d   1       3.220  -0.635  -5.996  0.00  0.00     0.003 A 
ATOM      6  C4  OXE d   1       3.900   0.588  -6.000  0.00  0.00    -0.002 A 
ATOM      7  C5  OXE d   1       5.294   0.626  -5.886  0.00  0.00    -0.002 A 
ATOM      8  C6  OXE d   1       6.000  -0.565  -5.763  0.00  0.00     0.003 A 
ENDROOT
TORSDOF 0
ENDMDL
