MODEL 1
REMARK minimizedAffinity 11.3790712
REMARK minimizedRMSD -1
REMARK  0 active torsions:
REMARK  status: ('A' for Active; 'I' for Inactive)
ROOT
ATOM      1  C2' OXE d   1      -1.690  -5.112   1.127  0.00  0.00     0.078 C 
ATOM      2  C1' OXE d   1       0.800  -5.995   2.076  0.00  0.00     0.078 C 
ATOM      3  C1  OXE d   1       0.728  -4.616   1.468  0.00  0.00    -0.078 A 
ATOM      4  C2  OXE d   1      -0.484  -4.211   0.964  0.00  0.00    -0.078 A 
ATOM      5  C3  OXE d   1      -0.619  -2.927   0.442  0.00  0.00     0.003 A 
ATOM      6  C4  OXE d   1       0.503  -2.104   0.286  0.00  0.00    -0.002 A 
ATOM      7  C5  OXE d   1       1.755  -2.514   0.756  0.00  0.00    -0.002 A 
ATOM      8  C6  OXE d   1       1.876  -3.747   1.387  0.00  0.00     0.003 A 
ENDROOT
TORSDOF 0
ENDMDL
