MODEL 1
REMARK minimizedAffinity 2.36053252
REMARK minimizedRMSD -1
REMARK  0 active torsions:
REMARK  status: ('A' for Active; 'I' for Inactive)
ROOT
ATOM      1  C2' OXE d   1       5.989   0.292  -5.999  0.00  0.00     0.078 C 
ATOM      2  C1' OXE d   1       5.997  -2.027  -4.416  0.00  0.00     0.078 C 
ATOM      3  C1  OXE d   1       5.956  -0.694  -3.711  0.00  0.00    -0.078 A 
ATOM      4  C2  OXE d   1       6.000   0.436  -4.492  0.00  0.00    -0.078 A 
ATOM      5  C3  OXE d   1       5.909   1.690  -3.895  0.00  0.00     0.003 A 
ATOM      6  C4  OXE d   1       5.929   1.815  -2.501  0.00  0.00    -0.002 A 
ATOM      7  C5  OXE d   1       5.925   0.677  -1.686  0.00  0.00    -0.002 A 
ATOM      8  C6  OXE d   1       5.895  -0.582  -2.275  0.00  0.00     0.003 A 
ENDROOT
TORSDOF 0
ENDMDL
