MODEL 1
REMARK minimizedAffinity 11.4584017
REMARK minimizedRMSD -1
REMARK  0 active torsions:
REMARK  status: ('A' for Active; 'I' for Inactive)
ROOT
ATOM      1  C2' OXE d   1      -5.323   5.928   5.689  0.00  0.00     0.078 C 
ATOM      2  C1' OXE d   1      -3.883   3.534   5.967  0.00  0.00     0.078 C 
ATOM      3  C1  OXE d   1      -3.913   4.183   4.606  0.00  0.00    -0.078 A 
ATOM      4  C2  OXE d   1      -4.659   5.329   4.468  0.00  0.00    -0.078 A 
ATOM      5  C3  OXE d   1      -4.676   5.998   3.247  0.00  0.00     0.003 A 
ATOM      6  C4  OXE d   1      -4.067   5.432   2.120  0.00  0.00    -0.002 A 
ATOM      7  C5  OXE d   1      -3.336   4.245   2.230  0.00  0.00    -0.002 A 
ATOM      8  C6  OXE d   1      -3.214   3.632   3.472  0.00  0.00     0.003 A 
ENDROOT
TORSDOF 0
ENDMDL
