MODEL 1
REMARK minimizedAffinity 5.87954569
REMARK minimizedRMSD -1
REMARK  0 active torsions:
REMARK  status: ('A' for Active; 'I' for Inactive)
ROOT
ATOM      1  C2' OXE d   1       1.499  -5.999   1.514  0.00  0.00     0.078 C 
ATOM      2  C1' OXE d   1      -1.217  -5.295   1.433  0.00  0.00     0.078 C 
ATOM      3  C1  OXE d   1      -0.206  -4.246   1.041  0.00  0.00    -0.078 A 
ATOM      4  C2  OXE d   1       1.122  -4.585   1.128  0.00  0.00    -0.078 A 
ATOM      5  C3  OXE d   1       2.094  -3.673   0.726  0.00  0.00     0.003 A 
ATOM      6  C4  OXE d   1       1.738  -2.364   0.380  0.00  0.00    -0.002 A 
ATOM      7  C5  OXE d   1       0.392  -1.986   0.323  0.00  0.00    -0.002 A 
ATOM      8  C6  OXE d   1      -0.592  -2.926   0.609  0.00  0.00     0.003 A 
ENDROOT
TORSDOF 0
ENDMDL
