MODEL 1
REMARK minimizedAffinity 1.52875602
REMARK minimizedRMSD -1
REMARK  0 active torsions:
REMARK  status: ('A' for Active; 'I' for Inactive)
ROOT
ATOM      1  C2' OXE d   1       4.924   0.229  -6.000  0.00  0.00     0.078 C 
ATOM      2  C1' OXE d   1       5.978  -1.884  -4.482  0.00  0.00     0.078 C 
ATOM      3  C1  OXE d   1       5.735  -0.569  -3.784  0.00  0.00    -0.078 A 
ATOM      4  C2  OXE d   1       5.262   0.473  -4.545  0.00  0.00    -0.078 A 
ATOM      5  C3  OXE d   1       4.969   1.692  -3.939  0.00  0.00     0.003 A 
ATOM      6  C4  OXE d   1       5.295   1.912  -2.595  0.00  0.00    -0.002 A 
ATOM      7  C5  OXE d   1       5.814   0.876  -1.812  0.00  0.00    -0.002 A 
ATOM      8  C6  OXE d   1       5.999  -0.380  -2.379  0.00  0.00     0.003 A 
ENDROOT
TORSDOF 0
ENDMDL
