MODEL 1
REMARK minimizedAffinity 9.23289585
REMARK minimizedRMSD -1
REMARK  0 active torsions:
REMARK  status: ('A' for Active; 'I' for Inactive)
ROOT
ATOM      1  C2' OXE d   1      -2.168  -1.505   5.576  0.00  0.00     0.078 C 
ATOM      2  C1' OXE d   1      -3.701   0.847   5.586  0.00  0.00     0.078 C 
ATOM      3  C1  OXE d   1      -4.268  -0.360   4.881  0.00  0.00    -0.078 A 
ATOM      4  C2  OXE d   1      -3.491  -1.492   4.841  0.00  0.00    -0.078 A 
ATOM      5  C3  OXE d   1      -3.990  -2.650   4.250  0.00  0.00     0.003 A 
ATOM      6  C4  OXE d   1      -5.210  -2.627   3.564  0.00  0.00    -0.002 A 
ATOM      7  C5  OXE d   1      -5.999  -1.472   3.558  0.00  0.00    -0.002 A 
ATOM      8  C6  OXE d   1      -5.563  -0.345   4.246  0.00  0.00     0.003 A 
ENDROOT
TORSDOF 0
ENDMDL
