MODEL 1
REMARK minimizedAffinity 13.2405977
REMARK minimizedRMSD -1
REMARK  0 active torsions:
REMARK  status: ('A' for Active; 'I' for Inactive)
ROOT
ATOM      1  C2' OXE d   1      -0.228  -0.692  -0.140  0.00  0.00     0.078 C 
ATOM      2  C1' OXE d   1       1.236  -1.935  -2.187  0.00  0.00     0.078 C 
ATOM      3  C1  OXE d   1       0.968  -0.456  -2.312  0.00  0.00    -0.078 A 
ATOM      4  C2  OXE d   1       0.211   0.135  -1.329  0.00  0.00    -0.078 A 
ATOM      5  C3  OXE d   1      -0.020   1.507  -1.368  0.00  0.00     0.003 A 
ATOM      6  C4  OXE d   1       0.381   2.262  -2.477  0.00  0.00    -0.002 A 
ATOM      7  C5  OXE d   1       1.119   1.672  -3.509  0.00  0.00    -0.002 A 
ATOM      8  C6  OXE d   1       1.457   0.326  -3.421  0.00  0.00     0.003 A 
ENDROOT
TORSDOF 0
ENDMDL
