MODEL 1
REMARK minimizedAffinity 3.65927005
REMARK minimizedRMSD -1
REMARK  0 active torsions:
REMARK  status: ('A' for Active; 'I' for Inactive)
ROOT
ATOM      1  C2' OXE d   1       0.587   2.654  -0.812  0.00  0.00     0.078 C 
ATOM      2  C1' OXE d   1       1.325   2.594  -3.520  0.00  0.00     0.078 C 
ATOM      3  C1  OXE d   1       1.201   1.277  -2.795  0.00  0.00    -0.078 A 
ATOM      4  C2  OXE d   1       0.885   1.318  -1.458  0.00  0.00    -0.078 A 
ATOM      5  C3  OXE d   1       0.705   0.130  -0.756  0.00  0.00     0.003 A 
ATOM      6  C4  OXE d   1       0.992  -1.100  -1.359  0.00  0.00    -0.002 A 
ATOM      7  C5  OXE d   1       1.353  -1.163  -2.709  0.00  0.00    -0.002 A 
ATOM      8  C6  OXE d   1       1.421   0.011  -3.451  0.00  0.00     0.003 A 
ENDROOT
TORSDOF 0
ENDMDL
