MODEL 1
REMARK minimizedAffinity 3.71672773
REMARK minimizedRMSD -1
REMARK  0 active torsions:
REMARK  status: ('A' for Active; 'I' for Inactive)
ROOT
ATOM      1  C2' OXE d   1       1.003   0.636  -4.000  0.00  0.00     0.078 C 
ATOM      2  C1' OXE d   1       0.058   2.137  -1.824  0.00  0.00     0.078 C 
ATOM      3  C1  OXE d   1       0.483   0.713  -1.565  0.00  0.00    -0.078 A 
ATOM      4  C2  OXE d   1       0.900  -0.028  -2.644  0.00  0.00    -0.078 A 
ATOM      5  C3  OXE d   1       1.355  -1.330  -2.452  0.00  0.00     0.003 A 
ATOM      6  C4  OXE d   1       1.247  -1.940  -1.197  0.00  0.00    -0.002 A 
ATOM      7  C5  OXE d   1       0.787  -1.215  -0.092  0.00  0.00    -0.002 A 
ATOM      8  C6  OXE d   1       0.442   0.122  -0.250  0.00  0.00     0.003 A 
ENDROOT
TORSDOF 0
ENDMDL
