MODEL 1
REMARK minimizedAffinity -3.28220463
REMARK minimizedRMSD -1
REMARK  0 active torsions:
REMARK  status: ('A' for Active; 'I' for Inactive)
ROOT
ATOM      1  C2' OXE d   1       0.989   2.396  -0.330  0.00  0.00     0.078 C 
ATOM      2  C1' OXE d   1       1.180   2.349  -3.131  0.00  0.00     0.078 C 
ATOM      3  C1  OXE d   1       1.187   1.028  -2.403  0.00  0.00    -0.078 A 
ATOM      4  C2  OXE d   1       1.141   1.062  -1.030  0.00  0.00    -0.078 A 
ATOM      5  C3  OXE d   1       1.089  -0.129  -0.312  0.00  0.00     0.003 A 
ATOM      6  C4  OXE d   1       1.240  -1.358  -0.966  0.00  0.00    -0.002 A 
ATOM      7  C5  OXE d   1       1.329  -1.413  -2.361  0.00  0.00    -0.002 A 
ATOM      8  C6  OXE d   1       1.262  -0.235  -3.096  0.00  0.00     0.003 A 
ENDROOT
TORSDOF 0
ENDMDL
