MODEL 1
REMARK minimizedAffinity 1.7436204
REMARK minimizedRMSD -1
REMARK  0 active torsions:
REMARK  status: ('A' for Active; 'I' for Inactive)
ROOT
ATOM      1  C2' OXE d   1       0.967   2.300   0.039  0.00  0.00     0.078 C 
ATOM      2  C1' OXE d   1       1.082   2.424  -2.763  0.00  0.00     0.078 C 
ATOM      3  C1  OXE d   1       1.086   1.061  -2.119  0.00  0.00    -0.078 A 
ATOM      4  C2  OXE d   1       1.076   1.011  -0.745  0.00  0.00    -0.078 A 
ATOM      5  C3  OXE d   1       1.023  -0.222  -0.101  0.00  0.00     0.003 A 
ATOM      6  C4  OXE d   1       1.135  -1.410  -0.833  0.00  0.00    -0.002 A 
ATOM      7  C5  OXE d   1       1.186  -1.381  -2.231  0.00  0.00    -0.002 A 
ATOM      8  C6  OXE d   1       1.120  -0.158  -2.889  0.00  0.00     0.003 A 
ENDROOT
TORSDOF 0
ENDMDL
