MODEL 1
REMARK minimizedAffinity 8.65437698
REMARK minimizedRMSD -1
REMARK  0 active torsions:
REMARK  status: ('A' for Active; 'I' for Inactive)
ROOT
ATOM      1  C2' OXE d   1       2.822   4.004  -5.910  0.00  0.00     0.078 C 
ATOM      2  C1' OXE d   1       1.864   1.689  -4.645  0.00  0.00     0.078 C 
ATOM      3  C1  OXE d   1       3.324   1.733  -5.019  0.00  0.00    -0.078 A 
ATOM      4  C2  OXE d   1       3.774   2.850  -5.680  0.00  0.00    -0.078 A 
ATOM      5  C3  OXE d   1       5.124   2.965  -5.999  0.00  0.00     0.003 A 
ATOM      6  C4  OXE d   1       5.996   1.889  -5.792  0.00  0.00    -0.002 A 
ATOM      7  C5  OXE d   1       5.549   0.726  -5.156  0.00  0.00    -0.002 A 
ATOM      8  C6  OXE d   1       4.229   0.649  -4.726  0.00  0.00     0.003 A 
ENDROOT
TORSDOF 0
ENDMDL
