MODEL 1
REMARK minimizedAffinity 1.19361532
REMARK minimizedRMSD -1
REMARK  0 active torsions:
REMARK  status: ('A' for Active; 'I' for Inactive)
ROOT
ATOM      1  C2' OXE d   1       0.567  -1.033   0.117  0.00  0.00     0.078 C 
ATOM      2  C1' OXE d   1       0.902   1.627  -0.716  0.00  0.00     0.078 C 
ATOM      3  C1  OXE d   1       1.113   0.537  -1.738  0.00  0.00    -0.078 A 
ATOM      4  C2  OXE d   1       0.993  -0.763  -1.310  0.00  0.00    -0.078 A 
ATOM      5  C3  OXE d   1       1.124  -1.805  -2.224  0.00  0.00     0.003 A 
ATOM      6  C4  OXE d   1       1.527  -1.547  -3.539  0.00  0.00    -0.002 A 
ATOM      7  C5  OXE d   1       1.694  -0.232  -3.986  0.00  0.00    -0.002 A 
ATOM      8  C6  OXE d   1       1.450   0.821  -3.111  0.00  0.00     0.003 A 
ENDROOT
TORSDOF 0
ENDMDL
