MODEL 1
REMARK minimizedAffinity 4.05271435
REMARK minimizedRMSD -1
REMARK  0 active torsions:
REMARK  status: ('A' for Active; 'I' for Inactive)
ROOT
ATOM      1  C2' OXE d   1       0.881   0.933  -0.284  0.00  0.00     0.078 C 
ATOM      2  C1' OXE d   1       0.906   2.020  -2.872  0.00  0.00     0.078 C 
ATOM      3  C1  OXE d   1       1.070   0.527  -2.734  0.00  0.00    -0.078 A 
ATOM      4  C2  OXE d   1       1.103   0.010  -1.462  0.00  0.00    -0.078 A 
ATOM      5  C3  OXE d   1       1.198  -1.367  -1.280  0.00  0.00     0.003 A 
ATOM      6  C4  OXE d   1       1.414  -2.213  -2.375  0.00  0.00    -0.002 A 
ATOM      7  C5  OXE d   1       1.423  -1.702  -3.677  0.00  0.00    -0.002 A 
ATOM      8  C6  OXE d   1       1.210  -0.342  -3.876  0.00  0.00     0.003 A 
ENDROOT
TORSDOF 0
ENDMDL
