MODEL 1
REMARK minimizedAffinity -2.92527652
REMARK minimizedRMSD -1
REMARK  0 active torsions:
REMARK  status: ('A' for Active; 'I' for Inactive)
ROOT
ATOM      1  C2' OXE d   1       1.158   2.016  -3.434  0.00  0.00     0.078 C 
ATOM      2  C1' OXE d   1       1.137   0.561  -1.034  0.00  0.00     0.078 C 
ATOM      3  C1  OXE d   1       1.246  -0.212  -2.324  0.00  0.00    -0.078 A 
ATOM      4  C2  OXE d   1       1.208   0.505  -3.496  0.00  0.00    -0.078 A 
ATOM      5  C3  OXE d   1       1.359  -0.154  -4.712  0.00  0.00     0.003 A 
ATOM      6  C4  OXE d   1       1.395  -1.553  -4.761  0.00  0.00    -0.002 A 
ATOM      7  C5  OXE d   1       1.394  -2.305  -3.581  0.00  0.00    -0.002 A 
ATOM      8  C6  OXE d   1       1.363  -1.649  -2.355  0.00  0.00     0.003 A 
ENDROOT
TORSDOF 0
ENDMDL
