MODEL 1
REMARK minimizedAffinity 4.3115449
REMARK minimizedRMSD -1
REMARK  0 active torsions:
REMARK  status: ('A' for Active; 'I' for Inactive)
ROOT
ATOM      1  C2' OXE d   1       1.678   0.369  -4.946  0.00  0.00     0.078 C 
ATOM      2  C1' OXE d   1       3.059  -0.504  -2.663  0.00  0.00     0.078 C 
ATOM      3  C1  OXE d   1       3.870   0.052  -3.806  0.00  0.00    -0.078 A 
ATOM      4  C2  OXE d   1       3.190   0.433  -4.937  0.00  0.00    -0.078 A 
ATOM      5  C3  OXE d   1       3.885   1.004  -6.000  0.00  0.00     0.003 A 
ATOM      6  C4  OXE d   1       5.284   1.050  -5.988  0.00  0.00    -0.002 A 
ATOM      7  C5  OXE d   1       5.999   0.631  -4.861  0.00  0.00    -0.002 A 
ATOM      8  C6  OXE d   1       5.306   0.169  -3.748  0.00  0.00     0.003 A 
ENDROOT
TORSDOF 0
ENDMDL
