MODEL 1
REMARK minimizedAffinity -2.43711424
REMARK minimizedRMSD -1
REMARK  0 active torsions:
REMARK  status: ('A' for Active; 'I' for Inactive)
ROOT
ATOM      1  C2' OXE d   1       3.218   3.336   5.863  0.00  0.00     0.078 C 
ATOM      2  C1' OXE d   1       6.000   3.685   5.999  0.00  0.00     0.078 C 
ATOM      3  C1  OXE d   1       5.245   4.456   4.945  0.00  0.00    -0.078 A 
ATOM      4  C2  OXE d   1       3.890   4.243   4.855  0.00  0.00    -0.078 A 
ATOM      5  C3  OXE d   1       3.138   4.970   3.937  0.00  0.00     0.003 A 
ATOM      6  C4  OXE d   1       3.769   5.800   3.002  0.00  0.00    -0.002 A 
ATOM      7  C5  OXE d   1       5.152   6.000   3.051  0.00  0.00    -0.002 A 
ATOM      8  C6  OXE d   1       5.898   5.370   4.041  0.00  0.00     0.003 A 
ENDROOT
TORSDOF 0
ENDMDL
