MODEL 1
REMARK minimizedAffinity 11.2274666
REMARK minimizedRMSD -1
REMARK  0 active torsions:
REMARK  status: ('A' for Active; 'I' for Inactive)
ROOT
ATOM      1  C2' OXE d   1      -2.281   5.636   0.876  0.00  0.00     0.078 C 
ATOM      2  C1' OXE d   1      -4.729   5.626  -0.498  0.00  0.00     0.078 C 
ATOM      3  C1  OXE d   1      -4.766   5.752   1.005  0.00  0.00    -0.078 A 
ATOM      4  C2  OXE d   1      -3.566   5.709   1.673  0.00  0.00    -0.078 A 
ATOM      5  C3  OXE d   1      -3.539   5.876   3.054  0.00  0.00     0.003 A 
ATOM      6  C4  OXE d   1      -4.732   5.933   3.784  0.00  0.00    -0.002 A 
ATOM      7  C5  OXE d   1      -5.967   5.939   3.127  0.00  0.00    -0.002 A 
ATOM      8  C6  OXE d   1      -6.000   5.892   1.738  0.00  0.00     0.003 A 
ENDROOT
TORSDOF 0
ENDMDL
