MODEL 1
REMARK minimizedAffinity 4.37257957
REMARK minimizedRMSD -1
REMARK  0 active torsions:
REMARK  status: ('A' for Active; 'I' for Inactive)
ROOT
ATOM      1  C2' OXE d   1       1.760   3.139   1.543  0.00  0.00     0.078 C 
ATOM      2  C1' OXE d   1      -0.074   4.690   0.090  0.00  0.00     0.078 C 
ATOM      3  C1  OXE d   1      -0.283   3.197   0.118  0.00  0.00    -0.078 A 
ATOM      4  C2  OXE d   1       0.646   2.441   0.792  0.00  0.00    -0.078 A 
ATOM      5  C3  OXE d   1       0.471   1.064   0.895  0.00  0.00     0.003 A 
ATOM      6  C4  OXE d   1      -0.556   0.425   0.190  0.00  0.00    -0.002 A 
ATOM      7  C5  OXE d   1      -1.490   1.173  -0.536  0.00  0.00    -0.002 A 
ATOM      8  C6  OXE d   1      -1.393   2.560  -0.547  0.00  0.00     0.003 A 
ENDROOT
TORSDOF 0
ENDMDL
