MODEL 1
REMARK minimizedAffinity 2.7693305
REMARK minimizedRMSD -1
REMARK  0 active torsions:
REMARK  status: ('A' for Active; 'I' for Inactive)
ROOT
ATOM      1  C2' OXE d   1       2.060   3.205   1.498  0.00  0.00     0.078 C 
ATOM      2  C1' OXE d   1       1.792   0.412   1.425  0.00  0.00     0.078 C 
ATOM      3  C1  OXE d   1       0.805   1.234   0.635  0.00  0.00    -0.078 A 
ATOM      4  C2  OXE d   1       0.915   2.601   0.714  0.00  0.00    -0.078 A 
ATOM      5  C3  OXE d   1       0.064   3.405  -0.039  0.00  0.00     0.003 A 
ATOM      6  C4  OXE d   1      -0.999   2.839  -0.754  0.00  0.00    -0.002 A 
ATOM      7  C5  OXE d   1      -1.153   1.450  -0.815  0.00  0.00    -0.002 A 
ATOM      8  C6  OXE d   1      -0.236   0.634  -0.162  0.00  0.00     0.003 A 
ENDROOT
TORSDOF 0
ENDMDL
