MODEL 1
REMARK minimizedAffinity 13.9049406
REMARK minimizedRMSD -1
REMARK  0 active torsions:
REMARK  status: ('A' for Active; 'I' for Inactive)
ROOT
ATOM      1  C2' OXE d   1       4.917   3.343   3.413  0.00  0.00     0.078 C 
ATOM      2  C1' OXE d   1       4.838   6.000   4.315  0.00  0.00     0.078 C 
ATOM      3  C1  OXE d   1       3.528   5.332   3.979  0.00  0.00    -0.078 A 
ATOM      4  C2  OXE d   1       3.580   4.047   3.494  0.00  0.00    -0.078 A 
ATOM      5  C3  OXE d   1       2.398   3.366   3.220  0.00  0.00     0.003 A 
ATOM      6  C4  OXE d   1       1.166   4.027   3.289  0.00  0.00    -0.002 A 
ATOM      7  C5  OXE d   1       1.094   5.349   3.743  0.00  0.00    -0.002 A 
ATOM      8  C6  OXE d   1       2.259   6.000   4.132  0.00  0.00     0.003 A 
ENDROOT
TORSDOF 0
ENDMDL
