MODEL 1
REMARK minimizedAffinity 3.80686688
REMARK minimizedRMSD -1
REMARK  0 active torsions:
REMARK  status: ('A' for Active; 'I' for Inactive)
ROOT
ATOM      1  C2' OXE d   1       0.090  -4.837  -0.007  0.00  0.00     0.078 C 
ATOM      2  C1' OXE d   1       2.832  -4.546   0.518  0.00  0.00     0.078 C 
ATOM      3  C1  OXE d   1       2.089  -3.351  -0.024  0.00  0.00    -0.078 A 
ATOM      4  C2  OXE d   1       0.758  -3.516  -0.323  0.00  0.00    -0.078 A 
ATOM      5  C3  OXE d   1       0.013  -2.430  -0.774  0.00  0.00     0.003 A 
ATOM      6  C4  OXE d   1       0.640  -1.215  -1.073  0.00  0.00    -0.002 A 
ATOM      7  C5  OXE d   1       2.004  -1.037  -0.814  0.00  0.00    -0.002 A 
ATOM      8  C6  OXE d   1       2.732  -2.080  -0.251  0.00  0.00     0.003 A 
ENDROOT
TORSDOF 0
ENDMDL
