MODEL 1
REMARK minimizedAffinity -0.308443516
REMARK minimizedRMSD -1
REMARK  0 active torsions:
REMARK  status: ('A' for Active; 'I' for Inactive)
ROOT
ATOM      1  C2' OXE d   1       3.532  -0.661  -0.384  0.00  0.00     0.078 C 
ATOM      2  C1' OXE d   1       0.841   0.129  -0.513  0.00  0.00     0.078 C 
ATOM      3  C1  OXE d   1       1.137  -1.346  -0.404  0.00  0.00    -0.078 A 
ATOM      4  C2  OXE d   1       2.457  -1.727  -0.388  0.00  0.00    -0.078 A 
ATOM      5  C3  OXE d   1       2.785  -3.071  -0.233  0.00  0.00     0.003 A 
ATOM      6  C4  OXE d   1       1.785  -4.051  -0.248  0.00  0.00    -0.002 A 
ATOM      7  C5  OXE d   1       0.436  -3.687  -0.303  0.00  0.00    -0.002 A 
ATOM      8  C6  OXE d   1       0.094  -2.340  -0.338  0.00  0.00     0.003 A 
ENDROOT
TORSDOF 0
ENDMDL
