MODEL 1
REMARK minimizedAffinity -1.38380241
REMARK minimizedRMSD -1
REMARK  0 active torsions:
REMARK  status: ('A' for Active; 'I' for Inactive)
ROOT
ATOM      1  C2' OXE d   1      -4.571   5.937   0.979  0.00  0.00     0.078 C 
ATOM      2  C1' OXE d   1      -2.210   5.951   2.498  0.00  0.00     0.078 C 
ATOM      3  C1  OXE d   1      -3.524   5.951   3.240  0.00  0.00    -0.078 A 
ATOM      4  C2  OXE d   1      -4.674   5.991   2.488  0.00  0.00    -0.078 A 
ATOM      5  C3  OXE d   1      -5.912   5.938   3.121  0.00  0.00     0.003 A 
ATOM      6  C4  OXE d   1      -5.999   5.999   4.517  0.00  0.00    -0.002 A 
ATOM      7  C5  OXE d   1      -4.840   5.998   5.301  0.00  0.00    -0.002 A 
ATOM      8  C6  OXE d   1      -3.597   5.932   4.680  0.00  0.00     0.003 A 
ENDROOT
TORSDOF 0
ENDMDL
