MODEL 1
REMARK minimizedAffinity 5.37208414
REMARK minimizedRMSD -1
REMARK  0 active torsions:
REMARK  status: ('A' for Active; 'I' for Inactive)
ROOT
ATOM      1  C2' OXE d   1      -3.795   1.813  -2.368  0.00  0.00     0.078 C 
ATOM      2  C1' OXE d   1      -2.331  -0.343  -1.323  0.00  0.00     0.078 C 
ATOM      3  C1  OXE d   1      -3.624   0.027  -0.640  0.00  0.00    -0.078 A 
ATOM      4  C2  OXE d   1      -4.310   1.112  -1.129  0.00  0.00    -0.078 A 
ATOM      5  C3  OXE d   1      -5.535   1.462  -0.570  0.00  0.00     0.003 A 
ATOM      6  C4  OXE d   1      -6.000   0.816   0.582  0.00  0.00    -0.002 A 
ATOM      7  C5  OXE d   1      -5.296  -0.267   1.121  0.00  0.00    -0.002 A 
ATOM      8  C6  OXE d   1      -4.131  -0.700   0.498  0.00  0.00     0.003 A 
ENDROOT
TORSDOF 0
ENDMDL
