MODEL 1
REMARK minimizedAffinity -5.45958233
REMARK minimizedRMSD -1
REMARK  0 active torsions:
REMARK  status: ('A' for Active; 'I' for Inactive)
ROOT
ATOM      1  C2' OXE d   1      -0.525  -0.015  -1.869  0.00  0.00     0.078 C 
ATOM      2  C1' OXE d   1      -0.071  -2.776  -1.642  0.00  0.00     0.078 C 
ATOM      3  C1  OXE d   1       1.099  -1.850  -1.421  0.00  0.00    -0.078 A 
ATOM      4  C2  OXE d   1       0.878  -0.503  -1.579  0.00  0.00    -0.078 A 
ATOM      5  C3  OXE d   1       1.910   0.398  -1.333  0.00  0.00     0.003 A 
ATOM      6  C4  OXE d   1       3.207  -0.062  -1.075  0.00  0.00    -0.002 A 
ATOM      7  C5  OXE d   1       3.462  -1.431  -0.949  0.00  0.00    -0.002 A 
ATOM      8  C6  OXE d   1       2.413  -2.335  -1.076  0.00  0.00     0.003 A 
ENDROOT
TORSDOF 0
ENDMDL
