MODEL 1
REMARK minimizedAffinity -4.87268305
REMARK minimizedRMSD -1
REMARK  3 active torsions:
REMARK  status: ('A' for Active; 'I' for Inactive)
REMARK    1  A    between atoms: C3'_2  and  C2'_3 
REMARK    2  A    between atoms: C2'_3  and  C1'_4 
REMARK    3  A    between atoms: C1'_4  and  C1_5 
ROOT
ATOM      1  C1  N4B d   1       0.820   0.737   1.330  0.00  0.00    -0.075 A 
ATOM      2  C2  N4B d   1       0.695   0.266   2.655  0.00  0.00     0.002 A 
ATOM      3  C3  N4B d   1      -0.314  -0.607   2.981  0.00  0.00     0.002 A 
ATOM      4  C4  N4B d   1      -1.218  -1.005   2.007  0.00  0.00    -0.004 A 
ATOM      5  C5  N4B d   1      -1.075  -0.565   0.724  0.00  0.00     0.002 A 
ATOM      6  C6  N4B d   1      -0.063   0.309   0.381  0.00  0.00     0.002 A 
ENDROOT
BRANCH   1   7
ATOM      7  C1' N4B d   1       1.854   1.759   0.944  0.00  0.00     0.057 C 
BRANCH   7   8
ATOM      8  C2' N4B d   1       1.532   2.299  -0.446  0.00  0.00     0.009 C 
BRANCH   8   9
ATOM      9  C3' N4B d   1       2.060   3.709  -0.644  0.00  0.00     0.004 C 
ATOM     10  C4' N4B d   1       3.310   3.977   0.139  0.00  0.00     0.003 C 
ENDBRANCH   8   9
ENDBRANCH   7   8
ENDBRANCH   1   7
TORSDOF 3
ENDMDL
