MODEL 1
REMARK minimizedAffinity -3.66270804
REMARK minimizedRMSD -1
REMARK  3 active torsions:
REMARK  status: ('A' for Active; 'I' for Inactive)
REMARK    1  A    between atoms: C3'_2  and  C2'_3 
REMARK    2  A    between atoms: C2'_3  and  C1'_4 
REMARK    3  A    between atoms: C1'_4  and  C1_5 
ROOT
ATOM      1  C1  N4B d   1      -0.404  -0.974   0.901  0.00  0.00    -0.075 A 
ATOM      2  C2  N4B d   1      -1.190   0.114   0.463  0.00  0.00     0.002 A 
ATOM      3  C3  N4B d   1      -1.933   0.833   1.368  0.00  0.00     0.002 A 
ATOM      4  C4  N4B d   1      -1.920   0.472   2.707  0.00  0.00    -0.004 A 
ATOM      5  C5  N4B d   1      -1.139  -0.565   3.126  0.00  0.00     0.002 A 
ATOM      6  C6  N4B d   1      -0.384  -1.294   2.228  0.00  0.00     0.002 A 
ENDROOT
BRANCH   1   7
ATOM      7  C1' N4B d   1       0.357  -1.843  -0.062  0.00  0.00     0.057 C 
BRANCH   7   8
ATOM      8  C2' N4B d   1       0.913  -0.975  -1.187  0.00  0.00     0.009 C 
BRANCH   8   9
ATOM      9  C3' N4B d   1       0.738  -1.627  -2.548  0.00  0.00     0.004 C 
ATOM     10  C4' N4B d   1       1.448  -0.887  -3.642  0.00  0.00     0.003 C 
ENDBRANCH   8   9
ENDBRANCH   7   8
ENDBRANCH   1   7
TORSDOF 3
ENDMDL
