MODEL 1
REMARK minimizedAffinity 2.72421503
REMARK minimizedRMSD -1
REMARK  3 active torsions:
REMARK  status: ('A' for Active; 'I' for Inactive)
REMARK    1  A    between atoms: C3'_2  and  C2'_3 
REMARK    2  A    between atoms: C2'_3  and  C1'_4 
REMARK    3  A    between atoms: C1'_4  and  C1_5 
ROOT
ATOM      1  C1  N4B d   1      -3.940  -5.370   3.469  0.00  0.00    -0.075 A 
ATOM      2  C2  N4B d   1      -3.007  -4.492   2.874  0.00  0.00     0.002 A 
ATOM      3  C3  N4B d   1      -2.051  -3.879   3.647  0.00  0.00     0.002 A 
ATOM      4  C4  N4B d   1      -2.021  -4.113   5.014  0.00  0.00    -0.004 A 
ATOM      5  C5  N4B d   1      -2.909  -4.982   5.577  0.00  0.00     0.002 A 
ATOM      6  C6  N4B d   1      -3.872  -5.608   4.812  0.00  0.00     0.002 A 
ENDROOT
BRANCH   1   7
ATOM      7  C1' N4B d   1      -5.057  -5.996   2.680  0.00  0.00     0.057 C 
BRANCH   7   8
ATOM      8  C2' N4B d   1      -5.274  -5.196   1.399  0.00  0.00     0.009 C 
BRANCH   8   9
ATOM      9  C3' N4B d   1      -4.893  -5.990   0.161  0.00  0.00     0.004 C 
ATOM     10  C4' N4B d   1      -3.441  -5.857  -0.189  0.00  0.00     0.003 C 
ENDBRANCH   8   9
ENDBRANCH   7   8
ENDBRANCH   1   7
TORSDOF 3
ENDMDL
