MODEL 1
REMARK minimizedAffinity 4.20085669
REMARK minimizedRMSD -1
REMARK  3 active torsions:
REMARK  status: ('A' for Active; 'I' for Inactive)
REMARK    1  A    between atoms: C3'_2  and  C2'_3 
REMARK    2  A    between atoms: C2'_3  and  C1'_4 
REMARK    3  A    between atoms: C1'_4  and  C1_5 
ROOT
ATOM      1  C1  N4B d   1      -3.506  -4.426   1.711  0.00  0.00    -0.075 A 
ATOM      2  C2  N4B d   1      -4.469  -3.962   0.788  0.00  0.00     0.002 A 
ATOM      3  C3  N4B d   1      -4.474  -2.644   0.404  0.00  0.00     0.002 A 
ATOM      4  C4  N4B d   1      -3.541  -1.770   0.942  0.00  0.00    -0.004 A 
ATOM      5  C5  N4B d   1      -2.598  -2.231   1.813  0.00  0.00     0.002 A 
ATOM      6  C6  N4B d   1      -2.579  -3.554   2.205  0.00  0.00     0.002 A 
ENDROOT
BRANCH   1   7
ATOM      7  C1' N4B d   1      -3.516  -5.839   2.227  0.00  0.00     0.057 C 
BRANCH   7   8
ATOM      8  C2' N4B d   1      -4.654  -5.999   3.230  0.00  0.00     0.009 C 
BRANCH   8   9
ATOM      9  C3' N4B d   1      -4.386  -5.242   4.519  0.00  0.00     0.004 C 
ATOM     10  C4' N4B d   1      -2.957  -5.339   4.963  0.00  0.00     0.003 C 
ENDBRANCH   8   9
ENDBRANCH   7   8
ENDBRANCH   1   7
TORSDOF 3
ENDMDL
