MODEL 1
REMARK minimizedAffinity -5.6988368
REMARK minimizedRMSD -1
REMARK  3 active torsions:
REMARK  status: ('A' for Active; 'I' for Inactive)
REMARK    1  A    between atoms: C3'_2  and  C2'_3 
REMARK    2  A    between atoms: C2'_3  and  C1'_4 
REMARK    3  A    between atoms: C1'_4  and  C1_5 
ROOT
ATOM      1  C1  N4B d   1       0.071   0.014   0.590  0.00  0.00    -0.075 A 
ATOM      2  C2  N4B d   1       1.136   0.428   1.420  0.00  0.00     0.002 A 
ATOM      3  C3  N4B d   1       0.984   0.421   2.785  0.00  0.00     0.002 A 
ATOM      4  C4  N4B d   1      -0.223   0.023   3.339  0.00  0.00    -0.004 A 
ATOM      5  C5  N4B d   1      -1.237  -0.401   2.531  0.00  0.00     0.002 A 
ATOM      6  C6  N4B d   1      -1.098  -0.402   1.158  0.00  0.00     0.002 A 
ENDROOT
BRANCH   1   7
ATOM      7  C1' N4B d   1       0.160   0.086  -0.910  0.00  0.00     0.057 C 
BRANCH   7   8
ATOM      8  C2' N4B d   1       1.000  -1.082  -1.419  0.00  0.00     0.009 C 
BRANCH   8   9
ATOM      9  C3' N4B d   1       1.119  -1.078  -2.934  0.00  0.00     0.004 C 
ATOM     10  C4' N4B d   1       0.800  -2.411  -3.544  0.00  0.00     0.003 C 
ENDBRANCH   8   9
ENDBRANCH   7   8
ENDBRANCH   1   7
TORSDOF 3
ENDMDL
