MODEL 1
REMARK minimizedAffinity -5.10093927
REMARK minimizedRMSD -1
REMARK  3 active torsions:
REMARK  status: ('A' for Active; 'I' for Inactive)
REMARK    1  A    between atoms: C3'_2  and  C2'_3 
REMARK    2  A    between atoms: C2'_3  and  C1'_4 
REMARK    3  A    between atoms: C1'_4  and  C1_5 
ROOT
ATOM      1  C1  N4B d   1       0.040   0.072   0.490  0.00  0.00    -0.075 A 
ATOM      2  C2  N4B d   1      -1.033  -0.495   1.211  0.00  0.00     0.002 A 
ATOM      3  C3  N4B d   1      -0.949  -0.629   2.575  0.00  0.00     0.002 A 
ATOM      4  C4  N4B d   1       0.201  -0.222   3.235  0.00  0.00    -0.004 A 
ATOM      5  C5  N4B d   1       1.223   0.348   2.534  0.00  0.00     0.002 A 
ATOM      6  C6  N4B d   1       1.151   0.493   1.163  0.00  0.00     0.002 A 
ENDROOT
BRANCH   1   7
ATOM      7  C1' N4B d   1       0.029   0.161  -1.012  0.00  0.00     0.057 C 
BRANCH   7   8
ATOM      8  C2' N4B d   1       1.127  -0.737  -1.574  0.00  0.00     0.009 C 
BRANCH   8   9
ATOM      9  C3' N4B d   1       0.938  -1.005  -3.058  0.00  0.00     0.004 C 
ATOM     10  C4' N4B d   1       0.761  -2.462  -3.367  0.00  0.00     0.003 C 
ENDBRANCH   8   9
ENDBRANCH   7   8
ENDBRANCH   1   7
TORSDOF 3
ENDMDL
