MODEL 1
REMARK minimizedAffinity 10.8727636
REMARK minimizedRMSD -1
REMARK  3 active torsions:
REMARK  status: ('A' for Active; 'I' for Inactive)
REMARK    1  A    between atoms: C3'_2  and  C2'_3 
REMARK    2  A    between atoms: C2'_3  and  C1'_4 
REMARK    3  A    between atoms: C1'_4  and  C1_5 
ROOT
ATOM      1  C1  N4B d   1       2.203  -1.937  -3.367  0.00  0.00    -0.075 A 
ATOM      2  C2  N4B d   1       3.442  -1.604  -3.957  0.00  0.00     0.002 A 
ATOM      3  C3  N4B d   1       4.043  -0.405  -3.663  0.00  0.00     0.002 A 
ATOM      4  C4  N4B d   1       3.416   0.483  -2.800  0.00  0.00    -0.004 A 
ATOM      5  C5  N4B d   1       2.231   0.143  -2.216  0.00  0.00     0.002 A 
ATOM      6  C6  N4B d   1       1.618  -1.061  -2.499  0.00  0.00     0.002 A 
ENDROOT
BRANCH   1   7
ATOM      7  C1' N4B d   1       1.466  -3.199  -3.725  0.00  0.00     0.057 C 
BRANCH   7   8
ATOM      8  C2' N4B d   1      -0.034  -2.921  -3.724  0.00  0.00     0.009 C 
BRANCH   8   9
ATOM      9  C3' N4B d   1      -0.542  -2.535  -5.102  0.00  0.00     0.004 C 
ATOM     10  C4' N4B d   1      -0.866  -1.075  -5.214  0.00  0.00     0.003 C 
ENDBRANCH   8   9
ENDBRANCH   7   8
ENDBRANCH   1   7
TORSDOF 3
ENDMDL
