MODEL 1
REMARK minimizedAffinity 15.0739002
REMARK minimizedRMSD -1
REMARK  3 active torsions:
REMARK  status: ('A' for Active; 'I' for Inactive)
REMARK    1  A    between atoms: C3'_2  and  C2'_3 
REMARK    2  A    between atoms: C2'_3  and  C1'_4 
REMARK    3  A    between atoms: C1'_4  and  C1_5 
ROOT
ATOM      1  C1  N4B d   1       2.681   1.341  -1.984  0.00  0.00    -0.075 A 
ATOM      2  C2  N4B d   1       3.739   1.059  -2.876  0.00  0.00     0.002 A 
ATOM      3  C3  N4B d   1       3.996  -0.238  -3.248  0.00  0.00     0.002 A 
ATOM      4  C4  N4B d   1       3.225  -1.266  -2.728  0.00  0.00    -0.004 A 
ATOM      5  C5  N4B d   1       2.189  -0.983  -1.887  0.00  0.00     0.002 A 
ATOM      6  C6  N4B d   1       1.916   0.316  -1.508  0.00  0.00     0.002 A 
ENDROOT
BRANCH   1   7
ATOM      7  C1' N4B d   1       2.416   2.734  -1.482  0.00  0.00     0.057 C 
BRANCH   7   8
ATOM      8  C2' N4B d   1       2.925   2.855  -0.048  0.00  0.00     0.009 C 
BRANCH   8   9
ATOM      9  C3' N4B d   1       3.555   4.211   0.219  0.00  0.00     0.004 C 
ATOM     10  C4' N4B d   1       4.967   4.108   0.714  0.00  0.00     0.003 C 
ENDBRANCH   8   9
ENDBRANCH   7   8
ENDBRANCH   1   7
TORSDOF 3
ENDMDL
