MODEL 1
REMARK minimizedAffinity 9.10147381
REMARK minimizedRMSD -1
REMARK  1 active torsions:
REMARK  status: ('A' for Active; 'I' for Inactive)
REMARK    1  A    between atoms: C3_4  and  O_7 
ROOT
ATOM      1  C   UNL d   1      -0.972  -3.281   1.363  0.00  0.00    -0.033 A 
ATOM      2  C1  UNL d   1      -1.369  -1.943   1.391  0.00  0.00     0.039 A 
ATOM      3  C2  UNL d   1      -0.413  -0.927   1.331  0.00  0.00    -0.080 A 
ATOM      4  C3  UNL d   1       0.935  -1.262   1.241  0.00  0.00     0.150 A 
ATOM      5  C4  UNL d   1       1.338  -2.593   1.209  0.00  0.00    -0.007 A 
ATOM      6  C5  UNL d   1       0.382  -3.606   1.271  0.00  0.00     0.039 A 
ENDROOT
BRANCH   4   7
ATOM      7  O   UNL d   1       1.905  -0.306   1.184  0.00  0.00    -0.526 OA
ATOM      8  H5  UNL d   1       1.481   0.566   1.245  0.00  0.00     0.418 HD
ENDBRANCH   4   7
TORSDOF 1
ENDMDL
