MODEL 1
REMARK minimizedAffinity 8.38736439
REMARK minimizedRMSD -1
REMARK  1 active torsions:
REMARK  status: ('A' for Active; 'I' for Inactive)
REMARK    1  A    between atoms: C3_4  and  O_7 
ROOT
ATOM      1  C   UNL d   1       1.889  -0.913   1.554  0.00  0.00    -0.033 A 
ATOM      2  C1  UNL d   1       1.580  -0.134   2.670  0.00  0.00     0.039 A 
ATOM      3  C2  UNL d   1       0.958  -0.714   3.778  0.00  0.00    -0.080 A 
ATOM      4  C3  UNL d   1       0.651  -2.071   3.756  0.00  0.00     0.150 A 
ATOM      5  C4  UNL d   1       0.959  -2.854   2.649  0.00  0.00    -0.007 A 
ATOM      6  C5  UNL d   1       1.580  -2.274   1.544  0.00  0.00     0.039 A 
ENDROOT
BRANCH   4   7
ATOM      7  O   UNL d   1       0.039  -2.680   4.812  0.00  0.00    -0.526 OA
ATOM      8  H5  UNL d   1      -0.139  -2.010   5.493  0.00  0.00     0.418 HD
ENDBRANCH   4   7
TORSDOF 1
ENDMDL
