MODEL 1
REMARK minimizedAffinity 5.78842688
REMARK minimizedRMSD -1
REMARK  1 active torsions:
REMARK  status: ('A' for Active; 'I' for Inactive)
REMARK    1  A    between atoms: C3_4  and  O_7 
ROOT
ATOM      1  C   UNL d   1       2.412  -0.969   1.373  0.00  0.00    -0.033 A 
ATOM      2  C1  UNL d   1       1.534   0.004   1.855  0.00  0.00     0.039 A 
ATOM      3  C2  UNL d   1       0.751  -0.256   2.982  0.00  0.00    -0.080 A 
ATOM      4  C3  UNL d   1       0.856  -1.490   3.616  0.00  0.00     0.150 A 
ATOM      5  C4  UNL d   1       1.731  -2.463   3.144  0.00  0.00    -0.007 A 
ATOM      6  C5  UNL d   1       2.511  -2.202   2.018  0.00  0.00     0.039 A 
ENDROOT
BRANCH   4   7
ATOM      7  O   UNL d   1       0.109  -1.792   4.716  0.00  0.00    -0.526 OA
ATOM      8  H5  UNL d   1      -0.470  -1.037   4.911  0.00  0.00     0.418 HD
ENDBRANCH   4   7
TORSDOF 1
ENDMDL
