MODEL 1
REMARK minimizedAffinity 1.3243084
REMARK minimizedRMSD -1
REMARK  1 active torsions:
REMARK  status: ('A' for Active; 'I' for Inactive)
REMARK    1  A    between atoms: C3_4  and  O_7 
ROOT
ATOM      1  C   UNL d   1      -5.924  -3.783  -5.999  0.00  0.00    -0.033 A 
ATOM      2  C1  UNL d   1      -5.065  -3.122  -5.119  0.00  0.00     0.039 A 
ATOM      3  C2  UNL d   1      -4.269  -3.853  -4.235  0.00  0.00    -0.080 A 
ATOM      4  C3  UNL d   1      -4.340  -5.243  -4.242  0.00  0.00     0.150 A 
ATOM      5  C4  UNL d   1      -5.191  -5.909  -5.118  0.00  0.00    -0.007 A 
ATOM      6  C5  UNL d   1      -5.985  -5.177  -5.999  0.00  0.00     0.039 A 
ENDROOT
BRANCH   4   7
ATOM      7  O   UNL d   1      -3.586  -6.000  -3.394  0.00  0.00    -0.526 OA
ATOM      8  H5  UNL d   1      -3.069  -5.404  -2.828  0.00  0.00     0.418 HD
ENDBRANCH   4   7
TORSDOF 1
ENDMDL
