MODEL 1
REMARK minimizedAffinity 0.516491175
REMARK minimizedRMSD -1
REMARK  1 active torsions:
REMARK  status: ('A' for Active; 'I' for Inactive)
REMARK    1  A    between atoms: C3_4  and  O_7 
ROOT
ATOM      1  C   UNL d   1      -4.539  -5.974  -4.448  0.00  0.00    -0.033 A 
ATOM      2  C1  UNL d   1      -4.090  -4.764  -3.915  0.00  0.00     0.039 A 
ATOM      3  C2  UNL d   1      -4.568  -3.555  -4.424  0.00  0.00    -0.080 A 
ATOM      4  C3  UNL d   1      -5.494  -3.569  -5.463  0.00  0.00     0.150 A 
ATOM      5  C4  UNL d   1      -5.948  -4.771  -5.996  0.00  0.00    -0.007 A 
ATOM      6  C5  UNL d   1      -5.469  -5.977  -5.487  0.00  0.00     0.039 A 
ENDROOT
BRANCH   4   7
ATOM      7  O   UNL d   1      -5.986  -2.415  -5.996  0.00  0.00    -0.526 OA
ATOM      8  H5  UNL d   1      -5.561  -1.664  -5.548  0.00  0.00     0.418 HD
ENDBRANCH   4   7
TORSDOF 1
ENDMDL
