MODEL 1
REMARK minimizedAffinity 10.7938633
REMARK minimizedRMSD -1
REMARK  1 active torsions:
REMARK  status: ('A' for Active; 'I' for Inactive)
REMARK    1  A    between atoms: C3_4  and  O_7 
ROOT
ATOM      1  C   UNL d   1      -5.455   0.617  -1.550  0.00  0.00    -0.033 A 
ATOM      2  C1  UNL d   1      -4.749  -0.071  -2.539  0.00  0.00     0.039 A 
ATOM      3  C2  UNL d   1      -4.589   0.494  -3.806  0.00  0.00    -0.080 A 
ATOM      4  C3  UNL d   1      -5.139   1.745  -4.070  0.00  0.00     0.150 A 
ATOM      5  C4  UNL d   1      -5.840   2.438  -3.089  0.00  0.00    -0.007 A 
ATOM      6  C5  UNL d   1      -6.000   1.872  -1.824  0.00  0.00     0.039 A 
ENDROOT
BRANCH   4   7
ATOM      7  O   UNL d   1      -5.013   2.335  -5.293  0.00  0.00    -0.526 OA
ATOM      8  H5  UNL d   1      -4.530   1.729  -5.879  0.00  0.00     0.418 HD
ENDBRANCH   4   7
TORSDOF 1
ENDMDL
