MODEL 1
REMARK minimizedAffinity 6.82231712
REMARK minimizedRMSD -1
REMARK  1 active torsions:
REMARK  status: ('A' for Active; 'I' for Inactive)
REMARK    1  A    between atoms: C3_4  and  O_7 
ROOT
ATOM      1  C   UNL d   1       2.254  -0.563   0.377  0.00  0.00    -0.033 A 
ATOM      2  C1  UNL d   1       2.256  -1.954   0.501  0.00  0.00     0.039 A 
ATOM      3  C2  UNL d   1       1.682  -2.558   1.621  0.00  0.00    -0.080 A 
ATOM      4  C3  UNL d   1       1.110  -1.761   2.609  0.00  0.00     0.150 A 
ATOM      5  C4  UNL d   1       1.101  -0.375   2.491  0.00  0.00    -0.007 A 
ATOM      6  C5  UNL d   1       1.675   0.226   1.372  0.00  0.00     0.039 A 
ENDROOT
BRANCH   4   7
ATOM      7  O   UNL d   1       0.542  -2.305   3.723  0.00  0.00    -0.526 OA
ATOM      8  H5  UNL d   1       0.648  -3.270   3.682  0.00  0.00     0.418 HD
ENDBRANCH   4   7
TORSDOF 1
ENDMDL
