MODEL 1
REMARK minimizedAffinity 9.80432701
REMARK minimizedRMSD -1
REMARK  1 active torsions:
REMARK  status: ('A' for Active; 'I' for Inactive)
REMARK    1  A    between atoms: C3_4  and  O_7 
ROOT
ATOM      1  C   UNL d   1      -5.998   3.759   1.876  0.00  0.00    -0.033 A 
ATOM      2  C1  UNL d   1      -6.000   2.877   0.794  0.00  0.00     0.039 A 
ATOM      3  C2  UNL d   1      -4.817   2.247   0.403  0.00  0.00    -0.080 A 
ATOM      4  C3  UNL d   1      -3.641   2.507   1.101  0.00  0.00     0.150 A 
ATOM      5  C4  UNL d   1      -3.633   3.382   2.182  0.00  0.00    -0.007 A 
ATOM      6  C5  UNL d   1      -4.815   4.011   2.571  0.00  0.00     0.039 A 
ENDROOT
BRANCH   4   7
ATOM      7  O   UNL d   1      -2.461   1.919   0.753  0.00  0.00    -0.526 OA
ATOM      8  H5  UNL d   1      -2.613   1.363  -0.029  0.00  0.00     0.418 HD
ENDBRANCH   4   7
TORSDOF 1
ENDMDL
