MODEL 1
REMARK minimizedAffinity 4.2015543
REMARK minimizedRMSD -1
REMARK  1 active torsions:
REMARK  status: ('A' for Active; 'I' for Inactive)
REMARK    1  A    between atoms: C3_4  and  O_7 
ROOT
ATOM      1  C   UNL d   1       4.236   4.875  -2.251  0.00  0.00    -0.033 A 
ATOM      2  C1  UNL d   1       5.409   5.632  -2.256  0.00  0.00     0.039 A 
ATOM      3  C2  UNL d   1       5.999   6.000  -3.467  0.00  0.00    -0.080 A 
ATOM      4  C3  UNL d   1       5.406   5.607  -4.664  0.00  0.00     0.150 A 
ATOM      5  C4  UNL d   1       4.235   4.856  -4.666  0.00  0.00    -0.007 A 
ATOM      6  C5  UNL d   1       3.648   4.488  -3.456  0.00  0.00     0.039 A 
ENDROOT
BRANCH   4   7
ATOM      7  O   UNL d   1       5.948   5.938  -5.870  0.00  0.00    -0.526 OA
ATOM      8  H5  UNL d   1       6.770   6.433  -5.713  0.00  0.00     0.418 HD
ENDBRANCH   4   7
TORSDOF 1
ENDMDL
