MODEL 1
REMARK minimizedAffinity 2.67764068
REMARK minimizedRMSD -1
REMARK  1 active torsions:
REMARK  status: ('A' for Active; 'I' for Inactive)
REMARK    1  A    between atoms: C3_4  and  O_7 
ROOT
ATOM      1  C   UNL d   1       1.438  -3.512   1.330  0.00  0.00    -0.033 A 
ATOM      2  C1  UNL d   1       0.117  -3.836   1.647  0.00  0.00     0.039 A 
ATOM      3  C2  UNL d   1      -0.913  -2.942   1.349  0.00  0.00    -0.080 A 
ATOM      4  C3  UNL d   1      -0.610  -1.730   0.735  0.00  0.00     0.150 A 
ATOM      5  C4  UNL d   1       0.703  -1.402   0.413  0.00  0.00    -0.007 A 
ATOM      6  C5  UNL d   1       1.730  -2.296   0.712  0.00  0.00     0.039 A 
ENDROOT
BRANCH   4   7
ATOM      7  O   UNL d   1      -1.582  -0.824   0.430  0.00  0.00    -0.526 OA
ATOM      8  H5  UNL d   1      -2.436  -1.173   0.736  0.00  0.00     0.418 HD
ENDBRANCH   4   7
TORSDOF 1
ENDMDL
