MODEL 1
REMARK minimizedAffinity 1.41024637
REMARK minimizedRMSD -1
REMARK  0 active torsions:
REMARK  status: ('A' for Active; 'I' for Inactive)
ROOT
ATOM      1  C   UNL d   1       0.824   0.353   2.420  0.00  0.00     0.077 C 
ATOM      2  C1  UNL d   1      -0.589   0.623   1.994  0.00  0.00    -0.074 A 
ATOM      3  C2  UNL d   1      -1.338   1.640   2.594  0.00  0.00    -0.005 A 
ATOM      4  C3  UNL d   1      -2.647   1.886   2.181  0.00  0.00     0.006 A 
ATOM      5  C4  UNL d   1      -3.220   1.119   1.166  0.00  0.00    -0.005 A 
ATOM      6  C5  UNL d   1      -2.485   0.098   0.554  0.00  0.00    -0.074 A 
ATOM      7  C6  UNL d   1      -3.082  -0.729  -0.546  0.00  0.00     0.077 C 
ATOM      8  C7  UNL d   1      -1.168  -0.138   0.970  0.00  0.00    -0.001 A 
ENDROOT
TORSDOF 0
ENDMDL
