MODEL 1
REMARK minimizedAffinity 3.24281478
REMARK minimizedRMSD -1
REMARK  0 active torsions:
REMARK  status: ('A' for Active; 'I' for Inactive)
ROOT
ATOM      1  C   UNL d   1      -2.548  -1.295   3.971  0.00  0.00     0.077 C 
ATOM      2  C1  UNL d   1      -1.985  -0.545   2.801  0.00  0.00    -0.074 A 
ATOM      3  C2  UNL d   1      -2.821   0.161   1.929  0.00  0.00    -0.005 A 
ATOM      4  C3  UNL d   1      -2.282   0.861   0.850  0.00  0.00     0.006 A 
ATOM      5  C4  UNL d   1      -0.904   0.864   0.632  0.00  0.00    -0.005 A 
ATOM      6  C5  UNL d   1      -0.052   0.165   1.494  0.00  0.00    -0.074 A 
ATOM      7  C6  UNL d   1       1.433   0.165   1.280  0.00  0.00     0.077 C 
ATOM      8  C7  UNL d   1      -0.601  -0.531   2.580  0.00  0.00    -0.001 A 
ENDROOT
TORSDOF 0
ENDMDL
