MODEL 1
REMARK minimizedAffinity 13.2901201
REMARK minimizedRMSD -1
REMARK  0 active torsions:
REMARK  status: ('A' for Active; 'I' for Inactive)
ROOT
ATOM      1  C   UNL d   1       5.997   0.228   3.067  0.00  0.00     0.077 C 
ATOM      2  C1  UNL d   1       4.580   0.162   2.580  0.00  0.00    -0.074 A 
ATOM      3  C2  UNL d   1       3.727  -0.869   2.988  0.00  0.00    -0.005 A 
ATOM      4  C3  UNL d   1       2.409  -0.912   2.533  0.00  0.00     0.006 A 
ATOM      5  C4  UNL d   1       1.931   0.072   1.667  0.00  0.00    -0.005 A 
ATOM      6  C5  UNL d   1       2.769   1.111   1.249  0.00  0.00    -0.074 A 
ATOM      7  C6  UNL d   1       2.269   2.182   0.327  0.00  0.00     0.077 C 
ATOM      8  C7  UNL d   1       4.090   1.151   1.716  0.00  0.00    -0.001 A 
ENDROOT
TORSDOF 0
ENDMDL
