MODEL 1
REMARK minimizedAffinity 12.4926081
REMARK minimizedRMSD -1
REMARK  0 active torsions:
REMARK  status: ('A' for Active; 'I' for Inactive)
ROOT
ATOM      1  C   UNL d   1      -5.963   0.745   2.050  0.00  0.00     0.077 C 
ATOM      2  C1  UNL d   1      -4.849   0.281   1.160  0.00  0.00    -0.074 A 
ATOM      3  C2  UNL d   1      -4.253   1.152   0.241  0.00  0.00    -0.005 A 
ATOM      4  C3  UNL d   1      -3.212   0.709  -0.574  0.00  0.00     0.006 A 
ATOM      5  C4  UNL d   1      -2.756  -0.606  -0.479  0.00  0.00    -0.005 A 
ATOM      6  C5  UNL d   1      -3.339  -1.491   0.434  0.00  0.00    -0.074 A 
ATOM      7  C6  UNL d   1      -2.854  -2.905   0.555  0.00  0.00     0.077 C 
ATOM      8  C7  UNL d   1      -4.380  -1.037   1.254  0.00  0.00    -0.001 A 
ENDROOT
TORSDOF 0
ENDMDL
