MODEL 1
REMARK minimizedAffinity -0.213469535
REMARK minimizedRMSD -1
REMARK  0 active torsions:
REMARK  status: ('A' for Active; 'I' for Inactive)
ROOT
ATOM      1  C   UNL d   1      -3.321  -1.283   6.000  0.00  0.00     0.077 C 
ATOM      2  C1  UNL d   1      -3.779  -2.145   4.861  0.00  0.00    -0.074 A 
ATOM      3  C2  UNL d   1      -4.441  -3.355   5.096  0.00  0.00    -0.005 A 
ATOM      4  C3  UNL d   1      -4.869  -4.141   4.027  0.00  0.00     0.006 A 
ATOM      5  C4  UNL d   1      -4.641  -3.727   2.714  0.00  0.00    -0.005 A 
ATOM      6  C5  UNL d   1      -3.982  -2.520   2.460  0.00  0.00    -0.074 A 
ATOM      7  C6  UNL d   1      -3.738  -2.055   1.055  0.00  0.00     0.077 C 
ATOM      8  C7  UNL d   1      -3.561  -1.732   3.539  0.00  0.00    -0.001 A 
ENDROOT
TORSDOF 0
ENDMDL
