MODEL 1
REMARK minimizedAffinity 4.51503706
REMARK minimizedRMSD -1
REMARK  0 active torsions:
REMARK  status: ('A' for Active; 'I' for Inactive)
ROOT
ATOM      1  C   UNL d   1      -2.665   4.508   5.968  0.00  0.00     0.077 C 
ATOM      2  C1  UNL d   1      -3.827   3.863   5.272  0.00  0.00    -0.074 A 
ATOM      3  C2  UNL d   1      -4.836   3.224   5.999  0.00  0.00    -0.005 A 
ATOM      4  C3  UNL d   1      -5.915   2.637   5.339  0.00  0.00     0.006 A 
ATOM      5  C4  UNL d   1      -5.996   2.683   3.946  0.00  0.00    -0.005 A 
ATOM      6  C5  UNL d   1      -4.996   3.318   3.202  0.00  0.00    -0.074 A 
ATOM      7  C6  UNL d   1      -5.073   3.385   1.706  0.00  0.00     0.077 C 
ATOM      8  C7  UNL d   1      -3.919   3.912   3.874  0.00  0.00    -0.001 A 
ENDROOT
TORSDOF 0
ENDMDL
