MODEL 1
REMARK minimizedAffinity 4.55706882
REMARK minimizedRMSD -1
REMARK  0 active torsions:
REMARK  status: ('A' for Active; 'I' for Inactive)
ROOT
ATOM      1  C   UNL d   1       2.604   1.932  -0.611  0.00  0.00     0.077 C 
ATOM      2  C1  UNL d   1       2.817   0.988   0.536  0.00  0.00    -0.074 A 
ATOM      3  C2  UNL d   1       1.767   0.205   1.026  0.00  0.00    -0.005 A 
ATOM      4  C3  UNL d   1       1.982  -0.675   2.087  0.00  0.00     0.006 A 
ATOM      5  C4  UNL d   1       3.247  -0.780   2.667  0.00  0.00    -0.005 A 
ATOM      6  C5  UNL d   1       4.309  -0.005   2.190  0.00  0.00    -0.074 A 
ATOM      7  C6  UNL d   1       5.676  -0.113   2.796  0.00  0.00     0.077 C 
ATOM      8  C7  UNL d   1       4.086   0.872   1.119  0.00  0.00    -0.001 A 
ENDROOT
TORSDOF 0
ENDMDL
