MODEL 1
REMARK minimizedAffinity -1.19535291
REMARK minimizedRMSD -1
REMARK  0 active torsions:
REMARK  status: ('A' for Active; 'I' for Inactive)
ROOT
ATOM      1  C   UNL d   1      -5.835   0.094   5.999  0.00  0.00     0.077 C 
ATOM      2  C1  UNL d   1      -5.790   1.385   5.238  0.00  0.00    -0.074 A 
ATOM      3  C2  UNL d   1      -5.884   1.400   3.842  0.00  0.00    -0.005 A 
ATOM      4  C3  UNL d   1      -5.850   2.610   3.148  0.00  0.00     0.006 A 
ATOM      5  C4  UNL d   1      -5.723   3.814   3.841  0.00  0.00    -0.005 A 
ATOM      6  C5  UNL d   1      -5.629   3.819   5.237  0.00  0.00    -0.074 A 
ATOM      7  C6  UNL d   1      -5.502   5.105   5.998  0.00  0.00     0.077 C 
ATOM      8  C7  UNL d   1      -5.670   2.600   5.927  0.00  0.00    -0.001 A 
ENDROOT
TORSDOF 0
ENDMDL
