MODEL 1
REMARK minimizedAffinity 8.874506
REMARK minimizedRMSD -1
REMARK  0 active torsions:
REMARK  status: ('A' for Active; 'I' for Inactive)
ROOT
ATOM      1  C   UNL d   1       0.648   0.046   1.377  0.00  0.00     0.077 C 
ATOM      2  C1  UNL d   1      -0.809   0.399   1.407  0.00  0.00    -0.074 A 
ATOM      3  C2  UNL d   1      -1.642   0.106   0.322  0.00  0.00    -0.005 A 
ATOM      4  C3  UNL d   1      -2.997   0.431   0.368  0.00  0.00     0.006 A 
ATOM      5  C4  UNL d   1      -3.533   1.052   1.497  0.00  0.00    -0.005 A 
ATOM      6  C5  UNL d   1      -2.716   1.351   2.592  0.00  0.00    -0.074 A 
ATOM      7  C6  UNL d   1      -3.278   2.009   3.817  0.00  0.00     0.077 C 
ATOM      8  C7  UNL d   1      -1.357   1.015   2.541  0.00  0.00    -0.001 A 
ENDROOT
TORSDOF 0
ENDMDL
