MODEL 1
REMARK minimizedAffinity 4.87380934
REMARK minimizedRMSD -1
REMARK  0 active torsions:
REMARK  status: ('A' for Active; 'I' for Inactive)
ROOT
ATOM      1  C   UNL d   1       0.641  -0.108   0.686  0.00  0.00     0.077 C 
ATOM      2  C1  UNL d   1      -0.353   0.696   1.470  0.00  0.00    -0.074 A 
ATOM      3  C2  UNL d   1       0.058   1.509   2.531  0.00  0.00    -0.005 A 
ATOM      4  C3  UNL d   1      -0.877   2.258   3.245  0.00  0.00     0.006 A 
ATOM      5  C4  UNL d   1      -2.230   2.201   2.907  0.00  0.00    -0.005 A 
ATOM      6  C5  UNL d   1      -2.659   1.394   1.849  0.00  0.00    -0.074 A 
ATOM      7  C6  UNL d   1      -4.107   1.328   1.466  0.00  0.00     0.077 C 
ATOM      8  C7  UNL d   1      -1.712   0.649   1.131  0.00  0.00    -0.001 A 
ENDROOT
TORSDOF 0
ENDMDL
