MODEL 1
REMARK minimizedAffinity 2.10393167
REMARK minimizedRMSD -1
REMARK  0 active torsions:
REMARK  status: ('A' for Active; 'I' for Inactive)
ROOT
ATOM      1  C   UNL d   1      -2.846   0.124   0.335  0.00  0.00     0.077 C 
ATOM      2  C1  UNL d   1      -1.514   0.322   0.996  0.00  0.00    -0.074 A 
ATOM      3  C2  UNL d   1      -1.421   0.890   2.270  0.00  0.00    -0.005 A 
ATOM      4  C3  UNL d   1      -0.175   1.060   2.875  0.00  0.00     0.006 A 
ATOM      5  C4  UNL d   1       0.987   0.663   2.214  0.00  0.00    -0.005 A 
ATOM      6  C5  UNL d   1       0.914   0.091   0.939  0.00  0.00    -0.074 A 
ATOM      7  C6  UNL d   1       2.153  -0.350   0.218  0.00  0.00     0.077 C 
ATOM      8  C7  UNL d   1      -0.342  -0.082   0.341  0.00  0.00    -0.001 A 
ENDROOT
TORSDOF 0
ENDMDL
