MODEL 1
REMARK minimizedAffinity 4.02974415
REMARK minimizedRMSD -1
REMARK  0 active torsions:
REMARK  status: ('A' for Active; 'I' for Inactive)
ROOT
ATOM      1  C   UNL d   1      -4.450   1.632   2.203  0.00  0.00     0.077 C 
ATOM      2  C1  UNL d   1      -3.084   1.164   1.799  0.00  0.00    -0.074 A 
ATOM      3  C2  UNL d   1      -2.898   0.406   0.638  0.00  0.00    -0.005 A 
ATOM      4  C3  UNL d   1      -1.619  -0.013   0.269  0.00  0.00     0.006 A 
ATOM      5  C4  UNL d   1      -0.516   0.320   1.056  0.00  0.00    -0.005 A 
ATOM      6  C5  UNL d   1      -0.683   1.078   2.219  0.00  0.00    -0.074 A 
ATOM      7  C6  UNL d   1       0.493   1.454   3.071  0.00  0.00     0.077 C 
ATOM      8  C7  UNL d   1      -1.969   1.502   2.579  0.00  0.00    -0.001 A 
ENDROOT
TORSDOF 0
ENDMDL
