MODEL 1
REMARK minimizedAffinity -3.03866005
REMARK minimizedRMSD -1
REMARK  0 active torsions:
REMARK  status: ('A' for Active; 'I' for Inactive)
ROOT
ATOM      1  C   UNL d   1       1.548   4.802  -1.955  0.00  0.00     0.077 C 
ATOM      2  C1  UNL d   1       1.001   4.801  -3.351  0.00  0.00    -0.074 A 
ATOM      3  C2  UNL d   1       0.745   6.000  -4.024  0.00  0.00    -0.005 A 
ATOM      4  C3  UNL d   1       0.246   5.983  -5.326  0.00  0.00     0.006 A 
ATOM      5  C4  UNL d   1      -0.002   4.769  -5.968  0.00  0.00    -0.005 A 
ATOM      6  C5  UNL d   1       0.248   3.560  -5.312  0.00  0.00    -0.074 A 
ATOM      7  C6  UNL d   1      -0.003   2.246  -5.990  0.00  0.00     0.077 C 
ATOM      8  C7  UNL d   1       0.757   3.585  -4.006  0.00  0.00    -0.001 A 
ENDROOT
TORSDOF 0
ENDMDL
