MODEL 1
REMARK minimizedAffinity 6.52502966
REMARK minimizedRMSD -1
REMARK  0 active torsions:
REMARK  status: ('A' for Active; 'I' for Inactive)
ROOT
ATOM      1  C   UNL d   1      -1.502  -0.102   0.262  0.00  0.00     0.077 C 
ATOM      2  C1  UNL d   1      -1.464   0.751   1.495  0.00  0.00    -0.074 A 
ATOM      3  C2  UNL d   1      -2.643   1.238   2.069  0.00  0.00    -0.005 A 
ATOM      4  C3  UNL d   1      -2.592   2.022   3.222  0.00  0.00     0.006 A 
ATOM      5  C4  UNL d   1      -1.364   2.326   3.811  0.00  0.00    -0.005 A 
ATOM      6  C5  UNL d   1      -0.175   1.848   3.251  0.00  0.00    -0.074 A 
ATOM      7  C6  UNL d   1       1.152   2.157   3.877  0.00  0.00     0.077 C 
ATOM      8  C7  UNL d   1      -0.235   1.055   2.097  0.00  0.00    -0.001 A 
ENDROOT
TORSDOF 0
ENDMDL
