MODEL 1
REMARK minimizedAffinity 8.98210335
REMARK minimizedRMSD -1
REMARK  0 active torsions:
REMARK  status: ('A' for Active; 'I' for Inactive)
ROOT
ATOM      1  C   UNL d   1      -1.932   1.127   1.991  0.00  0.00     0.077 C 
ATOM      2  C1  UNL d   1      -3.353   1.411   2.379  0.00  0.00    -0.074 A 
ATOM      3  C2  UNL d   1      -4.404   1.162   1.490  0.00  0.00    -0.005 A 
ATOM      4  C3  UNL d   1      -5.721   1.422   1.868  0.00  0.00     0.006 A 
ATOM      5  C4  UNL d   1      -6.000   1.934   3.136  0.00  0.00    -0.005 A 
ATOM      6  C5  UNL d   1      -4.962   2.189   4.038  0.00  0.00    -0.074 A 
ATOM      7  C6  UNL d   1      -5.245   2.729   5.408  0.00  0.00     0.077 C 
ATOM      8  C7  UNL d   1      -3.642   1.918   3.654  0.00  0.00    -0.001 A 
ENDROOT
TORSDOF 0
ENDMDL
