MODEL 1
REMARK minimizedAffinity -0.259162009
REMARK minimizedRMSD -1
REMARK  0 active torsions:
REMARK  status: ('A' for Active; 'I' for Inactive)
ROOT
ATOM      1  C   UNL d   1      -0.258   2.237   3.642  0.00  0.00     0.077 C 
ATOM      2  C1  UNL d   1      -0.945   1.554   2.497  0.00  0.00    -0.074 A 
ATOM      3  C2  UNL d   1      -0.234   0.723   1.625  0.00  0.00    -0.005 A 
ATOM      4  C3  UNL d   1      -0.888   0.086   0.570  0.00  0.00     0.006 A 
ATOM      5  C4  UNL d   1      -2.257   0.274   0.377  0.00  0.00    -0.005 A 
ATOM      6  C5  UNL d   1      -2.984   1.100   1.239  0.00  0.00    -0.074 A 
ATOM      7  C6  UNL d   1      -4.458   1.305   1.051  0.00  0.00     0.077 C 
ATOM      8  C7  UNL d   1      -2.322   1.731   2.301  0.00  0.00    -0.001 A 
ENDROOT
TORSDOF 0
ENDMDL
