MODEL 1
REMARK minimizedAffinity 5.91095781
REMARK minimizedRMSD -1
REMARK  0 active torsions:
REMARK  status: ('A' for Active; 'I' for Inactive)
ROOT
ATOM      1  C   UNL d   1       0.111   2.421  -5.426  0.00  0.00     0.077 C 
ATOM      2  C1  UNL d   1       1.552   2.805  -5.584  0.00  0.00    -0.074 A 
ATOM      3  C2  UNL d   1       1.917   4.127  -5.856  0.00  0.00    -0.005 A 
ATOM      4  C3  UNL d   1       3.262   4.472  -5.991  0.00  0.00     0.006 A 
ATOM      5  C4  UNL d   1       4.254   3.499  -5.856  0.00  0.00    -0.005 A 
ATOM      6  C5  UNL d   1       3.907   2.172  -5.584  0.00  0.00    -0.074 A 
ATOM      7  C6  UNL d   1       4.961   1.116  -5.426  0.00  0.00     0.077 C 
ATOM      8  C7  UNL d   1       2.554   1.835  -5.442  0.00  0.00    -0.001 A 
ENDROOT
TORSDOF 0
ENDMDL
