MODEL 1
REMARK minimizedAffinity -1.5784142
REMARK minimizedRMSD -1
REMARK  0 active torsions:
REMARK  status: ('A' for Active; 'I' for Inactive)
ROOT
ATOM      1  C   UNL d   1      -1.446  -0.562   0.224  0.00  0.00     0.077 C 
ATOM      2  C1  UNL d   1      -1.944   0.319   1.331  0.00  0.00    -0.074 A 
ATOM      3  C2  UNL d   1      -1.056   0.901   2.241  0.00  0.00    -0.005 A 
ATOM      4  C3  UNL d   1      -1.533   1.726   3.260  0.00  0.00     0.006 A 
ATOM      5  C4  UNL d   1      -2.900   1.977   3.378  0.00  0.00    -0.005 A 
ATOM      6  C5  UNL d   1      -3.803   1.406   2.476  0.00  0.00    -0.074 A 
ATOM      7  C6  UNL d   1      -5.275   1.673   2.582  0.00  0.00     0.077 C 
ATOM      8  C7  UNL d   1      -3.315   0.583   1.451  0.00  0.00    -0.001 A 
ENDROOT
TORSDOF 0
ENDMDL
