MODEL 1
REMARK minimizedAffinity -0.0850207135
REMARK minimizedRMSD -1
REMARK  2 active torsions:
REMARK  status: ('A' for Active; 'I' for Inactive)
REMARK    1  A    between atoms: C2'_3  and  C1'_4 
REMARK    2  A    between atoms: C1'_4  and  C1_5 
ROOT
ATOM      1  C1  I4B d   1       5.182  -4.697   3.699  0.00  0.00    -0.075 A 
ATOM      2  C2  I4B d   1       3.924  -5.244   3.727  0.00  0.00     0.003 A 
ATOM      3  C3  I4B d   1       3.450  -5.882   4.899  0.00  0.00     0.002 A 
ATOM      4  C4  I4B d   1       4.281  -5.994   5.995  0.00  0.00    -0.004 A 
ATOM      5  C5  I4B d   1       5.549  -5.419   5.972  0.00  0.00     0.002 A 
ATOM      6  C6  I4B d   1       5.998  -4.755   4.821  0.00  0.00     0.003 A 
ENDROOT
BRANCH   1   7
ATOM      7  C1' I4B d   1       5.663  -4.060   2.434  0.00  0.00     0.060 C 
BRANCH   7   8
ATOM      8  C2' I4B d   1       5.348  -2.579   2.508  0.00  0.00    -0.013 C 
ATOM      9  C4' I4B d   1       5.836  -1.983   3.802  0.00  0.00     0.013 C 
ATOM     10  C3' I4B d   1       5.988  -1.910   1.328  0.00  0.00     0.013 C 
ENDBRANCH   7   8
ENDBRANCH   1   7
TORSDOF 2
ENDMDL
