MODEL 1
REMARK minimizedAffinity 1.54225719
REMARK minimizedRMSD -1
REMARK  2 active torsions:
REMARK  status: ('A' for Active; 'I' for Inactive)
REMARK    1  A    between atoms: C2'_3  and  C1'_4 
REMARK    2  A    between atoms: C1'_4  and  C1_5 
ROOT
ATOM      1  C1  I4B d   1       5.855  -4.616   3.372  0.00  0.00    -0.075 A 
ATOM      2  C2  I4B d   1       5.999  -4.705   2.010  0.00  0.00     0.003 A 
ATOM      3  C3  I4B d   1       5.841  -3.554   1.200  0.00  0.00     0.002 A 
ATOM      4  C4  I4B d   1       5.492  -2.354   1.785  0.00  0.00    -0.004 A 
ATOM      5  C5  I4B d   1       5.369  -2.261   3.168  0.00  0.00     0.002 A 
ATOM      6  C6  I4B d   1       5.564  -3.396   3.968  0.00  0.00     0.003 A 
ENDROOT
BRANCH   1   7
ATOM      7  C1' I4B d   1       5.996  -5.858   4.194  0.00  0.00     0.060 C 
BRANCH   7   8
ATOM      8  C2' I4B d   1       5.566  -5.532   5.609  0.00  0.00    -0.013 C 
ATOM      9  C4' I4B d   1       5.985  -4.139   5.999  0.00  0.00     0.013 C 
ATOM     10  C3' I4B d   1       4.077  -5.693   5.689  0.00  0.00     0.013 C 
ENDBRANCH   7   8
ENDBRANCH   1   7
TORSDOF 2
ENDMDL
