MODEL 1
REMARK minimizedAffinity 0.494237006
REMARK minimizedRMSD -1
REMARK  2 active torsions:
REMARK  status: ('A' for Active; 'I' for Inactive)
REMARK    1  A    between atoms: C2'_3  and  C1'_4 
REMARK    2  A    between atoms: C1'_4  and  C1_5 
ROOT
ATOM      1  C1  I4B d   1       5.958  -4.961   3.187  0.00  0.00    -0.075 A 
ATOM      2  C2  I4B d   1       5.937  -3.634   3.537  0.00  0.00     0.003 A 
ATOM      3  C3  I4B d   1       5.932  -2.632   2.536  0.00  0.00     0.002 A 
ATOM      4  C4  I4B d   1       5.999  -2.999   1.208  0.00  0.00    -0.004 A 
ATOM      5  C5  I4B d   1       5.997  -4.345   0.854  0.00  0.00     0.002 A 
ATOM      6  C6  I4B d   1       5.964  -5.333   1.849  0.00  0.00     0.003 A 
ENDROOT
BRANCH   1   7
ATOM      7  C1' I4B d   1       5.995  -5.991   4.270  0.00  0.00     0.060 C 
BRANCH   7   8
ATOM      8  C2' I4B d   1       5.070  -5.536   5.380  0.00  0.00    -0.013 C 
ATOM      9  C4' I4B d   1       5.549  -4.249   5.997  0.00  0.00     0.013 C 
ATOM     10  C3' I4B d   1       3.695  -5.380   4.802  0.00  0.00     0.013 C 
ENDBRANCH   7   8
ENDBRANCH   1   7
TORSDOF 2
ENDMDL
