MODEL 1
REMARK minimizedAffinity 3.26168323
REMARK minimizedRMSD -1
REMARK  2 active torsions:
REMARK  status: ('A' for Active; 'I' for Inactive)
REMARK    1  A    between atoms: C2'_3  and  C1'_4 
REMARK    2  A    between atoms: C1'_4  and  C1_5 
ROOT
ATOM      1  C1  I4B d   1       5.252  -4.056   3.211  0.00  0.00    -0.075 A 
ATOM      2  C2  I4B d   1       3.905  -4.307   3.135  0.00  0.00     0.003 A 
ATOM      3  C3  I4B d   1       3.242  -4.968   4.197  0.00  0.00     0.002 A 
ATOM      4  C4  I4B d   1       3.968  -5.402   5.286  0.00  0.00    -0.004 A 
ATOM      5  C5  I4B d   1       5.330  -5.126   5.373  0.00  0.00     0.002 A 
ATOM      6  C6  I4B d   1       5.974  -4.438   4.334  0.00  0.00     0.003 A 
ENDROOT
BRANCH   1   7
ATOM      7  C1' I4B d   1       5.927  -3.385   2.057  0.00  0.00     0.060 C 
BRANCH   7   8
ATOM      8  C2' I4B d   1       5.483  -4.082   0.787  0.00  0.00    -0.013 C 
ATOM      9  C4' I4B d   1       5.985  -3.360  -0.435  0.00  0.00     0.013 C 
ATOM     10  C3' I4B d   1       5.991  -5.492   0.830  0.00  0.00     0.013 C 
ENDBRANCH   7   8
ENDBRANCH   1   7
TORSDOF 2
ENDMDL
