MODEL 1
REMARK minimizedAffinity 0.707107306
REMARK minimizedRMSD -1
REMARK  2 active torsions:
REMARK  status: ('A' for Active; 'I' for Inactive)
REMARK    1  A    between atoms: C2'_3  and  C1'_4 
REMARK    2  A    between atoms: C1'_4  and  C1_5 
ROOT
ATOM      1  C1  I4B d   1       5.501  -3.497   4.543  0.00  0.00    -0.075 A 
ATOM      2  C2  I4B d   1       4.539  -3.520   5.521  0.00  0.00     0.003 A 
ATOM      3  C3  I4B d   1       4.028  -4.755   5.989  0.00  0.00     0.002 A 
ATOM      4  C4  I4B d   1       4.467  -5.932   5.419  0.00  0.00    -0.004 A 
ATOM      5  C5  I4B d   1       5.459  -5.908   4.443  0.00  0.00     0.002 A 
ATOM      6  C6  I4B d   1       5.989  -4.684   4.010  0.00  0.00     0.003 A 
ENDROOT
BRANCH   1   7
ATOM      7  C1' I4B d   1       5.996  -2.174   4.049  0.00  0.00     0.060 C 
BRANCH   7   8
ATOM      8  C2' I4B d   1       5.234  -1.835   2.784  0.00  0.00    -0.013 C 
ATOM      9  C4' I4B d   1       5.998  -2.260   1.557  0.00  0.00     0.013 C 
ATOM     10  C3' I4B d   1       3.898  -2.511   2.851  0.00  0.00     0.013 C 
ENDBRANCH   7   8
ENDBRANCH   1   7
TORSDOF 2
ENDMDL
