MODEL 1
REMARK minimizedAffinity -3.14934373
REMARK minimizedRMSD -1
REMARK  2 active torsions:
REMARK  status: ('A' for Active; 'I' for Inactive)
REMARK    1  A    between atoms: C2'_3  and  C1'_4 
REMARK    2  A    between atoms: C1'_4  and  C1_5 
ROOT
ATOM      1  C1  I4B d   1       5.291  -4.836   3.694  0.00  0.00    -0.075 A 
ATOM      2  C2  I4B d   1       5.948  -4.975   4.890  0.00  0.00     0.003 A 
ATOM      3  C3  I4B d   1       5.296  -5.571   5.997  0.00  0.00     0.002 A 
ATOM      4  C4  I4B d   1       3.979  -5.964   5.878  0.00  0.00    -0.004 A 
ATOM      5  C5  I4B d   1       3.321  -5.843   4.657  0.00  0.00     0.002 A 
ATOM      6  C6  I4B d   1       3.985  -5.287   3.554  0.00  0.00     0.003 A 
ENDROOT
BRANCH   1   7
ATOM      7  C1' I4B d   1       5.999  -4.172   2.555  0.00  0.00     0.060 C 
BRANCH   7   8
ATOM      8  C2' I4B d   1       5.287  -2.868   2.259  0.00  0.00    -0.013 C 
ATOM      9  C4' I4B d   1       5.281  -1.964   3.464  0.00  0.00     0.013 C 
ATOM     10  C3' I4B d   1       5.977  -2.217   1.098  0.00  0.00     0.013 C 
ENDBRANCH   7   8
ENDBRANCH   1   7
TORSDOF 2
ENDMDL
