MODEL 1
REMARK minimizedAffinity -2.67018318
REMARK minimizedRMSD -1
REMARK  2 active torsions:
REMARK  status: ('A' for Active; 'I' for Inactive)
REMARK    1  A    between atoms: C2'_3  and  C1'_4 
REMARK    2  A    between atoms: C1'_4  and  C1_5 
ROOT
ATOM      1  C1  I4B d   1       5.955  -4.062   4.057  0.00  0.00    -0.075 A 
ATOM      2  C2  I4B d   1       5.961  -4.752   2.870  0.00  0.00     0.003 A 
ATOM      3  C3  I4B d   1       6.000  -4.053   1.640  0.00  0.00     0.002 A 
ATOM      4  C4  I4B d   1       5.980  -2.673   1.641  0.00  0.00    -0.004 A 
ATOM      5  C5  I4B d   1       5.996  -1.976   2.845  0.00  0.00     0.002 A 
ATOM      6  C6  I4B d   1       5.997  -2.674   4.061  0.00  0.00     0.003 A 
ENDROOT
BRANCH   1   7
ATOM      7  C1' I4B d   1       5.881  -4.832   5.338  0.00  0.00     0.060 C 
BRANCH   7   8
ATOM      8  C2' I4B d   1       4.519  -4.584   5.953  0.00  0.00    -0.013 C 
ATOM      9  C4' I4B d   1       4.128  -3.134   5.848  0.00  0.00     0.013 C 
ATOM     10  C3' I4B d   1       3.527  -5.464   5.251  0.00  0.00     0.013 C 
ENDBRANCH   7   8
ENDBRANCH   1   7
TORSDOF 2
ENDMDL
