MODEL 1
REMARK minimizedAffinity -3.88630128
REMARK minimizedRMSD -1
REMARK  2 active torsions:
REMARK  status: ('A' for Active; 'I' for Inactive)
REMARK    1  A    between atoms: C2'_3  and  C1'_4 
REMARK    2  A    between atoms: C1'_4  and  C1_5 
ROOT
ATOM      1  C1  I4B d   1       5.453  -3.747   4.230  0.00  0.00    -0.075 A 
ATOM      2  C2  I4B d   1       5.851  -4.868   3.546  0.00  0.00     0.003 A 
ATOM      3  C3  I4B d   1       6.000  -4.830   2.139  0.00  0.00     0.002 A 
ATOM      4  C4  I4B d   1       5.693  -3.672   1.454  0.00  0.00    -0.004 A 
ATOM      5  C5  I4B d   1       5.312  -2.529   2.151  0.00  0.00     0.002 A 
ATOM      6  C6  I4B d   1       5.203  -2.563   3.549  0.00  0.00     0.003 A 
ENDROOT
BRANCH   1   7
ATOM      7  C1' I4B d   1       5.275  -3.832   5.713  0.00  0.00     0.060 C 
BRANCH   7   8
ATOM      8  C2' I4B d   1       3.790  -3.925   6.000  0.00  0.00    -0.013 C 
ATOM      9  C4' I4B d   1       2.990  -3.148   4.988  0.00  0.00     0.013 C 
ATOM     10  C3' I4B d   1       3.408  -5.375   5.994  0.00  0.00     0.013 C 
ENDBRANCH   7   8
ENDBRANCH   1   7
TORSDOF 2
ENDMDL
