MODEL 1
REMARK minimizedAffinity 8.12744999
REMARK minimizedRMSD -1
REMARK  3 active torsions:
REMARK  status: ('A' for Active; 'I' for Inactive)
REMARK    1  A    between atoms: C3'_2  and  C2'_3 
REMARK    2  A    between atoms: C2'_3  and  C1'_4 
REMARK    3  A    between atoms: C1'_4  and  C1_5 
ROOT
ATOM      1  C1  N4B d   1       3.684   0.506  -0.264  0.00  0.00    -0.075 A 
ATOM      2  C2  N4B d   1       3.453   1.867   0.031  0.00  0.00     0.002 A 
ATOM      3  C3  N4B d   1       4.502   2.680   0.386  0.00  0.00     0.002 A 
ATOM      4  C4  N4B d   1       5.782   2.151   0.469  0.00  0.00    -0.004 A 
ATOM      5  C5  N4B d   1       5.999   0.841   0.158  0.00  0.00     0.002 A 
ATOM      6  C6  N4B d   1       4.955   0.014  -0.204  0.00  0.00     0.002 A 
ENDROOT
BRANCH   1   7
ATOM      7  C1' N4B d   1       2.556  -0.441  -0.572  0.00  0.00     0.057 C 
BRANCH   7   8
ATOM      8  C2' N4B d   1       3.098  -1.867  -0.616  0.00  0.00     0.009 C 
BRANCH   8   9
ATOM      9  C3' N4B d   1       2.357  -2.786   0.340  0.00  0.00     0.004 C 
ATOM     10  C4' N4B d   1       1.405  -3.709  -0.362  0.00  0.00     0.003 C 
ENDBRANCH   8   9
ENDBRANCH   7   8
ENDBRANCH   1   7
TORSDOF 3
ENDMDL
