MODEL 1
REMARK minimizedAffinity 16.9402885
REMARK minimizedRMSD -1
REMARK  3 active torsions:
REMARK  status: ('A' for Active; 'I' for Inactive)
REMARK    1  A    between atoms: C3'_2  and  C2'_3 
REMARK    2  A    between atoms: C2'_3  and  C1'_4 
REMARK    3  A    between atoms: C1'_4  and  C1_5 
ROOT
ATOM      1  C1  N4B d   1       0.774   0.355   3.261  0.00  0.00    -0.075 A 
ATOM      2  C2  N4B d   1       1.467   0.504   2.040  0.00  0.00     0.002 A 
ATOM      3  C3  N4B d   1       2.244   1.615   1.822  0.00  0.00     0.002 A 
ATOM      4  C4  N4B d   1       2.328   2.595   2.800  0.00  0.00    -0.004 A 
ATOM      5  C5  N4B d   1       1.676   2.432   3.987  0.00  0.00     0.002 A 
ATOM      6  C6  N4B d   1       0.894   1.318   4.221  0.00  0.00     0.002 A 
ENDROOT
BRANCH   1   7
ATOM      7  C1' N4B d   1      -0.156  -0.801   3.511  0.00  0.00     0.057 C 
BRANCH   7   8
ATOM      8  C2' N4B d   1       0.662  -2.081   3.647  0.00  0.00     0.009 C 
BRANCH   8   9
ATOM      9  C3' N4B d   1      -0.011  -3.090   4.563  0.00  0.00     0.004 C 
ATOM     10  C4' N4B d   1       0.855  -3.493   5.719  0.00  0.00     0.003 C 
ENDBRANCH   8   9
ENDBRANCH   7   8
ENDBRANCH   1   7
TORSDOF 3
ENDMDL
