MODEL 1
REMARK minimizedAffinity 6.7545104
REMARK minimizedRMSD -1
REMARK  3 active torsions:
REMARK  status: ('A' for Active; 'I' for Inactive)
REMARK    1  A    between atoms: C3'_2  and  C2'_3 
REMARK    2  A    between atoms: C2'_3  and  C1'_4 
REMARK    3  A    between atoms: C1'_4  and  C1_5 
ROOT
ATOM      1  C1  N4B d   1      -4.682   5.987   1.819  0.00  0.00    -0.075 A 
ATOM      2  C2  N4B d   1      -5.911   5.980   2.514  0.00  0.00     0.002 A 
ATOM      3  C3  N4B d   1      -5.924   5.974   3.887  0.00  0.00     0.002 A 
ATOM      4  C4  N4B d   1      -4.725   5.957   4.584  0.00  0.00    -0.004 A 
ATOM      5  C5  N4B d   1      -3.542   5.990   3.906  0.00  0.00     0.002 A 
ATOM      6  C6  N4B d   1      -3.514   6.000   2.526  0.00  0.00     0.002 A 
ENDROOT
BRANCH   1   7
ATOM      7  C1' N4B d   1      -4.617   5.907   0.319  0.00  0.00     0.057 C 
BRANCH   7   8
ATOM      8  C2' N4B d   1      -3.770   4.703  -0.082  0.00  0.00     0.009 C 
BRANCH   8   9
ATOM      9  C3' N4B d   1      -2.306   4.894   0.275  0.00  0.00     0.004 C 
ATOM     10  C4' N4B d   1      -1.377   4.319  -0.753  0.00  0.00     0.003 C 
ENDBRANCH   8   9
ENDBRANCH   7   8
ENDBRANCH   1   7
TORSDOF 3
ENDMDL
