MODEL 1
REMARK minimizedAffinity -3.82682776
REMARK minimizedRMSD -1
REMARK  1 active torsions:
REMARK  status: ('A' for Active; 'I' for Inactive)
REMARK    1  A    between atoms: C1_2  and  C2_3 
ROOT
ATOM      1  C2  UNL d   1       0.192  -0.121   0.647  0.00  0.00    -0.076 A 
ATOM      2  C3  UNL d   1       1.267  -0.320  -0.236  0.00  0.00     0.004 A 
ATOM      3  C4  UNL d   1       2.222  -1.306   0.007  0.00  0.00    -0.003 A 
ATOM      4  C5  UNL d   1       2.116  -2.110   1.137  0.00  0.00     0.000 A 
ATOM      5  C6  UNL d   1       1.047  -1.937   2.015  0.00  0.00     0.000 A 
ATOM      6  C7  UNL d   1       0.067  -0.959   1.776  0.00  0.00    -0.073 A 
ATOM      7  C8  UNL d   1      -1.062  -0.812   2.759  0.00  0.00     0.078 C 
ENDROOT
BRANCH   1   8
ATOM      8  C1  UNL d   1      -0.797   0.982   0.346  0.00  0.00     0.053 C 
ATOM      9  C   UNL d   1      -0.607   1.573  -1.042  0.00  0.00     0.018 C 
ENDBRANCH   1   8
TORSDOF 1
ENDMDL
