MODEL 1
REMARK minimizedAffinity -4.28536558
REMARK minimizedRMSD -1
REMARK  1 active torsions:
REMARK  status: ('A' for Active; 'I' for Inactive)
REMARK    1  A    between atoms: C1_2  and  C2_3 
ROOT
ATOM      1  C2  UNL d   1       0.195  -0.263   1.063  0.00  0.00    -0.076 A 
ATOM      2  C3  UNL d   1      -0.956   0.143   1.760  0.00  0.00     0.004 A 
ATOM      3  C4  UNL d   1      -1.357  -0.510   2.924  0.00  0.00    -0.003 A 
ATOM      4  C5  UNL d   1      -0.612  -1.579   3.411  0.00  0.00     0.000 A 
ATOM      5  C6  UNL d   1       0.543  -1.983   2.743  0.00  0.00     0.000 A 
ATOM      6  C7  UNL d   1       0.970  -1.325   1.576  0.00  0.00    -0.073 A 
ATOM      7  C8  UNL d   1       2.220  -1.807   0.892  0.00  0.00     0.078 C 
ENDROOT
BRANCH   1   8
ATOM      8  C1  UNL d   1       0.566   0.466  -0.209  0.00  0.00     0.053 C 
ATOM      9  C   UNL d   1      -0.575   1.316  -0.747  0.00  0.00     0.018 C 
ENDBRANCH   1   8
TORSDOF 1
ENDMDL
