MODEL 1
REMARK minimizedAffinity -6.34865141
REMARK minimizedRMSD -1
REMARK  1 active torsions:
REMARK  status: ('A' for Active; 'I' for Inactive)
REMARK    1  A    between atoms: C1_2  and  C2_3 
ROOT
ATOM      1  C2  UNL d   1      -0.001  -0.454   0.998  0.00  0.00    -0.076 A 
ATOM      2  C3  UNL d   1       1.067  -0.723   0.124  0.00  0.00     0.004 A 
ATOM      3  C4  UNL d   1       1.828  -1.883   0.256  0.00  0.00    -0.003 A 
ATOM      4  C5  UNL d   1       1.533  -2.794   1.265  0.00  0.00     0.000 A 
ATOM      5  C6  UNL d   1       0.467  -2.552   2.130  0.00  0.00     0.000 A 
ATOM      6  C7  UNL d   1      -0.320  -1.395   2.001  0.00  0.00    -0.073 A 
ATOM      7  C8  UNL d   1      -1.455  -1.181   2.965  0.00  0.00     0.078 C 
ENDROOT
BRANCH   1   8
ATOM      8  C1  UNL d   1      -0.774   0.834   0.823  0.00  0.00     0.053 C 
ATOM      9  C   UNL d   1      -0.703   1.367  -0.599  0.00  0.00     0.018 C 
ENDBRANCH   1   8
TORSDOF 1
ENDMDL
