MODEL 1
REMARK minimizedAffinity -5.75976896
REMARK minimizedRMSD -1
REMARK  1 active torsions:
REMARK  status: ('A' for Active; 'I' for Inactive)
REMARK    1  A    between atoms: C1_2  and  C2_3 
ROOT
ATOM      1  C2  UNL d   1      -0.058  -0.149   0.550  0.00  0.00    -0.076 A 
ATOM      2  C3  UNL d   1       1.113  -0.402  -0.186  0.00  0.00     0.004 A 
ATOM      3  C4  UNL d   1       1.859  -1.560   0.027  0.00  0.00    -0.003 A 
ATOM      4  C5  UNL d   1       1.445  -2.486   0.979  0.00  0.00     0.000 A 
ATOM      5  C6  UNL d   1       0.276  -2.260   1.705  0.00  0.00     0.000 A 
ATOM      6  C7  UNL d   1      -0.496  -1.105   1.492  0.00  0.00    -0.073 A 
ATOM      7  C8  UNL d   1      -1.744  -0.910   2.308  0.00  0.00     0.078 C 
ENDROOT
BRANCH   1   8
ATOM      8  C1  UNL d   1      -0.810   1.137   0.295  0.00  0.00     0.053 C 
ATOM      9  C   UNL d   1      -0.955   1.443  -1.188  0.00  0.00     0.018 C 
ENDBRANCH   1   8
TORSDOF 1
ENDMDL
