MODEL 1
REMARK minimizedAffinity -2.28288841
REMARK minimizedRMSD -1
REMARK  1 active torsions:
REMARK  status: ('A' for Active; 'I' for Inactive)
REMARK    1  A    between atoms: C1_2  and  C2_3 
ROOT
ATOM      1  C2  UNL d   1      -0.201  -0.926   1.344  0.00  0.00    -0.076 A 
ATOM      2  C3  UNL d   1      -1.525  -0.959   1.816  0.00  0.00     0.004 A 
ATOM      3  C4  UNL d   1      -1.886  -1.778   2.884  0.00  0.00    -0.003 A 
ATOM      4  C5  UNL d   1      -0.929  -2.578   3.498  0.00  0.00     0.000 A 
ATOM      5  C6  UNL d   1       0.393  -2.546   3.055  0.00  0.00     0.000 A 
ATOM      6  C7  UNL d   1       0.777  -1.713   1.990  0.00  0.00    -0.073 A 
ATOM      7  C8  UNL d   1       2.215  -1.722   1.550  0.00  0.00     0.078 C 
ENDROOT
BRANCH   1   8
ATOM      8  C1  UNL d   1       0.127  -0.039   0.165  0.00  0.00     0.053 C 
ATOM      9  C   UNL d   1      -0.727   1.220   0.128  0.00  0.00     0.018 C 
ENDBRANCH   1   8
TORSDOF 1
ENDMDL
