MODEL 1
REMARK minimizedAffinity -5.05378246
REMARK minimizedRMSD -1
REMARK  1 active torsions:
REMARK  status: ('A' for Active; 'I' for Inactive)
REMARK    1  A    between atoms: C1_2  and  C2_3 
ROOT
ATOM      1  C2  UNL d   1       0.150  -0.766   0.630  0.00  0.00    -0.076 A 
ATOM      2  C3  UNL d   1      -0.906  -0.954   1.538  0.00  0.00     0.004 A 
ATOM      3  C4  UNL d   1      -0.792  -1.855   2.595  0.00  0.00    -0.003 A 
ATOM      4  C5  UNL d   1       0.381  -2.583   2.762  0.00  0.00     0.000 A 
ATOM      5  C6  UNL d   1       1.446  -2.397   1.881  0.00  0.00     0.000 A 
ATOM      6  C7  UNL d   1       1.353  -1.480   0.819  0.00  0.00    -0.073 A 
ATOM      7  C8  UNL d   1       2.530  -1.323  -0.104  0.00  0.00     0.078 C 
ENDROOT
BRANCH   1   8
ATOM      8  C1  UNL d   1      -0.041   0.205  -0.513  0.00  0.00     0.053 C 
ATOM      9  C   UNL d   1      -0.659   1.520  -0.063  0.00  0.00     0.018 C 
ENDBRANCH   1   8
TORSDOF 1
ENDMDL
