MODEL 1
REMARK minimizedAffinity -3.72874045
REMARK minimizedRMSD -1
REMARK  1 active torsions:
REMARK  status: ('A' for Active; 'I' for Inactive)
REMARK    1  A    between atoms: C1_2  and  C2_3 
ROOT
ATOM      1  C2  UNL d   1       0.330  -0.303   0.105  0.00  0.00    -0.076 A 
ATOM      2  C3  UNL d   1      -0.641  -0.628   1.069  0.00  0.00     0.004 A 
ATOM      3  C4  UNL d   1      -0.543  -1.798   1.819  0.00  0.00    -0.003 A 
ATOM      4  C5  UNL d   1       0.528  -2.662   1.619  0.00  0.00     0.000 A 
ATOM      5  C6  UNL d   1       1.509  -2.347   0.680  0.00  0.00     0.000 A 
ATOM      6  C7  UNL d   1       1.434  -1.164  -0.074  0.00  0.00    -0.073 A 
ATOM      7  C8  UNL d   1       2.517  -0.877  -1.078  0.00  0.00     0.078 C 
ENDROOT
BRANCH   1   8
ATOM      8  C1  UNL d   1       0.157   0.966  -0.698  0.00  0.00     0.053 C 
ATOM      9  C   UNL d   1      -1.299   1.245  -1.041  0.00  0.00     0.018 C 
ENDBRANCH   1   8
TORSDOF 1
ENDMDL
