MODEL 1
REMARK minimizedAffinity -6.36917114
REMARK minimizedRMSD -1
REMARK  1 active torsions:
REMARK  status: ('A' for Active; 'I' for Inactive)
REMARK    1  A    between atoms: C1_2  and  C2_3 
ROOT
ATOM      1  C2  UNL d   1      -0.374  -1.026   1.019  0.00  0.00    -0.076 A 
ATOM      2  C3  UNL d   1       0.765  -1.289   0.238  0.00  0.00     0.004 A 
ATOM      3  C4  UNL d   1       1.674  -2.279   0.605  0.00  0.00    -0.003 A 
ATOM      4  C5  UNL d   1       1.460  -3.024   1.760  0.00  0.00     0.000 A 
ATOM      5  C6  UNL d   1       0.326  -2.788   2.538  0.00  0.00     0.000 A 
ATOM      6  C7  UNL d   1      -0.609  -1.805   2.173  0.00  0.00    -0.073 A 
ATOM      7  C8  UNL d   1      -1.810  -1.589   3.052  0.00  0.00     0.078 C 
ENDROOT
BRANCH   1   8
ATOM      8  C1  UNL d   1      -1.311   0.078   0.586  0.00  0.00     0.053 C 
ATOM      9  C   UNL d   1      -0.699   0.978  -0.477  0.00  0.00     0.018 C 
ENDBRANCH   1   8
TORSDOF 1
ENDMDL
