MODEL 1
REMARK minimizedAffinity -4.23615456
REMARK minimizedRMSD -1
REMARK  1 active torsions:
REMARK  status: ('A' for Active; 'I' for Inactive)
REMARK    1  A    between atoms: C1_2  and  C2_3 
ROOT
ATOM      1  C2  UNL d   1      -0.376  -0.792   0.629  0.00  0.00    -0.076 A 
ATOM      2  C3  UNL d   1       0.797  -1.224  -0.014  0.00  0.00     0.004 A 
ATOM      3  C4  UNL d   1       1.661  -2.127   0.603  0.00  0.00    -0.003 A 
ATOM      4  C5  UNL d   1       1.367  -2.613   1.872  0.00  0.00     0.000 A 
ATOM      5  C6  UNL d   1       0.199  -2.208   2.517  0.00  0.00     0.000 A 
ATOM      6  C7  UNL d   1      -0.692  -1.311   1.903  0.00  0.00    -0.073 A 
ATOM      7  C8  UNL d   1      -1.934  -0.904   2.647  0.00  0.00     0.078 C 
ENDROOT
BRANCH   1   8
ATOM      8  C1  UNL d   1      -1.262   0.210  -0.077  0.00  0.00     0.053 C 
ATOM      9  C   UNL d   1      -0.484   1.405  -0.606  0.00  0.00     0.018 C 
ENDBRANCH   1   8
TORSDOF 1
ENDMDL
