MODEL 1
REMARK minimizedAffinity -3.73234749
REMARK minimizedRMSD -1
REMARK  1 active torsions:
REMARK  status: ('A' for Active; 'I' for Inactive)
REMARK    1  A    between atoms: C1_2  and  C2_3 
ROOT
ATOM      1  C2  UNL d   1      -0.071   0.329   0.045  0.00  0.00    -0.076 A 
ATOM      2  C3  UNL d   1       1.054   0.366  -0.798  0.00  0.00     0.004 A 
ATOM      3  C4  UNL d   1       2.014  -0.643  -0.759  0.00  0.00    -0.003 A 
ATOM      4  C5  UNL d   1       1.864  -1.708   0.124  0.00  0.00     0.000 A 
ATOM      5  C6  UNL d   1       0.746  -1.770   0.954  0.00  0.00     0.000 A 
ATOM      6  C7  UNL d   1      -0.239  -0.769   0.916  0.00  0.00    -0.073 A 
ATOM      7  C8  UNL d   1      -1.421  -0.883   1.839  0.00  0.00     0.078 C 
ENDROOT
BRANCH   1   8
ATOM      8  C1  UNL d   1      -1.065   1.466  -0.023  0.00  0.00     0.053 C 
ATOM      9  C   UNL d   1      -1.447   1.822  -1.451  0.00  0.00     0.018 C 
ENDBRANCH   1   8
TORSDOF 1
ENDMDL
