MODEL 1
REMARK minimizedAffinity 4.15113258
REMARK minimizedRMSD -1
REMARK  0 active torsions:
REMARK  status: ('A' for Active; 'I' for Inactive)
ROOT
ATOM      1  C   UNL d   1       0.570  -0.430   2.591  0.00  0.00     0.077 C 
ATOM      2  C1  UNL d   1      -0.892  -0.308   2.279  0.00  0.00    -0.074 A 
ATOM      3  C2  UNL d   1      -1.679   0.671   2.895  0.00  0.00    -0.005 A 
ATOM      4  C3  UNL d   1      -3.035   0.778   2.588  0.00  0.00     0.006 A 
ATOM      5  C4  UNL d   1      -3.618  -0.091   1.664  0.00  0.00    -0.005 A 
ATOM      6  C5  UNL d   1      -2.847  -1.075   1.038  0.00  0.00    -0.074 A 
ATOM      7  C6  UNL d   1      -3.455  -2.011   0.036  0.00  0.00     0.077 C 
ATOM      8  C7  UNL d   1      -1.483  -1.172   1.347  0.00  0.00    -0.001 A 
ENDROOT
TORSDOF 0
ENDMDL
