MODEL 1
REMARK minimizedAffinity 0.782720804
REMARK minimizedRMSD -1
REMARK  0 active torsions:
REMARK  status: ('A' for Active; 'I' for Inactive)
ROOT
ATOM      1  C   UNL d   1      -3.621  -0.373  -5.375  0.00  0.00     0.077 C 
ATOM      2  C1  UNL d   1      -2.122  -0.388  -5.390  0.00  0.00    -0.074 A 
ATOM      3  C2  UNL d   1      -1.399   0.642  -6.000  0.00  0.00    -0.005 A 
ATOM      4  C3  UNL d   1      -0.004   0.620  -5.997  0.00  0.00     0.006 A 
ATOM      5  C4  UNL d   1       0.681  -0.431  -5.386  0.00  0.00    -0.005 A 
ATOM      6  C5  UNL d   1      -0.025  -1.470  -4.770  0.00  0.00    -0.074 A 
ATOM      7  C6  UNL d   1       0.695  -2.602  -4.100  0.00  0.00     0.077 C 
ATOM      8  C7  UNL d   1      -1.427  -1.436  -4.771  0.00  0.00    -0.001 A 
ENDROOT
TORSDOF 0
ENDMDL
