MODEL 1
REMARK minimizedAffinity -3.17192101
REMARK minimizedRMSD -1
REMARK  0 active torsions:
REMARK  status: ('A' for Active; 'I' for Inactive)
ROOT
ATOM      1  C   UNL d   1      -0.751   0.376  -1.737  0.00  0.00     0.077 C 
ATOM      2  C1  UNL d   1      -0.563   0.334  -3.224  0.00  0.00    -0.074 A 
ATOM      3  C2  UNL d   1      -1.645   0.517  -4.091  0.00  0.00    -0.005 A 
ATOM      4  C3  UNL d   1      -1.453   0.485  -5.472  0.00  0.00     0.006 A 
ATOM      5  C4  UNL d   1      -0.179   0.272  -6.000  0.00  0.00    -0.005 A 
ATOM      6  C5  UNL d   1       0.915   0.088  -5.148  0.00  0.00    -0.074 A 
ATOM      7  C6  UNL d   1       2.293  -0.132  -5.699  0.00  0.00     0.077 C 
ATOM      8  C7  UNL d   1       0.716   0.128  -3.762  0.00  0.00    -0.001 A 
ENDROOT
TORSDOF 0
ENDMDL
