MODEL 1
REMARK minimizedAffinity -0.132131219
REMARK minimizedRMSD -1
REMARK  0 active torsions:
REMARK  status: ('A' for Active; 'I' for Inactive)
ROOT
ATOM      1  C   UNL d   1      -4.720   1.550   1.270  0.00  0.00     0.077 C 
ATOM      2  C1  UNL d   1      -3.508   0.701   1.511  0.00  0.00    -0.074 A 
ATOM      3  C2  UNL d   1      -2.762   0.831   2.687  0.00  0.00    -0.005 A 
ATOM      4  C3  UNL d   1      -1.642   0.027   2.902  0.00  0.00     0.006 A 
ATOM      5  C4  UNL d   1      -1.258  -0.913   1.945  0.00  0.00    -0.005 A 
ATOM      6  C5  UNL d   1      -1.992  -1.057   0.763  0.00  0.00    -0.074 A 
ATOM      7  C6  UNL d   1      -1.598  -2.069  -0.272  0.00  0.00     0.077 C 
ATOM      8  C7  UNL d   1      -3.120  -0.251   0.558  0.00  0.00    -0.001 A 
ENDROOT
TORSDOF 0
ENDMDL
