MODEL 1
REMARK minimizedAffinity 6.40352535
REMARK minimizedRMSD -1
REMARK  0 active torsions:
REMARK  status: ('A' for Active; 'I' for Inactive)
ROOT
ATOM      1  C   UNL d   1      -2.276  -2.037   0.395  0.00  0.00     0.077 C 
ATOM      2  C1  UNL d   1      -1.701  -1.144   1.454  0.00  0.00    -0.074 A 
ATOM      3  C2  UNL d   1      -2.375   0.011   1.864  0.00  0.00    -0.005 A 
ATOM      4  C3  UNL d   1      -1.833   0.827   2.857  0.00  0.00     0.006 A 
ATOM      5  C4  UNL d   1      -0.613   0.497   3.448  0.00  0.00    -0.005 A 
ATOM      6  C5  UNL d   1       0.076  -0.654   3.052  0.00  0.00    -0.074 A 
ATOM      7  C6  UNL d   1       1.383  -1.028   3.684  0.00  0.00     0.077 C 
ATOM      8  C7  UNL d   1      -0.479  -1.472   2.059  0.00  0.00    -0.001 A 
ENDROOT
TORSDOF 0
ENDMDL
