MODEL 1
REMARK minimizedAffinity -2.6499989
REMARK minimizedRMSD -1
REMARK  0 active torsions:
REMARK  status: ('A' for Active; 'I' for Inactive)
ROOT
ATOM      1  C   UNL d   1      -5.175   0.503  -0.124  0.00  0.00     0.077 C 
ATOM      2  C1  UNL d   1      -3.833   0.098   0.410  0.00  0.00    -0.074 A 
ATOM      3  C2  UNL d   1      -3.532   0.228   1.770  0.00  0.00    -0.005 A 
ATOM      4  C3  UNL d   1      -2.283  -0.161   2.254  0.00  0.00     0.006 A 
ATOM      5  C4  UNL d   1      -1.324  -0.683   1.385  0.00  0.00    -0.005 A 
ATOM      6  C5  UNL d   1      -1.608  -0.821   0.022  0.00  0.00    -0.074 A 
ATOM      7  C6  UNL d   1      -0.592  -1.389  -0.924  0.00  0.00     0.077 C 
ATOM      8  C7  UNL d   1      -2.868  -0.434  -0.455  0.00  0.00    -0.001 A 
ENDROOT
TORSDOF 0
ENDMDL
