MODEL 1
REMARK minimizedAffinity -1.84537184
REMARK minimizedRMSD -1
REMARK  0 active torsions:
REMARK  status: ('A' for Active; 'I' for Inactive)
ROOT
ATOM      1  C   UNL d   1       0.745  -2.595  -3.020  0.00  0.00     0.077 C 
ATOM      2  C1  UNL d   1       0.367  -1.580  -4.058  0.00  0.00    -0.074 A 
ATOM      3  C2  UNL d   1       1.301  -1.131  -4.997  0.00  0.00    -0.005 A 
ATOM      4  C3  UNL d   1       0.932  -0.193  -5.962  0.00  0.00     0.006 A 
ATOM      5  C4  UNL d   1      -0.372   0.303  -5.998  0.00  0.00    -0.005 A 
ATOM      6  C5  UNL d   1      -1.319  -0.135  -5.067  0.00  0.00    -0.074 A 
ATOM      7  C6  UNL d   1      -2.727   0.381  -5.097  0.00  0.00     0.077 C 
ATOM      8  C7  UNL d   1      -0.943  -1.083  -4.105  0.00  0.00    -0.001 A 
ENDROOT
TORSDOF 0
ENDMDL
