MODEL 1
REMARK minimizedAffinity 0.285692781
REMARK minimizedRMSD -1
REMARK  0 active torsions:
REMARK  status: ('A' for Active; 'I' for Inactive)
ROOT
ATOM      1  C   UNL d   1       0.286  -2.763  -3.638  0.00  0.00     0.077 C 
ATOM      2  C1  UNL d   1       0.505  -1.532  -4.467  0.00  0.00    -0.074 A 
ATOM      3  C2  UNL d   1      -0.571  -0.735  -4.868  0.00  0.00    -0.005 A 
ATOM      4  C3  UNL d   1      -0.351   0.412  -5.631  0.00  0.00     0.006 A 
ATOM      5  C4  UNL d   1       0.946   0.772  -6.000  0.00  0.00    -0.005 A 
ATOM      6  C5  UNL d   1       2.035  -0.013  -5.607  0.00  0.00    -0.074 A 
ATOM      7  C6  UNL d   1       3.436   0.365  -5.987  0.00  0.00     0.077 C 
ATOM      8  C7  UNL d   1       1.806  -1.160  -4.835  0.00  0.00    -0.001 A 
ENDROOT
TORSDOF 0
ENDMDL
