MODEL 1
REMARK minimizedAffinity -2.32656884
REMARK minimizedRMSD -1
REMARK  0 active torsions:
REMARK  status: ('A' for Active; 'I' for Inactive)
ROOT
ATOM      1  C   UNL d   1      -0.401   2.208  -2.620  0.00  0.00     0.077 C 
ATOM      2  C1  UNL d   1      -0.136   1.313  -3.794  0.00  0.00    -0.074 A 
ATOM      3  C2  UNL d   1      -1.189   0.706  -4.486  0.00  0.00    -0.005 A 
ATOM      4  C3  UNL d   1      -0.928  -0.117  -5.582  0.00  0.00     0.006 A 
ATOM      5  C4  UNL d   1       0.386  -0.340  -5.996  0.00  0.00    -0.005 A 
ATOM      6  C5  UNL d   1       1.451   0.260  -5.317  0.00  0.00    -0.074 A 
ATOM      7  C6  UNL d   1       2.868   0.039  -5.755  0.00  0.00     0.077 C 
ATOM      8  C7  UNL d   1       1.180   1.090  -4.221  0.00  0.00    -0.001 A 
ENDROOT
TORSDOF 0
ENDMDL
