MODEL 1
REMARK minimizedAffinity 2.80972052
REMARK minimizedRMSD -1
REMARK  0 active torsions:
REMARK  status: ('A' for Active; 'I' for Inactive)
ROOT
ATOM      1  C   UNL d   1      -5.458   1.274   1.030  0.00  0.00     0.077 C 
ATOM      2  C1  UNL d   1      -4.133   0.644   1.343  0.00  0.00    -0.074 A 
ATOM      3  C2  UNL d   1      -3.368   1.081   2.429  0.00  0.00    -0.005 A 
ATOM      4  C3  UNL d   1      -2.143   0.479   2.714  0.00  0.00     0.006 A 
ATOM      5  C4  UNL d   1      -1.671  -0.565   1.917  0.00  0.00    -0.005 A 
ATOM      6  C5  UNL d   1      -2.422  -1.016   0.827  0.00  0.00    -0.074 A 
ATOM      7  C6  UNL d   1      -1.934  -2.143  -0.033  0.00  0.00     0.077 C 
ATOM      8  C7  UNL d   1      -3.656  -0.410   0.552  0.00  0.00    -0.001 A 
ENDROOT
TORSDOF 0
ENDMDL
