MODEL 1
REMARK minimizedAffinity 0.560455024
REMARK minimizedRMSD -1
REMARK  0 active torsions:
REMARK  status: ('A' for Active; 'I' for Inactive)
ROOT
ATOM      1  C   UNL d   1      -1.101   0.887  -4.951  0.00  0.00     0.077 C 
ATOM      2  C1  UNL d   1      -0.644  -0.383  -4.298  0.00  0.00    -0.074 A 
ATOM      3  C2  UNL d   1       0.024  -1.369  -5.031  0.00  0.00    -0.005 A 
ATOM      4  C3  UNL d   1       0.451  -2.541  -4.407  0.00  0.00     0.006 A 
ATOM      5  C4  UNL d   1       0.215  -2.739  -3.047  0.00  0.00    -0.005 A 
ATOM      6  C5  UNL d   1      -0.451  -1.765  -2.297  0.00  0.00    -0.074 A 
ATOM      7  C6  UNL d   1      -0.705  -1.957  -0.831  0.00  0.00     0.077 C 
ATOM      8  C7  UNL d   1      -0.871  -0.586  -2.929  0.00  0.00    -0.001 A 
ENDROOT
TORSDOF 0
ENDMDL
