MODEL 1
REMARK minimizedAffinity -4.60145807
REMARK minimizedRMSD -1
REMARK  0 active torsions:
REMARK  status: ('A' for Active; 'I' for Inactive)
ROOT
ATOM      1  C   UNL d   1      -0.643  -2.282  -0.639  0.00  0.00     0.077 C 
ATOM      2  C1  UNL d   1      -1.329  -0.989  -0.315  0.00  0.00    -0.074 A 
ATOM      3  C2  UNL d   1      -0.598   0.193  -0.155  0.00  0.00    -0.005 A 
ATOM      4  C3  UNL d   1      -1.251   1.390   0.137  0.00  0.00     0.006 A 
ATOM      5  C4  UNL d   1      -2.640   1.418   0.271  0.00  0.00    -0.005 A 
ATOM      6  C5  UNL d   1      -3.388   0.247   0.113  0.00  0.00    -0.074 A 
ATOM      7  C6  UNL d   1      -4.882   0.262   0.243  0.00  0.00     0.077 C 
ATOM      8  C7  UNL d   1      -2.725  -0.951  -0.187  0.00  0.00    -0.001 A 
ENDROOT
TORSDOF 0
ENDMDL
