MODEL 1
REMARK minimizedAffinity -3.00212646
REMARK minimizedRMSD -1
REMARK  0 active torsions:
REMARK  status: ('A' for Active; 'I' for Inactive)
ROOT
ATOM      1  C   UNL d   1       1.772  -1.342  -1.311  0.00  0.00     0.124 A 
ATOM      2  C1  UNL d   1       1.773   0.032  -1.113  0.00  0.00     0.062 A 
ATOM      3  C2  UNL d   1       0.824   0.620  -0.281  0.00  0.00     0.162 A 
ATOM      4  C3  UNL d   1      -0.134  -0.166   0.360  0.00  0.00    -0.034 A 
ATOM      5  C4  UNL d   1      -0.129  -1.546   0.155  0.00  0.00     0.162 A 
ATOM      6  C5  UNL d   1       0.821  -2.130  -0.677  0.00  0.00     0.062 A 
ATOM      7  F   UNL d   1       0.818  -3.457  -0.868  0.00  0.00    -0.097 F 
ATOM      8  F1  UNL d   1      -1.036  -2.331   0.755  0.00  0.00    -0.096 F 
ATOM      9  I   UNL d   1      -1.554   0.710   1.603  0.00  0.00    -0.060 I 
ATOM     10  F2  UNL d   1       0.849   1.950  -0.108  0.00  0.00    -0.096 F 
ATOM     11  F3  UNL d   1       2.690   0.795  -1.724  0.00  0.00    -0.097 F 
ATOM     12  F4  UNL d   1       2.685  -1.905  -2.112  0.00  0.00    -0.092 F 
ENDROOT
TORSDOF 0
ENDMDL
