MODEL 1
REMARK minimizedAffinity -3.98669839
REMARK minimizedRMSD -1
REMARK  0 active torsions:
REMARK  status: ('A' for Active; 'I' for Inactive)
ROOT
ATOM      1  C   UNL d   1       2.215  -1.064  -1.754  0.00  0.00     0.124 A 
ATOM      2  C1  UNL d   1       2.114   0.243  -1.297  0.00  0.00     0.062 A 
ATOM      3  C2  UNL d   1       1.127   0.589  -0.379  0.00  0.00     0.162 A 
ATOM      4  C3  UNL d   1       0.234  -0.374   0.090  0.00  0.00    -0.034 A 
ATOM      5  C4  UNL d   1       0.341  -1.686  -0.375  0.00  0.00     0.162 A 
ATOM      6  C5  UNL d   1       1.329  -2.027  -1.293  0.00  0.00     0.062 A 
ATOM      7  F   UNL d   1       1.424  -3.290  -1.734  0.00  0.00    -0.097 F 
ATOM      8  F1  UNL d   1      -0.503  -2.636   0.055  0.00  0.00    -0.096 F 
ATOM      9  I   UNL d   1      -1.243   0.139   1.463  0.00  0.00    -0.060 I 
ATOM     10  F2  UNL d   1       1.053   1.859   0.046  0.00  0.00    -0.096 F 
ATOM     11  F3  UNL d   1       2.969   1.175  -1.742  0.00  0.00    -0.097 F 
ATOM     12  F4  UNL d   1       3.165  -1.394  -2.639  0.00  0.00    -0.092 F 
ENDROOT
TORSDOF 0
ENDMDL
