MODEL 1
REMARK minimizedAffinity -4.03205395
REMARK minimizedRMSD -1
REMARK  0 active torsions:
REMARK  status: ('A' for Active; 'I' for Inactive)
ROOT
ATOM      1  C   UNL d   1       1.770  -1.180  -1.702  0.00  0.00     0.124 A 
ATOM      2  C1  UNL d   1       1.192   0.068  -1.510  0.00  0.00     0.062 A 
ATOM      3  C2  UNL d   1       0.202   0.240  -0.547  0.00  0.00     0.162 A 
ATOM      4  C3  UNL d   1      -0.215  -0.838   0.234  0.00  0.00    -0.034 A 
ATOM      5  C4  UNL d   1       0.370  -2.090   0.035  0.00  0.00     0.162 A 
ATOM      6  C5  UNL d   1       1.359  -2.257  -0.930  0.00  0.00     0.062 A 
ATOM      7  F   UNL d   1       1.916  -3.462  -1.113  0.00  0.00    -0.097 F 
ATOM      8  F1  UNL d   1      -0.008  -3.147   0.767  0.00  0.00    -0.096 F 
ATOM      9  I   UNL d   1      -1.695  -0.584   1.675  0.00  0.00    -0.060 I 
ATOM     10  F2  UNL d   1      -0.339   1.457  -0.383  0.00  0.00    -0.096 F 
ATOM     11  F3  UNL d   1       1.587   1.110  -2.256  0.00  0.00    -0.097 F 
ATOM     12  F4  UNL d   1       2.722  -1.343  -2.630  0.00  0.00    -0.092 F 
ENDROOT
TORSDOF 0
ENDMDL
