MODEL 1
REMARK minimizedAffinity -1.56963134
REMARK minimizedRMSD -1
REMARK  0 active torsions:
REMARK  status: ('A' for Active; 'I' for Inactive)
ROOT
ATOM      1  C   UNL d   1       1.630  -1.270  -1.059  0.00  0.00     0.124 A 
ATOM      2  C1  UNL d   1       1.490   0.108  -0.962  0.00  0.00     0.062 A 
ATOM      3  C2  UNL d   1       0.514   0.655  -0.134  0.00  0.00     0.162 A 
ATOM      4  C3  UNL d   1      -0.329  -0.175   0.604  0.00  0.00    -0.034 A 
ATOM      5  C4  UNL d   1      -0.183  -1.559   0.501  0.00  0.00     0.162 A 
ATOM      6  C5  UNL d   1       0.794  -2.102  -0.328  0.00  0.00     0.062 A 
ATOM      7  F   UNL d   1       0.928  -3.433  -0.420  0.00  0.00    -0.097 F 
ATOM      8  F1  UNL d   1      -0.977  -2.386   1.197  0.00  0.00    -0.096 F 
ATOM      9  I   UNL d   1      -1.790   0.640   1.843  0.00  0.00    -0.060 I 
ATOM     10  F2  UNL d   1       0.401   1.990  -0.060  0.00  0.00    -0.096 F 
ATOM     11  F3  UNL d   1       2.296   0.914  -1.668  0.00  0.00    -0.097 F 
ATOM     12  F4  UNL d   1       2.569  -1.794  -1.857  0.00  0.00    -0.092 F 
ENDROOT
TORSDOF 0
ENDMDL
