MODEL 1
REMARK minimizedAffinity 4.73658609
REMARK minimizedRMSD -1
REMARK  0 active torsions:
REMARK  status: ('A' for Active; 'I' for Inactive)
ROOT
ATOM      1  C   UNL d   1       4.696  -0.587  -1.566  0.00  0.00     0.124 A 
ATOM      2  C1  UNL d   1       4.138  -1.752  -2.073  0.00  0.00     0.062 A 
ATOM      3  C2  UNL d   1       2.783  -2.016  -1.891  0.00  0.00     0.162 A 
ATOM      4  C3  UNL d   1       1.977  -1.112  -1.199  0.00  0.00    -0.034 A 
ATOM      5  C4  UNL d   1       2.546   0.057  -0.692  0.00  0.00     0.162 A 
ATOM      6  C5  UNL d   1       3.900   0.316  -0.876  0.00  0.00     0.062 A 
ATOM      7  F   UNL d   1       4.438   1.443  -0.386  0.00  0.00    -0.097 F 
ATOM      8  F1  UNL d   1       1.800   0.948  -0.022  0.00  0.00    -0.096 F 
ATOM      9  I   UNL d   1      -0.049  -1.503  -0.925  0.00  0.00    -0.060 I 
ATOM     10  F2  UNL d   1       2.270  -3.150  -2.391  0.00  0.00    -0.096 F 
ATOM     11  F3  UNL d   1       4.905  -2.627  -2.739  0.00  0.00    -0.097 F 
ATOM     12  F4  UNL d   1       6.000  -0.336  -1.742  0.00  0.00    -0.092 F 
ENDROOT
TORSDOF 0
ENDMDL
