MODEL 1
REMARK minimizedAffinity 14.2029104
REMARK minimizedRMSD -1
REMARK  0 active torsions:
REMARK  status: ('A' for Active; 'I' for Inactive)
ROOT
ATOM      1  C   UNL d   1       1.859   0.484  -2.675  0.00  0.00     0.124 A 
ATOM      2  C1  UNL d   1       1.205   1.637  -3.087  0.00  0.00     0.062 A 
ATOM      3  C2  UNL d   1       0.966   2.667  -2.182  0.00  0.00     0.162 A 
ATOM      4  C3  UNL d   1       1.382   2.550  -0.856  0.00  0.00    -0.034 A 
ATOM      5  C4  UNL d   1       2.038   1.387  -0.449  0.00  0.00     0.162 A 
ATOM      6  C5  UNL d   1       2.275   0.360  -1.357  0.00  0.00     0.062 A 
ATOM      7  F   UNL d   1       2.906  -0.754  -0.957  0.00  0.00    -0.097 F 
ATOM      8  F1  UNL d   1       2.451   1.241   0.819  0.00  0.00    -0.096 F 
ATOM      9  I   UNL d   1       1.026   4.088   0.500  0.00  0.00    -0.060 I 
ATOM     10  F2  UNL d   1       0.332   3.770  -2.608  0.00  0.00    -0.096 F 
ATOM     11  F3  UNL d   1       0.802   1.758  -4.360  0.00  0.00    -0.097 F 
ATOM     12  F4  UNL d   1       2.087  -0.507  -3.547  0.00  0.00    -0.092 F 
ENDROOT
TORSDOF 0
ENDMDL
