MODEL 1
REMARK minimizedAffinity 16.9339943
REMARK minimizedRMSD -1
REMARK  0 active torsions:
REMARK  status: ('A' for Active; 'I' for Inactive)
ROOT
ATOM      1  C   UNL d   1       1.564   0.605  -2.434  0.00  0.00     0.124 A 
ATOM      2  C1  UNL d   1       0.743   1.600  -2.947  0.00  0.00     0.062 A 
ATOM      3  C2  UNL d   1       0.648   2.830  -2.303  0.00  0.00     0.162 A 
ATOM      4  C3  UNL d   1       1.378   3.074  -1.140  0.00  0.00    -0.034 A 
ATOM      5  C4  UNL d   1       2.201   2.068  -0.630  0.00  0.00     0.162 A 
ATOM      6  C5  UNL d   1       2.293   0.840  -1.277  0.00  0.00     0.062 A 
ATOM      7  F   UNL d   1       3.087  -0.120  -0.780  0.00  0.00    -0.097 F 
ATOM      8  F1  UNL d   1       2.917   2.269   0.487  0.00  0.00    -0.096 F 
ATOM      9  I   UNL d   1       1.239   4.912  -0.174  0.00  0.00    -0.060 I 
ATOM     10  F2  UNL d   1      -0.154   3.773  -2.820  0.00  0.00    -0.096 F 
ATOM     11  F3  UNL d   1       0.037   1.375  -4.065  0.00  0.00    -0.097 F 
ATOM     12  F4  UNL d   1       1.652  -0.578  -3.055  0.00  0.00    -0.092 F 
ENDROOT
TORSDOF 0
ENDMDL
