MODEL 1
REMARK minimizedAffinity 11.9499331
REMARK minimizedRMSD -1
REMARK  0 active torsions:
REMARK  status: ('A' for Active; 'I' for Inactive)
ROOT
ATOM      1  C   UNL d   1       1.492  -0.267  -0.936  0.00  0.00     0.124 A 
ATOM      2  C1  UNL d   1       0.978   0.498   0.101  0.00  0.00     0.062 A 
ATOM      3  C2  UNL d   1       0.977   1.887   0.013  0.00  0.00     0.162 A 
ATOM      4  C3  UNL d   1       1.492   2.521  -1.118  0.00  0.00    -0.034 A 
ATOM      5  C4  UNL d   1       2.008   1.744  -2.157  0.00  0.00     0.162 A 
ATOM      6  C5  UNL d   1       2.006   0.356  -2.064  0.00  0.00     0.062 A 
ATOM      7  F   UNL d   1       2.504  -0.382  -3.067  0.00  0.00    -0.097 F 
ATOM      8  F1  UNL d   1       2.511   2.320  -3.259  0.00  0.00    -0.096 F 
ATOM      9  I   UNL d   1       1.493   4.597  -1.254  0.00  0.00    -0.060 I 
ATOM     10  F2  UNL d   1       0.474   2.602   1.031  0.00  0.00    -0.096 F 
ATOM     11  F3  UNL d   1       0.481  -0.102   1.193  0.00  0.00    -0.097 F 
ATOM     12  F4  UNL d   1       1.492  -1.604  -0.848  0.00  0.00    -0.092 F 
ENDROOT
TORSDOF 0
ENDMDL
