MODEL 1
REMARK minimizedAffinity 16.9394913
REMARK minimizedRMSD -1
REMARK  0 active torsions:
REMARK  status: ('A' for Active; 'I' for Inactive)
ROOT
ATOM      1  C   UNL d   1      -3.124  -1.914  -0.011  0.00  0.00     0.124 A 
ATOM      2  C1  UNL d   1      -2.167  -2.289   0.921  0.00  0.00     0.062 A 
ATOM      3  C2  UNL d   1      -0.874  -2.602   0.511  0.00  0.00     0.162 A 
ATOM      4  C3  UNL d   1      -0.530  -2.541  -0.839  0.00  0.00    -0.034 A 
ATOM      5  C4  UNL d   1      -1.498  -2.164  -1.772  0.00  0.00     0.162 A 
ATOM      6  C5  UNL d   1      -2.789  -1.852  -1.357  0.00  0.00     0.062 A 
ATOM      7  F   UNL d   1      -3.712  -1.491  -2.259  0.00  0.00    -0.097 F 
ATOM      8  F1  UNL d   1      -1.202  -2.095  -3.078  0.00  0.00    -0.096 F 
ATOM      9  I   UNL d   1       1.402  -3.008  -1.457  0.00  0.00    -0.060 I 
ATOM     10  F2  UNL d   1       0.030  -2.960   1.434  0.00  0.00    -0.096 F 
ATOM     11  F3  UNL d   1      -2.488  -2.350   2.222  0.00  0.00    -0.097 F 
ATOM     12  F4  UNL d   1      -4.367  -1.615   0.386  0.00  0.00    -0.092 F 
ENDROOT
TORSDOF 0
ENDMDL
