MODEL 1
REMARK minimizedAffinity 9.83601665
REMARK minimizedRMSD -1
REMARK  0 active torsions:
REMARK  status: ('A' for Active; 'I' for Inactive)
ROOT
ATOM      1  C   UNL d   1      -2.383   4.261  -5.718  0.00  0.00     0.124 A 
ATOM      2  C1  UNL d   1      -2.095   2.903  -5.704  0.00  0.00     0.062 A 
ATOM      3  C2  UNL d   1      -3.123   1.968  -5.784  0.00  0.00     0.162 A 
ATOM      4  C3  UNL d   1      -4.450   2.388  -5.879  0.00  0.00    -0.034 A 
ATOM      5  C4  UNL d   1      -4.732   3.755  -5.891  0.00  0.00     0.162 A 
ATOM      6  C5  UNL d   1      -3.701   4.685  -5.812  0.00  0.00     0.062 A 
ATOM      7  F   UNL d   1      -3.981   5.997  -5.825  0.00  0.00    -0.097 F 
ATOM      8  F1  UNL d   1      -5.997   4.193  -5.982  0.00  0.00    -0.096 F 
ATOM      9  I   UNL d   1      -5.990   0.993  -5.999  0.00  0.00    -0.060 I 
ATOM     10  F2  UNL d   1      -2.815   0.663  -5.769  0.00  0.00    -0.096 F 
ATOM     11  F3  UNL d   1      -0.822   2.490  -5.613  0.00  0.00    -0.097 F 
ATOM     12  F4  UNL d   1      -1.392   5.158  -5.640  0.00  0.00    -0.092 F 
ENDROOT
TORSDOF 0
ENDMDL
