MODEL 1
REMARK minimizedAffinity 13.4720755
REMARK minimizedRMSD -1
REMARK  0 active torsions:
REMARK  status: ('A' for Active; 'I' for Inactive)
ROOT
ATOM      1  C   UNL d   1      -0.043   0.722   1.249  0.00  0.00     0.124 A 
ATOM      2  C1  UNL d   1       0.717   1.803   0.826  0.00  0.00     0.062 A 
ATOM      3  C2  UNL d   1       1.605   1.662  -0.237  0.00  0.00     0.162 A 
ATOM      4  C3  UNL d   1       1.737   0.434  -0.885  0.00  0.00    -0.034 A 
ATOM      5  C4  UNL d   1       0.970  -0.650  -0.453  0.00  0.00     0.162 A 
ATOM      6  C5  UNL d   1       0.084  -0.503   0.610  0.00  0.00     0.062 A 
ATOM      7  F   UNL d   1      -0.649  -1.549   1.017  0.00  0.00    -0.097 F 
ATOM      8  F1  UNL d   1       1.072  -1.845  -1.054  0.00  0.00    -0.096 F 
ATOM      9  I   UNL d   1       3.063   0.218  -2.474  0.00  0.00    -0.060 I 
ATOM     10  F2  UNL d   1       2.326   2.724  -0.624  0.00  0.00    -0.096 F 
ATOM     11  F3  UNL d   1       0.597   2.988   1.443  0.00  0.00    -0.097 F 
ATOM     12  F4  UNL d   1      -0.895   0.860   2.273  0.00  0.00    -0.092 F 
ENDROOT
TORSDOF 0
ENDMDL
