MODEL 1
REMARK minimizedAffinity 5.24713659
REMARK minimizedRMSD -1
REMARK  0 active torsions:
REMARK  status: ('A' for Active; 'I' for Inactive)
ROOT
ATOM      1  C   UNL d   1      -1.995   3.179  -5.984  0.00  0.00     0.124 A 
ATOM      2  C1  UNL d   1      -1.552   1.863  -5.990  0.00  0.00     0.062 A 
ATOM      3  C2  UNL d   1      -2.469   0.816  -5.994  0.00  0.00     0.162 A 
ATOM      4  C3  UNL d   1      -3.839   1.080  -5.994  0.00  0.00    -0.034 A 
ATOM      5  C4  UNL d   1      -4.276   2.405  -5.987  0.00  0.00     0.162 A 
ATOM      6  C5  UNL d   1      -3.356   3.448  -5.983  0.00  0.00     0.062 A 
ATOM      7  F   UNL d   1      -3.786   4.719  -5.978  0.00  0.00    -0.097 F 
ATOM      8  F1  UNL d   1      -5.586   2.695  -5.987  0.00  0.00    -0.096 F 
ATOM      9  I   UNL d   1      -5.213  -0.483  -6.000  0.00  0.00    -0.060 I 
ATOM     10  F2  UNL d   1      -2.013  -0.445  -5.999  0.00  0.00    -0.096 F 
ATOM     11  F3  UNL d   1      -0.237   1.600  -5.990  0.00  0.00    -0.097 F 
ATOM     12  F4  UNL d   1      -1.110   4.184  -5.979  0.00  0.00    -0.092 F 
ENDROOT
TORSDOF 0
ENDMDL
