MODEL 1
REMARK minimizedAffinity 3.53411055
REMARK minimizedRMSD -1
REMARK  0 active torsions:
REMARK  status: ('A' for Active; 'I' for Inactive)
ROOT
ATOM      1  C   UNL d   1       2.804   0.956  -1.027  0.00  0.00     0.124 A 
ATOM      2  C1  UNL d   1       1.662   1.333  -0.333  0.00  0.00     0.062 A 
ATOM      3  C2  UNL d   1       0.744   0.371   0.079  0.00  0.00     0.162 A 
ATOM      4  C3  UNL d   1       0.964  -0.977  -0.201  0.00  0.00    -0.034 A 
ATOM      5  C4  UNL d   1       2.114  -1.349  -0.901  0.00  0.00     0.162 A 
ATOM      6  C5  UNL d   1       3.028  -0.384  -1.310  0.00  0.00     0.062 A 
ATOM      7  F   UNL d   1       4.130  -0.750  -1.981  0.00  0.00    -0.097 F 
ATOM      8  F1  UNL d   1       2.356  -2.636  -1.187  0.00  0.00    -0.096 F 
ATOM      9  I   UNL d   1      -0.406  -2.418   0.414  0.00  0.00    -0.060 I 
ATOM     10  F2  UNL d   1      -0.350   0.764   0.749  0.00  0.00    -0.096 F 
ATOM     11  F3  UNL d   1       1.443   2.627  -0.059  0.00  0.00    -0.097 F 
ATOM     12  F4  UNL d   1       3.685   1.883  -1.424  0.00  0.00    -0.092 F 
ENDROOT
TORSDOF 0
ENDMDL
