MODEL 1
REMARK minimizedAffinity 1.14778852
REMARK minimizedRMSD -1
REMARK  0 active torsions:
REMARK  status: ('A' for Active; 'I' for Inactive)
ROOT
ATOM      1  C   UNL d   1       1.465  -0.313  -0.794  0.00  0.00     0.124 A 
ATOM      2  C1  UNL d   1       0.621  -1.296  -0.299  0.00  0.00     0.062 A 
ATOM      3  C2  UNL d   1      -0.528  -0.944   0.404  0.00  0.00     0.162 A 
ATOM      4  C3  UNL d   1      -0.839   0.399   0.616  0.00  0.00    -0.034 A 
ATOM      5  C4  UNL d   1       0.016   1.383   0.115  0.00  0.00     0.162 A 
ATOM      6  C5  UNL d   1       1.163   1.025  -0.587  0.00  0.00     0.062 A 
ATOM      7  F   UNL d   1       1.977   1.977  -1.065  0.00  0.00    -0.097 F 
ATOM      8  F1  UNL d   1      -0.253   2.684   0.300  0.00  0.00    -0.096 F 
ATOM      9  I   UNL d   1      -2.555   0.931   1.667  0.00  0.00    -0.060 I 
ATOM     10  F2  UNL d   1      -1.326  -1.915   0.872  0.00  0.00    -0.096 F 
ATOM     11  F3  UNL d   1       0.912  -2.590  -0.497  0.00  0.00    -0.097 F 
ATOM     12  F4  UNL d   1       2.570  -0.655  -1.470  0.00  0.00    -0.092 F 
ENDROOT
TORSDOF 0
ENDMDL
