MODEL 1
REMARK minimizedAffinity -1.13173747
REMARK minimizedRMSD -1
REMARK  0 active torsions:
REMARK  status: ('A' for Active; 'I' for Inactive)
ROOT
ATOM      1  C   UNL d   1      -2.906  -0.186   1.954  0.00  0.00     0.124 A 
ATOM      2  C1  UNL d   1      -1.840   0.615   2.340  0.00  0.00     0.062 A 
ATOM      3  C2  UNL d   1      -0.660   0.613   1.602  0.00  0.00     0.162 A 
ATOM      4  C3  UNL d   1      -0.540  -0.191   0.469  0.00  0.00    -0.034 A 
ATOM      5  C4  UNL d   1      -1.616  -0.994   0.087  0.00  0.00     0.162 A 
ATOM      6  C5  UNL d   1      -2.793  -0.989   0.828  0.00  0.00     0.062 A 
ATOM      7  F   UNL d   1      -3.822  -1.763   0.453  0.00  0.00    -0.097 F 
ATOM      8  F1  UNL d   1      -1.534  -1.780  -0.997  0.00  0.00    -0.096 F 
ATOM      9  I   UNL d   1       1.223  -0.196  -0.637  0.00  0.00    -0.060 I 
ATOM     10  F2  UNL d   1       0.354   1.397   1.999  0.00  0.00    -0.096 F 
ATOM     11  F3  UNL d   1      -1.947   1.391   3.428  0.00  0.00    -0.097 F 
ATOM     12  F4  UNL d   1      -4.040  -0.183   2.666  0.00  0.00    -0.092 F 
ENDROOT
TORSDOF 0
ENDMDL
