MODEL 1
REMARK minimizedAffinity 16.4921665
REMARK minimizedRMSD -1
REMARK  2 active torsions:
REMARK  status: ('A' for Active; 'I' for Inactive)
REMARK    1  A    between atoms: C2'_3  and  C1'_4 
REMARK    2  A    between atoms: C1'_4  and  C1_5 
ROOT
ATOM      1  C1  I4B d   1       3.428   2.206  -5.793  0.00  0.00    -0.075 A 
ATOM      2  C2  I4B d   1       3.129   3.545  -5.737  0.00  0.00     0.003 A 
ATOM      3  C3  I4B d   1       4.161   4.510  -5.826  0.00  0.00     0.002 A 
ATOM      4  C4  I4B d   1       5.474   4.095  -5.918  0.00  0.00    -0.004 A 
ATOM      5  C5  I4B d   1       5.773   2.738  -5.997  0.00  0.00     0.002 A 
ATOM      6  C6  I4B d   1       4.743   1.787  -5.947  0.00  0.00     0.003 A 
ENDROOT
BRANCH   1   7
ATOM      7  C1' I4B d   1       2.317   1.213  -5.664  0.00  0.00     0.060 C 
BRANCH   7   8
ATOM      8  C2' I4B d   1       2.769   0.129  -4.706  0.00  0.00    -0.013 C 
ATOM      9  C4' I4B d   1       2.744   0.615  -3.281  0.00  0.00     0.013 C 
ATOM     10  C3' I4B d   1       1.867  -1.055  -4.890  0.00  0.00     0.013 C 
ENDBRANCH   7   8
ENDBRANCH   1   7
TORSDOF 2
ENDMDL
