MODEL 1
REMARK minimizedAffinity 12.1313486
REMARK minimizedRMSD -1
REMARK  2 active torsions:
REMARK  status: ('A' for Active; 'I' for Inactive)
REMARK    1  A    between atoms: C2'_3  and  C1'_4 
REMARK    2  A    between atoms: C1'_4  and  C1_5 
ROOT
ATOM      1  C1  I4B d   1      -4.359   1.750   2.342  0.00  0.00    -0.075 A 
ATOM      2  C2  I4B d   1      -5.123   1.508   3.456  0.00  0.00     0.003 A 
ATOM      3  C3  I4B d   1      -5.978   2.515   3.966  0.00  0.00     0.002 A 
ATOM      4  C4  I4B d   1      -6.000   3.757   3.364  0.00  0.00    -0.004 A 
ATOM      5  C5  I4B d   1      -5.242   3.992   2.221  0.00  0.00     0.002 A 
ATOM      6  C6  I4B d   1      -4.425   2.979   1.699  0.00  0.00     0.003 A 
ENDROOT
BRANCH   1   7
ATOM      7  C1' I4B d   1      -3.442   0.675   1.849  0.00  0.00     0.060 C 
BRANCH   7   8
ATOM      8  C2' I4B d   1      -3.827  -0.619   2.539  0.00  0.00    -0.013 C 
ATOM      9  C4' I4B d   1      -4.453  -1.587   1.570  0.00  0.00     0.013 C 
ATOM     10  C3' I4B d   1      -2.591  -1.197   3.161  0.00  0.00     0.013 C 
ENDBRANCH   7   8
ENDBRANCH   1   7
TORSDOF 2
ENDMDL
