MODEL 1
REMARK minimizedAffinity 13.1900148
REMARK minimizedRMSD -1
REMARK  2 active torsions:
REMARK  status: ('A' for Active; 'I' for Inactive)
REMARK    1  A    between atoms: C2'_3  and  C1'_4 
REMARK    2  A    between atoms: C1'_4  and  C1_5 
ROOT
ATOM      1  C1  I4B d   1       3.368   1.281  -4.852  0.00  0.00    -0.075 A 
ATOM      2  C2  I4B d   1       3.513   1.660  -3.541  0.00  0.00     0.003 A 
ATOM      3  C3  I4B d   1       2.767   1.014  -2.525  0.00  0.00     0.002 A 
ATOM      4  C4  I4B d   1       1.857   0.036  -2.868  0.00  0.00    -0.004 A 
ATOM      5  C5  I4B d   1       1.728  -0.364  -4.195  0.00  0.00     0.002 A 
ATOM      6  C6  I4B d   1       2.497   0.254  -5.192  0.00  0.00     0.003 A 
ENDROOT
BRANCH   1   7
ATOM      7  C1' I4B d   1       4.146   2.006  -5.903  0.00  0.00     0.060 C 
BRANCH   7   8
ATOM      8  C2' I4B d   1       4.512   3.371  -5.354  0.00  0.00    -0.013 C 
ATOM      9  C4' I4B d   1       5.962   3.689  -5.608  0.00  0.00     0.013 C 
ATOM     10  C3' I4B d   1       3.614   4.384  -5.998  0.00  0.00     0.013 C 
ENDBRANCH   7   8
ENDBRANCH   1   7
TORSDOF 2
ENDMDL
