MODEL 1
REMARK minimizedAffinity 19.3050804
REMARK minimizedRMSD -1
REMARK  2 active torsions:
REMARK  status: ('A' for Active; 'I' for Inactive)
REMARK    1  A    between atoms: C2'_3  and  C1'_4 
REMARK    2  A    between atoms: C1'_4  and  C1_5 
ROOT
ATOM      1  C1  I4B d   1      -4.234  -0.143  -1.442  0.00  0.00    -0.075 A 
ATOM      2  C2  I4B d   1      -5.128  -1.131  -1.770  0.00  0.00     0.003 A 
ATOM      3  C3  I4B d   1      -5.325  -1.495  -3.124  0.00  0.00     0.002 A 
ATOM      4  C4  I4B d   1      -4.649  -0.813  -4.115  0.00  0.00    -0.004 A 
ATOM      5  C5  I4B d   1      -3.726   0.173  -3.780  0.00  0.00     0.002 A 
ATOM      6  C6  I4B d   1      -3.508   0.503  -2.435  0.00  0.00     0.003 A 
ENDROOT
BRANCH   1   7
ATOM      7  C1' I4B d   1      -4.076   0.239  -0.004  0.00  0.00     0.060 C 
BRANCH   7   8
ATOM      8  C2' I4B d   1      -2.601   0.173   0.336  0.00  0.00    -0.013 C 
ATOM      9  C4' I4B d   1      -2.156   1.407   1.075  0.00  0.00     0.013 C 
ATOM     10  C3' I4B d   1      -2.370  -1.062   1.156  0.00  0.00     0.013 C 
ENDBRANCH   7   8
ENDBRANCH   1   7
TORSDOF 2
ENDMDL
