MODEL 1
REMARK minimizedAffinity 15.5488491
REMARK minimizedRMSD -1
REMARK  2 active torsions:
REMARK  status: ('A' for Active; 'I' for Inactive)
REMARK    1  A    between atoms: C2'_3  and  C1'_4 
REMARK    2  A    between atoms: C1'_4  and  C1_5 
ROOT
ATOM      1  C1  I4B d   1      -3.991   1.643   2.208  0.00  0.00    -0.075 A 
ATOM      2  C2  I4B d   1      -5.297   1.844   1.837  0.00  0.00     0.003 A 
ATOM      3  C3  I4B d   1      -6.000   2.986   2.290  0.00  0.00     0.002 A 
ATOM      4  C4  I4B d   1      -5.378   3.870   3.148  0.00  0.00    -0.004 A 
ATOM      5  C5  I4B d   1      -4.046   3.678   3.505  0.00  0.00     0.002 A 
ATOM      6  C6  I4B d   1      -3.344   2.564   3.023  0.00  0.00     0.003 A 
ENDROOT
BRANCH   1   7
ATOM      7  C1' I4B d   1      -3.289   0.409   1.738  0.00  0.00     0.060 C 
BRANCH   7   8
ATOM      8  C2' I4B d   1      -1.812   0.571   2.033  0.00  0.00    -0.013 C 
ATOM      9  C4' I4B d   1      -1.329  -0.483   2.994  0.00  0.00     0.013 C 
ATOM     10  C3' I4B d   1      -1.070   0.497   0.731  0.00  0.00     0.013 C 
ENDBRANCH   7   8
ENDBRANCH   1   7
TORSDOF 2
ENDMDL
