MODEL 1
REMARK minimizedAffinity 11.2482615
REMARK minimizedRMSD -1
REMARK  2 active torsions:
REMARK  status: ('A' for Active; 'I' for Inactive)
REMARK    1  A    between atoms: C2'_3  and  C1'_4 
REMARK    2  A    between atoms: C1'_4  and  C1_5 
ROOT
ATOM      1  C1  I4B d   1      -0.617  -0.207  -5.208  0.00  0.00    -0.075 A 
ATOM      2  C2  I4B d   1      -1.781   0.470  -5.477  0.00  0.00     0.003 A 
ATOM      3  C3  I4B d   1      -2.947  -0.239  -5.855  0.00  0.00     0.002 A 
ATOM      4  C4  I4B d   1      -2.891  -1.610  -5.999  0.00  0.00    -0.004 A 
ATOM      5  C5  I4B d   1      -1.718  -2.297  -5.703  0.00  0.00     0.002 A 
ATOM      6  C6  I4B d   1      -0.576  -1.593  -5.293  0.00  0.00     0.003 A 
ENDROOT
BRANCH   1   7
ATOM      7  C1' I4B d   1       0.604   0.576  -4.843  0.00  0.00     0.060 C 
BRANCH   7   8
ATOM      8  C2' I4B d   1       1.388  -0.229  -3.826  0.00  0.00    -0.013 C 
ATOM      9  C4' I4B d   1       2.855  -0.252  -4.163  0.00  0.00     0.013 C 
ATOM     10  C3' I4B d   1       1.152   0.378  -2.475  0.00  0.00     0.013 C 
ENDBRANCH   7   8
ENDBRANCH   1   7
TORSDOF 2
ENDMDL
