MODEL 1
REMARK minimizedAffinity 6.64778519
REMARK minimizedRMSD -1
REMARK  2 active torsions:
REMARK  status: ('A' for Active; 'I' for Inactive)
REMARK    1  A    between atoms: C2'_3  and  C1'_4 
REMARK    2  A    between atoms: C1'_4  and  C1_5 
ROOT
ATOM      1  C1  I4B d   1      -1.953  -2.345  -5.297  0.00  0.00    -0.075 A 
ATOM      2  C2  I4B d   1      -2.406  -3.434  -6.000  0.00  0.00     0.003 A 
ATOM      3  C3  I4B d   1      -3.784  -3.759  -6.000  0.00  0.00     0.002 A 
ATOM      4  C4  I4B d   1      -4.660  -3.004  -5.248  0.00  0.00    -0.004 A 
ATOM      5  C5  I4B d   1      -4.203  -1.887  -4.555  0.00  0.00     0.002 A 
ATOM      6  C6  I4B d   1      -2.842  -1.548  -4.589  0.00  0.00     0.003 A 
ENDROOT
BRANCH   1   7
ATOM      7  C1' I4B d   1      -0.486  -2.050  -5.292  0.00  0.00     0.060 C 
BRANCH   7   8
ATOM      8  C2' I4B d   1      -0.226  -0.996  -4.235  0.00  0.00    -0.013 C 
ATOM      9  C4' I4B d   1       1.151  -1.145  -3.644  0.00  0.00     0.013 C 
ATOM     10  C3' I4B d   1      -0.399   0.351  -4.872  0.00  0.00     0.013 C 
ENDBRANCH   7   8
ENDBRANCH   1   7
TORSDOF 2
ENDMDL
