MODEL 1
REMARK minimizedAffinity 5.1612587
REMARK minimizedRMSD -1
REMARK  2 active torsions:
REMARK  status: ('A' for Active; 'I' for Inactive)
REMARK    1  A    between atoms: C2'_3  and  C1'_4 
REMARK    2  A    between atoms: C1'_4  and  C1_5 
ROOT
ATOM      1  C1  I4B d   1       1.630   1.007   2.490  0.00  0.00    -0.075 A 
ATOM      2  C2  I4B d   1       2.292   1.595   1.441  0.00  0.00     0.003 A 
ATOM      3  C3  I4B d   1       3.545   1.091   1.016  0.00  0.00     0.002 A 
ATOM      4  C4  I4B d   1       4.119   0.036   1.695  0.00  0.00    -0.004 A 
ATOM      5  C5  I4B d   1       3.436  -0.574   2.744  0.00  0.00     0.002 A 
ATOM      6  C6  I4B d   1       2.178  -0.094   3.136  0.00  0.00     0.003 A 
ENDROOT
BRANCH   1   7
ATOM      7  C1' I4B d   1       0.324   1.586   2.934  0.00  0.00     0.060 C 
BRANCH   7   8
ATOM      8  C2' I4B d   1      -0.786   0.769   2.306  0.00  0.00    -0.013 C 
ATOM      9  C4' I4B d   1      -1.254  -0.321   3.234  0.00  0.00     0.013 C 
ATOM     10  C3' I4B d   1      -1.907   1.702   1.958  0.00  0.00     0.013 C 
ENDBRANCH   7   8
ENDBRANCH   1   7
TORSDOF 2
ENDMDL
