MODEL 1
REMARK minimizedAffinity 14.5009451
REMARK minimizedRMSD -1
REMARK  2 active torsions:
REMARK  status: ('A' for Active; 'I' for Inactive)
REMARK    1  A    between atoms: C2'_3  and  C1'_4 
REMARK    2  A    between atoms: C1'_4  and  C1_5 
ROOT
ATOM      1  C1  I4B d   1      -0.718   0.732   1.995  0.00  0.00    -0.075 A 
ATOM      2  C2  I4B d   1      -0.888  -0.532   2.503  0.00  0.00     0.003 A 
ATOM      3  C3  I4B d   1       0.156  -1.155   3.229  0.00  0.00     0.002 A 
ATOM      4  C4  I4B d   1       1.363  -0.503   3.378  0.00  0.00    -0.004 A 
ATOM      5  C5  I4B d   1       1.526   0.787   2.882  0.00  0.00     0.002 A 
ATOM      6  C6  I4B d   1       0.475   1.414   2.197  0.00  0.00     0.003 A 
ENDROOT
BRANCH   1   7
ATOM      7  C1' I4B d   1      -1.830   1.347   1.206  0.00  0.00     0.060 C 
BRANCH   7   8
ATOM      8  C2' I4B d   1      -3.049   1.428   2.101  0.00  0.00    -0.013 C 
ATOM      9  C4' I4B d   1      -3.803   2.713   1.880  0.00  0.00     0.013 C 
ATOM     10  C3' I4B d   1      -3.914   0.237   1.816  0.00  0.00     0.013 C 
ENDBRANCH   7   8
ENDBRANCH   1   7
TORSDOF 2
ENDMDL
