MODEL 1
REMARK minimizedAffinity 18.5567474
REMARK minimizedRMSD -1
REMARK  2 active torsions:
REMARK  status: ('A' for Active; 'I' for Inactive)
REMARK    1  A    between atoms: C2'_3  and  C1'_4 
REMARK    2  A    between atoms: C1'_4  and  C1_5 
ROOT
ATOM      1  C1  I4B d   1      -1.947  -1.286   0.586  0.00  0.00    -0.075 A 
ATOM      2  C2  I4B d   1      -3.250  -1.621   0.311  0.00  0.00     0.003 A 
ATOM      3  C3  I4B d   1      -3.594  -2.962   0.014  0.00  0.00     0.002 A 
ATOM      4  C4  I4B d   1      -2.603  -3.920  -0.047  0.00  0.00    -0.004 A 
ATOM      5  C5  I4B d   1      -1.286  -3.584   0.254  0.00  0.00     0.002 A 
ATOM      6  C6  I4B d   1      -0.958  -2.261   0.585  0.00  0.00     0.003 A 
ENDROOT
BRANCH   1   7
ATOM      7  C1' I4B d   1      -1.614   0.145   0.864  0.00  0.00     0.060 C 
BRANCH   7   8
ATOM      8  C2' I4B d   1      -1.821   0.394   2.344  0.00  0.00    -0.013 C 
ATOM      9  C4' I4B d   1      -0.508   0.603   3.051  0.00  0.00     0.013 C 
ATOM     10  C3' I4B d   1      -2.712   1.590   2.492  0.00  0.00     0.013 C 
ENDBRANCH   7   8
ENDBRANCH   1   7
TORSDOF 2
ENDMDL
