MODEL 1
REMARK minimizedAffinity 13.6641579
REMARK minimizedRMSD -1
REMARK  2 active torsions:
REMARK  status: ('A' for Active; 'I' for Inactive)
REMARK    1  A    between atoms: C2'_3  and  C1'_4 
REMARK    2  A    between atoms: C1'_4  and  C1_5 
ROOT
ATOM      1  C1  I4B d   1      -1.184   0.667   2.232  0.00  0.00    -0.075 A 
ATOM      2  C2  I4B d   1      -1.758  -0.574   2.113  0.00  0.00     0.003 A 
ATOM      3  C3  I4B d   1      -3.102  -0.699   1.685  0.00  0.00     0.002 A 
ATOM      4  C4  I4B d   1      -3.845   0.437   1.437  0.00  0.00    -0.004 A 
ATOM      5  C5  I4B d   1      -3.254   1.693   1.536  0.00  0.00     0.002 A 
ATOM      6  C6  I4B d   1      -1.911   1.809   1.924  0.00  0.00     0.003 A 
ENDROOT
BRANCH   1   7
ATOM      7  C1' I4B d   1       0.228   0.764   2.718  0.00  0.00     0.060 C 
BRANCH   7   8
ATOM      8  C2' I4B d   1       0.709   2.180   2.475  0.00  0.00    -0.013 C 
ATOM      9  C4' I4B d   1       1.190   2.818   3.751  0.00  0.00     0.013 C 
ATOM     10  C3' I4B d   1       1.802   2.127   1.449  0.00  0.00     0.013 C 
ENDBRANCH   7   8
ENDBRANCH   1   7
TORSDOF 2
ENDMDL
