MODEL 1
REMARK minimizedAffinity 17.8783092
REMARK minimizedRMSD -1
REMARK  2 active torsions:
REMARK  status: ('A' for Active; 'I' for Inactive)
REMARK    1  A    between atoms: C2'_3  and  C1'_4 
REMARK    2  A    between atoms: C1'_4  and  C1_5 
ROOT
ATOM      1  C1  I4B d   1      -2.962  -0.711   1.493  0.00  0.00    -0.075 A 
ATOM      2  C2  I4B d   1      -1.637  -1.068   1.508  0.00  0.00     0.003 A 
ATOM      3  C3  I4B d   1      -0.631  -0.073   1.579  0.00  0.00     0.002 A 
ATOM      4  C4  I4B d   1      -0.992   1.259   1.580  0.00  0.00    -0.004 A 
ATOM      5  C5  I4B d   1      -2.337   1.618   1.587  0.00  0.00     0.002 A 
ATOM      6  C6  I4B d   1      -3.329   0.627   1.556  0.00  0.00     0.003 A 
ENDROOT
BRANCH   1   7
ATOM      7  C1' I4B d   1      -3.997  -1.786   1.385  0.00  0.00     0.060 C 
BRANCH   7   8
ATOM      8  C2' I4B d   1      -3.754  -2.539   0.093  0.00  0.00    -0.013 C 
ATOM      9  C4' I4B d   1      -3.463  -3.993   0.356  0.00  0.00     0.013 C 
ATOM     10  C3' I4B d   1      -4.969  -2.378  -0.772  0.00  0.00     0.013 C 
ENDBRANCH   7   8
ENDBRANCH   1   7
TORSDOF 2
ENDMDL
