MODEL 1
REMARK minimizedAffinity 7.70632696
REMARK minimizedRMSD -1
REMARK  2 active torsions:
REMARK  status: ('A' for Active; 'I' for Inactive)
REMARK    1  A    between atoms: C2'_3  and  C1'_4 
REMARK    2  A    between atoms: C1'_4  and  C1_5 
ROOT
ATOM      1  C1  I4B d   1      -1.026   0.816   2.102  0.00  0.00    -0.075 A 
ATOM      2  C2  I4B d   1      -1.712  -0.348   2.346  0.00  0.00     0.003 A 
ATOM      3  C3  I4B d   1      -3.101  -0.425   2.087  0.00  0.00     0.002 A 
ATOM      4  C4  I4B d   1      -3.771   0.694   1.634  0.00  0.00    -0.004 A 
ATOM      5  C5  I4B d   1      -3.070   1.866   1.365  0.00  0.00     0.002 A 
ATOM      6  C6  I4B d   1      -1.687   1.924   1.588  0.00  0.00     0.003 A 
ENDROOT
BRANCH   1   7
ATOM      7  C1' I4B d   1       0.435   0.872   2.418  0.00  0.00     0.060 C 
BRANCH   7   8
ATOM      8  C2' I4B d   1       0.845   2.330   2.470  0.00  0.00    -0.013 C 
ATOM      9  C4' I4B d   1       1.312   2.716   3.849  0.00  0.00     0.013 C 
ATOM     10  C3' I4B d   1       1.926   2.543   1.453  0.00  0.00     0.013 C 
ENDBRANCH   7   8
ENDBRANCH   1   7
TORSDOF 2
ENDMDL
