MODEL 1
REMARK minimizedAffinity 2.57689118
REMARK minimizedRMSD -1
REMARK  1 active torsions:
REMARK  status: ('A' for Active; 'I' for Inactive)
REMARK    1  A    between atoms: C1_2  and  C2_3 
ROOT
ATOM      1  C2  UNL d   1       4.809   1.188   0.794  0.00  0.00    -0.076 A 
ATOM      2  C3  UNL d   1       5.999   0.485   1.050  0.00  0.00     0.004 A 
ATOM      3  C4  UNL d   1       5.999  -0.660   1.845  0.00  0.00    -0.003 A 
ATOM      4  C5  UNL d   1       4.808  -1.119   2.398  0.00  0.00     0.000 A 
ATOM      5  C6  UNL d   1       3.616  -0.444   2.141  0.00  0.00     0.000 A 
ATOM      6  C7  UNL d   1       3.596   0.702   1.327  0.00  0.00    -0.073 A 
ATOM      7  C8  UNL d   1       2.283   1.395   1.088  0.00  0.00     0.078 C 
ENDROOT
BRANCH   1   8
ATOM      8  C1  UNL d   1       4.875   2.439  -0.054  0.00  0.00     0.053 C 
ATOM      9  C   UNL d   1       5.254   3.671   0.753  0.00  0.00     0.018 C 
ENDBRANCH   1   8
TORSDOF 1
ENDMDL
