MODEL 1
REMARK minimizedAffinity 0.0477192253
REMARK minimizedRMSD -1
REMARK  1 active torsions:
REMARK  status: ('A' for Active; 'I' for Inactive)
REMARK    1  A    between atoms: C1_2  and  C2_3 
ROOT
ATOM      1  C2  UNL d   1       5.028  -0.124   1.664  0.00  0.00    -0.076 A 
ATOM      2  C3  UNL d   1       6.000   0.867   1.887  0.00  0.00     0.004 A 
ATOM      3  C4  UNL d   1       5.866   2.140   1.335  0.00  0.00    -0.003 A 
ATOM      4  C5  UNL d   1       4.758   2.443   0.552  0.00  0.00     0.000 A 
ATOM      5  C6  UNL d   1       3.775   1.477   0.335  0.00  0.00     0.000 A 
ATOM      6  C7  UNL d   1       3.887   0.194   0.897  0.00  0.00    -0.073 A 
ATOM      7  C8  UNL d   1       2.801  -0.810   0.625  0.00  0.00     0.078 C 
ENDROOT
BRANCH   1   8
ATOM      8  C1  UNL d   1       5.241  -1.495   2.265  0.00  0.00     0.053 C 
ATOM      9  C   UNL d   1       5.599  -1.434   3.742  0.00  0.00     0.018 C 
ENDBRANCH   1   8
TORSDOF 1
ENDMDL
