MODEL 1
REMARK minimizedAffinity 5.32271147
REMARK minimizedRMSD -1
REMARK  1 active torsions:
REMARK  status: ('A' for Active; 'I' for Inactive)
REMARK    1  A    between atoms: C1_2  and  C2_3 
ROOT
ATOM      1  C2  UNL d   1      -3.441   1.756   3.793  0.00  0.00    -0.076 A 
ATOM      2  C3  UNL d   1      -2.667   2.854   3.379  0.00  0.00     0.004 A 
ATOM      3  C4  UNL d   1      -1.489   2.670   2.658  0.00  0.00    -0.003 A 
ATOM      4  C5  UNL d   1      -1.066   1.385   2.338  0.00  0.00     0.000 A 
ATOM      5  C6  UNL d   1      -1.831   0.285   2.725  0.00  0.00     0.000 A 
ATOM      6  C7  UNL d   1      -3.030   0.454   3.438  0.00  0.00    -0.073 A 
ATOM      7  C8  UNL d   1      -3.812  -0.768   3.835  0.00  0.00     0.078 C 
ENDROOT
BRANCH   1   8
ATOM      8  C1  UNL d   1      -4.696   2.016   4.596  0.00  0.00     0.053 C 
ATOM      9  C   UNL d   1      -4.484   3.054   5.688  0.00  0.00     0.018 C 
ENDBRANCH   1   8
TORSDOF 1
ENDMDL
