MODEL 1
REMARK minimizedAffinity 6.45931625
REMARK minimizedRMSD -1
REMARK  1 active torsions:
REMARK  status: ('A' for Active; 'I' for Inactive)
REMARK    1  A    between atoms: C1_2  and  C2_3 
ROOT
ATOM      1  C2  UNL d   1      -4.133   0.791   4.314  0.00  0.00    -0.076 A 
ATOM      2  C3  UNL d   1      -5.240   0.714   5.177  0.00  0.00     0.004 A 
ATOM      3  C4  UNL d   1      -5.586   1.786   5.998  0.00  0.00    -0.003 A 
ATOM      4  C5  UNL d   1      -4.831   2.953   5.969  0.00  0.00     0.000 A 
ATOM      5  C6  UNL d   1      -3.740   3.054   5.106  0.00  0.00     0.000 A 
ATOM      6  C7  UNL d   1      -3.388   1.988   4.260  0.00  0.00    -0.073 A 
ATOM      7  C8  UNL d   1      -2.198   2.149   3.353  0.00  0.00     0.078 C 
ENDROOT
BRANCH   1   8
ATOM      8  C1  UNL d   1      -3.790  -0.413   3.467  0.00  0.00     0.053 C 
ATOM      9  C   UNL d   1      -2.323  -0.445   3.066  0.00  0.00     0.018 C 
ENDBRANCH   1   8
TORSDOF 1
ENDMDL
