MODEL 1
REMARK minimizedAffinity 3.24202085
REMARK minimizedRMSD -1
REMARK  1 active torsions:
REMARK  status: ('A' for Active; 'I' for Inactive)
REMARK    1  A    between atoms: C1_2  and  C2_3 
ROOT
ATOM      1  C2  UNL d   1      -0.674  -5.352  -1.265  0.00  0.00    -0.076 A 
ATOM      2  C3  UNL d   1      -0.097  -5.999  -2.371  0.00  0.00     0.004 A 
ATOM      3  C4  UNL d   1       0.980  -5.434  -3.052  0.00  0.00    -0.003 A 
ATOM      4  C5  UNL d   1       1.498  -4.213  -2.637  0.00  0.00     0.000 A 
ATOM      5  C6  UNL d   1       0.949  -3.565  -1.531  0.00  0.00     0.000 A 
ATOM      6  C7  UNL d   1      -0.126  -4.128  -0.823  0.00  0.00    -0.073 A 
ATOM      7  C8  UNL d   1      -0.682  -3.383   0.359  0.00  0.00     0.078 C 
ENDROOT
BRANCH   1   8
ATOM      8  C1  UNL d   1      -1.858  -5.999  -0.582  0.00  0.00     0.053 C 
ATOM      9  C   UNL d   1      -3.110  -5.982  -1.446  0.00  0.00     0.018 C 
ENDBRANCH   1   8
TORSDOF 1
ENDMDL
