MODEL 1
REMARK minimizedAffinity 8.29435158
REMARK minimizedRMSD -1
REMARK  1 active torsions:
REMARK  status: ('A' for Active; 'I' for Inactive)
REMARK    1  A    between atoms: C1_2  and  C2_3 
ROOT
ATOM      1  C2  UNL d   1      -2.452   2.586   1.163  0.00  0.00    -0.076 A 
ATOM      2  C3  UNL d   1      -1.150   2.818   0.686  0.00  0.00     0.004 A 
ATOM      3  C4  UNL d   1      -0.035   2.441   1.433  0.00  0.00    -0.003 A 
ATOM      4  C5  UNL d   1      -0.204   1.826   2.668  0.00  0.00     0.000 A 
ATOM      5  C6  UNL d   1      -1.488   1.572   3.149  0.00  0.00     0.000 A 
ATOM      6  C7  UNL d   1      -2.623   1.931   2.401  0.00  0.00    -0.073 A 
ATOM      7  C8  UNL d   1      -3.984   1.638   2.970  0.00  0.00     0.078 C 
ENDROOT
BRANCH   1   8
ATOM      8  C1  UNL d   1      -3.623   3.041   0.321  0.00  0.00     0.053 C 
ATOM      9  C   UNL d   1      -3.424   2.753  -1.159  0.00  0.00     0.018 C 
ENDBRANCH   1   8
TORSDOF 1
ENDMDL
