MODEL 1
REMARK minimizedAffinity 12.3133802
REMARK minimizedRMSD -1
REMARK  1 active torsions:
REMARK  status: ('A' for Active; 'I' for Inactive)
REMARK    1  A    between atoms: C1_2  and  C2_3 
ROOT
ATOM      1  C2  UNL d   1      -3.160   1.693   3.570  0.00  0.00    -0.076 A 
ATOM      2  C3  UNL d   1      -2.021   2.517   3.542  0.00  0.00     0.004 A 
ATOM      3  C4  UNL d   1      -0.830   2.076   2.968  0.00  0.00    -0.003 A 
ATOM      4  C5  UNL d   1      -0.759   0.803   2.411  0.00  0.00     0.000 A 
ATOM      5  C6  UNL d   1      -1.884  -0.021   2.415  0.00  0.00     0.000 A 
ATOM      6  C7  UNL d   1      -3.097   0.415   2.975  0.00  0.00    -0.073 A 
ATOM      7  C8  UNL d   1      -4.277  -0.517   2.957  0.00  0.00     0.078 C 
ENDROOT
BRANCH   1   8
ATOM      8  C1  UNL d   1      -4.415   2.216   4.231  0.00  0.00     0.053 C 
ATOM      9  C   UNL d   1      -4.166   2.708   5.648  0.00  0.00     0.018 C 
ENDBRANCH   1   8
TORSDOF 1
ENDMDL
