MODEL 1
REMARK minimizedAffinity 7.22102165
REMARK minimizedRMSD -1
REMARK  1 active torsions:
REMARK  status: ('A' for Active; 'I' for Inactive)
REMARK    1  A    between atoms: C1_2  and  C2_3 
ROOT
ATOM      1  C2  UNL d   1      -3.792   1.505   3.706  0.00  0.00    -0.076 A 
ATOM      2  C3  UNL d   1      -3.075   2.661   3.351  0.00  0.00     0.004 A 
ATOM      3  C4  UNL d   1      -1.921   2.579   2.573  0.00  0.00    -0.003 A 
ATOM      4  C5  UNL d   1      -1.467   1.340   2.136  0.00  0.00     0.000 A 
ATOM      5  C6  UNL d   1      -2.176   0.185   2.463  0.00  0.00     0.000 A 
ATOM      6  C7  UNL d   1      -3.349   0.251   3.233  0.00  0.00    -0.073 A 
ATOM      7  C8  UNL d   1      -4.071  -1.027   3.561  0.00  0.00     0.078 C 
ENDROOT
BRANCH   1   8
ATOM      8  C1  UNL d   1      -5.021   1.653   4.574  0.00  0.00     0.053 C 
ATOM      9  C   UNL d   1      -4.858   2.731   5.635  0.00  0.00     0.018 C 
ENDBRANCH   1   8
TORSDOF 1
ENDMDL
