MODEL 1
REMARK minimizedAffinity 0.866800427
REMARK minimizedRMSD -1
REMARK  1 active torsions:
REMARK  status: ('A' for Active; 'I' for Inactive)
REMARK    1  A    between atoms: C1_2  and  C2_3 
ROOT
ATOM      1  C2  UNL d   1      -2.663   2.176   3.194  0.00  0.00    -0.076 A 
ATOM      2  C3  UNL d   1      -1.619   1.487   3.835  0.00  0.00     0.004 A 
ATOM      3  C4  UNL d   1      -0.352   1.408   3.260  0.00  0.00    -0.003 A 
ATOM      4  C5  UNL d   1      -0.108   2.017   2.034  0.00  0.00     0.000 A 
ATOM      5  C6  UNL d   1      -1.127   2.719   1.392  0.00  0.00     0.000 A 
ATOM      6  C7  UNL d   1      -2.406   2.823   1.966  0.00  0.00    -0.073 A 
ATOM      7  C8  UNL d   1      -3.470   3.588   1.227  0.00  0.00     0.078 C 
ENDROOT
BRANCH   1   8
ATOM      8  C1  UNL d   1      -4.024   2.205   3.853  0.00  0.00     0.053 C 
ATOM      9  C   UNL d   1      -3.938   2.386   5.360  0.00  0.00     0.018 C 
ENDBRANCH   1   8
TORSDOF 1
ENDMDL
