MODEL 1
REMARK minimizedAffinity 2.3879528
REMARK minimizedRMSD -1
REMARK  1 active torsions:
REMARK  status: ('A' for Active; 'I' for Inactive)
REMARK    1  A    between atoms: C1_2  and  C2_3 
ROOT
ATOM      1  C2  UNL d   1      -0.717  -3.870  -1.784  0.00  0.00    -0.076 A 
ATOM      2  C3  UNL d   1      -1.359  -2.984  -2.667  0.00  0.00     0.004 A 
ATOM      3  C4  UNL d   1      -2.713  -2.684  -2.524  0.00  0.00    -0.003 A 
ATOM      4  C5  UNL d   1      -3.447  -3.264  -1.495  0.00  0.00     0.000 A 
ATOM      5  C6  UNL d   1      -2.822  -4.132  -0.599  0.00  0.00     0.000 A 
ATOM      6  C7  UNL d   1      -1.454  -4.432  -0.720  0.00  0.00    -0.073 A 
ATOM      7  C8  UNL d   1      -0.833  -5.379   0.271  0.00  0.00     0.078 C 
ENDROOT
BRANCH   1   8
ATOM      8  C1  UNL d   1       0.746  -4.179  -2.005  0.00  0.00     0.053 C 
ATOM      9  C   UNL d   1       1.269  -3.616  -3.318  0.00  0.00     0.018 C 
ENDBRANCH   1   8
TORSDOF 1
ENDMDL
