MODEL 1
REMARK minimizedAffinity 10.3713112
REMARK minimizedRMSD -1
REMARK  1 active torsions:
REMARK  status: ('A' for Active; 'I' for Inactive)
REMARK    1  A    between atoms: C1_2  and  C2_3 
ROOT
ATOM      1  C2  UNL d   1      -2.745   2.618   3.171  0.00  0.00    -0.076 A 
ATOM      2  C3  UNL d   1      -1.732   1.979   3.908  0.00  0.00     0.004 A 
ATOM      3  C4  UNL d   1      -0.412   1.981   3.463  0.00  0.00    -0.003 A 
ATOM      4  C5  UNL d   1      -0.082   2.623   2.274  0.00  0.00     0.000 A 
ATOM      5  C6  UNL d   1      -1.071   3.277   1.540  0.00  0.00     0.000 A 
ATOM      6  C7  UNL d   1      -2.405   3.298   1.983  0.00  0.00    -0.073 A 
ATOM      7  C8  UNL d   1      -3.431   4.013   1.148  0.00  0.00     0.078 C 
ENDROOT
BRANCH   1   8
ATOM      8  C1  UNL d   1      -4.165   2.559   3.690  0.00  0.00     0.053 C 
ATOM      9  C   UNL d   1      -4.283   3.056   5.122  0.00  0.00     0.018 C 
ENDBRANCH   1   8
TORSDOF 1
ENDMDL
