MODEL 1
REMARK minimizedAffinity 7.44535398
REMARK minimizedRMSD -1
REMARK  1 active torsions:
REMARK  status: ('A' for Active; 'I' for Inactive)
REMARK    1  A    between atoms: C1_2  and  C2_3 
ROOT
ATOM      1  C2  UNL d   1      -3.996  -1.490  -0.436  0.00  0.00    -0.076 A 
ATOM      2  C3  UNL d   1      -3.886  -0.125  -0.753  0.00  0.00     0.004 A 
ATOM      3  C4  UNL d   1      -3.421   0.286  -2.001  0.00  0.00    -0.003 A 
ATOM      4  C5  UNL d   1      -3.058  -0.661  -2.952  0.00  0.00     0.000 A 
ATOM      5  C6  UNL d   1      -3.178  -2.019  -2.661  0.00  0.00     0.000 A 
ATOM      6  C7  UNL d   1      -3.660  -2.451  -1.414  0.00  0.00    -0.073 A 
ATOM      7  C8  UNL d   1      -3.763  -3.928  -1.151  0.00  0.00     0.078 C 
ENDROOT
BRANCH   1   8
ATOM      8  C1  UNL d   1      -4.481  -1.876   0.943  0.00  0.00     0.053 C 
ATOM      9  C   UNL d   1      -5.999  -1.902   1.041  0.00  0.00     0.018 C 
ENDBRANCH   1   8
TORSDOF 1
ENDMDL
