MODEL 1
REMARK minimizedAffinity 6.21937847
REMARK minimizedRMSD -1
REMARK  1 active torsions:
REMARK  status: ('A' for Active; 'I' for Inactive)
REMARK    1  A    between atoms: C1_2  and  C2_3 
ROOT
ATOM      1  C2  UNL d   1       3.690   4.157  -4.827  0.00  0.00    -0.076 A 
ATOM      2  C3  UNL d   1       4.529   3.029  -4.809  0.00  0.00     0.004 A 
ATOM      3  C4  UNL d   1       4.230   1.924  -4.014  0.00  0.00    -0.003 A 
ATOM      4  C5  UNL d   1       3.085   1.929  -3.224  0.00  0.00     0.000 A 
ATOM      5  C6  UNL d   1       2.231   3.031  -3.244  0.00  0.00     0.000 A 
ATOM      6  C7  UNL d   1       2.510   4.146  -4.052  0.00  0.00    -0.073 A 
ATOM      7  C8  UNL d   1       1.558   5.311  -4.029  0.00  0.00     0.078 C 
ENDROOT
BRANCH   1   8
ATOM      8  C1  UNL d   1       4.080   5.336  -5.688  0.00  0.00     0.053 C 
ATOM      9  C   UNL d   1       5.569   5.364  -5.999  0.00  0.00     0.018 C 
ENDBRANCH   1   8
TORSDOF 1
ENDMDL
