MODEL 1
REMARK minimizedAffinity 10.5087595
REMARK minimizedRMSD -1
REMARK  1 active torsions:
REMARK  status: ('A' for Active; 'I' for Inactive)
REMARK    1  A    between atoms: C1_2  and  C2_3 
ROOT
ATOM      1  C2  UNL d   1      -3.746   1.815   3.771  0.00  0.00    -0.076 A 
ATOM      2  C3  UNL d   1      -3.208   3.058   3.397  0.00  0.00     0.004 A 
ATOM      3  C4  UNL d   1      -2.070   3.136   2.595  0.00  0.00    -0.003 A 
ATOM      4  C5  UNL d   1      -1.452   1.970   2.155  0.00  0.00     0.000 A 
ATOM      5  C6  UNL d   1      -1.982   0.728   2.502  0.00  0.00     0.000 A 
ATOM      6  C7  UNL d   1      -3.138   0.633   3.296  0.00  0.00    -0.073 A 
ATOM      7  C8  UNL d   1      -3.663  -0.733   3.645  0.00  0.00     0.078 C 
ENDROOT
BRANCH   1   8
ATOM      8  C1  UNL d   1      -4.966   1.793   4.664  0.00  0.00     0.053 C 
ATOM      9  C   UNL d   1      -4.756   2.567   5.957  0.00  0.00     0.018 C 
ENDBRANCH   1   8
TORSDOF 1
ENDMDL
