MODEL 1
REMARK minimizedAffinity -1.03391159
REMARK minimizedRMSD -1
REMARK  0 active torsions:
REMARK  status: ('A' for Active; 'I' for Inactive)
ROOT
ATOM      1  C   UNL d   1      -4.106  -0.309  -5.772  0.00  0.00     0.078 C 
ATOM      2  C1  UNL d   1      -4.410  -1.775  -5.858  0.00  0.00    -0.077 A 
ATOM      3  C2  UNL d   1      -5.731  -2.239  -5.862  0.00  0.00    -0.001 A 
ATOM      4  C3  UNL d   1      -5.999  -3.607  -5.933  0.00  0.00     0.003 A 
ATOM      5  C4  UNL d   1      -4.950  -4.522  -5.999  0.00  0.00    -0.005 A 
ATOM      6  C5  UNL d   1      -3.632  -4.070  -5.993  0.00  0.00     0.003 A 
ATOM      7  C6  UNL d   1      -3.363  -2.702  -5.923  0.00  0.00    -0.001 A 
ENDROOT
TORSDOF 0
ENDMDL
