MODEL 1
REMARK minimizedAffinity -2.92019534
REMARK minimizedRMSD -1
REMARK  0 active torsions:
REMARK  status: ('A' for Active; 'I' for Inactive)
ROOT
ATOM      1  C   UNL d   1      -2.077   5.381  -5.991  0.00  0.00     0.078 C 
ATOM      2  C1  UNL d   1      -2.604   3.978  -5.985  0.00  0.00    -0.077 A 
ATOM      3  C2  UNL d   1      -1.735   2.880  -5.992  0.00  0.00    -0.001 A 
ATOM      4  C3  UNL d   1      -2.240   1.579  -5.996  0.00  0.00     0.003 A 
ATOM      5  C4  UNL d   1      -3.617   1.363  -5.995  0.00  0.00    -0.005 A 
ATOM      6  C5  UNL d   1      -4.490   2.449  -5.991  0.00  0.00     0.003 A 
ATOM      7  C6  UNL d   1      -3.986   3.751  -5.986  0.00  0.00    -0.001 A 
ENDROOT
TORSDOF 0
ENDMDL
