MODEL 1
REMARK minimizedAffinity 3.95312357
REMARK minimizedRMSD -1
REMARK  0 active torsions:
REMARK  status: ('A' for Active; 'I' for Inactive)
ROOT
ATOM      1  C   UNL d   1       0.648  -0.362  -3.357  0.00  0.00     0.078 C 
ATOM      2  C1  UNL d   1       0.970   0.222  -2.014  0.00  0.00    -0.077 A 
ATOM      3  C2  UNL d   1       0.559  -0.411  -0.834  0.00  0.00    -0.001 A 
ATOM      4  C3  UNL d   1       0.857   0.149   0.409  0.00  0.00     0.003 A 
ATOM      5  C4  UNL d   1       1.568   1.345   0.485  0.00  0.00    -0.005 A 
ATOM      6  C5  UNL d   1       1.979   1.984  -0.683  0.00  0.00     0.003 A 
ATOM      7  C6  UNL d   1       1.682   1.425  -1.927  0.00  0.00    -0.001 A 
ENDROOT
TORSDOF 0
ENDMDL
