MODEL 1
REMARK minimizedAffinity 0.793867469
REMARK minimizedRMSD -1
REMARK  0 active torsions:
REMARK  status: ('A' for Active; 'I' for Inactive)
ROOT
ATOM      1  C   UNL d   1      -5.214   0.077  -5.992  0.00  0.00     0.078 C 
ATOM      2  C1  UNL d   1      -4.774   1.511  -5.987  0.00  0.00    -0.077 A 
ATOM      3  C2  UNL d   1      -5.709   2.552  -5.991  0.00  0.00    -0.001 A 
ATOM      4  C3  UNL d   1      -5.285   3.882  -5.996  0.00  0.00     0.003 A 
ATOM      5  C4  UNL d   1      -3.925   4.182  -5.999  0.00  0.00    -0.005 A 
ATOM      6  C5  UNL d   1      -2.986   3.153  -5.998  0.00  0.00     0.003 A 
ATOM      7  C6  UNL d   1      -3.408   1.822  -5.993  0.00  0.00    -0.001 A 
ENDROOT
TORSDOF 0
ENDMDL
