MODEL 1
REMARK minimizedAffinity 7.60679197
REMARK minimizedRMSD -1
REMARK  0 active torsions:
REMARK  status: ('A' for Active; 'I' for Inactive)
ROOT
ATOM      1  C   UNL d   1       5.697   1.271  -0.602  0.00  0.00     0.078 C 
ATOM      2  C1  UNL d   1       4.213   1.058  -0.617  0.00  0.00    -0.077 A 
ATOM      3  C2  UNL d   1       3.328   2.143  -0.605  0.00  0.00    -0.001 A 
ATOM      4  C3  UNL d   1       1.949   1.930  -0.610  0.00  0.00     0.003 A 
ATOM      5  C4  UNL d   1       1.441   0.633  -0.626  0.00  0.00    -0.005 A 
ATOM      6  C5  UNL d   1       2.314  -0.454  -0.636  0.00  0.00     0.003 A 
ATOM      7  C6  UNL d   1       3.693  -0.243  -0.631  0.00  0.00    -0.001 A 
ENDROOT
TORSDOF 0
ENDMDL
