MODEL 1
REMARK minimizedAffinity -3.17674541
REMARK minimizedRMSD -1
REMARK  0 active torsions:
REMARK  status: ('A' for Active; 'I' for Inactive)
ROOT
ATOM      1  C   UNL d   1      -4.426  -0.418  -5.977  0.00  0.00     0.078 C 
ATOM      2  C1  UNL d   1      -4.173   1.060  -5.992  0.00  0.00    -0.077 A 
ATOM      3  C2  UNL d   1      -2.868   1.568  -5.990  0.00  0.00    -0.001 A 
ATOM      4  C3  UNL d   1      -2.648   2.947  -5.995  0.00  0.00     0.003 A 
ATOM      5  C4  UNL d   1      -3.727   3.828  -6.000  0.00  0.00    -0.005 A 
ATOM      6  C5  UNL d   1      -5.029   3.332  -5.999  0.00  0.00     0.003 A 
ATOM      7  C6  UNL d   1      -5.252   1.954  -5.995  0.00  0.00    -0.001 A 
ENDROOT
TORSDOF 0
ENDMDL
