MODEL 1
REMARK minimizedAffinity -2.60871363
REMARK minimizedRMSD -1
REMARK  0 active torsions:
REMARK  status: ('A' for Active; 'I' for Inactive)
ROOT
ATOM      1  C   UNL d   1      -4.593   0.978  -6.000  0.00  0.00     0.078 C 
ATOM      2  C1  UNL d   1      -4.439   2.469  -5.958  0.00  0.00    -0.077 A 
ATOM      3  C2  UNL d   1      -5.558   3.310  -6.000  0.00  0.00    -0.001 A 
ATOM      4  C3  UNL d   1      -5.400   4.697  -5.970  0.00  0.00     0.003 A 
ATOM      5  C4  UNL d   1      -4.124   5.254  -5.899  0.00  0.00    -0.005 A 
ATOM      6  C5  UNL d   1      -3.005   4.425  -5.860  0.00  0.00     0.003 A 
ATOM      7  C6  UNL d   1      -3.162   3.038  -5.890  0.00  0.00    -0.001 A 
ENDROOT
TORSDOF 0
ENDMDL
