MODEL 1
REMARK minimizedAffinity 5.90169954
REMARK minimizedRMSD -1
REMARK  0 active torsions:
REMARK  status: ('A' for Active; 'I' for Inactive)
ROOT
ATOM      1  C   UNL d   1      -3.942  -1.797  -2.022  0.00  0.00     0.078 C 
ATOM      2  C1  UNL d   1      -4.292  -1.924  -0.569  0.00  0.00    -0.077 A 
ATOM      3  C2  UNL d   1      -4.639  -3.163  -0.016  0.00  0.00    -0.001 A 
ATOM      4  C3  UNL d   1      -4.971  -3.264   1.336  0.00  0.00     0.003 A 
ATOM      5  C4  UNL d   1      -4.961  -2.131   2.146  0.00  0.00    -0.005 A 
ATOM      6  C5  UNL d   1      -4.620  -0.893   1.604  0.00  0.00     0.003 A 
ATOM      7  C6  UNL d   1      -4.287  -0.790   0.253  0.00  0.00    -0.001 A 
ENDROOT
TORSDOF 0
ENDMDL
