MODEL 1
REMARK minimizedAffinity 2.56873035
REMARK minimizedRMSD -1
REMARK  0 active torsions:
REMARK  status: ('A' for Active; 'I' for Inactive)
ROOT
ATOM      1  C   UNL d   1      -2.706   0.737  -5.964  0.00  0.00     0.078 C 
ATOM      2  C1  UNL d   1      -3.383   2.075  -5.967  0.00  0.00    -0.077 A 
ATOM      3  C2  UNL d   1      -4.779   2.177  -5.987  0.00  0.00    -0.001 A 
ATOM      4  C3  UNL d   1      -5.395   3.429  -6.000  0.00  0.00     0.003 A 
ATOM      5  C4  UNL d   1      -4.623   4.589  -5.994  0.00  0.00    -0.005 A 
ATOM      6  C5  UNL d   1      -3.233   4.497  -5.977  0.00  0.00     0.003 A 
ATOM      7  C6  UNL d   1      -2.615   3.246  -5.964  0.00  0.00    -0.001 A 
ENDROOT
TORSDOF 0
ENDMDL
