MODEL 1
REMARK minimizedAffinity -2.16446185
REMARK minimizedRMSD -1
REMARK  0 active torsions:
REMARK  status: ('A' for Active; 'I' for Inactive)
ROOT
ATOM      1  C   UNL d   1      -4.709  -0.652  -5.983  0.00  0.00     0.078 C 
ATOM      2  C1  UNL d   1      -4.324   0.797  -5.994  0.00  0.00    -0.077 A 
ATOM      3  C2  UNL d   1      -2.979   1.187  -6.000  0.00  0.00    -0.001 A 
ATOM      4  C3  UNL d   1      -2.635   2.539  -6.000  0.00  0.00     0.003 A 
ATOM      5  C4  UNL d   1      -3.631   3.514  -5.992  0.00  0.00    -0.005 A 
ATOM      6  C5  UNL d   1      -4.972   3.137  -5.983  0.00  0.00     0.003 A 
ATOM      7  C6  UNL d   1      -5.318   1.784  -5.984  0.00  0.00    -0.001 A 
ENDROOT
TORSDOF 0
ENDMDL
