MODEL 1
REMARK minimizedAffinity -1.82305336
REMARK minimizedRMSD -1
REMARK  0 active torsions:
REMARK  status: ('A' for Active; 'I' for Inactive)
ROOT
ATOM      1  C   UNL d   1      -5.996   2.984  -5.929  0.00  0.00     0.078 C 
ATOM      2  C1  UNL d   1      -4.741   2.164  -5.946  0.00  0.00    -0.077 A 
ATOM      3  C2  UNL d   1      -3.481   2.774  -5.974  0.00  0.00    -0.001 A 
ATOM      4  C3  UNL d   1      -2.321   1.998  -5.999  0.00  0.00     0.003 A 
ATOM      5  C4  UNL d   1      -2.410   0.607  -5.999  0.00  0.00    -0.005 A 
ATOM      6  C5  UNL d   1      -3.659  -0.009  -5.973  0.00  0.00     0.003 A 
ATOM      7  C6  UNL d   1      -4.820   0.765  -5.948  0.00  0.00    -0.001 A 
ENDROOT
TORSDOF 0
ENDMDL
