MODEL 1
REMARK minimizedAffinity -0.39806664
REMARK minimizedRMSD -1
REMARK  0 active torsions:
REMARK  status: ('A' for Active; 'I' for Inactive)
ROOT
ATOM      1  C   UNL d   1      -2.349   0.750  -5.994  0.00  0.00     0.078 C 
ATOM      2  C1  UNL d   1      -2.987   2.107  -5.988  0.00  0.00    -0.077 A 
ATOM      3  C2  UNL d   1      -4.380   2.248  -5.992  0.00  0.00    -0.001 A 
ATOM      4  C3  UNL d   1      -4.961   3.518  -5.997  0.00  0.00     0.003 A 
ATOM      5  C4  UNL d   1      -4.156   4.655  -5.999  0.00  0.00    -0.005 A 
ATOM      6  C5  UNL d   1      -2.768   4.524  -5.998  0.00  0.00     0.003 A 
ATOM      7  C6  UNL d   1      -2.186   3.256  -5.993  0.00  0.00    -0.001 A 
ENDROOT
TORSDOF 0
ENDMDL
