MODEL 1
REMARK minimizedAffinity 1.82580698
REMARK minimizedRMSD -1
REMARK  0 active torsions:
REMARK  status: ('A' for Active; 'I' for Inactive)
ROOT
ATOM      1  C   UNL d   1      -4.761  -2.164  -5.963  0.00  0.00     0.078 C 
ATOM      2  C1  UNL d   1      -4.480  -0.691  -5.969  0.00  0.00    -0.077 A 
ATOM      3  C2  UNL d   1      -5.525   0.242  -5.981  0.00  0.00    -0.001 A 
ATOM      4  C3  UNL d   1      -5.249   1.610  -5.996  0.00  0.00     0.003 A 
ATOM      5  C4  UNL d   1      -3.929   2.057  -6.000  0.00  0.00    -0.005 A 
ATOM      6  C5  UNL d   1      -2.883   1.137  -5.990  0.00  0.00     0.003 A 
ATOM      7  C6  UNL d   1      -3.157  -0.232  -5.975  0.00  0.00    -0.001 A 
ENDROOT
TORSDOF 0
ENDMDL
