MODEL 1
REMARK minimizedAffinity -0.256609291
REMARK minimizedRMSD -1
REMARK  0 active torsions:
REMARK  status: ('A' for Active; 'I' for Inactive)
ROOT
ATOM      1  C   UNL d   1      -5.894  -0.617  -5.971  0.00  0.00     0.078 C 
ATOM      2  C1  UNL d   1      -5.225  -1.959  -5.972  0.00  0.00    -0.077 A 
ATOM      3  C2  UNL d   1      -3.829  -2.069  -5.978  0.00  0.00    -0.001 A 
ATOM      4  C3  UNL d   1      -3.220  -3.325  -5.988  0.00  0.00     0.003 A 
ATOM      5  C4  UNL d   1      -3.999  -4.480  -5.994  0.00  0.00    -0.005 A 
ATOM      6  C5  UNL d   1      -5.389  -4.380  -5.991  0.00  0.00     0.003 A 
ATOM      7  C6  UNL d   1      -6.000  -3.125  -5.980  0.00  0.00    -0.001 A 
ENDROOT
TORSDOF 0
ENDMDL
