MODEL 1
REMARK minimizedAffinity -1.36921656
REMARK minimizedRMSD -1
REMARK  0 active torsions:
REMARK  status: ('A' for Active; 'I' for Inactive)
ROOT
ATOM      1  C   UNL d   1      -5.167  -1.944  -5.989  0.00  0.00     0.078 C 
ATOM      2  C1  UNL d   1      -4.286  -0.731  -5.985  0.00  0.00    -0.077 A 
ATOM      3  C2  UNL d   1      -4.834   0.558  -5.989  0.00  0.00    -0.001 A 
ATOM      4  C3  UNL d   1      -4.002   1.679  -5.995  0.00  0.00     0.003 A 
ATOM      5  C4  UNL d   1      -2.617   1.522  -5.999  0.00  0.00    -0.005 A 
ATOM      6  C5  UNL d   1      -2.063   0.244  -5.997  0.00  0.00     0.003 A 
ATOM      7  C6  UNL d   1      -2.894  -0.878  -5.991  0.00  0.00    -0.001 A 
ENDROOT
TORSDOF 0
ENDMDL
