MODEL 1
REMARK minimizedAffinity -1.04874921
REMARK minimizedRMSD -1
REMARK  1 active torsions:
REMARK  status: ('A' for Active; 'I' for Inactive)
REMARK    1  A    between atoms: C1_2  and  C2_3 
ROOT
ATOM      1  C2  UNL d   1       1.172  -1.514   0.588  0.00  0.00    -0.073 A 
ATOM      2  C3  UNL d   1      -0.118  -1.923   0.229  0.00  0.00    -0.002 A 
ATOM      3  C4  UNL d   1      -0.329  -3.190  -0.315  0.00  0.00     0.004 A 
ATOM      4  C5  UNL d   1       0.743  -4.063  -0.500  0.00  0.00    -0.004 A 
ATOM      5  C6  UNL d   1       2.037  -3.677  -0.137  0.00  0.00    -0.075 A 
ATOM      6  C7  UNL d   1       3.201  -4.604  -0.332  0.00  0.00     0.076 C 
ATOM      7  C8  UNL d   1       2.242  -2.402   0.407  0.00  0.00     0.001 A 
ENDROOT
BRANCH   1   8
ATOM      8  C1  UNL d   1       1.405  -0.149   1.182  0.00  0.00     0.053 C 
ATOM      9  C   UNL d   1       1.624  -0.212   2.685  0.00  0.00     0.018 C 
ENDBRANCH   1   8
TORSDOF 1
ENDMDL
