MODEL 1
REMARK minimizedAffinity 12.6246529
REMARK minimizedRMSD -1
REMARK  1 active torsions:
REMARK  status: ('A' for Active; 'I' for Inactive)
REMARK    1  A    between atoms: C1_2  and  C2_3 
ROOT
ATOM      1  C2  UNL d   1       3.913   2.878  -2.328  0.00  0.00    -0.073 A 
ATOM      2  C3  UNL d   1       3.008   2.920  -1.261  0.00  0.00    -0.002 A 
ATOM      3  C4  UNL d   1       3.078   3.946  -0.318  0.00  0.00     0.004 A 
ATOM      4  C5  UNL d   1       4.046   4.943  -0.435  0.00  0.00    -0.004 A 
ATOM      5  C6  UNL d   1       4.951   4.925  -1.501  0.00  0.00    -0.075 A 
ATOM      6  C7  UNL d   1       6.000   5.989  -1.641  0.00  0.00     0.076 C 
ATOM      7  C8  UNL d   1       4.877   3.890  -2.443  0.00  0.00     0.001 A 
ENDROOT
BRANCH   1   8
ATOM      8  C1  UNL d   1       3.837   1.776  -3.353  0.00  0.00     0.053 C 
ATOM      9  C   UNL d   1       2.405   1.335  -3.612  0.00  0.00     0.018 C 
ENDBRANCH   1   8
TORSDOF 1
ENDMDL
