MODEL 1
REMARK minimizedAffinity 3.80375266
REMARK minimizedRMSD -1
REMARK  1 active torsions:
REMARK  status: ('A' for Active; 'I' for Inactive)
REMARK    1  A    between atoms: C1_2  and  C2_3 
ROOT
ATOM      1  C2  UNL d   1       1.402  -2.736  -0.320  0.00  0.00    -0.073 A 
ATOM      2  C3  UNL d   1       2.210  -1.609  -0.131  0.00  0.00    -0.002 A 
ATOM      3  C4  UNL d   1       1.680  -0.447   0.430  0.00  0.00     0.004 A 
ATOM      4  C5  UNL d   1       0.340  -0.402   0.815  0.00  0.00    -0.004 A 
ATOM      5  C6  UNL d   1      -0.481  -1.522   0.645  0.00  0.00    -0.075 A 
ATOM      6  C7  UNL d   1      -1.925  -1.489   1.052  0.00  0.00     0.076 C 
ATOM      7  C8  UNL d   1       0.059  -2.684   0.078  0.00  0.00     0.001 A 
ENDROOT
BRANCH   1   8
ATOM      8  C1  UNL d   1       1.973  -3.995  -0.920  0.00  0.00     0.053 C 
ATOM      9  C   UNL d   1       3.461  -4.136  -0.642  0.00  0.00     0.018 C 
ENDBRANCH   1   8
TORSDOF 1
ENDMDL
