MODEL 1
REMARK minimizedAffinity 0.579097092
REMARK minimizedRMSD -1
REMARK  1 active torsions:
REMARK  status: ('A' for Active; 'I' for Inactive)
REMARK    1  A    between atoms: C1_2  and  C2_3 
ROOT
ATOM      1  C2  UNL d   1      -0.590  -0.651   1.115  0.00  0.00    -0.073 A 
ATOM      2  C3  UNL d   1       0.494   0.143   1.509  0.00  0.00    -0.002 A 
ATOM      3  C4  UNL d   1       1.769  -0.102   1.000  0.00  0.00     0.004 A 
ATOM      4  C5  UNL d   1       1.974  -1.138   0.088  0.00  0.00    -0.004 A 
ATOM      5  C6  UNL d   1       0.902  -1.935  -0.326  0.00  0.00    -0.075 A 
ATOM      6  C7  UNL d   1       1.106  -3.054  -1.304  0.00  0.00     0.076 C 
ATOM      7  C8  UNL d   1      -0.375  -1.684   0.191  0.00  0.00     0.001 A 
ENDROOT
BRANCH   1   8
ATOM      8  C1  UNL d   1      -1.970  -0.385   1.657  0.00  0.00     0.053 C 
ATOM      9  C   UNL d   1      -1.982   0.769   2.647  0.00  0.00     0.018 C 
ENDBRANCH   1   8
TORSDOF 1
ENDMDL
