MODEL 1
REMARK minimizedAffinity 0.521458805
REMARK minimizedRMSD -1
REMARK  1 active torsions:
REMARK  status: ('A' for Active; 'I' for Inactive)
REMARK    1  A    between atoms: C1_2  and  C2_3 
ROOT
ATOM      1  C2  UNL d   1       2.341  -3.477  -0.345  0.00  0.00    -0.073 A 
ATOM      2  C3  UNL d   1       0.986  -3.828  -0.350  0.00  0.00    -0.002 A 
ATOM      3  C4  UNL d   1       0.012  -2.880  -0.035  0.00  0.00     0.004 A 
ATOM      4  C5  UNL d   1       0.381  -1.572   0.280  0.00  0.00    -0.004 A 
ATOM      5  C6  UNL d   1       1.729  -1.199   0.278  0.00  0.00    -0.075 A 
ATOM      6  C7  UNL d   1       2.142   0.203   0.617  0.00  0.00     0.076 C 
ATOM      7  C8  UNL d   1       2.702  -2.158  -0.036  0.00  0.00     0.001 A 
ENDROOT
BRANCH   1   8
ATOM      8  C1  UNL d   1       3.397  -4.496  -0.691  0.00  0.00     0.053 C 
ATOM      9  C   UNL d   1       4.791  -4.022  -0.313  0.00  0.00     0.018 C 
ENDBRANCH   1   8
TORSDOF 1
ENDMDL
