MODEL 1
REMARK minimizedAffinity 6.14039803
REMARK minimizedRMSD -1
REMARK  1 active torsions:
REMARK  status: ('A' for Active; 'I' for Inactive)
REMARK    1  A    between atoms: C1_2  and  C2_3 
ROOT
ATOM      1  C2  UNL d   1      -1.092  -2.789   0.278  0.00  0.00    -0.073 A 
ATOM      2  C3  UNL d   1       0.146  -3.015  -0.333  0.00  0.00    -0.002 A 
ATOM      3  C4  UNL d   1       1.233  -2.187  -0.050  0.00  0.00     0.004 A 
ATOM      4  C5  UNL d   1       1.096  -1.131   0.850  0.00  0.00    -0.004 A 
ATOM      5  C6  UNL d   1      -0.131  -0.896   1.480  0.00  0.00    -0.075 A 
ATOM      6  C7  UNL d   1      -0.296   0.238   2.449  0.00  0.00     0.076 C 
ATOM      7  C8  UNL d   1      -1.219  -1.730   1.189  0.00  0.00     0.001 A 
ENDROOT
BRANCH   1   8
ATOM      8  C1  UNL d   1      -2.267  -3.684  -0.019  0.00  0.00     0.053 C 
ATOM      9  C   UNL d   1      -3.479  -3.336   0.831  0.00  0.00     0.018 C 
ENDBRANCH   1   8
TORSDOF 1
ENDMDL
