MODEL 1
REMARK minimizedAffinity -1.07714808
REMARK minimizedRMSD -1
REMARK  1 active torsions:
REMARK  status: ('A' for Active; 'I' for Inactive)
REMARK    1  A    between atoms: C1_2  and  C2_3 
ROOT
ATOM      1  C2  UNL d   1       0.206  -1.691   0.279  0.00  0.00    -0.073 A 
ATOM      2  C3  UNL d   1       1.104  -0.933   1.039  0.00  0.00    -0.002 A 
ATOM      3  C4  UNL d   1       0.663   0.195   1.733  0.00  0.00     0.004 A 
ATOM      4  C5  UNL d   1      -0.679   0.571   1.680  0.00  0.00    -0.004 A 
ATOM      5  C6  UNL d   1      -1.594  -0.181   0.935  0.00  0.00    -0.075 A 
ATOM      6  C7  UNL d   1      -3.040   0.212   0.866  0.00  0.00     0.076 C 
ATOM      7  C8  UNL d   1      -1.143  -1.310   0.239  0.00  0.00     0.001 A 
ENDROOT
BRANCH   1   8
ATOM      8  C1  UNL d   1       0.677  -2.913  -0.467  0.00  0.00     0.053 C 
ATOM      9  C   UNL d   1       2.155  -3.186  -0.238  0.00  0.00     0.018 C 
ENDBRANCH   1   8
TORSDOF 1
ENDMDL
