MODEL 1
REMARK minimizedAffinity -1.80796564
REMARK minimizedRMSD -1
REMARK  1 active torsions:
REMARK  status: ('A' for Active; 'I' for Inactive)
REMARK    1  A    between atoms: C1_2  and  C2_3 
ROOT
ATOM      1  C2  UNL d   1       0.993  -2.586  -0.233  0.00  0.00    -0.073 A 
ATOM      2  C3  UNL d   1      -0.353  -2.657   0.144  0.00  0.00    -0.002 A 
ATOM      3  C4  UNL d   1      -0.903  -1.687   0.982  0.00  0.00     0.004 A 
ATOM      4  C5  UNL d   1      -0.116  -0.633   1.446  0.00  0.00    -0.004 A 
ATOM      5  C6  UNL d   1       1.228  -0.537   1.071  0.00  0.00    -0.075 A 
ATOM      6  C7  UNL d   1       2.088   0.589   1.563  0.00  0.00     0.076 C 
ATOM      7  C8  UNL d   1       1.773  -1.517   0.231  0.00  0.00     0.001 A 
ENDROOT
BRANCH   1   8
ATOM      8  C1  UNL d   1       1.589  -3.628  -1.144  0.00  0.00     0.053 C 
ATOM      9  C   UNL d   1       2.992  -4.025  -0.713  0.00  0.00     0.018 C 
ENDBRANCH   1   8
TORSDOF 1
ENDMDL
