MODEL 1
REMARK minimizedAffinity -1.77648091
REMARK minimizedRMSD -1
REMARK  1 active torsions:
REMARK  status: ('A' for Active; 'I' for Inactive)
REMARK    1  A    between atoms: C1_2  and  C2_3 
ROOT
ATOM      1  C2  UNL d   1      -0.646  -1.246   1.078  0.00  0.00    -0.073 A 
ATOM      2  C3  UNL d   1      -0.014  -0.590   2.140  0.00  0.00    -0.002 A 
ATOM      3  C4  UNL d   1      -0.557   0.583   2.667  0.00  0.00     0.004 A 
ATOM      4  C5  UNL d   1      -1.739   1.106   2.143  0.00  0.00    -0.004 A 
ATOM      5  C6  UNL d   1      -2.392   0.458   1.090  0.00  0.00    -0.075 A 
ATOM      6  C7  UNL d   1      -3.663   1.009   0.513  0.00  0.00     0.076 C 
ATOM      7  C8  UNL d   1      -1.838  -0.718   0.564  0.00  0.00     0.001 A 
ENDROOT
BRANCH   1   8
ATOM      8  C1  UNL d   1      -0.066  -2.516   0.510  0.00  0.00     0.053 C 
ATOM      9  C   UNL d   1       1.426  -2.393   0.245  0.00  0.00     0.018 C 
ENDBRANCH   1   8
TORSDOF 1
ENDMDL
