MODEL 1
REMARK minimizedAffinity 1.43668211
REMARK minimizedRMSD -1
REMARK  1 active torsions:
REMARK  status: ('A' for Active; 'I' for Inactive)
REMARK    1  A    between atoms: C1_2  and  C2_3 
ROOT
ATOM      1  C2  UNL d   1       2.879  -1.893   0.351  0.00  0.00    -0.073 A 
ATOM      2  C3  UNL d   1       1.488  -1.839   0.492  0.00  0.00    -0.002 A 
ATOM      3  C4  UNL d   1       0.706  -2.960   0.208  0.00  0.00     0.004 A 
ATOM      4  C5  UNL d   1       1.307  -4.146  -0.212  0.00  0.00    -0.004 A 
ATOM      5  C6  UNL d   1       2.697  -4.224  -0.347  0.00  0.00    -0.075 A 
ATOM      6  C7  UNL d   1       3.358  -5.492  -0.800  0.00  0.00     0.076 C 
ATOM      7  C8  UNL d   1       3.475  -3.093  -0.063  0.00  0.00     0.001 A 
ENDROOT
BRANCH   1   8
ATOM      8  C1  UNL d   1       3.728  -0.687   0.663  0.00  0.00     0.053 C 
ATOM      9  C   UNL d   1       3.690  -0.330   2.140  0.00  0.00     0.018 C 
ENDBRANCH   1   8
TORSDOF 1
ENDMDL
