MODEL 1
REMARK minimizedAffinity -2.29828262
REMARK minimizedRMSD -1
REMARK  1 active torsions:
REMARK  status: ('A' for Active; 'I' for Inactive)
REMARK    1  A    between atoms: C1_2  and  C2_3 
ROOT
ATOM      1  C2  UNL d   1       1.590   0.452   0.009  0.00  0.00    -0.081 A 
ATOM      2  C3  UNL d   1       0.881   0.844  -1.133  0.00  0.00     0.006 A 
ATOM      3  C4  UNL d   1      -0.359   0.273  -1.427  0.00  0.00     0.002 A 
ATOM      4  C5  UNL d   1      -0.915  -0.693  -0.582  0.00  0.00    -0.080 A 
ATOM      5  C6  UNL d   1      -2.259  -1.292  -0.870  0.00  0.00     0.076 C 
ATOM      6  C7  UNL d   1      -0.199  -1.098   0.550  0.00  0.00     0.002 A 
ATOM      7  C8  UNL d   1       1.042  -0.528   0.845  0.00  0.00     0.006 A 
ENDROOT
BRANCH   1   8
ATOM      8  C1  UNL d   1       2.897   1.112   0.365  0.00  0.00     0.054 C 
ATOM      9  C   UNL d   1       2.732   2.617   0.521  0.00  0.00     0.018 C 
ENDBRANCH   1   8
TORSDOF 1
ENDMDL
