MODEL 1
REMARK minimizedAffinity -3.92699552
REMARK minimizedRMSD -1
REMARK  1 active torsions:
REMARK  status: ('A' for Active; 'I' for Inactive)
REMARK    1  A    between atoms: C1_2  and  C2_3 
ROOT
ATOM      1  C2  UNL d   1       1.323   0.812  -0.087  0.00  0.00    -0.081 A 
ATOM      2  C3  UNL d   1       0.941  -0.335   0.621  0.00  0.00     0.006 A 
ATOM      3  C4  UNL d   1      -0.237  -1.010   0.292  0.00  0.00     0.002 A 
ATOM      4  C5  UNL d   1      -1.048  -0.555  -0.753  0.00  0.00    -0.080 A 
ATOM      5  C6  UNL d   1      -2.299  -1.288  -1.136  0.00  0.00     0.076 C 
ATOM      6  C7  UNL d   1      -0.675   0.600  -1.449  0.00  0.00     0.002 A 
ATOM      7  C8  UNL d   1       0.502   1.276  -1.121  0.00  0.00     0.006 A 
ENDROOT
BRANCH   1   8
ATOM      8  C1  UNL d   1       2.626   1.504   0.222  0.00  0.00     0.054 C 
ATOM      9  C   UNL d   1       2.458   2.525   1.338  0.00  0.00     0.018 C 
ENDBRANCH   1   8
TORSDOF 1
ENDMDL
