MODEL 1
REMARK minimizedAffinity -2.74235153
REMARK minimizedRMSD -1
REMARK  1 active torsions:
REMARK  status: ('A' for Active; 'I' for Inactive)
REMARK    1  A    between atoms: C1_2  and  C2_3 
ROOT
ATOM      1  C2  UNL d   1       1.478   0.833   0.082  0.00  0.00    -0.081 A 
ATOM      2  C3  UNL d   1       0.776   1.527  -0.912  0.00  0.00     0.006 A 
ATOM      3  C4  UNL d   1      -0.406   1.003  -1.440  0.00  0.00     0.002 A 
ATOM      4  C5  UNL d   1      -0.911  -0.217  -0.979  0.00  0.00    -0.080 A 
ATOM      5  C6  UNL d   1      -2.195  -0.775  -1.516  0.00  0.00     0.076 C 
ATOM      6  C7  UNL d   1      -0.201  -0.918   0.002  0.00  0.00     0.002 A 
ATOM      7  C8  UNL d   1       0.982  -0.396   0.530  0.00  0.00     0.006 A 
ENDROOT
BRANCH   1   8
ATOM      8  C1  UNL d   1       2.718   1.426   0.700  0.00  0.00     0.054 C 
ATOM      9  C   UNL d   1       2.436   2.794   1.304  0.00  0.00     0.018 C 
ENDBRANCH   1   8
TORSDOF 1
ENDMDL
