MODEL 1
REMARK minimizedAffinity -2.81897855
REMARK minimizedRMSD -1
REMARK  1 active torsions:
REMARK  status: ('A' for Active; 'I' for Inactive)
REMARK    1  A    between atoms: C1_2  and  C2_3 
ROOT
ATOM      1  C2  UNL d   1       1.285   0.527   0.046  0.00  0.00    -0.081 A 
ATOM      2  C3  UNL d   1       0.990  -0.682   0.688  0.00  0.00     0.006 A 
ATOM      3  C4  UNL d   1      -0.136  -1.423   0.320  0.00  0.00     0.002 A 
ATOM      4  C5  UNL d   1      -0.980  -0.973  -0.701  0.00  0.00    -0.080 A 
ATOM      5  C6  UNL d   1      -2.174  -1.774  -1.126  0.00  0.00     0.076 C 
ATOM      6  C7  UNL d   1      -0.695   0.244  -1.330  0.00  0.00     0.002 A 
ATOM      7  C8  UNL d   1       0.430   0.986  -0.962  0.00  0.00     0.006 A 
ENDROOT
BRANCH   1   8
ATOM      8  C1  UNL d   1       2.533   1.296   0.396  0.00  0.00     0.054 C 
ATOM      9  C   UNL d   1       2.254   2.349   1.459  0.00  0.00     0.018 C 
ENDBRANCH   1   8
TORSDOF 1
ENDMDL
