MODEL 1
REMARK minimizedAffinity -2.26792383
REMARK minimizedRMSD -1
REMARK  1 active torsions:
REMARK  status: ('A' for Active; 'I' for Inactive)
REMARK    1  A    between atoms: C1_2  and  C2_3 
ROOT
ATOM      1  C2  UNL d   1       0.902   1.288   0.252  0.00  0.00    -0.081 A 
ATOM      2  C3  UNL d   1       0.912  -0.109   0.342  0.00  0.00     0.006 A 
ATOM      3  C4  UNL d   1      -0.159  -0.858  -0.151  0.00  0.00     0.002 A 
ATOM      4  C5  UNL d   1      -1.253  -0.223  -0.749  0.00  0.00    -0.080 A 
ATOM      5  C6  UNL d   1      -2.396  -1.017  -1.309  0.00  0.00     0.076 C 
ATOM      6  C7  UNL d   1      -1.271   1.174  -0.823  0.00  0.00     0.002 A 
ATOM      7  C8  UNL d   1      -0.201   1.923  -0.330  0.00  0.00     0.006 A 
ENDROOT
BRANCH   1   8
ATOM      8  C1  UNL d   1       2.085   2.095   0.724  0.00  0.00     0.054 C 
ATOM      9  C   UNL d   1       1.883   2.591   2.149  0.00  0.00     0.018 C 
ENDBRANCH   1   8
TORSDOF 1
ENDMDL
