MODEL 1
REMARK minimizedAffinity -4.26630831
REMARK minimizedRMSD -1
REMARK  1 active torsions:
REMARK  status: ('A' for Active; 'I' for Inactive)
REMARK    1  A    between atoms: C1_2  and  C2_3 
ROOT
ATOM      1  C2  UNL d   1       1.025  -0.108   0.299  0.00  0.00    -0.081 A 
ATOM      2  C3  UNL d   1       0.603  -1.163   1.116  0.00  0.00     0.006 A 
ATOM      3  C4  UNL d   1      -0.680  -1.698   0.977  0.00  0.00     0.002 A 
ATOM      4  C5  UNL d   1      -1.559  -1.192   0.013  0.00  0.00    -0.080 A 
ATOM      5  C6  UNL d   1      -2.928  -1.777  -0.167  0.00  0.00     0.076 C 
ATOM      6  C7  UNL d   1      -1.143  -0.126  -0.792  0.00  0.00     0.002 A 
ATOM      7  C8  UNL d   1       0.139   0.410  -0.652  0.00  0.00     0.006 A 
ENDROOT
BRANCH   1   8
ATOM      8  C1  UNL d   1       2.430   0.428   0.403  0.00  0.00     0.054 C 
ATOM      9  C   UNL d   1       2.465   1.746   1.162  0.00  0.00     0.018 C 
ENDBRANCH   1   8
TORSDOF 1
ENDMDL
