MODEL 1
REMARK minimizedAffinity -1.38031888
REMARK minimizedRMSD -1
REMARK  1 active torsions:
REMARK  status: ('A' for Active; 'I' for Inactive)
REMARK    1  A    between atoms: C1_2  and  C2_3 
ROOT
ATOM      1  C2  UNL d   1       1.194   0.986   0.199  0.00  0.00    -0.081 A 
ATOM      2  C3  UNL d   1       0.992  -0.360   0.526  0.00  0.00     0.006 A 
ATOM      3  C4  UNL d   1      -0.046  -1.084  -0.066  0.00  0.00     0.002 A 
ATOM      4  C5  UNL d   1      -0.893  -0.477  -0.999  0.00  0.00    -0.080 A 
ATOM      5  C6  UNL d   1      -1.992  -1.252  -1.664  0.00  0.00     0.076 C 
ATOM      6  C7  UNL d   1      -0.702   0.873  -1.313  0.00  0.00     0.002 A 
ATOM      7  C8  UNL d   1       0.335   1.598  -0.721  0.00  0.00     0.006 A 
ENDROOT
BRANCH   1   8
ATOM      8  C1  UNL d   1       2.352   1.752   0.786  0.00  0.00     0.054 C 
ATOM      9  C   UNL d   1       1.927   3.145   1.229  0.00  0.00     0.018 C 
ENDBRANCH   1   8
TORSDOF 1
ENDMDL
