MODEL 1
REMARK minimizedAffinity -0.871455908
REMARK minimizedRMSD -1
REMARK  1 active torsions:
REMARK  status: ('A' for Active; 'I' for Inactive)
REMARK    1  A    between atoms: C1_2  and  C2_3 
ROOT
ATOM      1  C2  UNL d   1      -2.169   0.665  -2.100  0.00  0.00    -0.081 A 
ATOM      2  C3  UNL d   1      -3.181   0.662  -1.132  0.00  0.00     0.006 A 
ATOM      3  C4  UNL d   1      -3.187  -0.297  -0.117  0.00  0.00     0.002 A 
ATOM      4  C5  UNL d   1      -2.178  -1.264  -0.048  0.00  0.00    -0.080 A 
ATOM      5  C6  UNL d   1      -2.156  -2.281   1.054  0.00  0.00     0.076 C 
ATOM      6  C7  UNL d   1      -1.177  -1.272  -1.025  0.00  0.00     0.002 A 
ATOM      7  C8  UNL d   1      -1.171  -0.313  -2.041  0.00  0.00     0.006 A 
ENDROOT
BRANCH   1   8
ATOM      8  C1  UNL d   1      -2.124   1.738  -3.158  0.00  0.00     0.054 C 
ATOM      9  C   UNL d   1      -0.700   1.984  -3.636  0.00  0.00     0.018 C 
ENDBRANCH   1   8
TORSDOF 1
ENDMDL
