MODEL 1
REMARK minimizedAffinity -1.19438457
REMARK minimizedRMSD -1
REMARK  1 active torsions:
REMARK  status: ('A' for Active; 'I' for Inactive)
REMARK    1  A    between atoms: C1_2  and  C2_3 
ROOT
ATOM      1  C2  UNL d   1       1.158   0.834  -0.017  0.00  0.00    -0.081 A 
ATOM      2  C3  UNL d   1       0.351   1.102  -1.130  0.00  0.00     0.006 A 
ATOM      3  C4  UNL d   1      -0.860   0.429  -1.304  0.00  0.00     0.002 A 
ATOM      4  C5  UNL d   1      -1.289  -0.516  -0.365  0.00  0.00    -0.080 A 
ATOM      5  C6  UNL d   1      -2.602  -1.223  -0.524  0.00  0.00     0.076 C 
ATOM      6  C7  UNL d   1      -0.474  -0.796   0.737  0.00  0.00     0.002 A 
ATOM      7  C8  UNL d   1       0.738  -0.124   0.911  0.00  0.00     0.006 A 
ENDROOT
BRANCH   1   8
ATOM      8  C1  UNL d   1       2.435   1.605   0.207  0.00  0.00     0.054 C 
ATOM      9  C   UNL d   1       2.453   2.257   1.582  0.00  0.00     0.018 C 
ENDBRANCH   1   8
TORSDOF 1
ENDMDL
