MODEL 1
REMARK minimizedAffinity 3.23225594
REMARK minimizedRMSD -1
REMARK  2 active torsions:
REMARK  status: ('A' for Active; 'I' for Inactive)
REMARK    1  A    between atoms: C2'_3  and  C1'_4 
REMARK    2  A    between atoms: C1'_4  and  C1_5 
ROOT
ATOM      1  C1  I4B d   1       5.030  -4.286   3.359  0.00  0.00    -0.075 A 
ATOM      2  C2  I4B d   1       4.700  -5.158   4.365  0.00  0.00     0.003 A 
ATOM      3  C3  I4B d   1       5.006  -4.843   5.711  0.00  0.00     0.002 A 
ATOM      4  C4  I4B d   1       5.684  -3.675   5.998  0.00  0.00    -0.004 A 
ATOM      5  C5  I4B d   1       5.998  -2.781   4.979  0.00  0.00     0.002 A 
ATOM      6  C6  I4B d   1       5.658  -3.082   3.652  0.00  0.00     0.003 A 
ENDROOT
BRANCH   1   7
ATOM      7  C1' I4B d   1       4.721  -4.666   1.945  0.00  0.00     0.060 C 
BRANCH   7   8
ATOM      8  C2' I4B d   1       3.316  -4.193   1.632  0.00  0.00    -0.013 C 
ATOM      9  C4' I4B d   1       2.941  -3.001   2.472  0.00  0.00     0.013 C 
ATOM     10  C3' I4B d   1       3.253  -3.866   0.169  0.00  0.00     0.013 C 
ENDBRANCH   7   8
ENDBRANCH   1   7
TORSDOF 2
ENDMDL
