MODEL 1
REMARK minimizedAffinity -2.02377558
REMARK minimizedRMSD -1
REMARK  2 active torsions:
REMARK  status: ('A' for Active; 'I' for Inactive)
REMARK    1  A    between atoms: C2'_3  and  C1'_4 
REMARK    2  A    between atoms: C1'_4  and  C1_5 
ROOT
ATOM      1  C1  I4B d   1      -3.724  -0.830  -3.642  0.00  0.00    -0.075 A 
ATOM      2  C2  I4B d   1      -5.032  -0.665  -4.023  0.00  0.00     0.003 A 
ATOM      3  C3  I4B d   1      -5.344   0.004  -5.231  0.00  0.00     0.002 A 
ATOM      4  C4  I4B d   1      -4.326   0.534  -5.997  0.00  0.00    -0.004 A 
ATOM      5  C5  I4B d   1      -2.999   0.346  -5.621  0.00  0.00     0.002 A 
ATOM      6  C6  I4B d   1      -2.695  -0.351  -4.443  0.00  0.00     0.003 A 
ENDROOT
BRANCH   1   7
ATOM      7  C1' I4B d   1      -3.432  -1.514  -2.344  0.00  0.00     0.060 C 
BRANCH   7   8
ATOM      8  C2' I4B d   1      -2.660  -0.546  -1.470  0.00  0.00    -0.013 C 
ATOM      9  C4' I4B d   1      -3.245   0.840  -1.544  0.00  0.00     0.013 C 
ATOM     10  C3' I4B d   1      -2.684  -1.070  -0.066  0.00  0.00     0.013 C 
ENDBRANCH   7   8
ENDBRANCH   1   7
TORSDOF 2
ENDMDL
