MODEL 1
REMARK minimizedAffinity 12.0702829
REMARK minimizedRMSD -1
REMARK  2 active torsions:
REMARK  status: ('A' for Active; 'I' for Inactive)
REMARK    1  A    between atoms: C2'_3  and  C1'_4 
REMARK    2  A    between atoms: C1'_4  and  C1_5 
ROOT
ATOM      1  C1  I4B d   1       4.605  -2.081   0.409  0.00  0.00    -0.075 A 
ATOM      2  C2  I4B d   1       3.347  -2.629   0.455  0.00  0.00     0.003 A 
ATOM      3  C3  I4B d   1       2.211  -1.830   0.177  0.00  0.00     0.002 A 
ATOM      4  C4  I4B d   1       2.375  -0.486  -0.090  0.00  0.00    -0.004 A 
ATOM      5  C5  I4B d   1       3.652   0.062  -0.159  0.00  0.00     0.002 A 
ATOM      6  C6  I4B d   1       4.775  -0.743   0.080  0.00  0.00     0.003 A 
ENDROOT
BRANCH   1   7
ATOM      7  C1' I4B d   1       5.780  -2.946   0.740  0.00  0.00     0.060 C 
BRANCH   7   8
ATOM      8  C2' I4B d   1       5.255  -4.286   1.213  0.00  0.00    -0.013 C 
ATOM      9  C4' I4B d   1       5.999  -5.423   0.564  0.00  0.00     0.013 C 
ATOM     10  C3' I4B d   1       5.387  -4.334   2.706  0.00  0.00     0.013 C 
ENDBRANCH   7   8
ENDBRANCH   1   7
TORSDOF 2
ENDMDL
