MODEL 1
REMARK minimizedAffinity 1.99101746
REMARK minimizedRMSD -1
REMARK  2 active torsions:
REMARK  status: ('A' for Active; 'I' for Inactive)
REMARK    1  A    between atoms: C2'_3  and  C1'_4 
REMARK    2  A    between atoms: C1'_4  and  C1_5 
ROOT
ATOM      1  C1  I4B d   1      -3.282  -0.788  -4.170  0.00  0.00    -0.075 A 
ATOM      2  C2  I4B d   1      -4.470  -1.472  -4.222  0.00  0.00     0.003 A 
ATOM      3  C3  I4B d   1      -4.979  -2.107  -3.063  0.00  0.00     0.002 A 
ATOM      4  C4  I4B d   1      -4.246  -2.075  -1.894  0.00  0.00    -0.004 A 
ATOM      5  C5  I4B d   1      -3.053  -1.361  -1.837  0.00  0.00     0.002 A 
ATOM      6  C6  I4B d   1      -2.573  -0.703  -2.979  0.00  0.00     0.003 A 
ENDROOT
BRANCH   1   7
ATOM      7  C1' I4B d   1      -2.758  -0.157  -5.421  0.00  0.00     0.060 C 
BRANCH   7   8
ATOM      8  C2' I4B d   1      -3.618   1.051  -5.731  0.00  0.00    -0.013 C 
ATOM      9  C4' I4B d   1      -5.047   0.651  -5.991  0.00  0.00     0.013 C 
ATOM     10  C3' I4B d   1      -3.523   1.996  -4.570  0.00  0.00     0.013 C 
ENDBRANCH   7   8
ENDBRANCH   1   7
TORSDOF 2
ENDMDL
