MODEL 1
REMARK minimizedAffinity 11.9169779
REMARK minimizedRMSD -1
REMARK  2 active torsions:
REMARK  status: ('A' for Active; 'I' for Inactive)
REMARK    1  A    between atoms: C2'_3  and  C1'_4 
REMARK    2  A    between atoms: C1'_4  and  C1_5 
ROOT
ATOM      1  C1  I4B d   1      -4.005   1.148  -3.983  0.00  0.00    -0.075 A 
ATOM      2  C2  I4B d   1      -3.671   2.128  -4.884  0.00  0.00     0.003 A 
ATOM      3  C3  I4B d   1      -3.009   3.301  -4.447  0.00  0.00     0.002 A 
ATOM      4  C4  I4B d   1      -2.749   3.474  -3.103  0.00  0.00    -0.004 A 
ATOM      5  C5  I4B d   1      -3.068   2.469  -2.194  0.00  0.00     0.002 A 
ATOM      6  C6  I4B d   1      -3.689   1.292  -2.639  0.00  0.00     0.003 A 
ENDROOT
BRANCH   1   7
ATOM      7  C1' I4B d   1      -4.733  -0.064  -4.474  0.00  0.00     0.060 C 
BRANCH   7   8
ATOM      8  C2' I4B d   1      -3.784  -1.243  -4.392  0.00  0.00    -0.013 C 
ATOM      9  C4' I4B d   1      -2.675  -1.123  -5.403  0.00  0.00     0.013 C 
ATOM     10  C3' I4B d   1      -3.240  -1.302  -2.996  0.00  0.00     0.013 C 
ENDBRANCH   7   8
ENDBRANCH   1   7
TORSDOF 2
ENDMDL
