MODEL 1
REMARK minimizedAffinity -4.42604256
REMARK minimizedRMSD -1
REMARK  2 active torsions:
REMARK  status: ('A' for Active; 'I' for Inactive)
REMARK    1  A    between atoms: C2'_3  and  C1'_4 
REMARK    2  A    between atoms: C1'_4  and  C1_5 
ROOT
ATOM      1  C1  I4B d   1       3.874  -2.953   2.558  0.00  0.00    -0.075 A 
ATOM      2  C2  I4B d   1       4.018  -2.874   1.195  0.00  0.00     0.003 A 
ATOM      3  C3  I4B d   1       3.033  -2.226   0.411  0.00  0.00     0.002 A 
ATOM      4  C4  I4B d   1       1.904  -1.719   1.021  0.00  0.00    -0.004 A 
ATOM      5  C5  I4B d   1       1.770  -1.780   2.405  0.00  0.00     0.002 A 
ATOM      6  C6  I4B d   1       2.767  -2.390   3.180  0.00  0.00     0.003 A 
ENDROOT
BRANCH   1   7
ATOM      7  C1' I4B d   1       4.917  -3.673   3.352  0.00  0.00     0.060 C 
BRANCH   7   8
ATOM      8  C2' I4B d   1       4.616  -3.457   4.822  0.00  0.00    -0.013 C 
ATOM      9  C4' I4B d   1       4.602  -4.763   5.573  0.00  0.00     0.013 C 
ATOM     10  C3' I4B d   1       5.654  -2.526   5.375  0.00  0.00     0.013 C 
ENDBRANCH   7   8
ENDBRANCH   1   7
TORSDOF 2
ENDMDL
