MODEL 1
REMARK minimizedAffinity 7.05006218
REMARK minimizedRMSD -1
REMARK  2 active torsions:
REMARK  status: ('A' for Active; 'I' for Inactive)
REMARK    1  A    between atoms: C2'_3  and  C1'_4 
REMARK    2  A    between atoms: C1'_4  and  C1_5 
ROOT
ATOM      1  C1  I4B d   1      -3.431   0.160  -4.887  0.00  0.00    -0.075 A 
ATOM      2  C2  I4B d   1      -2.540  -0.752  -5.395  0.00  0.00     0.003 A 
ATOM      3  C3  I4B d   1      -1.813  -1.599  -4.523  0.00  0.00     0.002 A 
ATOM      4  C4  I4B d   1      -1.969  -1.465  -3.159  0.00  0.00    -0.004 A 
ATOM      5  C5  I4B d   1      -2.890  -0.555  -2.647  0.00  0.00     0.002 A 
ATOM      6  C6  I4B d   1      -3.635   0.254  -3.516  0.00  0.00     0.003 A 
ENDROOT
BRANCH   1   7
ATOM      7  C1' I4B d   1      -4.158   1.061  -5.834  0.00  0.00     0.060 C 
BRANCH   7   8
ATOM      8  C2' I4B d   1      -5.628   1.038  -5.466  0.00  0.00    -0.013 C 
ATOM      9  C4' I4B d   1      -5.920  -0.041  -4.457  0.00  0.00     0.013 C 
ATOM     10  C3' I4B d   1      -5.993   2.391  -4.932  0.00  0.00     0.013 C 
ENDBRANCH   7   8
ENDBRANCH   1   7
TORSDOF 2
ENDMDL
