MODEL 1
REMARK minimizedAffinity -5.13666391
REMARK minimizedRMSD -1
REMARK  0 active torsions:
REMARK  status: ('A' for Active; 'I' for Inactive)
ROOT
ATOM      1  C   UNL d   1      -1.746   2.852   0.964  0.00  0.00     0.023 A 
ATOM      2  C1  UNL d   1      -1.834   1.577   1.523  0.00  0.00     0.003 A 
ATOM      3  C2  UNL d   1      -1.119   0.517   0.963  0.00  0.00     0.048 A 
ATOM      4  C3  UNL d   1      -0.318   0.738  -0.157  0.00  0.00     0.023 A 
ATOM      5  C4  UNL d   1      -0.227   2.012  -0.720  0.00  0.00     0.048 A 
ATOM      6  C5  UNL d   1      -0.944   3.069  -0.156  0.00  0.00     0.003 A 
ATOM      7  I   UNL d   1       0.747  -0.839  -0.993  0.00  0.00    -0.146 I 
ENDROOT
TORSDOF 0
ENDMDL
