MODEL 1
REMARK minimizedAffinity -1.921561
REMARK minimizedRMSD -1
REMARK  0 active torsions:
REMARK  status: ('A' for Active; 'I' for Inactive)
ROOT
ATOM      1  C   UNL d   1      -1.236   1.325   2.061  0.00  0.00     0.023 A 
ATOM      2  C1  UNL d   1      -1.156  -0.050   2.277  0.00  0.00     0.003 A 
ATOM      3  C2  UNL d   1      -0.514  -0.868   1.345  0.00  0.00     0.048 A 
ATOM      4  C3  UNL d   1       0.046  -0.304   0.199  0.00  0.00     0.023 A 
ATOM      5  C4  UNL d   1      -0.032   1.072  -0.021  0.00  0.00     0.048 A 
ATOM      6  C5  UNL d   1      -0.675   1.886   0.914  0.00  0.00     0.003 A 
ATOM      7  I   UNL d   1       1.002  -1.519  -1.189  0.00  0.00    -0.146 I 
ENDROOT
TORSDOF 0
ENDMDL
