MODEL 1
REMARK minimizedAffinity -4.14026213
REMARK minimizedRMSD -1
REMARK  0 active torsions:
REMARK  status: ('A' for Active; 'I' for Inactive)
ROOT
ATOM      1  C   UNL d   1      -1.393   1.870   1.682  0.00  0.00     0.023 A 
ATOM      2  C1  UNL d   1      -1.280   2.133   0.317  0.00  0.00     0.003 A 
ATOM      3  C2  UNL d   1      -0.625   1.224  -0.518  0.00  0.00     0.048 A 
ATOM      4  C3  UNL d   1      -0.088   0.055   0.019  0.00  0.00     0.023 A 
ATOM      5  C4  UNL d   1      -0.200  -0.212   1.385  0.00  0.00     0.048 A 
ATOM      6  C5  UNL d   1      -0.854   0.700   2.216  0.00  0.00     0.003 A 
ATOM      7  I   UNL d   1       0.886  -1.299  -1.221  0.00  0.00    -0.146 I 
ENDROOT
TORSDOF 0
ENDMDL
