MODEL 1
REMARK minimizedAffinity -3.63419557
REMARK minimizedRMSD -1
REMARK  0 active torsions:
REMARK  status: ('A' for Active; 'I' for Inactive)
ROOT
ATOM      1  C   UNL d   1      -1.188   2.062   1.769  0.00  0.00     0.023 A 
ATOM      2  C1  UNL d   1      -0.372   2.403   0.691  0.00  0.00     0.003 A 
ATOM      3  C2  UNL d   1       0.263   1.404  -0.050  0.00  0.00     0.048 A 
ATOM      4  C3  UNL d   1       0.076   0.065   0.293  0.00  0.00     0.023 A 
ATOM      5  C4  UNL d   1      -0.741  -0.281   1.370  0.00  0.00     0.048 A 
ATOM      6  C5  UNL d   1      -1.372   0.722   2.108  0.00  0.00     0.003 A 
ATOM      7  I   UNL d   1       1.020  -1.424  -0.808  0.00  0.00    -0.146 I 
ENDROOT
TORSDOF 0
ENDMDL
