MODEL 1
REMARK minimizedAffinity -4.56814718
REMARK minimizedRMSD -1
REMARK  0 active torsions:
REMARK  status: ('A' for Active; 'I' for Inactive)
ROOT
ATOM      1  C   UNL d   1      -2.098   2.781   1.100  0.00  0.00     0.023 A 
ATOM      2  C1  UNL d   1      -2.003   1.548   1.747  0.00  0.00     0.003 A 
ATOM      3  C2  UNL d   1      -1.155   0.559   1.245  0.00  0.00     0.048 A 
ATOM      4  C3  UNL d   1      -0.404   0.808   0.097  0.00  0.00     0.023 A 
ATOM      5  C4  UNL d   1      -0.495   2.040  -0.553  0.00  0.00     0.048 A 
ATOM      6  C5  UNL d   1      -1.345   3.026  -0.048  0.00  0.00     0.003 A 
ATOM      7  I   UNL d   1       0.859  -0.663  -0.651  0.00  0.00    -0.146 I 
ENDROOT
TORSDOF 0
ENDMDL
