MODEL 1
REMARK minimizedAffinity -4.60111237
REMARK minimizedRMSD -1
REMARK  0 active torsions:
REMARK  status: ('A' for Active; 'I' for Inactive)
ROOT
ATOM      1  C   UNL d   1      -1.865   3.268   0.938  0.00  0.00     0.023 A 
ATOM      2  C1  UNL d   1      -1.218   3.346  -0.295  0.00  0.00     0.003 A 
ATOM      3  C2  UNL d   1      -0.493   2.253  -0.775  0.00  0.00     0.048 A 
ATOM      4  C3  UNL d   1      -0.421   1.085  -0.018  0.00  0.00     0.023 A 
ATOM      5  C4  UNL d   1      -1.069   1.001   1.216  0.00  0.00     0.048 A 
ATOM      6  C5  UNL d   1      -1.791   2.097   1.692  0.00  0.00     0.003 A 
ATOM      7  I   UNL d   1       0.656  -0.543  -0.731  0.00  0.00    -0.146 I 
ENDROOT
TORSDOF 0
ENDMDL
