MODEL 1
REMARK minimizedAffinity -5.36771536
REMARK minimizedRMSD -1
REMARK  0 active torsions:
REMARK  status: ('A' for Active; 'I' for Inactive)
ROOT
ATOM      1  C   UNL d   1      -1.994   2.946   0.737  0.00  0.00     0.023 A 
ATOM      2  C1  UNL d   1      -2.051   1.782   1.503  0.00  0.00     0.003 A 
ATOM      3  C2  UNL d   1      -1.204   0.711   1.213  0.00  0.00     0.048 A 
ATOM      4  C3  UNL d   1      -0.300   0.811   0.156  0.00  0.00     0.023 A 
ATOM      5  C4  UNL d   1      -0.239   1.974  -0.614  0.00  0.00     0.048 A 
ATOM      6  C5  UNL d   1      -1.089   3.042  -0.320  0.00  0.00     0.003 A 
ATOM      7  I   UNL d   1       0.962  -0.781  -0.278  0.00  0.00    -0.146 I 
ENDROOT
TORSDOF 0
ENDMDL
