MODEL 1
REMARK minimizedAffinity -4.61911535
REMARK minimizedRMSD -1
REMARK  0 active torsions:
REMARK  status: ('A' for Active; 'I' for Inactive)
ROOT
ATOM      1  C   UNL d   1      -1.793   3.000   0.985  0.00  0.00     0.023 A 
ATOM      2  C1  UNL d   1      -1.934   1.713   1.505  0.00  0.00     0.003 A 
ATOM      3  C2  UNL d   1      -1.173   0.663   0.987  0.00  0.00     0.048 A 
ATOM      4  C3  UNL d   1      -0.272   0.907  -0.049  0.00  0.00     0.023 A 
ATOM      5  C4  UNL d   1      -0.128   2.194  -0.571  0.00  0.00     0.048 A 
ATOM      6  C5  UNL d   1      -0.892   3.240  -0.051  0.00  0.00     0.003 A 
ATOM      7  I   UNL d   1       0.862  -0.654  -0.821  0.00  0.00    -0.146 I 
ENDROOT
TORSDOF 0
ENDMDL
