MODEL 1
REMARK minimizedAffinity -5.18495941
REMARK minimizedRMSD -1
REMARK  0 active torsions:
REMARK  status: ('A' for Active; 'I' for Inactive)
ROOT
ATOM      1  C   UNL d   1      -0.921   3.446   1.043  0.00  0.00     0.023 A 
ATOM      2  C1  UNL d   1      -0.041   3.482  -0.039  0.00  0.00     0.003 A 
ATOM      3  C2  UNL d   1       0.455   2.293  -0.577  0.00  0.00     0.048 A 
ATOM      4  C3  UNL d   1       0.067   1.071  -0.029  0.00  0.00     0.023 A 
ATOM      5  C4  UNL d   1      -0.814   1.030   1.053  0.00  0.00     0.048 A 
ATOM      6  C5  UNL d   1      -1.306   2.221   1.588  0.00  0.00     0.003 A 
ATOM      7  I   UNL d   1       0.804  -0.700  -0.829  0.00  0.00    -0.146 I 
ENDROOT
TORSDOF 0
ENDMDL
