MODEL 1
REMARK minimizedAffinity -4.01947784
REMARK minimizedRMSD -1
REMARK  0 active torsions:
REMARK  status: ('A' for Active; 'I' for Inactive)
ROOT
ATOM      1  C   UNL d   1      -1.491   0.543   1.487  0.00  0.00     0.023 A 
ATOM      2  C1  UNL d   1      -0.723   0.205   0.373  0.00  0.00     0.003 A 
ATOM      3  C2  UNL d   1      -0.356   1.189  -0.548  0.00  0.00     0.048 A 
ATOM      4  C3  UNL d   1      -0.759   2.508  -0.348  0.00  0.00     0.023 A 
ATOM      5  C4  UNL d   1      -1.527   2.852   0.766  0.00  0.00     0.048 A 
ATOM      6  C5  UNL d   1      -1.893   1.865   1.684  0.00  0.00     0.003 A 
ATOM      7  I   UNL d   1      -0.214   3.974  -1.717  0.00  0.00    -0.146 I 
ENDROOT
TORSDOF 0
ENDMDL
