MODEL 1
REMARK minimizedAffinity -3.8136127
REMARK minimizedRMSD -1
REMARK  0 active torsions:
REMARK  status: ('A' for Active; 'I' for Inactive)
ROOT
ATOM      1  C   UNL d   1      -1.652   1.564   1.653  0.00  0.00     0.023 A 
ATOM      2  C1  UNL d   1      -1.336   0.338   2.239  0.00  0.00     0.003 A 
ATOM      3  C2  UNL d   1      -0.736  -0.667   1.477  0.00  0.00     0.048 A 
ATOM      4  C3  UNL d   1      -0.454  -0.439   0.131  0.00  0.00     0.023 A 
ATOM      5  C4  UNL d   1      -0.767   0.786  -0.460  0.00  0.00     0.048 A 
ATOM      6  C5  UNL d   1      -1.368   1.788   0.305  0.00  0.00     0.003 A 
ATOM      7  I   UNL d   1       0.440  -1.934  -1.004  0.00  0.00    -0.146 I 
ENDROOT
TORSDOF 0
ENDMDL
