MODEL 1
REMARK minimizedAffinity -4.04873228
REMARK minimizedRMSD -1
REMARK  0 active torsions:
REMARK  status: ('A' for Active; 'I' for Inactive)
ROOT
ATOM      1  C   UNL d   1      -1.383   3.162   0.959  0.00  0.00     0.023 A 
ATOM      2  C1  UNL d   1      -0.490   3.235  -0.111  0.00  0.00     0.003 A 
ATOM      3  C2  UNL d   1       0.166   2.085  -0.555  0.00  0.00     0.048 A 
ATOM      4  C3  UNL d   1      -0.076   0.865   0.075  0.00  0.00     0.023 A 
ATOM      5  C4  UNL d   1      -0.969   0.786   1.145  0.00  0.00     0.048 A 
ATOM      6  C5  UNL d   1      -1.622   1.939   1.586  0.00  0.00     0.003 A 
ATOM      7  I   UNL d   1       0.899  -0.848  -0.584  0.00  0.00    -0.146 I 
ENDROOT
TORSDOF 0
ENDMDL
