MODEL 1
REMARK minimizedAffinity -5.1717782
REMARK minimizedRMSD -1
REMARK  1 active torsions:
REMARK  status: ('A' for Active; 'I' for Inactive)
REMARK    1  A    between atoms: C1_2  and  C2_3 
ROOT
ATOM      1  C2  UNL d   1       0.420   0.098  -0.625  0.00  0.00    -0.073 A 
ATOM      2  C3  UNL d   1       0.194  -1.240  -0.968  0.00  0.00    -0.002 A 
ATOM      3  C4  UNL d   1       1.180  -2.202  -0.741  0.00  0.00     0.004 A 
ATOM      4  C5  UNL d   1       2.396  -1.837  -0.163  0.00  0.00    -0.004 A 
ATOM      5  C6  UNL d   1       2.635  -0.507   0.197  0.00  0.00    -0.075 A 
ATOM      6  C7  UNL d   1       3.939  -0.099   0.818  0.00  0.00     0.076 C 
ATOM      7  C8  UNL d   1       1.642   0.453  -0.036  0.00  0.00     0.001 A 
ENDROOT
BRANCH   1   8
ATOM      8  C1  UNL d   1      -0.644   1.138  -0.863  0.00  0.00     0.053 C 
ATOM      9  C   UNL d   1      -1.953   0.782  -0.176  0.00  0.00     0.018 C 
ENDBRANCH   1   8
TORSDOF 1
ENDMDL
