MODEL 1
REMARK minimizedAffinity -6.12046623
REMARK minimizedRMSD -1
REMARK  1 active torsions:
REMARK  status: ('A' for Active; 'I' for Inactive)
REMARK    1  A    between atoms: C1_2  and  C2_3 
ROOT
ATOM      1  C2  UNL d   1       1.019   0.221   0.418  0.00  0.00    -0.073 A 
ATOM      2  C3  UNL d   1       1.481  -0.823   1.228  0.00  0.00    -0.002 A 
ATOM      3  C4  UNL d   1       2.850  -1.052   1.370  0.00  0.00     0.004 A 
ATOM      4  C5  UNL d   1       3.771  -0.237   0.711  0.00  0.00    -0.004 A 
ATOM      5  C6  UNL d   1       3.329   0.818  -0.094  0.00  0.00    -0.075 A 
ATOM      6  C7  UNL d   1       4.306   1.702  -0.813  0.00  0.00     0.076 C 
ATOM      7  C8  UNL d   1       1.952   1.040  -0.234  0.00  0.00     0.001 A 
ENDROOT
BRANCH   1   8
ATOM      8  C1  UNL d   1      -0.458   0.476   0.266  0.00  0.00     0.053 C 
ATOM      9  C   UNL d   1      -0.902   0.407  -1.186  0.00  0.00     0.018 C 
ENDBRANCH   1   8
TORSDOF 1
ENDMDL
