MODEL 1
REMARK minimizedAffinity -5.32002687
REMARK minimizedRMSD -1
REMARK  1 active torsions:
REMARK  status: ('A' for Active; 'I' for Inactive)
REMARK    1  A    between atoms: C1_2  and  C2_3 
ROOT
ATOM      1  C2  UNL d   1      -0.729  -0.332   0.154  0.00  0.00    -0.073 A 
ATOM      2  C3  UNL d   1      -0.468  -1.675  -0.143  0.00  0.00    -0.002 A 
ATOM      3  C4  UNL d   1       0.839  -2.102  -0.387  0.00  0.00     0.004 A 
ATOM      4  C5  UNL d   1       1.896  -1.194  -0.329  0.00  0.00    -0.004 A 
ATOM      5  C6  UNL d   1       1.656   0.150  -0.022  0.00  0.00    -0.075 A 
ATOM      6  C7  UNL d   1       2.783   1.139   0.042  0.00  0.00     0.076 C 
ATOM      7  C8  UNL d   1       0.342   0.571   0.218  0.00  0.00     0.001 A 
ENDROOT
BRANCH   1   8
ATOM      8  C1  UNL d   1      -2.137   0.132   0.424  0.00  0.00     0.053 C 
ATOM      9  C   UNL d   1      -2.239   0.916   1.722  0.00  0.00     0.018 C 
ENDBRANCH   1   8
TORSDOF 1
ENDMDL
