MODEL 1
REMARK minimizedAffinity -2.12746787
REMARK minimizedRMSD -1
REMARK  0 active torsions:
REMARK  status: ('A' for Active; 'I' for Inactive)
ROOT
ATOM      1  C4' PXY d   1       0.820   1.518   3.531  0.00  0.00     0.077 C 
ATOM      2  C1' PXY d   1      -1.900   0.121  -1.375  0.00  0.00     0.077 C 
ATOM      3  C1  PXY d   1      -1.193   0.499  -0.088  0.00  0.00    -0.082 A 
ATOM      4  C2  PXY d   1      -0.023  -0.048   0.200  0.00  0.00     0.003 A 
ATOM      5  C3  PXY d   1       0.615   0.258   1.375  0.00  0.00     0.003 A 
ATOM      6  C4  PXY d   1       0.075   1.174   2.238  0.00  0.00    -0.082 A 
ATOM      7  C5  PXY d   1      -1.113   1.744   1.946  0.00  0.00     0.003 A 
ATOM      8  C6  PXY d   1      -1.764   1.389   0.768  0.00  0.00     0.003 A 
ENDROOT
TORSDOF 0
ENDMDL
