MODEL 1
REMARK minimizedAffinity -2.260885
REMARK minimizedRMSD -1
REMARK  0 active torsions:
REMARK  status: ('A' for Active; 'I' for Inactive)
ROOT
ATOM      1  C4' PXY d   1      -4.362   2.710   2.222  0.00  0.00     0.077 C 
ATOM      2  C1' PXY d   1       0.853   2.452   4.702  0.00  0.00     0.077 C 
ATOM      3  C1  PXY d   1      -0.511   2.511   4.042  0.00  0.00    -0.082 A 
ATOM      4  C2  PXY d   1      -1.300   3.549   4.265  0.00  0.00     0.003 A 
ATOM      5  C3  PXY d   1      -2.549   3.604   3.702  0.00  0.00     0.003 A 
ATOM      6  C4  PXY d   1      -2.974   2.612   2.859  0.00  0.00    -0.082 A 
ATOM      7  C5  PXY d   1      -2.169   1.555   2.618  0.00  0.00     0.003 A 
ATOM      8  C6  PXY d   1      -0.922   1.498   3.232  0.00  0.00     0.003 A 
ENDROOT
TORSDOF 0
ENDMDL
