MODEL 1
REMARK minimizedAffinity -1.20101762
REMARK minimizedRMSD -1
REMARK  0 active torsions:
REMARK  status: ('A' for Active; 'I' for Inactive)
ROOT
ATOM      1  C4' PXY d   1      -1.104  -0.121   3.574  0.00  0.00     0.077 C 
ATOM      2  C1' PXY d   1       0.733   0.081  -1.903  0.00  0.00     0.077 C 
ATOM      3  C1  PXY d   1       0.239   0.028  -0.471  0.00  0.00    -0.082 A 
ATOM      4  C2  PXY d   1       1.017   0.465   0.506  0.00  0.00     0.003 A 
ATOM      5  C3  PXY d   1       0.599   0.395   1.810  0.00  0.00     0.003 A 
ATOM      6  C4  PXY d   1      -0.650  -0.078   2.113  0.00  0.00    -0.082 A 
ATOM      7  C5  PXY d   1      -1.454  -0.515   1.121  0.00  0.00     0.003 A 
ATOM      8  C6  PXY d   1      -0.995  -0.474  -0.193  0.00  0.00     0.003 A 
ENDROOT
TORSDOF 0
ENDMDL
