MODEL 1
REMARK minimizedAffinity -2.62851834
REMARK minimizedRMSD -1
REMARK  0 active torsions:
REMARK  status: ('A' for Active; 'I' for Inactive)
ROOT
ATOM      1  C4' PXY d   1      -0.354   0.448   2.950  0.00  0.00     0.077 C 
ATOM      2  C1' PXY d   1       0.253  -1.976  -2.263  0.00  0.00     0.077 C 
ATOM      3  C1  PXY d   1       0.084  -1.348  -0.893  0.00  0.00    -0.082 A 
ATOM      4  C2  PXY d   1       0.505  -0.111  -0.684  0.00  0.00     0.003 A 
ATOM      5  C3  PXY d   1       0.389   0.460   0.557  0.00  0.00     0.003 A 
ATOM      6  C4  PXY d   1      -0.212  -0.222   1.581  0.00  0.00    -0.082 A 
ATOM      7  C5  PXY d   1      -0.654  -1.481   1.372  0.00  0.00     0.003 A 
ATOM      8  C6  PXY d   1      -0.489  -2.058   0.117  0.00  0.00     0.003 A 
ENDROOT
TORSDOF 0
ENDMDL
