MODEL 1
REMARK minimizedAffinity -2.98765492
REMARK minimizedRMSD -1
REMARK  0 active torsions:
REMARK  status: ('A' for Active; 'I' for Inactive)
ROOT
ATOM      1  C4' PXY d   1      -4.286  -0.839   1.489  0.00  0.00     0.077 C 
ATOM      2  C1' PXY d   1       0.606  -0.069  -1.493  0.00  0.00     0.077 C 
ATOM      3  C1  PXY d   1      -0.680  -0.258  -0.714  0.00  0.00    -0.082 A 
ATOM      4  C2  PXY d   1      -0.744  -1.186   0.228  0.00  0.00     0.003 A 
ATOM      5  C3  PXY d   1      -1.909  -1.393   0.920  0.00  0.00     0.003 A 
ATOM      6  C4  PXY d   1      -3.005  -0.606   0.683  0.00  0.00    -0.082 A 
ATOM      7  C5  PXY d   1      -2.944   0.350  -0.268  0.00  0.00     0.003 A 
ATOM      8  C6  PXY d   1      -1.765   0.516  -0.989  0.00  0.00     0.003 A 
ENDROOT
TORSDOF 0
ENDMDL
