MODEL 1
REMARK minimizedAffinity -5.52814341
REMARK minimizedRMSD -1
REMARK  0 active torsions:
REMARK  status: ('A' for Active; 'I' for Inactive)
ROOT
ATOM      1  C4' PXY d   1      -0.726   0.029   2.619  0.00  0.00     0.077 C 
ATOM      2  C1' PXY d   1       1.099  -0.652  -2.823  0.00  0.00     0.077 C 
ATOM      3  C1  PXY d   1       0.615  -0.462  -1.399  0.00  0.00    -0.082 A 
ATOM      4  C2  PXY d   1       1.234  -1.085  -0.410  0.00  0.00     0.003 A 
ATOM      5  C3  PXY d   1       0.790  -0.949   0.881  0.00  0.00     0.003 A 
ATOM      6  C4  PXY d   1      -0.266  -0.126   1.167  0.00  0.00    -0.082 A 
ATOM      7  C5  PXY d   1      -0.896   0.522   0.164  0.00  0.00     0.003 A 
ATOM      8  C6  PXY d   1      -0.456   0.339  -1.144  0.00  0.00     0.003 A 
ENDROOT
TORSDOF 0
ENDMDL
