MODEL 1
REMARK minimizedAffinity -4.45779228
REMARK minimizedRMSD -1
REMARK  0 active torsions:
REMARK  status: ('A' for Active; 'I' for Inactive)
ROOT
ATOM      1  C4' PXY d   1       1.086   0.377   3.241  0.00  0.00     0.077 C 
ATOM      2  C1' PXY d   1      -4.141  -0.125   0.824  0.00  0.00     0.077 C 
ATOM      3  C1  PXY d   1      -2.766  -0.002   1.449  0.00  0.00    -0.082 A 
ATOM      4  C2  PXY d   1      -2.649   0.444   2.689  0.00  0.00     0.003 A 
ATOM      5  C3  PXY d   1      -1.410   0.592   3.259  0.00  0.00     0.003 A 
ATOM      6  C4  PXY d   1      -0.283   0.228   2.572  0.00  0.00    -0.082 A 
ATOM      7  C5  PXY d   1      -0.395  -0.238   1.310  0.00  0.00     0.003 A 
ATOM      8  C6  PXY d   1      -1.658  -0.341   0.735  0.00  0.00     0.003 A 
ENDROOT
TORSDOF 0
ENDMDL
