MODEL 1
REMARK minimizedAffinity -4.80886459
REMARK minimizedRMSD -1
REMARK  0 active torsions:
REMARK  status: ('A' for Active; 'I' for Inactive)
ROOT
ATOM      1  C4' PXY d   1       0.950   0.033  -2.698  0.00  0.00     0.077 C 
ATOM      2  C1' PXY d   1      -0.198  -0.746   2.913  0.00  0.00     0.077 C 
ATOM      3  C1  PXY d   1       0.091  -0.545   1.439  0.00  0.00    -0.082 A 
ATOM      4  C2  PXY d   1       1.336  -0.631   0.998  0.00  0.00     0.003 A 
ATOM      5  C3  PXY d   1       1.619  -0.421  -0.327  0.00  0.00     0.003 A 
ATOM      6  C4  PXY d   1       0.611  -0.172  -1.219  0.00  0.00    -0.082 A 
ATOM      7  C5  PXY d   1      -0.663  -0.093  -0.780  0.00  0.00     0.003 A 
ATOM      8  C6  PXY d   1      -0.924  -0.269   0.576  0.00  0.00     0.003 A 
ENDROOT
TORSDOF 0
ENDMDL
