MODEL 1
REMARK minimizedAffinity -4.83375311
REMARK minimizedRMSD -1
REMARK  0 active torsions:
REMARK  status: ('A' for Active; 'I' for Inactive)
ROOT
ATOM      1  C4' PXY d   1       0.265   0.468  -2.325  0.00  0.00     0.077 C 
ATOM      2  C1' PXY d   1      -0.798  -0.481   3.277  0.00  0.00     0.077 C 
ATOM      3  C1  PXY d   1      -0.509  -0.224   1.811  0.00  0.00    -0.082 A 
ATOM      4  C2  PXY d   1      -1.475  -0.372   0.919  0.00  0.00     0.003 A 
ATOM      5  C3  PXY d   1      -1.223  -0.175  -0.415  0.00  0.00     0.003 A 
ATOM      6  C4  PXY d   1       0.017   0.229  -0.833  0.00  0.00    -0.082 A 
ATOM      7  C5  PXY d   1       1.004   0.392   0.073  0.00  0.00     0.003 A 
ATOM      8  C6  PXY d   1       0.739   0.147   1.417  0.00  0.00     0.003 A 
ENDROOT
TORSDOF 0
ENDMDL
