MODEL 1
REMARK minimizedAffinity -4.78126812
REMARK minimizedRMSD -1
REMARK  0 active torsions:
REMARK  status: ('A' for Active; 'I' for Inactive)
ROOT
ATOM      1  C4' PXY d   1       2.775   0.981   1.578  0.00  0.00     0.077 C 
ATOM      2  C1' PXY d   1      -2.824  -0.345   1.026  0.00  0.00     0.077 C 
ATOM      3  C1  PXY d   1      -1.358   0.007   1.184  0.00  0.00    -0.082 A 
ATOM      4  C2  PXY d   1      -0.641   0.315   0.115  0.00  0.00     0.003 A 
ATOM      5  C3  PXY d   1       0.694   0.604   0.235  0.00  0.00     0.003 A 
ATOM      6  C4  PXY d   1       1.289   0.629   1.468  0.00  0.00    -0.082 A 
ATOM      7  C5  PXY d   1       0.562   0.326   2.564  0.00  0.00     0.003 A 
ATOM      8  C6  PXY d   1      -0.782  -0.005   2.416  0.00  0.00     0.003 A 
ENDROOT
TORSDOF 0
ENDMDL
