MODEL 1
REMARK minimizedAffinity -5.1032033
REMARK minimizedRMSD -1
REMARK  0 active torsions:
REMARK  status: ('A' for Active; 'I' for Inactive)
ROOT
ATOM      1  C4' PXY d   1       0.733  -0.065  -2.000  0.00  0.00     0.077 C 
ATOM      2  C1' PXY d   1      -1.341  -0.415   3.384  0.00  0.00     0.077 C 
ATOM      3  C1  PXY d   1      -0.785  -0.325   1.977  0.00  0.00    -0.082 A 
ATOM      4  C2  PXY d   1      -1.462   0.329   1.047  0.00  0.00     0.003 A 
ATOM      5  C3  PXY d   1      -0.989   0.393  -0.239  0.00  0.00     0.003 A 
ATOM      6  C4  PXY d   1       0.215  -0.173  -0.563  0.00  0.00    -0.082 A 
ATOM      7  C5  PXY d   1       0.916  -0.833   0.383  0.00  0.00     0.003 A 
ATOM      8  C6  PXY d   1       0.399  -0.921   1.672  0.00  0.00     0.003 A 
ENDROOT
TORSDOF 0
ENDMDL
