MODEL 1
REMARK minimizedAffinity -1.49457872
REMARK minimizedRMSD -1
REMARK  0 active torsions:
REMARK  status: ('A' for Active; 'I' for Inactive)
ROOT
ATOM      1  C4' PXY d   1       3.016   0.027   2.208  0.00  0.00     0.077 C 
ATOM      2  C1' PXY d   1      -2.404   0.099   0.201  0.00  0.00     0.077 C 
ATOM      3  C1  PXY d   1      -0.986   0.086   0.738  0.00  0.00    -0.082 A 
ATOM      4  C2  PXY d   1       0.032   0.019  -0.104  0.00  0.00     0.003 A 
ATOM      5  C3  PXY d   1       1.319  -0.026   0.366  0.00  0.00     0.003 A 
ATOM      6  C4  PXY d   1       1.569   0.052   1.710  0.00  0.00    -0.082 A 
ATOM      7  C5  PXY d   1       0.536   0.131   2.575  0.00  0.00     0.003 A 
ATOM      8  C6  PXY d   1      -0.765   0.134   2.080  0.00  0.00     0.003 A 
ENDROOT
TORSDOF 0
ENDMDL
