MODEL 1
REMARK minimizedAffinity -2.95501685
REMARK minimizedRMSD -1
REMARK  0 active torsions:
REMARK  status: ('A' for Active; 'I' for Inactive)
ROOT
ATOM      1  C4' PXY d   1       0.742  -0.865  -2.453  0.00  0.00     0.077 C 
ATOM      2  C1' PXY d   1       0.006   0.909   2.999  0.00  0.00     0.077 C 
ATOM      3  C1  PXY d   1       0.187   0.441   1.569  0.00  0.00    -0.082 A 
ATOM      4  C2  PXY d   1       1.384   0.062   1.150  0.00  0.00     0.003 A 
ATOM      5  C3  PXY d   1       1.571  -0.333  -0.149  0.00  0.00     0.003 A 
ATOM      6  C4  PXY d   1       0.512  -0.394  -1.014  0.00  0.00    -0.082 A 
ATOM      7  C5  PXY d   1      -0.715  -0.020  -0.592  0.00  0.00     0.003 A 
ATOM      8  C6  PXY d   1      -0.876   0.419   0.719  0.00  0.00     0.003 A 
ENDROOT
TORSDOF 0
ENDMDL
