MODEL 1
REMARK minimizedAffinity 1.02317441
REMARK minimizedRMSD -1
REMARK  0 active torsions:
REMARK  status: ('A' for Active; 'I' for Inactive)
ROOT
ATOM      1  C4' PXY d   1       1.624   0.336  -2.377  0.00  0.00     0.077 C 
ATOM      2  C1' PXY d   1      -0.456   0.452   3.015  0.00  0.00     0.077 C 
ATOM      3  C1  PXY d   1       0.079   0.415   1.597  0.00  0.00    -0.082 A 
ATOM      4  C2  PXY d   1       1.374   0.583   1.382  0.00  0.00     0.003 A 
ATOM      5  C3  PXY d   1       1.870   0.583   0.104  0.00  0.00     0.003 A 
ATOM      6  C4  PXY d   1       1.041   0.357  -0.961  0.00  0.00    -0.082 A 
ATOM      7  C5  PXY d   1      -0.280   0.174  -0.750  0.00  0.00     0.003 A 
ATOM      8  C6  PXY d   1      -0.770   0.218   0.552  0.00  0.00     0.003 A 
ENDROOT
TORSDOF 0
ENDMDL
