MODEL 1
REMARK minimizedAffinity -4.05503941
REMARK minimizedRMSD -1
REMARK  0 active torsions:
REMARK  status: ('A' for Active; 'I' for Inactive)
ROOT
ATOM      1  C4' PXY d   1       0.840  -0.347  -2.750  0.00  0.00     0.077 C 
ATOM      2  C1' PXY d   1      -0.467   0.154   2.858  0.00  0.00     0.077 C 
ATOM      3  C1  PXY d   1      -0.135   0.016   1.386  0.00  0.00    -0.082 A 
ATOM      4  C2  PXY d   1       1.124   0.099   0.988  0.00  0.00     0.003 A 
ATOM      5  C3  PXY d   1       1.439   0.009  -0.343  0.00  0.00     0.003 A 
ATOM      6  C4  PXY d   1       0.459  -0.223  -1.272  0.00  0.00    -0.082 A 
ATOM      7  C5  PXY d   1      -0.826  -0.320  -0.873  0.00  0.00     0.003 A 
ATOM      8  C6  PXY d   1      -1.129  -0.184   0.478  0.00  0.00     0.003 A 
ENDROOT
TORSDOF 0
ENDMDL
