MODEL 1
REMARK minimizedAffinity -2.79003739
REMARK minimizedRMSD -1
REMARK  0 active torsions:
REMARK  status: ('A' for Active; 'I' for Inactive)
ROOT
ATOM      1  C4' PXY d   1       0.663   1.112  -1.870  0.00  0.00     0.077 C 
ATOM      2  C1' PXY d   1      -1.362  -0.765   3.208  0.00  0.00     0.077 C 
ATOM      3  C1  PXY d   1      -0.823  -0.265   1.883  0.00  0.00    -0.082 A 
ATOM      4  C2  PXY d   1      -1.558  -0.389   0.789  0.00  0.00     0.003 A 
ATOM      5  C3  PXY d   1      -1.073   0.030  -0.423  0.00  0.00     0.003 A 
ATOM      6  C4  PXY d   1       0.155   0.629  -0.508  0.00  0.00    -0.082 A 
ATOM      7  C5  PXY d   1       0.906   0.769   0.605  0.00  0.00     0.003 A 
ATOM      8  C6  PXY d   1       0.413   0.300   1.819  0.00  0.00     0.003 A 
ENDROOT
TORSDOF 0
ENDMDL
