MODEL 1
REMARK minimizedAffinity -3.53355861
REMARK minimizedRMSD -1
REMARK  0 active torsions:
REMARK  status: ('A' for Active; 'I' for Inactive)
ROOT
ATOM      1  C4' PXY d   1      -1.295   0.015   2.328  0.00  0.00     0.077 C 
ATOM      2  C1' PXY d   1       2.104  -0.210  -2.342  0.00  0.00     0.077 C 
ATOM      3  C1  PXY d   1       1.218  -0.162  -1.113  0.00  0.00    -0.082 A 
ATOM      4  C2  PXY d   1       0.093   0.534  -1.144  0.00  0.00     0.003 A 
ATOM      5  C3  PXY d   1      -0.704   0.614  -0.032  0.00  0.00     0.003 A 
ATOM      6  C4  PXY d   1      -0.374  -0.069   1.108  0.00  0.00    -0.082 A 
ATOM      7  C5  PXY d   1       0.767  -0.791   1.144  0.00  0.00     0.003 A 
ATOM      8  C6  PXY d   1       1.583  -0.825   0.017  0.00  0.00     0.003 A 
ENDROOT
TORSDOF 0
ENDMDL
