MODEL 1
REMARK minimizedAffinity -4.52368975
REMARK minimizedRMSD -1
REMARK  0 active torsions:
REMARK  status: ('A' for Active; 'I' for Inactive)
ROOT
ATOM      1  C4' PXY d   1      -3.095   0.335   1.076  0.00  0.00     0.077 C 
ATOM      2  C1' PXY d   1       2.602   0.207   2.050  0.00  0.00     0.077 C 
ATOM      3  C1  PXY d   1       1.110   0.245   1.782  0.00  0.00    -0.082 A 
ATOM      4  C2  PXY d   1       0.267   0.369   2.794  0.00  0.00     0.003 A 
ATOM      5  C3  PXY d   1      -1.086   0.373   2.573  0.00  0.00     0.003 A 
ATOM      6  C4  PXY d   1      -1.580   0.302   1.298  0.00  0.00    -0.082 A 
ATOM      7  C5  PXY d   1      -0.726   0.186   0.259  0.00  0.00     0.003 A 
ATOM      8  C6  PXY d   1       0.643   0.142   0.508  0.00  0.00     0.003 A 
ENDROOT
TORSDOF 0
ENDMDL
