MODEL 1
REMARK minimizedAffinity -2.0219698
REMARK minimizedRMSD -1
REMARK  0 active torsions:
REMARK  status: ('A' for Active; 'I' for Inactive)
ROOT
ATOM      1  C4' PXY d   1       0.863  -0.041  -2.347  0.00  0.00     0.077 C 
ATOM      2  C1' PXY d   1      -0.704  -0.421   3.205  0.00  0.00     0.077 C 
ATOM      3  C1  PXY d   1      -0.305  -0.321   1.745  0.00  0.00    -0.082 A 
ATOM      4  C2  PXY d   1       0.900  -0.716   1.368  0.00  0.00     0.003 A 
ATOM      5  C3  PXY d   1       1.288  -0.603   0.058  0.00  0.00     0.003 A 
ATOM      6  C4  PXY d   1       0.414  -0.131  -0.885  0.00  0.00    -0.082 A 
ATOM      7  C5  PXY d   1      -0.821   0.263  -0.510  0.00  0.00     0.003 A 
ATOM      8  C6  PXY d   1      -1.181   0.179   0.832  0.00  0.00     0.003 A 
ENDROOT
TORSDOF 0
ENDMDL
