MODEL 1
REMARK minimizedAffinity -4.40226507
REMARK minimizedRMSD -1
REMARK  0 active torsions:
REMARK  status: ('A' for Active; 'I' for Inactive)
ROOT
ATOM      1  C4' PXY d   1       0.392   0.860  -1.845  0.00  0.00     0.077 C 
ATOM      2  C1' PXY d   1      -0.984  -0.766   3.529  0.00  0.00     0.077 C 
ATOM      3  C1  PXY d   1      -0.633  -0.347   2.115  0.00  0.00    -0.082 A 
ATOM      4  C2  PXY d   1       0.586   0.092   1.847  0.00  0.00     0.003 A 
ATOM      5  C3  PXY d   1       0.912   0.505   0.581  0.00  0.00     0.003 A 
ATOM      6  C4  PXY d   1      -0.004   0.417  -0.433  0.00  0.00    -0.082 A 
ATOM      7  C5  PXY d   1      -1.247  -0.040  -0.170  0.00  0.00     0.003 A 
ATOM      8  C6  PXY d   1      -1.570  -0.416   1.131  0.00  0.00     0.003 A 
ENDROOT
TORSDOF 0
ENDMDL
