MODEL 1
REMARK minimizedAffinity 5.63731384
REMARK minimizedRMSD -1
REMARK  0 active torsions:
REMARK  status: ('A' for Active; 'I' for Inactive)
ROOT
ATOM      1  C   UNL d   1      -1.499   1.536   6.000  0.00  0.00     0.023 A 
ATOM      2  C1  UNL d   1      -1.314   0.550   5.031  0.00  0.00     0.003 A 
ATOM      3  C2  UNL d   1      -1.873   0.704   3.761  0.00  0.00     0.048 A 
ATOM      4  C3  UNL d   1      -2.615   1.846   3.466  0.00  0.00     0.023 A 
ATOM      5  C4  UNL d   1      -2.803   2.836   4.432  0.00  0.00     0.048 A 
ATOM      6  C5  UNL d   1      -2.243   2.678   5.701  0.00  0.00     0.003 A 
ATOM      7  I   UNL d   1      -3.448   2.077   1.576  0.00  0.00    -0.146 I 
ENDROOT
TORSDOF 0
ENDMDL
