MODEL 1
REMARK minimizedAffinity 0.877684414
REMARK minimizedRMSD -1
REMARK  0 active torsions:
REMARK  status: ('A' for Active; 'I' for Inactive)
ROOT
ATOM      1  C   UNL d   1      -3.306   2.024   3.019  0.00  0.00     0.023 A 
ATOM      2  C1  UNL d   1      -4.475   1.691   2.336  0.00  0.00     0.003 A 
ATOM      3  C2  UNL d   1      -4.963   0.383   2.380  0.00  0.00     0.048 A 
ATOM      4  C3  UNL d   1      -4.276  -0.586   3.110  0.00  0.00     0.023 A 
ATOM      5  C4  UNL d   1      -3.106  -0.258   3.795  0.00  0.00     0.048 A 
ATOM      6  C5  UNL d   1      -2.622   1.051   3.748  0.00  0.00     0.003 A 
ATOM      7  I   UNL d   1      -5.000  -2.533   3.177  0.00  0.00    -0.146 I 
ENDROOT
TORSDOF 0
ENDMDL
