MODEL 1
REMARK minimizedAffinity 6.42182732
REMARK minimizedRMSD -1
REMARK  0 active torsions:
REMARK  status: ('A' for Active; 'I' for Inactive)
ROOT
ATOM      1  C   UNL d   1       1.182   0.339  -1.907  0.00  0.00     0.023 A 
ATOM      2  C1  UNL d   1       0.469   1.262  -2.672  0.00  0.00     0.003 A 
ATOM      3  C2  UNL d   1       0.599   2.629  -2.420  0.00  0.00     0.048 A 
ATOM      4  C3  UNL d   1       1.444   3.067  -1.401  0.00  0.00     0.023 A 
ATOM      5  C4  UNL d   1       2.161   2.147  -0.633  0.00  0.00     0.048 A 
ATOM      6  C5  UNL d   1       2.027   0.781  -0.888  0.00  0.00     0.003 A 
ATOM      7  I   UNL d   1       1.640   5.101  -1.023  0.00  0.00    -0.146 I 
ENDROOT
TORSDOF 0
ENDMDL
