MODEL 1
REMARK minimizedAffinity 3.69958234
REMARK minimizedRMSD -1
REMARK  0 active torsions:
REMARK  status: ('A' for Active; 'I' for Inactive)
ROOT
ATOM      1  C   UNL d   1       0.773  -0.858   0.701  0.00  0.00     0.023 A 
ATOM      2  C1  UNL d   1       1.023   0.394   1.263  0.00  0.00     0.003 A 
ATOM      3  C2  UNL d   1       1.075   1.528   0.450  0.00  0.00     0.048 A 
ATOM      4  C3  UNL d   1       0.875   1.403  -0.924  0.00  0.00     0.023 A 
ATOM      5  C4  UNL d   1       0.624   0.152  -1.491  0.00  0.00     0.048 A 
ATOM      6  C5  UNL d   1       0.574  -0.979  -0.674  0.00  0.00     0.003 A 
ATOM      7  I   UNL d   1       0.952   3.089  -2.137  0.00  0.00    -0.146 I 
ENDROOT
TORSDOF 0
ENDMDL
