MODEL 1
REMARK minimizedAffinity 4.56939173
REMARK minimizedRMSD -1
REMARK  0 active torsions:
REMARK  status: ('A' for Active; 'I' for Inactive)
ROOT
ATOM      1  C   UNL d   1       0.395   1.472  -1.077  0.00  0.00     0.023 A 
ATOM      2  C1  UNL d   1       0.385   2.255  -2.231  0.00  0.00     0.003 A 
ATOM      3  C2  UNL d   1       0.895   3.554  -2.199  0.00  0.00     0.048 A 
ATOM      4  C3  UNL d   1       1.413   4.065  -1.009  0.00  0.00     0.023 A 
ATOM      5  C4  UNL d   1       1.425   3.285   0.148  0.00  0.00     0.048 A 
ATOM      6  C5  UNL d   1       0.914   1.986   0.111  0.00  0.00     0.003 A 
ATOM      7  I   UNL d   1       2.173   5.999  -0.959  0.00  0.00    -0.146 I 
ENDROOT
TORSDOF 0
ENDMDL
