MODEL 1
REMARK minimizedAffinity 7.00508642
REMARK minimizedRMSD -1
REMARK  0 active torsions:
REMARK  status: ('A' for Active; 'I' for Inactive)
ROOT
ATOM      1  C   UNL d   1       0.566   1.634  -2.596  0.00  0.00     0.023 A 
ATOM      2  C1  UNL d   1       0.577   3.012  -2.385  0.00  0.00     0.003 A 
ATOM      3  C2  UNL d   1       0.796   3.522  -1.104  0.00  0.00     0.048 A 
ATOM      4  C3  UNL d   1       1.004   2.647  -0.038  0.00  0.00     0.023 A 
ATOM      5  C4  UNL d   1       0.995   1.267  -0.244  0.00  0.00     0.048 A 
ATOM      6  C5  UNL d   1       0.775   0.762  -1.527  0.00  0.00     0.003 A 
ATOM      7  I   UNL d   1       1.330   3.404   1.870  0.00  0.00    -0.146 I 
ENDROOT
TORSDOF 0
ENDMDL
