MODEL 1
REMARK minimizedAffinity 4.72762823
REMARK minimizedRMSD -1
REMARK  0 active torsions:
REMARK  status: ('A' for Active; 'I' for Inactive)
ROOT
ATOM      1  C   UNL d   1       1.054   5.121  -0.046  0.00  0.00     0.023 A 
ATOM      2  C1  UNL d   1       1.078   4.148   0.953  0.00  0.00     0.003 A 
ATOM      3  C2  UNL d   1       1.244   2.803   0.616  0.00  0.00     0.048 A 
ATOM      4  C3  UNL d   1       1.387   2.438  -0.722  0.00  0.00     0.023 A 
ATOM      5  C4  UNL d   1       1.365   3.409  -1.725  0.00  0.00     0.048 A 
ATOM      6  C5  UNL d   1       1.198   4.752  -1.384  0.00  0.00     0.003 A 
ATOM      7  I   UNL d   1       1.634   0.437  -1.227  0.00  0.00    -0.146 I 
ENDROOT
TORSDOF 0
ENDMDL
