MODEL 1
REMARK minimizedAffinity 0.0328728221
REMARK minimizedRMSD -1
REMARK  0 active torsions:
REMARK  status: ('A' for Active; 'I' for Inactive)
ROOT
ATOM      1  C   UNL d   1       1.597  -1.633  -0.991  0.00  0.00     0.023 A 
ATOM      2  C1  UNL d   1       0.815  -1.142  -2.036  0.00  0.00     0.003 A 
ATOM      3  C2  UNL d   1       0.557   0.227  -2.133  0.00  0.00     0.048 A 
ATOM      4  C3  UNL d   1       1.086   1.099  -1.182  0.00  0.00     0.023 A 
ATOM      5  C4  UNL d   1       1.869   0.612  -0.135  0.00  0.00     0.048 A 
ATOM      6  C5  UNL d   1       2.123  -0.757  -0.041  0.00  0.00     0.003 A 
ATOM      7  I   UNL d   1       0.703   3.137  -1.324  0.00  0.00    -0.146 I 
ENDROOT
TORSDOF 0
ENDMDL
