MODEL 1
REMARK minimizedAffinity 2.91696835
REMARK minimizedRMSD -1
REMARK  0 active torsions:
REMARK  status: ('A' for Active; 'I' for Inactive)
ROOT
ATOM      1  C   UNL d   1       0.395   2.759  -1.861  0.00  0.00     0.023 A 
ATOM      2  C1  UNL d   1       0.664   1.726  -2.760  0.00  0.00     0.003 A 
ATOM      3  C2  UNL d   1       1.337   0.582  -2.329  0.00  0.00     0.048 A 
ATOM      4  C3  UNL d   1       1.737   0.475  -0.997  0.00  0.00     0.023 A 
ATOM      5  C4  UNL d   1       1.470   1.505  -0.094  0.00  0.00     0.048 A 
ATOM      6  C5  UNL d   1       0.797   2.649  -0.530  0.00  0.00     0.003 A 
ATOM      7  I   UNL d   1       2.739  -1.228  -0.353  0.00  0.00    -0.146 I 
ENDROOT
TORSDOF 0
ENDMDL
