MODEL 1
REMARK minimizedAffinity 6.23925018
REMARK minimizedRMSD -1
REMARK  0 active torsions:
REMARK  status: ('A' for Active; 'I' for Inactive)
ROOT
ATOM      1  C   UNL d   1       0.406   0.768  -1.785  0.00  0.00     0.023 A 
ATOM      2  C1  UNL d   1      -0.126   1.842  -2.497  0.00  0.00     0.003 A 
ATOM      3  C2  UNL d   1       0.213   3.151  -2.147  0.00  0.00     0.048 A 
ATOM      4  C3  UNL d   1       1.087   3.377  -1.084  0.00  0.00     0.023 A 
ATOM      5  C4  UNL d   1       1.623   2.305  -0.369  0.00  0.00     0.048 A 
ATOM      6  C5  UNL d   1       1.280   0.998  -0.722  0.00  0.00     0.003 A 
ATOM      7  I   UNL d   1       1.594   5.324  -0.560  0.00  0.00    -0.146 I 
ENDROOT
TORSDOF 0
ENDMDL
