MODEL 1
REMARK minimizedAffinity 6.30512238
REMARK minimizedRMSD -1
REMARK  0 active torsions:
REMARK  status: ('A' for Active; 'I' for Inactive)
ROOT
ATOM      1  C   UNL d   1       0.713   2.459  -1.728  0.00  0.00     0.023 A 
ATOM      2  C1  UNL d   1       0.736   2.211  -0.355  0.00  0.00     0.003 A 
ATOM      3  C2  UNL d   1       1.171   0.973   0.125  0.00  0.00     0.048 A 
ATOM      4  C3  UNL d   1       1.582  -0.011  -0.774  0.00  0.00     0.023 A 
ATOM      5  C4  UNL d   1       1.560   0.233  -2.148  0.00  0.00     0.048 A 
ATOM      6  C5  UNL d   1       1.124   1.471  -2.623  0.00  0.00     0.003 A 
ATOM      7  I   UNL d   1       2.229  -1.853  -0.062  0.00  0.00    -0.146 I 
ENDROOT
TORSDOF 0
ENDMDL
