MODEL 1
REMARK minimizedAffinity 0.837683916
REMARK minimizedRMSD -1
REMARK  0 active torsions:
REMARK  status: ('A' for Active; 'I' for Inactive)
ROOT
ATOM      1  C   UNL d   1       0.691   2.024  -0.580  0.00  0.00     0.023 A 
ATOM      2  C1  UNL d   1       0.767   1.195  -1.699  0.00  0.00     0.003 A 
ATOM      3  C2  UNL d   1       0.999  -0.173  -1.542  0.00  0.00     0.048 A 
ATOM      4  C3  UNL d   1       1.151  -0.706  -0.262  0.00  0.00     0.023 A 
ATOM      5  C4  UNL d   1       1.075   0.119   0.861  0.00  0.00     0.048 A 
ATOM      6  C5  UNL d   1       0.844   1.487   0.698  0.00  0.00     0.003 A 
ATOM      7  I   UNL d   1       1.495  -2.742  -0.026  0.00  0.00    -0.146 I 
ENDROOT
TORSDOF 0
ENDMDL
