MODEL 1
REMARK minimizedAffinity 4.91682911
REMARK minimizedRMSD -1
REMARK  3 active torsions:
REMARK  status: ('A' for Active; 'I' for Inactive)
REMARK    1  A    between atoms: C3'_2  and  C2'_3 
REMARK    2  A    between atoms: C2'_3  and  C1'_4 
REMARK    3  A    between atoms: C1'_4  and  C1_5 
ROOT
ATOM      1  C1  N4B d   1       1.872  -0.757   3.364  0.00  0.00    -0.075 A 
ATOM      2  C2  N4B d   1       2.564  -0.308   4.510  0.00  0.00     0.002 A 
ATOM      3  C3  N4B d   1       3.077   0.965   4.547  0.00  0.00     0.002 A 
ATOM      4  C4  N4B d   1       2.928   1.797   3.448  0.00  0.00    -0.004 A 
ATOM      5  C5  N4B d   1       2.236   1.365   2.355  0.00  0.00     0.002 A 
ATOM      6  C6  N4B d   1       1.711   0.089   2.305  0.00  0.00     0.002 A 
ENDROOT
BRANCH   1   7
ATOM      7  C1' N4B d   1       1.367  -2.169   3.243  0.00  0.00     0.057 C 
BRANCH   7   8
ATOM      8  C2' N4B d   1       1.744  -2.945   4.502  0.00  0.00     0.009 C 
BRANCH   8   9
ATOM      9  C3' N4B d   1       1.680  -4.447   4.284  0.00  0.00     0.004 C 
ATOM     10  C4' N4B d   1       1.105  -5.180   5.459  0.00  0.00     0.003 C 
ENDBRANCH   8   9
ENDBRANCH   7   8
ENDBRANCH   1   7
TORSDOF 3
ENDMDL
