MODEL 1
REMARK minimizedAffinity -1.52859807
REMARK minimizedRMSD -1
REMARK  3 active torsions:
REMARK  status: ('A' for Active; 'I' for Inactive)
REMARK    1  A    between atoms: C3'_2  and  C2'_3 
REMARK    2  A    between atoms: C2'_3  and  C1'_4 
REMARK    3  A    between atoms: C1'_4  and  C1_5 
ROOT
ATOM      1  C1  N4B d   1       1.595  -0.035   0.133  0.00  0.00    -0.075 A 
ATOM      2  C2  N4B d   1       2.367   0.736   1.030  0.00  0.00     0.002 A 
ATOM      3  C3  N4B d   1       1.895   1.946   1.476  0.00  0.00     0.002 A 
ATOM      4  C4  N4B d   1       0.669   2.412   1.028  0.00  0.00    -0.004 A 
ATOM      5  C5  N4B d   1      -0.082   1.650   0.182  0.00  0.00     0.002 A 
ATOM      6  C6  N4B d   1       0.377   0.430  -0.272  0.00  0.00     0.002 A 
ENDROOT
BRANCH   1   7
ATOM      7  C1' N4B d   1       2.107  -1.324  -0.450  0.00  0.00     0.057 C 
BRANCH   7   8
ATOM      8  C2' N4B d   1       1.010  -2.382  -0.365  0.00  0.00     0.009 C 
BRANCH   8   9
ATOM      9  C3' N4B d   1       0.739  -2.807   1.068  0.00  0.00     0.004 C 
ATOM     10  C4' N4B d   1      -0.674  -2.544   1.494  0.00  0.00     0.003 C 
ENDBRANCH   8   9
ENDBRANCH   7   8
ENDBRANCH   1   7
TORSDOF 3
ENDMDL
