MODEL 1
REMARK minimizedAffinity -3.84966493
REMARK minimizedRMSD -1
REMARK  3 active torsions:
REMARK  status: ('A' for Active; 'I' for Inactive)
REMARK    1  A    between atoms: C3'_2  and  C2'_3 
REMARK    2  A    between atoms: C2'_3  and  C1'_4 
REMARK    3  A    between atoms: C1'_4  and  C1_5 
ROOT
ATOM      1  C1  N4B d   1      -0.381   0.159   0.088  0.00  0.00    -0.075 A 
ATOM      2  C2  N4B d   1       0.175  -0.844   0.912  0.00  0.00     0.002 A 
ATOM      3  C3  N4B d   1       1.486  -0.756   1.311  0.00  0.00     0.002 A 
ATOM      4  C4  N4B d   1       2.263   0.311   0.884  0.00  0.00    -0.004 A 
ATOM      5  C5  N4B d   1       1.711   1.289   0.108  0.00  0.00     0.002 A 
ATOM      6  C6  N4B d   1       0.393   1.215  -0.296  0.00  0.00     0.002 A 
ENDROOT
BRANCH   1   7
ATOM      7  C1' N4B d   1      -1.785   0.062  -0.444  0.00  0.00     0.057 C 
BRANCH   7   8
ATOM      8  C2' N4B d   1      -1.754  -0.591  -1.823  0.00  0.00     0.009 C 
BRANCH   8   9
ATOM      9  C3' N4B d   1      -2.910  -0.130  -2.695  0.00  0.00     0.004 C 
ATOM     10  C4' N4B d   1      -2.478   0.237  -4.084  0.00  0.00     0.003 C 
ENDBRANCH   8   9
ENDBRANCH   7   8
ENDBRANCH   1   7
TORSDOF 3
ENDMDL
