MODEL 1
REMARK minimizedAffinity -4.50048065
REMARK minimizedRMSD -1
REMARK  3 active torsions:
REMARK  status: ('A' for Active; 'I' for Inactive)
REMARK    1  A    between atoms: C3'_2  and  C2'_3 
REMARK    2  A    between atoms: C2'_3  and  C1'_4 
REMARK    3  A    between atoms: C1'_4  and  C1_5 
ROOT
ATOM      1  C1  N4B d   1       0.562   0.389   0.200  0.00  0.00    -0.075 A 
ATOM      2  C2  N4B d   1       0.995  -0.945   0.369  0.00  0.00     0.002 A 
ATOM      3  C3  N4B d   1       2.276  -1.202   0.789  0.00  0.00     0.002 A 
ATOM      4  C4  N4B d   1       3.145  -0.148   1.028  0.00  0.00    -0.004 A 
ATOM      5  C5  N4B d   1       2.711   1.138   0.886  0.00  0.00     0.002 A 
ATOM      6  C6  N4B d   1       1.425   1.412   0.468  0.00  0.00     0.002 A 
ENDROOT
BRANCH   1   7
ATOM      7  C1' N4B d   1      -0.803   0.718  -0.340  0.00  0.00     0.057 C 
BRANCH   7   8
ATOM      8  C2' N4B d   1      -1.608  -0.569  -0.486  0.00  0.00     0.009 C 
BRANCH   8   9
ATOM      9  C3' N4B d   1      -2.539  -0.525  -1.686  0.00  0.00     0.004 C 
ATOM     10  C4' N4B d   1      -2.791   0.871  -2.174  0.00  0.00     0.003 C 
ENDBRANCH   8   9
ENDBRANCH   7   8
ENDBRANCH   1   7
TORSDOF 3
ENDMDL
