MODEL 1
REMARK minimizedAffinity -3.94594598
REMARK minimizedRMSD -1
REMARK  0 active torsions:
REMARK  status: ('A' for Active; 'I' for Inactive)
ROOT
ATOM      1  C2' OXE d   1      -1.519   0.317   1.896  0.00  0.00     0.078 C 
ATOM      2  C1' OXE d   1      -0.701  -0.393  -0.694  0.00  0.00     0.078 C 
ATOM      3  C1  OXE d   1       0.079   0.683   0.021  0.00  0.00    -0.078 A 
ATOM      4  C2  OXE d   1      -0.357   1.056   1.269  0.00  0.00    -0.078 A 
ATOM      5  C3  OXE d   1       0.359   2.005   1.994  0.00  0.00     0.003 A 
ATOM      6  C4  OXE d   1       1.427   2.691   1.403  0.00  0.00    -0.002 A 
ATOM      7  C5  OXE d   1       1.862   2.354   0.117  0.00  0.00    -0.002 A 
ATOM      8  C6  OXE d   1       1.227   1.325  -0.570  0.00  0.00     0.003 A 
ENDROOT
TORSDOF 0
ENDMDL
