MODEL 1
REMARK minimizedAffinity -4.5117836
REMARK minimizedRMSD -1
REMARK  0 active torsions:
REMARK  status: ('A' for Active; 'I' for Inactive)
ROOT
ATOM      1  C2' OXE d   1       2.274   0.369  -0.740  0.00  0.00     0.078 C 
ATOM      2  C1' OXE d   1      -0.015  -1.234  -0.470  0.00  0.00     0.078 C 
ATOM      3  C1  OXE d   1       0.091  -0.007   0.400  0.00  0.00    -0.078 A 
ATOM      4  C2  OXE d   1       1.236   0.746   0.294  0.00  0.00    -0.078 A 
ATOM      5  C3  OXE d   1       1.360   1.919   1.034  0.00  0.00     0.003 A 
ATOM      6  C4  OXE d   1       0.400   2.255   1.996  0.00  0.00    -0.002 A 
ATOM      7  C5  OXE d   1      -0.754   1.481   2.148  0.00  0.00    -0.002 A 
ATOM      8  C6  OXE d   1      -0.944   0.373   1.330  0.00  0.00     0.003 A 
ENDROOT
TORSDOF 0
ENDMDL
