MODEL 1
REMARK minimizedAffinity -3.61790895
REMARK minimizedRMSD -1
REMARK  0 active torsions:
REMARK  status: ('A' for Active; 'I' for Inactive)
ROOT
ATOM      1  C2' OXE d   1       2.167   1.216  -1.606  0.00  0.00     0.078 C 
ATOM      2  C1' OXE d   1       0.553  -0.948  -0.833  0.00  0.00     0.078 C 
ATOM      3  C1  OXE d   1       0.464   0.321  -0.023  0.00  0.00    -0.078 A 
ATOM      4  C2  OXE d   1       1.291   1.359  -0.380  0.00  0.00    -0.078 A 
ATOM      5  C3  OXE d   1       1.209   2.571   0.301  0.00  0.00     0.003 A 
ATOM      6  C4  OXE d   1       0.404   2.691   1.440  0.00  0.00    -0.002 A 
ATOM      7  C5  OXE d   1      -0.417   1.633   1.844  0.00  0.00    -0.002 A 
ATOM      8  C6  OXE d   1      -0.431   0.458   1.100  0.00  0.00     0.003 A 
ENDROOT
TORSDOF 0
ENDMDL
