MODEL 1
REMARK minimizedAffinity -3.15050387
REMARK minimizedRMSD -1
REMARK  0 active torsions:
REMARK  status: ('A' for Active; 'I' for Inactive)
ROOT
ATOM      1  C2' OXE d   1      -1.111  -0.641   1.908  0.00  0.00     0.078 C 
ATOM      2  C1' OXE d   1      -0.317  -0.867  -0.775  0.00  0.00     0.078 C 
ATOM      3  C1  OXE d   1       0.118   0.360  -0.014  0.00  0.00    -0.078 A 
ATOM      4  C2  OXE d   1      -0.314   0.485   1.285  0.00  0.00    -0.078 A 
ATOM      5  C3  OXE d   1       0.103   1.571   2.049  0.00  0.00     0.003 A 
ATOM      6  C4  OXE d   1       0.831   2.613   1.461  0.00  0.00    -0.002 A 
ATOM      7  C5  OXE d   1       1.247   2.525   0.129  0.00  0.00    -0.002 A 
ATOM      8  C6  OXE d   1       0.936   1.388  -0.609  0.00  0.00     0.003 A 
ENDROOT
TORSDOF 0
ENDMDL
