MODEL 1
REMARK minimizedAffinity -0.813808262
REMARK minimizedRMSD -1
REMARK  0 active torsions:
REMARK  status: ('A' for Active; 'I' for Inactive)
ROOT
ATOM      1  C2' OXE d   1       1.592   1.058  -0.949  0.00  0.00     0.078 C 
ATOM      2  C1' OXE d   1       0.938   2.956   1.013  0.00  0.00     0.078 C 
ATOM      3  C1  OXE d   1       0.250   1.616   1.074  0.00  0.00    -0.078 A 
ATOM      4  C2  OXE d   1       0.541   0.709   0.083  0.00  0.00    -0.078 A 
ATOM      5  C3  OXE d   1      -0.024  -0.562   0.123  0.00  0.00     0.003 A 
ATOM      6  C4  OXE d   1      -1.003  -0.873   1.075  0.00  0.00    -0.002 A 
ATOM      7  C5  OXE d   1      -1.344   0.050   2.070  0.00  0.00    -0.002 A 
ATOM      8  C6  OXE d   1      -0.697   1.280   2.109  0.00  0.00     0.003 A 
ENDROOT
TORSDOF 0
ENDMDL
