MODEL 1
REMARK minimizedAffinity -4.37525463
REMARK minimizedRMSD -1
REMARK  0 active torsions:
REMARK  status: ('A' for Active; 'I' for Inactive)
ROOT
ATOM      1  C2' OXE d   1       2.045  -1.124  -0.761  0.00  0.00     0.078 C 
ATOM      2  C1' OXE d   1      -0.757  -1.053  -0.620  0.00  0.00     0.078 C 
ATOM      3  C1  OXE d   1       0.006   0.108  -0.033  0.00  0.00    -0.078 A 
ATOM      4  C2  OXE d   1       1.379   0.043  -0.065  0.00  0.00    -0.078 A 
ATOM      5  C3  OXE d   1       2.131   1.112   0.413  0.00  0.00     0.003 A 
ATOM      6  C4  OXE d   1       1.507   2.183   1.064  0.00  0.00    -0.002 A 
ATOM      7  C5  OXE d   1       0.111   2.251   1.142  0.00  0.00    -0.002 A 
ATOM      8  C6  OXE d   1      -0.653   1.244   0.562  0.00  0.00     0.003 A 
ENDROOT
TORSDOF 0
ENDMDL
