MODEL 1
REMARK minimizedAffinity -4.16984653
REMARK minimizedRMSD -1
REMARK  0 active torsions:
REMARK  status: ('A' for Active; 'I' for Inactive)
ROOT
ATOM      1  C2' OXE d   1      -1.123   1.405   2.188  0.00  0.00     0.078 C 
ATOM      2  C1' OXE d   1       0.493   3.141   0.687  0.00  0.00     0.078 C 
ATOM      3  C1  OXE d   1       0.642   1.659   0.448  0.00  0.00    -0.078 A 
ATOM      4  C2  OXE d   1      -0.119   0.815   1.221  0.00  0.00    -0.078 A 
ATOM      5  C3  OXE d   1      -0.061  -0.558   1.003  0.00  0.00     0.003 A 
ATOM      6  C4  OXE d   1       0.876  -1.096   0.113  0.00  0.00    -0.002 A 
ATOM      7  C5  OXE d   1       1.689  -0.256  -0.655  0.00  0.00    -0.002 A 
ATOM      8  C6  OXE d   1       1.555   1.123  -0.530  0.00  0.00     0.003 A 
ENDROOT
TORSDOF 0
ENDMDL
