MODEL 1
REMARK minimizedAffinity -4.64584112
REMARK minimizedRMSD -1
REMARK  0 active torsions:
REMARK  status: ('A' for Active; 'I' for Inactive)
ROOT
ATOM      1  C2' OXE d   1      -1.337  -0.598   2.027  0.00  0.00     0.078 C 
ATOM      2  C1' OXE d   1      -0.628  -1.144  -0.633  0.00  0.00     0.078 C 
ATOM      3  C1  OXE d   1      -0.062   0.099   0.004  0.00  0.00    -0.078 A 
ATOM      4  C2  OXE d   1      -0.451   0.383   1.291  0.00  0.00    -0.078 A 
ATOM      5  C3  OXE d   1       0.085   1.489   1.946  0.00  0.00     0.003 A 
ATOM      6  C4  OXE d   1       0.895   2.397   1.254  0.00  0.00    -0.002 A 
ATOM      7  C5  OXE d   1       1.272   2.148  -0.069  0.00  0.00    -0.002 A 
ATOM      8  C6  OXE d   1       0.838   0.984  -0.694  0.00  0.00     0.003 A 
ENDROOT
TORSDOF 0
ENDMDL
