MODEL 1
REMARK minimizedAffinity -4.33278847
REMARK minimizedRMSD -1
REMARK  0 active torsions:
REMARK  status: ('A' for Active; 'I' for Inactive)
ROOT
ATOM      1  C2' OXE d   1       1.705   0.635  -1.302  0.00  0.00     0.078 C 
ATOM      2  C1' OXE d   1      -0.525  -0.987  -0.776  0.00  0.00     0.078 C 
ATOM      3  C1  OXE d   1      -0.307   0.216   0.106  0.00  0.00    -0.078 A 
ATOM      4  C2  OXE d   1       0.812   0.978  -0.129  0.00  0.00    -0.078 A 
ATOM      5  C3  OXE d   1       1.032   2.130   0.620  0.00  0.00     0.003 A 
ATOM      6  C4  OXE d   1       0.207   2.435   1.710  0.00  0.00    -0.002 A 
ATOM      7  C5  OXE d   1      -0.916   1.650   1.992  0.00  0.00    -0.002 A 
ATOM      8  C6  OXE d   1      -1.211   0.564   1.175  0.00  0.00     0.003 A 
ENDROOT
TORSDOF 0
ENDMDL
