MODEL 1
REMARK minimizedAffinity -0.684497535
REMARK minimizedRMSD -1
REMARK  0 active torsions:
REMARK  status: ('A' for Active; 'I' for Inactive)
ROOT
ATOM      1  C2' OXE d   1      -0.531  -1.267  -0.834  0.00  0.00     0.078 C 
ATOM      2  C1' OXE d   1       2.002  -0.141  -0.392  0.00  0.00     0.078 C 
ATOM      3  C1  OXE d   1       0.876   0.281   0.518  0.00  0.00    -0.078 A 
ATOM      4  C2  OXE d   1      -0.370  -0.239   0.265  0.00  0.00    -0.078 A 
ATOM      5  C3  OXE d   1      -1.432   0.075   1.108  0.00  0.00     0.003 A 
ATOM      6  C4  OXE d   1      -1.278   1.034   2.117  0.00  0.00    -0.002 A 
ATOM      7  C5  OXE d   1      -0.026   1.606   2.366  0.00  0.00    -0.002 A 
ATOM      8  C6  OXE d   1       1.068   1.209   1.605  0.00  0.00     0.003 A 
ENDROOT
TORSDOF 0
ENDMDL
