MODEL 1
REMARK minimizedAffinity -3.21556973
REMARK minimizedRMSD -1
REMARK  0 active torsions:
REMARK  status: ('A' for Active; 'I' for Inactive)
ROOT
ATOM      1  C2' OXE d   1       1.368   2.057   1.147  0.00  0.00     0.078 C 
ATOM      2  C1' OXE d   1       2.774   0.538  -0.749  0.00  0.00     0.078 C 
ATOM      3  C1  OXE d   1       1.445   0.010  -0.270  0.00  0.00    -0.078 A 
ATOM      4  C2  OXE d   1       0.786   0.736   0.692  0.00  0.00    -0.078 A 
ATOM      5  C3  OXE d   1      -0.469   0.322   1.130  0.00  0.00     0.003 A 
ATOM      6  C4  OXE d   1      -0.995  -0.906   0.712  0.00  0.00    -0.002 A 
ATOM      7  C5  OXE d   1      -0.322  -1.681  -0.239  0.00  0.00    -0.002 A 
ATOM      8  C6  OXE d   1       0.877  -1.218  -0.770  0.00  0.00     0.003 A 
ENDROOT
TORSDOF 0
ENDMDL
