MODEL 1
REMARK minimizedAffinity -2.65969396
REMARK minimizedRMSD -1
REMARK  0 active torsions:
REMARK  status: ('A' for Active; 'I' for Inactive)
ROOT
ATOM      1  C2' OXE d   1      -1.716  -0.354   1.372  0.00  0.00     0.078 C 
ATOM      2  C1' OXE d   1      -0.906  -1.580  -1.020  0.00  0.00     0.078 C 
ATOM      3  C1  OXE d   1      -0.087  -0.420  -0.511  0.00  0.00    -0.078 A 
ATOM      4  C2  OXE d   1      -0.518   0.204   0.635  0.00  0.00    -0.078 A 
ATOM      5  C3  OXE d   1       0.232   1.244   1.177  0.00  0.00     0.003 A 
ATOM      6  C4  OXE d   1       1.333   1.760   0.484  0.00  0.00    -0.002 A 
ATOM      7  C5  OXE d   1       1.766   1.165  -0.705  0.00  0.00    -0.002 A 
ATOM      8  C6  OXE d   1       1.094   0.050  -1.193  0.00  0.00     0.003 A 
ENDROOT
TORSDOF 0
ENDMDL
