MODEL 1
REMARK minimizedAffinity -1.42816281
REMARK minimizedRMSD -1
REMARK  0 active torsions:
REMARK  status: ('A' for Active; 'I' for Inactive)
ROOT
ATOM      1  C2' OXE d   1      -1.580  -0.366   1.959  0.00  0.00     0.078 C 
ATOM      2  C1' OXE d   1      -0.537  -1.213  -0.505  0.00  0.00     0.078 C 
ATOM      3  C1  OXE d   1       0.031   0.044   0.104  0.00  0.00    -0.078 A 
ATOM      4  C2  OXE d   1      -0.518   0.477   1.287  0.00  0.00    -0.078 A 
ATOM      5  C3  OXE d   1       0.006   1.601   1.920  0.00  0.00     0.003 A 
ATOM      6  C4  OXE d   1       0.981   2.381   1.287  0.00  0.00    -0.002 A 
ATOM      7  C5  OXE d   1       1.526   1.980   0.062  0.00  0.00    -0.002 A 
ATOM      8  C6  OXE d   1       1.093   0.794  -0.521  0.00  0.00     0.003 A 
ENDROOT
TORSDOF 0
ENDMDL
