MODEL 1
REMARK minimizedAffinity -4.79551411
REMARK minimizedRMSD -1
REMARK  0 active torsions:
REMARK  status: ('A' for Active; 'I' for Inactive)
ROOT
ATOM      1  C2' OXE d   1      -1.115  -0.769   1.945  0.00  0.00     0.078 C 
ATOM      2  C1' OXE d   1      -0.618  -0.873  -0.815  0.00  0.00     0.078 C 
ATOM      3  C1  OXE d   1      -0.073   0.304  -0.046  0.00  0.00    -0.078 A 
ATOM      4  C2  OXE d   1      -0.361   0.371   1.296  0.00  0.00    -0.078 A 
ATOM      5  C3  OXE d   1       0.164   1.407   2.063  0.00  0.00     0.003 A 
ATOM      6  C4  OXE d   1       0.852   2.462   1.453  0.00  0.00    -0.002 A 
ATOM      7  C5  OXE d   1       1.122   2.434   0.080  0.00  0.00    -0.002 A 
ATOM      8  C6  OXE d   1       0.705   1.344  -0.674  0.00  0.00     0.003 A 
ENDROOT
TORSDOF 0
ENDMDL
