MODEL 1
REMARK minimizedAffinity -2.68274522
REMARK minimizedRMSD -1
REMARK  0 active torsions:
REMARK  status: ('A' for Active; 'I' for Inactive)
ROOT
ATOM      1  C2' OXE d   1      -1.323  -1.584  -1.210  0.00  0.00     0.078 C 
ATOM      2  C1' OXE d   1       1.391  -0.865  -1.153  0.00  0.00     0.078 C 
ATOM      3  C1  OXE d   1       0.452  -0.142  -0.221  0.00  0.00    -0.078 A 
ATOM      4  C2  OXE d   1      -0.882  -0.467  -0.288  0.00  0.00    -0.078 A 
ATOM      5  C3  OXE d   1      -1.783   0.131   0.588  0.00  0.00     0.003 A 
ATOM      6  C4  OXE d   1      -1.369   1.169   1.431  0.00  0.00    -0.002 A 
ATOM      7  C5  OXE d   1      -0.022   1.544   1.487  0.00  0.00    -0.002 A 
ATOM      8  C6  OXE d   1       0.906   0.870   0.700  0.00  0.00     0.003 A 
ENDROOT
TORSDOF 0
ENDMDL
