MODEL 1
REMARK minimizedAffinity -2.05032992
REMARK minimizedRMSD -1
REMARK  0 active torsions:
REMARK  status: ('A' for Active; 'I' for Inactive)
ROOT
ATOM      1  C2' OXE d   1      -0.911  -0.991   0.833  0.00  0.00     0.078 C 
ATOM      2  C1' OXE d   1       1.019  -0.288  -1.080  0.00  0.00     0.078 C 
ATOM      3  C1  OXE d   1      -0.334  -0.734  -1.576  0.00  0.00    -0.078 A 
ATOM      4  C2  OXE d   1      -1.256  -1.121  -0.635  0.00  0.00    -0.078 A 
ATOM      5  C3  OXE d   1      -2.538  -1.488  -1.035  0.00  0.00     0.003 A 
ATOM      6  C4  OXE d   1      -2.846  -1.615  -2.395  0.00  0.00    -0.002 A 
ATOM      7  C5  OXE d   1      -1.908  -1.264  -3.372  0.00  0.00    -0.002 A 
ATOM      8  C6  OXE d   1      -0.664  -0.782  -2.979  0.00  0.00     0.003 A 
ENDROOT
TORSDOF 0
ENDMDL
