MODEL 1
REMARK minimizedAffinity -5.22053385
REMARK minimizedRMSD -1
REMARK  0 active torsions:
REMARK  status: ('A' for Active; 'I' for Inactive)
ROOT
ATOM      1  C2' OXE d   1       1.373   2.697   1.294  0.00  0.00     0.078 C 
ATOM      2  C1' OXE d   1       2.530   1.166  -0.755  0.00  0.00     0.078 C 
ATOM      3  C1  OXE d   1       1.180   0.740  -0.234  0.00  0.00    -0.078 A 
ATOM      4  C2  OXE d   1       0.642   1.467   0.800  0.00  0.00    -0.078 A 
ATOM      5  C3  OXE d   1      -0.625   1.150   1.281  0.00  0.00     0.003 A 
ATOM      6  C4  OXE d   1      -1.289   0.005   0.826  0.00  0.00    -0.002 A 
ATOM      7  C5  OXE d   1      -0.742  -0.773  -0.200  0.00  0.00    -0.002 A 
ATOM      8  C6  OXE d   1       0.469  -0.396  -0.769  0.00  0.00     0.003 A 
ENDROOT
TORSDOF 0
ENDMDL
