MODEL 1
REMARK minimizedAffinity -3.40830898
REMARK minimizedRMSD -1
REMARK  0 active torsions:
REMARK  status: ('A' for Active; 'I' for Inactive)
ROOT
ATOM      1  C2' OXE d   1       1.384   0.409  -0.717  0.00  0.00     0.078 C 
ATOM      2  C1' OXE d   1      -0.657  -0.397   1.033  0.00  0.00     0.078 C 
ATOM      3  C1  OXE d   1      -0.814  -0.727  -0.430  0.00  0.00    -0.078 A 
ATOM      4  C2  OXE d   1       0.167  -0.288  -1.286  0.00  0.00    -0.078 A 
ATOM      5  C3  OXE d   1       0.098  -0.612  -2.638  0.00  0.00     0.003 A 
ATOM      6  C4  OXE d   1      -1.036  -1.248  -3.158  0.00  0.00    -0.002 A 
ATOM      7  C5  OXE d   1      -2.065  -1.669  -2.309  0.00  0.00    -0.002 A 
ATOM      8  C6  OXE d   1      -1.950  -1.454  -0.940  0.00  0.00     0.003 A 
ENDROOT
TORSDOF 0
ENDMDL
