MODEL 1
REMARK minimizedAffinity -4.29838991
REMARK minimizedRMSD -1
REMARK  0 active torsions:
REMARK  status: ('A' for Active; 'I' for Inactive)
ROOT
ATOM      1  C2' OXE d   1       2.221  -0.270  -1.128  0.00  0.00     0.078 C 
ATOM      2  C1' OXE d   1       0.008  -1.487   0.097  0.00  0.00     0.078 C 
ATOM      3  C1  OXE d   1       0.341  -0.070   0.493  0.00  0.00    -0.078 A 
ATOM      4  C2  OXE d   1       1.453   0.501  -0.077  0.00  0.00    -0.078 A 
ATOM      5  C3  OXE d   1       1.773   1.825   0.213  0.00  0.00     0.003 A 
ATOM      6  C4  OXE d   1       1.064   2.528   1.194  0.00  0.00    -0.002 A 
ATOM      7  C5  OXE d   1      -0.049   1.950   1.816  0.00  0.00    -0.002 A 
ATOM      8  C6  OXE d   1      -0.448   0.671   1.447  0.00  0.00     0.003 A 
ENDROOT
TORSDOF 0
ENDMDL
