MODEL 1
REMARK minimizedAffinity -4.1535964
REMARK minimizedRMSD -1
REMARK  1 active torsions:
REMARK  status: ('A' for Active; 'I' for Inactive)
REMARK    1  A    between atoms: C1_2  and  C2_3 
ROOT
ATOM      1  C2  UNL d   1       0.105  -0.553  -0.134  0.00  0.00    -0.076 A 
ATOM      2  C3  UNL d   1      -0.948  -0.840   0.753  0.00  0.00     0.004 A 
ATOM      3  C4  UNL d   1      -1.009  -2.059   1.425  0.00  0.00    -0.003 A 
ATOM      4  C5  UNL d   1      -0.017  -3.012   1.222  0.00  0.00     0.000 A 
ATOM      5  C6  UNL d   1       1.044  -2.738   0.359  0.00  0.00     0.000 A 
ATOM      6  C7  UNL d   1       1.129  -1.507  -0.314  0.00  0.00    -0.073 A 
ATOM      7  C8  UNL d   1       2.292  -1.268  -1.237  0.00  0.00     0.078 C 
ENDROOT
BRANCH   1   8
ATOM      8  C1  UNL d   1       0.103   0.775  -0.856  0.00  0.00     0.053 C 
ATOM      9  C   UNL d   1       0.646   1.906   0.005  0.00  0.00     0.018 C 
ENDBRANCH   1   8
TORSDOF 1
ENDMDL
