MODEL 1
REMARK minimizedAffinity -3.53711653
REMARK minimizedRMSD -1
REMARK  1 active torsions:
REMARK  status: ('A' for Active; 'I' for Inactive)
REMARK    1  A    between atoms: C1_2  and  C2_3 
ROOT
ATOM      1  C2  UNL d   1      -0.196  -0.172  -0.406  0.00  0.00    -0.076 A 
ATOM      2  C3  UNL d   1      -0.559  -0.405   0.932  0.00  0.00     0.004 A 
ATOM      3  C4  UNL d   1      -0.738  -1.701   1.412  0.00  0.00    -0.003 A 
ATOM      4  C5  UNL d   1      -0.556  -2.786   0.561  0.00  0.00     0.000 A 
ATOM      5  C6  UNL d   1      -0.178  -2.575  -0.764  0.00  0.00     0.000 A 
ATOM      6  C7  UNL d   1       0.022  -1.275  -1.260  0.00  0.00    -0.073 A 
ATOM      7  C8  UNL d   1       0.423  -1.105  -2.700  0.00  0.00     0.078 C 
ENDROOT
BRANCH   1   8
ATOM      8  C1  UNL d   1      -0.043   1.256  -0.878  0.00  0.00     0.053 C 
ATOM      9  C   UNL d   1       0.568   2.158   0.184  0.00  0.00     0.018 C 
ENDBRANCH   1   8
TORSDOF 1
ENDMDL
