MODEL 1
REMARK minimizedAffinity -2.66269708
REMARK minimizedRMSD -1
REMARK  1 active torsions:
REMARK  status: ('A' for Active; 'I' for Inactive)
REMARK    1  A    between atoms: C1_2  and  C2_3 
ROOT
ATOM      1  C2  UNL d   1      -0.110  -0.064  -0.365  0.00  0.00    -0.076 A 
ATOM      2  C3  UNL d   1       0.755  -0.866  -1.130  0.00  0.00     0.004 A 
ATOM      3  C4  UNL d   1       0.930  -2.216  -0.834  0.00  0.00    -0.003 A 
ATOM      4  C5  UNL d   1       0.242  -2.788   0.231  0.00  0.00     0.000 A 
ATOM      5  C6  UNL d   1      -0.634  -2.011   0.989  0.00  0.00     0.000 A 
ATOM      6  C7  UNL d   1      -0.834  -0.652   0.694  0.00  0.00    -0.073 A 
ATOM      7  C8  UNL d   1      -1.786   0.140   1.549  0.00  0.00     0.078 C 
ENDROOT
BRANCH   1   8
ATOM      8  C1  UNL d   1      -0.239   1.401  -0.716  0.00  0.00     0.053 C 
ATOM      9  C   UNL d   1       0.548   2.298   0.227  0.00  0.00     0.018 C 
ENDBRANCH   1   8
TORSDOF 1
ENDMDL
