MODEL 1
REMARK minimizedAffinity -5.17665672
REMARK minimizedRMSD -1
REMARK  1 active torsions:
REMARK  status: ('A' for Active; 'I' for Inactive)
REMARK    1  A    between atoms: C1_2  and  C2_3 
ROOT
ATOM      1  C2  UNL d   1       0.163   0.128  -0.503  0.00  0.00    -0.076 A 
ATOM      2  C3  UNL d   1       0.867  -0.626  -1.457  0.00  0.00     0.004 A 
ATOM      3  C4  UNL d   1       1.105  -1.986  -1.264  0.00  0.00    -0.003 A 
ATOM      4  C5  UNL d   1       0.643  -2.613  -0.112  0.00  0.00     0.000 A 
ATOM      5  C6  UNL d   1      -0.072  -1.884   0.837  0.00  0.00     0.000 A 
ATOM      6  C7  UNL d   1      -0.335  -0.517   0.650  0.00  0.00    -0.073 A 
ATOM      7  C8  UNL d   1      -1.107   0.222   1.709  0.00  0.00     0.078 C 
ENDROOT
BRANCH   1   8
ATOM      8  C1  UNL d   1      -0.041   1.605  -0.754  0.00  0.00     0.053 C 
ATOM      9  C   UNL d   1       1.196   2.428  -0.430  0.00  0.00     0.018 C 
ENDBRANCH   1   8
TORSDOF 1
ENDMDL
