MODEL 1
REMARK minimizedAffinity -5.01939631
REMARK minimizedRMSD -1
REMARK  1 active torsions:
REMARK  status: ('A' for Active; 'I' for Inactive)
REMARK    1  A    between atoms: C1_2  and  C2_3 
ROOT
ATOM      1  C2  UNL d   1       0.206  -1.784  -0.394  0.00  0.00    -0.076 A 
ATOM      2  C3  UNL d   1      -0.483  -1.154   0.657  0.00  0.00     0.004 A 
ATOM      3  C4  UNL d   1      -0.882   0.178   0.556  0.00  0.00    -0.003 A 
ATOM      4  C5  UNL d   1      -0.599   0.901  -0.597  0.00  0.00     0.000 A 
ATOM      5  C6  UNL d   1       0.068   0.286  -1.656  0.00  0.00     0.000 A 
ATOM      6  C7  UNL d   1       0.463  -1.060  -1.578  0.00  0.00    -0.073 A 
ATOM      7  C8  UNL d   1       1.185  -1.671  -2.748  0.00  0.00     0.078 C 
ENDROOT
BRANCH   1   8
ATOM      8  C1  UNL d   1       0.638  -3.223  -0.217  0.00  0.00     0.053 C 
ATOM      9  C   UNL d   1      -0.423  -4.210  -0.679  0.00  0.00     0.018 C 
ENDBRANCH   1   8
TORSDOF 1
ENDMDL
