MODEL 1
REMARK minimizedAffinity -2.56513572
REMARK minimizedRMSD -1
REMARK  1 active torsions:
REMARK  status: ('A' for Active; 'I' for Inactive)
REMARK    1  A    between atoms: C1_2  and  C2_3 
ROOT
ATOM      1  C2  UNL d   1       0.413  -1.180  -0.381  0.00  0.00    -0.076 A 
ATOM      2  C3  UNL d   1       0.525  -2.563  -0.156  0.00  0.00     0.004 A 
ATOM      3  C4  UNL d   1      -0.153  -3.177   0.896  0.00  0.00    -0.003 A 
ATOM      4  C5  UNL d   1      -0.956  -2.416   1.740  0.00  0.00     0.000 A 
ATOM      5  C6  UNL d   1      -1.092  -1.046   1.521  0.00  0.00     0.000 A 
ATOM      6  C7  UNL d   1      -0.428  -0.415   0.455  0.00  0.00    -0.073 A 
ATOM      7  C8  UNL d   1      -0.607   1.067   0.269  0.00  0.00     0.078 C 
ENDROOT
BRANCH   1   8
ATOM      8  C1  UNL d   1       1.194  -0.566  -1.521  0.00  0.00     0.053 C 
ATOM      9  C   UNL d   1       0.324  -0.283  -2.736  0.00  0.00     0.018 C 
ENDBRANCH   1   8
TORSDOF 1
ENDMDL
