MODEL 1
REMARK minimizedAffinity -4.5264678
REMARK minimizedRMSD -1
REMARK  1 active torsions:
REMARK  status: ('A' for Active; 'I' for Inactive)
REMARK    1  A    between atoms: C1_2  and  C2_3 
ROOT
ATOM      1  C2  UNL d   1      -0.276  -0.365  -0.026  0.00  0.00    -0.076 A 
ATOM      2  C3  UNL d   1      -0.637  -1.003   1.173  0.00  0.00     0.004 A 
ATOM      3  C4  UNL d   1      -0.625  -2.393   1.279  0.00  0.00    -0.003 A 
ATOM      4  C5  UNL d   1      -0.250  -3.167   0.186  0.00  0.00     0.000 A 
ATOM      5  C6  UNL d   1       0.128  -2.550  -1.006  0.00  0.00     0.000 A 
ATOM      6  C7  UNL d   1       0.136  -1.150  -1.124  0.00  0.00    -0.073 A 
ATOM      7  C8  UNL d   1       0.547  -0.538  -2.435  0.00  0.00     0.078 C 
ENDROOT
BRANCH   1   8
ATOM      8  C1  UNL d   1      -0.336   1.145  -0.090  0.00  0.00     0.053 C 
ATOM      9  C   UNL d   1       0.779   1.806   0.707  0.00  0.00     0.018 C 
ENDBRANCH   1   8
TORSDOF 1
ENDMDL
