MODEL 1
REMARK minimizedAffinity -2.59799266
REMARK minimizedRMSD -1
REMARK  1 active torsions:
REMARK  status: ('A' for Active; 'I' for Inactive)
REMARK    1  A    between atoms: C1_2  and  C2_3 
ROOT
ATOM      1  C2  UNL d   1      -0.390   0.127   0.010  0.00  0.00    -0.076 A 
ATOM      2  C3  UNL d   1      -1.166  -0.027   1.172  0.00  0.00     0.004 A 
ATOM      3  C4  UNL d   1      -1.364  -1.284   1.741  0.00  0.00    -0.003 A 
ATOM      4  C5  UNL d   1      -0.788  -2.407   1.157  0.00  0.00     0.000 A 
ATOM      5  C6  UNL d   1      -0.001  -2.270   0.014  0.00  0.00     0.000 A 
ATOM      6  C7  UNL d   1       0.222  -1.008  -0.562  0.00  0.00    -0.073 A 
ATOM      7  C8  UNL d   1       1.075  -0.919  -1.798  0.00  0.00     0.078 C 
ENDROOT
BRANCH   1   8
ATOM      8  C1  UNL d   1      -0.234   1.512  -0.578  0.00  0.00     0.053 C 
ATOM      9  C   UNL d   1       0.383   2.495   0.405  0.00  0.00     0.018 C 
ENDBRANCH   1   8
TORSDOF 1
ENDMDL
