MODEL 1
REMARK minimizedAffinity -2.53070307
REMARK minimizedRMSD -1
REMARK  1 active torsions:
REMARK  status: ('A' for Active; 'I' for Inactive)
REMARK    1  A    between atoms: C1_2  and  C2_3 
ROOT
ATOM      1  C2  UNL d   1      -0.143   0.084  -0.289  0.00  0.00    -0.076 A 
ATOM      2  C3  UNL d   1      -1.078   0.020   0.759  0.00  0.00     0.004 A 
ATOM      3  C4  UNL d   1      -1.357  -1.187   1.399  0.00  0.00    -0.003 A 
ATOM      4  C5  UNL d   1      -0.705  -2.349   1.002  0.00  0.00     0.000 A 
ATOM      5  C6  UNL d   1       0.238  -2.301  -0.024  0.00  0.00     0.000 A 
ATOM      6  C7  UNL d   1       0.543  -1.089  -0.669  0.00  0.00    -0.073 A 
ATOM      7  C8  UNL d   1       1.564  -1.096  -1.773  0.00  0.00     0.078 C 
ENDROOT
BRANCH   1   8
ATOM      8  C1  UNL d   1       0.098   1.415  -0.963  0.00  0.00     0.053 C 
ATOM      9  C   UNL d   1       0.518   2.498   0.018  0.00  0.00     0.018 C 
ENDBRANCH   1   8
TORSDOF 1
ENDMDL
