MODEL 1
REMARK minimizedAffinity -2.49445534
REMARK minimizedRMSD -1
REMARK  1 active torsions:
REMARK  status: ('A' for Active; 'I' for Inactive)
REMARK    1  A    between atoms: C1_2  and  C2_3 
ROOT
ATOM      1  C2  UNL d   1       0.756   2.292   0.051  0.00  0.00    -0.076 A 
ATOM      2  C3  UNL d   1      -0.337   2.919   0.672  0.00  0.00     0.004 A 
ATOM      3  C4  UNL d   1      -0.145   3.926   1.617  0.00  0.00    -0.003 A 
ATOM      4  C5  UNL d   1       1.144   4.323   1.955  0.00  0.00     0.000 A 
ATOM      5  C6  UNL d   1       2.240   3.723   1.335  0.00  0.00     0.000 A 
ATOM      6  C7  UNL d   1       2.064   2.718   0.369  0.00  0.00    -0.073 A 
ATOM      7  C8  UNL d   1       3.282   2.102  -0.263  0.00  0.00     0.078 C 
ENDROOT
BRANCH   1   8
ATOM      8  C1  UNL d   1       0.487   1.187  -0.946  0.00  0.00     0.053 C 
ATOM      9  C   UNL d   1       0.437  -0.186  -0.294  0.00  0.00     0.018 C 
ENDBRANCH   1   8
TORSDOF 1
ENDMDL
