MODEL 1
REMARK minimizedAffinity -4.076015
REMARK minimizedRMSD -1
REMARK  1 active torsions:
REMARK  status: ('A' for Active; 'I' for Inactive)
REMARK    1  A    between atoms: C1_2  and  C2_3 
ROOT
ATOM      1  C2  UNL d   1      -0.243   0.253   0.342  0.00  0.00    -0.076 A 
ATOM      2  C3  UNL d   1       0.640  -0.576  -0.372  0.00  0.00     0.004 A 
ATOM      3  C4  UNL d   1       0.696  -1.946  -0.125  0.00  0.00    -0.003 A 
ATOM      4  C5  UNL d   1      -0.131  -2.511   0.839  0.00  0.00     0.000 A 
ATOM      5  C6  UNL d   1      -1.026  -1.708   1.545  0.00  0.00     0.000 A 
ATOM      6  C7  UNL d   1      -1.106  -0.326   1.297  0.00  0.00    -0.073 A 
ATOM      7  C8  UNL d   1      -2.085   0.494   2.091  0.00  0.00     0.078 C 
ENDROOT
BRANCH   1   8
ATOM      8  C1  UNL d   1      -0.240   1.736   0.050  0.00  0.00     0.053 C 
ATOM      9  C   UNL d   1       1.133   2.363   0.232  0.00  0.00     0.018 C 
ENDBRANCH   1   8
TORSDOF 1
ENDMDL
