MODEL 1
REMARK minimizedAffinity -1.94218171
REMARK minimizedRMSD -1
REMARK  0 active torsions:
REMARK  status: ('A' for Active; 'I' for Inactive)
ROOT
ATOM      1  C4' PXY d   1      -2.688  -0.754   2.566  0.00  0.00     0.077 C 
ATOM      2  C1' PXY d   1      -0.545   3.158  -1.112  0.00  0.00     0.077 C 
ATOM      3  C1  PXY d   1      -1.119   2.138  -0.148  0.00  0.00    -0.082 A 
ATOM      4  C2  PXY d   1      -0.307   1.468   0.654  0.00  0.00     0.003 A 
ATOM      5  C3  PXY d   1      -0.806   0.519   1.510  0.00  0.00     0.003 A 
ATOM      6  C4  PXY d   1      -2.154   0.292   1.583  0.00  0.00    -0.082 A 
ATOM      7  C5  PXY d   1      -2.989   0.979   0.775  0.00  0.00     0.003 A 
ATOM      8  C6  PXY d   1      -2.459   1.908  -0.115  0.00  0.00     0.003 A 
ENDROOT
TORSDOF 0
ENDMDL
