MODEL 1
REMARK minimizedAffinity -3.57933831
REMARK minimizedRMSD -1
REMARK  0 active torsions:
REMARK  status: ('A' for Active; 'I' for Inactive)
ROOT
ATOM      1  C4' PXY d   1      -4.235   0.945   0.577  0.00  0.00     0.077 C 
ATOM      2  C1' PXY d   1       1.525   1.427   0.531  0.00  0.00     0.077 C 
ATOM      3  C1  PXY d   1       0.016   1.287   0.541  0.00  0.00    -0.082 A 
ATOM      4  C2  PXY d   1      -0.740   2.341   0.276  0.00  0.00     0.003 A 
ATOM      5  C3  PXY d   1      -2.107   2.240   0.312  0.00  0.00     0.003 A 
ATOM      6  C4  PXY d   1      -2.707   1.037   0.569  0.00  0.00    -0.082 A 
ATOM      7  C5  PXY d   1      -1.943  -0.045   0.830  0.00  0.00     0.003 A 
ATOM      8  C6  PXY d   1      -0.557   0.087   0.829  0.00  0.00     0.003 A 
ENDROOT
TORSDOF 0
ENDMDL
