MODEL 1
REMARK minimizedAffinity 0.192810372
REMARK minimizedRMSD -1
REMARK  0 active torsions:
REMARK  status: ('A' for Active; 'I' for Inactive)
ROOT
ATOM      1  C4' PXY d   1      -4.236   1.998   0.059  0.00  0.00     0.077 C 
ATOM      2  C1' PXY d   1       1.320   0.665   0.930  0.00  0.00     0.077 C 
ATOM      3  C1  PXY d   1      -0.134   1.027   0.704  0.00  0.00    -0.082 A 
ATOM      4  C2  PXY d   1      -1.071   0.109   0.875  0.00  0.00     0.003 A 
ATOM      5  C3  PXY d   1      -2.388   0.411   0.644  0.00  0.00     0.003 A 
ATOM      6  C4  PXY d   1      -2.756   1.680   0.285  0.00  0.00    -0.082 A 
ATOM      7  C5  PXY d   1      -1.807   2.625   0.119  0.00  0.00     0.003 A 
ATOM      8  C6  PXY d   1      -0.471   2.288   0.319  0.00  0.00     0.003 A 
ENDROOT
TORSDOF 0
ENDMDL
