MODEL 1
REMARK minimizedAffinity -2.36657405
REMARK minimizedRMSD -1
REMARK  0 active torsions:
REMARK  status: ('A' for Active; 'I' for Inactive)
ROOT
ATOM      1  C4' PXY d   1       0.700   1.862  -0.412  0.00  0.00     0.077 C 
ATOM      2  C1' PXY d   1      -4.958   1.359   0.664  0.00  0.00     0.077 C 
ATOM      3  C1  PXY d   1      -3.471   1.486   0.394  0.00  0.00    -0.082 A 
ATOM      4  C2  PXY d   1      -3.040   2.373  -0.488  0.00  0.00     0.003 A 
ATOM      5  C3  PXY d   1      -1.702   2.479  -0.768  0.00  0.00     0.003 A 
ATOM      6  C4  PXY d   1      -0.791   1.706  -0.100  0.00  0.00    -0.082 A 
ATOM      7  C5  PXY d   1      -1.222   0.805   0.809  0.00  0.00     0.003 A 
ATOM      8  C6  PXY d   1      -2.588   0.685   1.049  0.00  0.00     0.003 A 
ENDROOT
TORSDOF 0
ENDMDL
