MODEL 1
REMARK minimizedAffinity 0.112702087
REMARK minimizedRMSD -1
REMARK  0 active torsions:
REMARK  status: ('A' for Active; 'I' for Inactive)
ROOT
ATOM      1  C4' PXY d   1      -3.879   1.873   0.023  0.00  0.00     0.077 C 
ATOM      2  C1' PXY d   1       1.673   0.926  -1.280  0.00  0.00     0.077 C 
ATOM      3  C1  PXY d   1       0.216   1.161  -0.935  0.00  0.00    -0.082 A 
ATOM      4  C2  PXY d   1      -0.429   2.180  -1.480  0.00  0.00     0.003 A 
ATOM      5  C3  PXY d   1      -1.738   2.427  -1.155  0.00  0.00     0.003 A 
ATOM      6  C4  PXY d   1      -2.410   1.591  -0.304  0.00  0.00    -0.082 A 
ATOM      7  C5  PXY d   1      -1.762   0.543   0.248  0.00  0.00     0.003 A 
ATOM      8  C6  PXY d   1      -0.422   0.334  -0.063  0.00  0.00     0.003 A 
ENDROOT
TORSDOF 0
ENDMDL
