MODEL 1
REMARK minimizedAffinity 2.66689396
REMARK minimizedRMSD -1
REMARK  0 active torsions:
REMARK  status: ('A' for Active; 'I' for Inactive)
ROOT
ATOM      1  C4' PXY d   1      -4.875   1.544  -0.087  0.00  0.00     0.077 C 
ATOM      2  C1' PXY d   1       0.872   1.369   0.507  0.00  0.00     0.077 C 
ATOM      3  C1  PXY d   1      -0.635   1.402   0.349  0.00  0.00    -0.082 A 
ATOM      4  C2  PXY d   1      -1.229   2.522  -0.029  0.00  0.00     0.003 A 
ATOM      5  C3  PXY d   1      -2.594   2.578  -0.146  0.00  0.00     0.003 A 
ATOM      6  C4  PXY d   1      -3.355   1.462   0.076  0.00  0.00    -0.082 A 
ATOM      7  C5  PXY d   1      -2.756   0.312   0.452  0.00  0.00     0.003 A 
ATOM      8  C6  PXY d   1      -1.372   0.287   0.605  0.00  0.00     0.003 A 
ENDROOT
TORSDOF 0
ENDMDL
