MODEL 1
REMARK minimizedAffinity 5.8182497
REMARK minimizedRMSD -1
REMARK  0 active torsions:
REMARK  status: ('A' for Active; 'I' for Inactive)
ROOT
ATOM      1  C4' PXY d   1      -2.341   1.170  -1.887  0.00  0.00     0.077 C 
ATOM      2  C1' PXY d   1       0.090   0.761   3.342  0.00  0.00     0.077 C 
ATOM      3  C1  PXY d   1      -0.553   0.857   1.972  0.00  0.00    -0.082 A 
ATOM      4  C2  PXY d   1       0.021   1.586   1.029  0.00  0.00     0.003 A 
ATOM      5  C3  PXY d   1      -0.565   1.710  -0.204  0.00  0.00     0.003 A 
ATOM      6  C4  PXY d   1      -1.722   1.037  -0.493  0.00  0.00    -0.082 A 
ATOM      7  C5  PXY d   1      -2.308   0.282   0.460  0.00  0.00     0.003 A 
ATOM      8  C6  PXY d   1      -1.720   0.203   1.719  0.00  0.00     0.003 A 
ENDROOT
TORSDOF 0
ENDMDL
