MODEL 1
REMARK minimizedAffinity 5.03714514
REMARK minimizedRMSD -1
REMARK  0 active torsions:
REMARK  status: ('A' for Active; 'I' for Inactive)
ROOT
ATOM      1  C4' PXY d   1       1.527   4.922  -0.953  0.00  0.00     0.077 C 
ATOM      2  C1' PXY d   1      -2.405   0.757  -0.179  0.00  0.00     0.077 C 
ATOM      3  C1  PXY d   1      -1.365   1.842  -0.375  0.00  0.00    -0.082 A 
ATOM      4  C2  PXY d   1      -1.753   3.082  -0.630  0.00  0.00     0.003 A 
ATOM      5  C3  PXY d   1      -0.825   4.069  -0.841  0.00  0.00     0.003 A 
ATOM      6  C4  PXY d   1       0.512   3.796  -0.738  0.00  0.00    -0.082 A 
ATOM      7  C5  PXY d   1       0.916   2.537  -0.468  0.00  0.00     0.003 A 
ATOM      8  C6  PXY d   1      -0.041   1.540  -0.298  0.00  0.00     0.003 A 
ENDROOT
TORSDOF 0
ENDMDL
