MODEL 1
REMARK minimizedAffinity 2.90076613
REMARK minimizedRMSD -1
REMARK  0 active torsions:
REMARK  status: ('A' for Active; 'I' for Inactive)
ROOT
ATOM      1  C4' PXY d   1       0.540   2.587  -0.209  0.00  0.00     0.077 C 
ATOM      2  C1' PXY d   1      -4.309  -0.085   1.450  0.00  0.00     0.077 C 
ATOM      3  C1  PXY d   1      -3.033   0.615   1.028  0.00  0.00    -0.082 A 
ATOM      4  C2  PXY d   1      -3.022   1.343  -0.078  0.00  0.00     0.003 A 
ATOM      5  C3  PXY d   1      -1.868   1.957  -0.492  0.00  0.00     0.003 A 
ATOM      6  C4  PXY d   1      -0.728   1.870   0.261  0.00  0.00    -0.082 A 
ATOM      7  C5  PXY d   1      -0.735   1.138   1.396  0.00  0.00     0.003 A 
ATOM      8  C6  PXY d   1      -1.905   0.489   1.777  0.00  0.00     0.003 A 
ENDROOT
TORSDOF 0
ENDMDL
