MODEL 1
REMARK minimizedAffinity -1.78109074
REMARK minimizedRMSD -1
REMARK  0 active torsions:
REMARK  status: ('A' for Active; 'I' for Inactive)
ROOT
ATOM      1  C4' PXY d   1       4.001   1.020   1.991  0.00  0.00     0.077 C 
ATOM      2  C1' PXY d   1      -1.143   2.239  -0.346  0.00  0.00     0.077 C 
ATOM      3  C1  PXY d   1       0.211   1.917   0.255  0.00  0.00    -0.082 A 
ATOM      4  C2  PXY d   1       0.289   1.508   1.511  0.00  0.00     0.003 A 
ATOM      5  C3  PXY d   1       1.508   1.243   2.080  0.00  0.00     0.003 A 
ATOM      6  C4  PXY d   1       2.655   1.347   1.340  0.00  0.00    -0.082 A 
ATOM      7  C5  PXY d   1       2.583   1.754   0.055  0.00  0.00     0.003 A 
ATOM      8  C6  PXY d   1       1.339   2.057  -0.492  0.00  0.00     0.003 A 
ENDROOT
TORSDOF 0
ENDMDL
