MODEL 1
REMARK minimizedAffinity -0.318899214
REMARK minimizedRMSD -1
REMARK  0 active torsions:
REMARK  status: ('A' for Active; 'I' for Inactive)
ROOT
ATOM      1  C4' PXY d   1       1.635   1.553   0.793  0.00  0.00     0.077 C 
ATOM      2  C1' PXY d   1      -4.100   0.830   0.747  0.00  0.00     0.077 C 
ATOM      3  C1  PXY d   1      -2.597   1.027   0.748  0.00  0.00    -0.082 A 
ATOM      4  C2  PXY d   1      -1.821   0.130   1.333  0.00  0.00     0.003 A 
ATOM      5  C3  PXY d   1      -0.462   0.309   1.372  0.00  0.00     0.003 A 
ATOM      6  C4  PXY d   1       0.112   1.390   0.759  0.00  0.00    -0.082 A 
ATOM      7  C5  PXY d   1      -0.672   2.305   0.151  0.00  0.00     0.003 A 
ATOM      8  C6  PXY d   1      -2.053   2.126   0.159  0.00  0.00     0.003 A 
ENDROOT
TORSDOF 0
ENDMDL
