MODEL 1
REMARK minimizedAffinity -0.411775738
REMARK minimizedRMSD -1
REMARK  0 active torsions:
REMARK  status: ('A' for Active; 'I' for Inactive)
ROOT
ATOM      1  C4' PXY d   1      -4.509   1.543   0.353  0.00  0.00     0.077 C 
ATOM      2  C1' PXY d   1       1.219   0.786   0.513  0.00  0.00     0.077 C 
ATOM      3  C1  PXY d   1      -0.285   0.972   0.472  0.00  0.00    -0.082 A 
ATOM      4  C2  PXY d   1      -0.795   2.062  -0.078  0.00  0.00     0.003 A 
ATOM      5  C3  PXY d   1      -2.151   2.261  -0.095  0.00  0.00     0.003 A 
ATOM      6  C4  PXY d   1      -2.997   1.309   0.408  0.00  0.00    -0.082 A 
ATOM      7  C5  PXY d   1      -2.485   0.189   0.961  0.00  0.00     0.003 A 
ATOM      8  C6  PXY d   1      -1.104   0.025   1.005  0.00  0.00     0.003 A 
ENDROOT
TORSDOF 0
ENDMDL
