MODEL 1
REMARK minimizedAffinity 2.06777477
REMARK minimizedRMSD -1
REMARK  0 active torsions:
REMARK  status: ('A' for Active; 'I' for Inactive)
ROOT
ATOM      1  C4' PXY d   1      -1.839   2.581  -1.560  0.00  0.00     0.077 C 
ATOM      2  C1' PXY d   1      -0.288  -0.819   2.850  0.00  0.00     0.077 C 
ATOM      3  C1  PXY d   1      -0.683   0.079   1.694  0.00  0.00    -0.082 A 
ATOM      4  C2  PXY d   1      -1.963   0.234   1.394  0.00  0.00     0.003 A 
ATOM      5  C3  PXY d   1      -2.336   1.017   0.333  0.00  0.00     0.003 A 
ATOM      6  C4  PXY d   1      -1.394   1.691  -0.396  0.00  0.00    -0.082 A 
ATOM      7  C5  PXY d   1      -0.087   1.547  -0.090  0.00  0.00     0.003 A 
ATOM      8  C6  PXY d   1       0.274   0.715   0.966  0.00  0.00     0.003 A 
ENDROOT
TORSDOF 0
ENDMDL
