MODEL 1
REMARK minimizedAffinity 1.43789923
REMARK minimizedRMSD -1
REMARK  0 active torsions:
REMARK  status: ('A' for Active; 'I' for Inactive)
ROOT
ATOM      1  C4' PXY d   1      -5.548   1.509   0.443  0.00  0.00     0.077 C 
ATOM      2  C1' PXY d   1       0.224   1.715   0.679  0.00  0.00     0.077 C 
ATOM      3  C1  PXY d   1      -1.290   1.648   0.619  0.00  0.00    -0.082 A 
ATOM      4  C2  PXY d   1      -1.957   2.552  -0.079  0.00  0.00     0.003 A 
ATOM      5  C3  PXY d   1      -3.328   2.526  -0.117  0.00  0.00     0.003 A 
ATOM      6  C4  PXY d   1      -4.019   1.532   0.523  0.00  0.00    -0.082 A 
ATOM      7  C5  PXY d   1      -3.345   0.600   1.229  0.00  0.00     0.003 A 
ATOM      8  C6  PXY d   1      -1.956   0.669   1.289  0.00  0.00     0.003 A 
ENDROOT
TORSDOF 0
ENDMDL
