MODEL 1
REMARK minimizedAffinity 8.35315228
REMARK minimizedRMSD -1
REMARK  0 active torsions:
REMARK  status: ('A' for Active; 'I' for Inactive)
ROOT
ATOM      1  C4' PXY d   1      -3.418   0.374   1.349  0.00  0.00     0.077 C 
ATOM      2  C1' PXY d   1       1.164   3.438  -0.394  0.00  0.00     0.077 C 
ATOM      3  C1  PXY d   1      -0.046   2.643   0.057  0.00  0.00    -0.082 A 
ATOM      4  C2  PXY d   1       0.030   1.898   1.148  0.00  0.00     0.003 A 
ATOM      5  C3  PXY d   1      -1.044   1.148   1.552  0.00  0.00     0.003 A 
ATOM      6  C4  PXY d   1      -2.225   1.201   0.862  0.00  0.00    -0.082 A 
ATOM      7  C5  PXY d   1      -2.314   1.966  -0.247  0.00  0.00     0.003 A 
ATOM      8  C6  PXY d   1      -1.199   2.688  -0.664  0.00  0.00     0.003 A 
ENDROOT
TORSDOF 0
ENDMDL
