MODEL 1
REMARK minimizedAffinity 4.05656481
REMARK minimizedRMSD -1
REMARK  0 active torsions:
REMARK  status: ('A' for Active; 'I' for Inactive)
ROOT
ATOM      1  C4' PXY d   1      -1.654   0.653  -0.251  0.00  0.00     0.077 C 
ATOM      2  C1' PXY d   1       3.086   2.790   2.275  0.00  0.00     0.077 C 
ATOM      3  C1  PXY d   1       1.835   2.233   1.622  0.00  0.00    -0.082 A 
ATOM      4  C2  PXY d   1       1.943   1.289   0.702  0.00  0.00     0.003 A 
ATOM      5  C3  PXY d   1       0.825   0.797   0.079  0.00  0.00     0.003 A 
ATOM      6  C4  PXY d   1      -0.420   1.238   0.440  0.00  0.00    -0.082 A 
ATOM      7  C5  PXY d   1      -0.539   2.193   1.386  0.00  0.00     0.003 A 
ATOM      8  C6  PXY d   1       0.611   2.709   1.977  0.00  0.00     0.003 A 
ENDROOT
TORSDOF 0
ENDMDL
