MODEL 1
REMARK minimizedAffinity 3.83305955
REMARK minimizedRMSD -1
REMARK  0 active torsions:
REMARK  status: ('A' for Active; 'I' for Inactive)
ROOT
ATOM      1  C4' PXY d   1      -1.189   2.893   2.879  0.00  0.00     0.077 C 
ATOM      2  C1' PXY d   1       2.526   0.758  -1.001  0.00  0.00     0.077 C 
ATOM      3  C1  PXY d   1       1.561   1.317   0.026  0.00  0.00    -0.082 A 
ATOM      4  C2  PXY d   1       0.258   1.178  -0.157  0.00  0.00     0.003 A 
ATOM      5  C3  PXY d   1      -0.629   1.705   0.745  0.00  0.00     0.003 A 
ATOM      6  C4  PXY d   1      -0.178   2.336   1.873  0.00  0.00    -0.082 A 
ATOM      7  C5  PXY d   1       1.150   2.473   2.072  0.00  0.00     0.003 A 
ATOM      8  C6  PXY d   1       2.034   1.966   1.124  0.00  0.00     0.003 A 
ENDROOT
TORSDOF 0
ENDMDL
