MODEL 1
REMARK minimizedAffinity 2.56506991
REMARK minimizedRMSD -1
REMARK  0 active torsions:
REMARK  status: ('A' for Active; 'I' for Inactive)
ROOT
ATOM      1  C4' PXY d   1      -0.723   3.193   3.349  0.00  0.00     0.077 C 
ATOM      2  C1' PXY d   1       2.173   0.611  -0.936  0.00  0.00     0.077 C 
ATOM      3  C1  PXY d   1       1.424   1.286   0.196  0.00  0.00    -0.082 A 
ATOM      4  C2  PXY d   1       0.103   1.347   0.160  0.00  0.00     0.003 A 
ATOM      5  C3  PXY d   1      -0.589   1.982   1.160  0.00  0.00     0.003 A 
ATOM      6  C4  PXY d   1       0.075   2.513   2.233  0.00  0.00    -0.082 A 
ATOM      7  C5  PXY d   1       1.422   2.446   2.281  0.00  0.00     0.003 A 
ATOM      8  C6  PXY d   1       2.108   1.833   1.237  0.00  0.00     0.003 A 
ENDROOT
TORSDOF 0
ENDMDL
