MODEL 1
REMARK minimizedAffinity -1.69224489
REMARK minimizedRMSD -1
REMARK  0 active torsions:
REMARK  status: ('A' for Active; 'I' for Inactive)
ROOT
ATOM      1  C4' PXY d   1      -1.036  -0.367  -0.222  0.00  0.00     0.077 C 
ATOM      2  C1' PXY d   1       2.261   3.616   2.362  0.00  0.00     0.077 C 
ATOM      3  C1  PXY d   1       1.407   2.566   1.679  0.00  0.00    -0.082 A 
ATOM      4  C2  PXY d   1       0.117   2.793   1.492  0.00  0.00     0.003 A 
ATOM      5  C3  PXY d   1      -0.676   1.842   0.904  0.00  0.00     0.003 A 
ATOM      6  C4  PXY d   1      -0.133   0.668   0.455  0.00  0.00    -0.082 A 
ATOM      7  C5  PXY d   1       1.184   0.433   0.632  0.00  0.00     0.003 A 
ATOM      8  C6  PXY d   1       1.964   1.395   1.268  0.00  0.00     0.003 A 
ENDROOT
TORSDOF 0
ENDMDL
