MODEL 1
REMARK minimizedAffinity 8.30449963
REMARK minimizedRMSD -1
REMARK  0 active torsions:
REMARK  status: ('A' for Active; 'I' for Inactive)
ROOT
ATOM      1  C4' PXY d   1      -1.123   3.462   3.130  0.00  0.00     0.077 C 
ATOM      2  C1' PXY d   1       2.507   0.673  -0.400  0.00  0.00     0.077 C 
ATOM      3  C1  PXY d   1       1.564   1.404   0.535  0.00  0.00    -0.082 A 
ATOM      4  C2  PXY d   1       0.260   1.354   0.319  0.00  0.00     0.003 A 
ATOM      5  C3  PXY d   1      -0.605   2.035   1.136  0.00  0.00     0.003 A 
ATOM      6  C4  PXY d   1      -0.134   2.732   2.217  0.00  0.00    -0.082 A 
ATOM      7  C5  PXY d   1       1.195   2.779   2.450  0.00  0.00     0.003 A 
ATOM      8  C6  PXY d   1       2.059   2.114   1.585  0.00  0.00     0.003 A 
ENDROOT
TORSDOF 0
ENDMDL
