MODEL 1
REMARK minimizedAffinity -1.10430849
REMARK minimizedRMSD -1
REMARK  1 active torsions:
REMARK  status: ('A' for Active; 'I' for Inactive)
REMARK    1  A    between atoms: N_2  and  C1_3 
ROOT
ATOM      1  C1  UNL d   1      -0.391   1.320   1.884  0.00  0.00     0.143 A 
ATOM      2  C2  UNL d   1      -1.163   2.446   2.191  0.00  0.00    -0.057 A 
ATOM      3  C3  UNL d   1      -2.459   2.320   2.707  0.00  0.00     0.033 A 
ATOM      4  C4  UNL d   1      -3.018   1.061   2.897  0.00  0.00    -0.042 A 
ATOM      5  C5  UNL d   1      -2.279  -0.072   2.575  0.00  0.00     0.033 A 
ATOM      6  C6  UNL d   1      -0.983   0.061   2.067  0.00  0.00    -0.057 A 
ENDROOT
BRANCH   1   7
ATOM      7  N   UNL d   1       0.865   1.381   1.277  0.00  0.00    -0.732 N 
ATOM      8  C   UNL d   1       1.257   2.542   0.507  0.00  0.00     0.284 C 
ATOM      9  H3  UNL d   1       1.602   1.008   1.872  0.00  0.00     0.395 HD
ENDBRANCH   1   7
TORSDOF 1
ENDMDL
