MODEL 1
REMARK minimizedAffinity -2.94306993
REMARK minimizedRMSD -1
REMARK  1 active torsions:
REMARK  status: ('A' for Active; 'I' for Inactive)
REMARK    1  A    between atoms: N_2  and  C1_3 
ROOT
ATOM      1  C1  UNL d   1      -3.023   1.099   3.237  0.00  0.00     0.143 A 
ATOM      2  C2  UNL d   1      -2.659  -0.210   2.904  0.00  0.00    -0.057 A 
ATOM      3  C3  UNL d   1      -1.508  -0.474   2.151  0.00  0.00     0.033 A 
ATOM      4  C4  UNL d   1      -0.714   0.572   1.693  0.00  0.00    -0.042 A 
ATOM      5  C5  UNL d   1      -1.070   1.882   1.991  0.00  0.00     0.033 A 
ATOM      6  C6  UNL d   1      -2.217   2.140   2.748  0.00  0.00    -0.057 A 
ENDROOT
BRANCH   1   7
ATOM      7  N   UNL d   1      -4.207   1.433   3.898  0.00  0.00    -0.732 N 
ATOM      8  C   UNL d   1      -4.173   2.040   5.211  0.00  0.00     0.284 C 
ATOM      9  H3  UNL d   1      -4.901   1.835   3.272  0.00  0.00     0.395 HD
ENDBRANCH   1   7
TORSDOF 1
ENDMDL
