MODEL 1
REMARK minimizedAffinity 1.15332401
REMARK minimizedRMSD -1
REMARK  1 active torsions:
REMARK  status: ('A' for Active; 'I' for Inactive)
REMARK    1  A    between atoms: N_2  and  C1_3 
ROOT
ATOM      1  C1  UNL d   1      -1.244   1.747   1.643  0.00  0.00     0.143 A 
ATOM      2  C2  UNL d   1       0.064   2.202   1.443  0.00  0.00    -0.057 A 
ATOM      3  C3  UNL d   1       1.082   1.332   1.036  0.00  0.00     0.033 A 
ATOM      4  C4  UNL d   1       0.815  -0.020   0.849  0.00  0.00    -0.042 A 
ATOM      5  C5  UNL d   1      -0.471  -0.500   1.065  0.00  0.00     0.033 A 
ATOM      6  C6  UNL d   1      -1.485   0.375   1.465  0.00  0.00    -0.057 A 
ENDROOT
BRANCH   1   7
ATOM      7  N   UNL d   1      -2.277   2.543   2.142  0.00  0.00    -0.732 N 
ATOM      8  C   UNL d   1      -3.295   1.977   3.002  0.00  0.00     0.284 C 
ATOM      9  H3  UNL d   1      -1.954   3.463   2.431  0.00  0.00     0.395 HD
ENDBRANCH   1   7
TORSDOF 1
ENDMDL
