MODEL 1
REMARK minimizedAffinity 2.52399445
REMARK minimizedRMSD -1
REMARK  1 active torsions:
REMARK  status: ('A' for Active; 'I' for Inactive)
REMARK    1  A    between atoms: N_2  and  C1_3 
ROOT
ATOM      1  C1  UNL d   1      -3.442  -1.895  -3.537  0.00  0.00     0.143 A 
ATOM      2  C2  UNL d   1      -3.809  -0.580  -3.230  0.00  0.00    -0.057 A 
ATOM      3  C3  UNL d   1      -4.351  -0.250  -1.982  0.00  0.00     0.033 A 
ATOM      4  C4  UNL d   1      -4.563  -1.238  -1.026  0.00  0.00    -0.042 A 
ATOM      5  C5  UNL d   1      -4.229  -2.556  -1.318  0.00  0.00     0.033 A 
ATOM      6  C6  UNL d   1      -3.682  -2.878  -2.564  0.00  0.00    -0.057 A 
ENDROOT
BRANCH   1   7
ATOM      7  N   UNL d   1      -2.989  -2.303  -4.794  0.00  0.00    -0.732 N 
ATOM      8  C   UNL d   1      -3.905  -2.875  -5.757  0.00  0.00     0.284 C 
ATOM      9  H3  UNL d   1      -2.317  -1.652  -5.195  0.00  0.00     0.395 HD
ENDBRANCH   1   7
TORSDOF 1
ENDMDL
