MODEL 1
REMARK minimizedAffinity 3.19764256
REMARK minimizedRMSD -1
REMARK  1 active torsions:
REMARK  status: ('A' for Active; 'I' for Inactive)
REMARK    1  A    between atoms: N_2  and  C1_3 
ROOT
ATOM      1  C1  UNL d   1      -2.543   1.626   2.663  0.00  0.00     0.143 A 
ATOM      2  C2  UNL d   1      -1.678   2.485   1.977  0.00  0.00    -0.057 A 
ATOM      3  C3  UNL d   1      -0.438   2.040   1.503  0.00  0.00     0.033 A 
ATOM      4  C4  UNL d   1      -0.027   0.732   1.733  0.00  0.00    -0.042 A 
ATOM      5  C5  UNL d   1      -0.860  -0.133   2.435  0.00  0.00     0.033 A 
ATOM      6  C6  UNL d   1      -2.100   0.315   2.900  0.00  0.00    -0.057 A 
ENDROOT
BRANCH   1   7
ATOM      7  N   UNL d   1      -3.745   2.034   3.245  0.00  0.00    -0.732 N 
ATOM      8  C   UNL d   1      -4.453   1.167   4.162  0.00  0.00     0.284 C 
ATOM      9  H3  UNL d   1      -3.728   3.012   3.528  0.00  0.00     0.395 HD
ENDBRANCH   1   7
TORSDOF 1
ENDMDL
