MODEL 1
REMARK minimizedAffinity 6.15903664
REMARK minimizedRMSD -1
REMARK  1 active torsions:
REMARK  status: ('A' for Active; 'I' for Inactive)
REMARK    1  A    between atoms: N_2  and  C1_3 
ROOT
ATOM      1  C1  UNL d   1      -4.512   1.882   3.798  0.00  0.00     0.143 A 
ATOM      2  C2  UNL d   1      -3.696   2.788   3.113  0.00  0.00    -0.057 A 
ATOM      3  C3  UNL d   1      -2.578   2.355   2.389  0.00  0.00     0.033 A 
ATOM      4  C4  UNL d   1      -2.240   1.006   2.363  0.00  0.00    -0.042 A 
ATOM      5  C5  UNL d   1      -3.022   0.090   3.058  0.00  0.00     0.033 A 
ATOM      6  C6  UNL d   1      -4.141   0.529   3.773  0.00  0.00    -0.057 A 
ENDROOT
BRANCH   1   7
ATOM      7  N   UNL d   1      -5.579   2.262   4.616  0.00  0.00    -0.732 N 
ATOM      8  C   UNL d   1      -5.356   2.622   6.000  0.00  0.00     0.284 C 
ATOM      9  H3  UNL d   1      -6.245   2.861   4.133  0.00  0.00     0.395 HD
ENDBRANCH   1   7
TORSDOF 1
ENDMDL
