MODEL 1
REMARK minimizedAffinity -2.31041145
REMARK minimizedRMSD -1
REMARK  1 active torsions:
REMARK  status: ('A' for Active; 'I' for Inactive)
REMARK    1  A    between atoms: N_2  and  C1_3 
ROOT
ATOM      1  C1  UNL d   1      -1.665   1.042   2.232  0.00  0.00     0.143 A 
ATOM      2  C2  UNL d   1      -0.904   2.194   2.006  0.00  0.00    -0.057 A 
ATOM      3  C3  UNL d   1       0.375   2.121   1.440  0.00  0.00     0.033 A 
ATOM      4  C4  UNL d   1       0.928   0.887   1.115  0.00  0.00    -0.042 A 
ATOM      5  C5  UNL d   1       0.200  -0.274   1.353  0.00  0.00     0.033 A 
ATOM      6  C6  UNL d   1      -1.079  -0.193   1.913  0.00  0.00    -0.057 A 
ENDROOT
BRANCH   1   7
ATOM      7  N   UNL d   1      -2.901   1.041   2.882  0.00  0.00    -0.732 N 
ATOM      8  C   UNL d   1      -3.321   2.181   3.668  0.00  0.00     0.284 C 
ATOM      9  H3  UNL d   1      -3.639   0.634   2.312  0.00  0.00     0.395 HD
ENDBRANCH   1   7
TORSDOF 1
ENDMDL
