MODEL 1
REMARK minimizedAffinity -3.78981352
REMARK minimizedRMSD -1
REMARK  1 active torsions:
REMARK  status: ('A' for Active; 'I' for Inactive)
REMARK    1  A    between atoms: N_2  and  C1_3 
ROOT
ATOM      1  C1  UNL d   1      -1.472   2.473   1.907  0.00  0.00     0.143 A 
ATOM      2  C2  UNL d   1      -2.678   2.025   2.455  0.00  0.00    -0.057 A 
ATOM      3  C3  UNL d   1      -2.838   0.698   2.874  0.00  0.00     0.033 A 
ATOM      4  C4  UNL d   1      -1.798  -0.214   2.724  0.00  0.00    -0.042 A 
ATOM      5  C5  UNL d   1      -0.599   0.203   2.158  0.00  0.00     0.033 A 
ATOM      6  C6  UNL d   1      -0.444   1.531   1.749  0.00  0.00    -0.057 A 
ENDROOT
BRANCH   1   7
ATOM      7  N   UNL d   1      -1.284   3.754   1.382  0.00  0.00    -0.732 N 
ATOM      8  C   UNL d   1      -2.325   4.392   0.605  0.00  0.00     0.284 C 
ATOM      9  H3  UNL d   1      -0.812   4.376   2.035  0.00  0.00     0.395 HD
ENDBRANCH   1   7
TORSDOF 1
ENDMDL
