MODEL 1
REMARK minimizedAffinity 6.03108931
REMARK minimizedRMSD -1
REMARK  1 active torsions:
REMARK  status: ('A' for Active; 'I' for Inactive)
REMARK    1  A    between atoms: N_2  and  C1_3 
ROOT
ATOM      1  C1  UNL d   1      -1.875   1.309   2.232  0.00  0.00     0.143 A 
ATOM      2  C2  UNL d   1      -0.578   0.797   2.353  0.00  0.00    -0.057 A 
ATOM      3  C3  UNL d   1       0.470   1.281   1.561  0.00  0.00     0.033 A 
ATOM      4  C4  UNL d   1       0.234   2.269   0.611  0.00  0.00    -0.042 A 
ATOM      5  C5  UNL d   1      -1.052   2.775   0.456  0.00  0.00     0.033 A 
ATOM      6  C6  UNL d   1      -2.094   2.293   1.254  0.00  0.00    -0.057 A 
ENDROOT
BRANCH   1   7
ATOM      7  N   UNL d   1      -2.979   0.801   2.920  0.00  0.00    -0.732 N 
ATOM      8  C   UNL d   1      -3.998   1.689   3.438  0.00  0.00     0.284 C 
ATOM      9  H3  UNL d   1      -3.345  -0.048   2.495  0.00  0.00     0.395 HD
ENDBRANCH   1   7
TORSDOF 1
ENDMDL
