MODEL 1
REMARK minimizedAffinity 0.110318847
REMARK minimizedRMSD -1
REMARK  1 active torsions:
REMARK  status: ('A' for Active; 'I' for Inactive)
REMARK    1  A    between atoms: N_2  and  C1_3 
ROOT
ATOM      1  C1  UNL d   1       1.181   0.328   1.440  0.00  0.00     0.143 A 
ATOM      2  C2  UNL d   1       0.168  -0.614   1.233  0.00  0.00    -0.057 A 
ATOM      3  C3  UNL d   1      -1.161  -0.220   1.034  0.00  0.00     0.033 A 
ATOM      4  C4  UNL d   1      -1.506   1.127   1.067  0.00  0.00    -0.042 A 
ATOM      5  C5  UNL d   1      -0.519   2.080   1.295  0.00  0.00     0.033 A 
ATOM      6  C6  UNL d   1       0.807   1.681   1.487  0.00  0.00    -0.057 A 
ENDROOT
BRANCH   1   7
ATOM      7  N   UNL d   1       2.503  -0.005   1.742  0.00  0.00    -0.732 N 
ATOM      8  C   UNL d   1       2.879  -0.385   3.087  0.00  0.00     0.284 C 
ATOM      9  H3  UNL d   1       2.938  -0.567   1.015  0.00  0.00     0.395 HD
ENDBRANCH   1   7
TORSDOF 1
ENDMDL
