MODEL 1
REMARK minimizedAffinity 4.45976162
REMARK minimizedRMSD -1
REMARK  1 active torsions:
REMARK  status: ('A' for Active; 'I' for Inactive)
REMARK    1  A    between atoms: N_2  and  C1_3 
ROOT
ATOM      1  C1  UNL d   1      -0.976   1.818   1.606  0.00  0.00     0.143 A 
ATOM      2  C2  UNL d   1       0.278   2.266   1.175  0.00  0.00    -0.057 A 
ATOM      3  C3  UNL d   1       1.348   1.379   1.008  0.00  0.00     0.033 A 
ATOM      4  C4  UNL d   1       1.190   0.027   1.296  0.00  0.00    -0.042 A 
ATOM      5  C5  UNL d   1      -0.040  -0.436   1.750  0.00  0.00     0.033 A 
ATOM      6  C6  UNL d   1      -1.106   0.454   1.909  0.00  0.00    -0.057 A 
ENDROOT
BRANCH   1   7
ATOM      7  N   UNL d   1      -2.051   2.665   1.886  0.00  0.00    -0.732 N 
ATOM      8  C   UNL d   1      -3.044   2.294   2.871  0.00  0.00     0.284 C 
ATOM      9  H3  UNL d   1      -1.774   3.644   1.923  0.00  0.00     0.395 HD
ENDBRANCH   1   7
TORSDOF 1
ENDMDL
