MODEL 1
REMARK minimizedAffinity 5.23667574
REMARK minimizedRMSD -1
REMARK  1 active torsions:
REMARK  status: ('A' for Active; 'I' for Inactive)
REMARK    1  A    between atoms: N_2  and  C1_3 
ROOT
ATOM      1  C1  UNL d   1      -0.234  -0.202   2.489  0.00  0.00     0.143 A 
ATOM      2  C2  UNL d   1       1.075  -0.120   2.003  0.00  0.00    -0.057 A 
ATOM      3  C3  UNL d   1       1.532   1.024   1.337  0.00  0.00     0.033 A 
ATOM      4  C4  UNL d   1       0.675   2.098   1.120  0.00  0.00    -0.042 A 
ATOM      5  C5  UNL d   1      -0.638   2.028   1.572  0.00  0.00     0.033 A 
ATOM      6  C6  UNL d   1      -1.086   0.886   2.242  0.00  0.00    -0.057 A 
ENDROOT
BRANCH   1   7
ATOM      7  N   UNL d   1      -0.776  -1.350   3.072  0.00  0.00    -0.732 N 
ATOM      8  C   UNL d   1      -2.209  -1.546   3.120  0.00  0.00     0.284 C 
ATOM      9  H3  UNL d   1      -0.250  -2.190   2.840  0.00  0.00     0.395 HD
ENDBRANCH   1   7
TORSDOF 1
ENDMDL
