MODEL 1
REMARK minimizedAffinity -0.0662561208
REMARK minimizedRMSD -1
REMARK  1 active torsions:
REMARK  status: ('A' for Active; 'I' for Inactive)
REMARK    1  A    between atoms: N_2  and  C1_3 
ROOT
ATOM      1  C1  UNL d   1      -2.366   1.912   3.224  0.00  0.00     0.143 A 
ATOM      2  C2  UNL d   1      -1.033   1.534   3.414  0.00  0.00    -0.057 A 
ATOM      3  C3  UNL d   1      -0.009   2.059   2.616  0.00  0.00     0.033 A 
ATOM      4  C4  UNL d   1      -0.305   2.952   1.592  0.00  0.00    -0.042 A 
ATOM      5  C5  UNL d   1      -1.627   3.323   1.368  0.00  0.00     0.033 A 
ATOM      6  C6  UNL d   1      -2.644   2.800   2.173  0.00  0.00    -0.057 A 
ENDROOT
BRANCH   1   7
ATOM      7  N   UNL d   1      -3.440   1.351   3.919  0.00  0.00    -0.732 N 
ATOM      8  C   UNL d   1      -4.142   2.111   4.930  0.00  0.00     0.284 C 
ATOM      9  H3  UNL d   1      -4.048   0.800   3.316  0.00  0.00     0.395 HD
ENDBRANCH   1   7
TORSDOF 1
ENDMDL
