MODEL 1
REMARK minimizedAffinity -0.280605763
REMARK minimizedRMSD -1
REMARK  0 active torsions:
REMARK  status: ('A' for Active; 'I' for Inactive)
ROOT
ATOM      1  C   UNL d   1       1.566  -0.637  -0.962  0.00  0.00     0.124 A 
ATOM      2  C1  UNL d   1       0.975  -1.752  -0.386  0.00  0.00     0.062 A 
ATOM      3  C2  UNL d   1      -0.036  -1.599   0.559  0.00  0.00     0.162 A 
ATOM      4  C3  UNL d   1      -0.463  -0.325   0.933  0.00  0.00    -0.034 A 
ATOM      5  C4  UNL d   1       0.138   0.792   0.349  0.00  0.00     0.162 A 
ATOM      6  C5  UNL d   1       1.148   0.634  -0.594  0.00  0.00     0.062 A 
ATOM      7  F   UNL d   1       1.718   1.713  -1.150  0.00  0.00    -0.097 F 
ATOM      8  F1  UNL d   1      -0.248   2.032   0.686  0.00  0.00    -0.096 F 
ATOM      9  I   UNL d   1      -1.973  -0.091   2.345  0.00  0.00    -0.060 I 
ATOM     10  F2  UNL d   1      -0.590  -2.695   1.100  0.00  0.00    -0.096 F 
ATOM     11  F3  UNL d   1       1.378  -2.981  -0.739  0.00  0.00    -0.097 F 
ATOM     12  F4  UNL d   1       2.539  -0.787  -1.870  0.00  0.00    -0.092 F 
ENDROOT
TORSDOF 0
ENDMDL
