MODEL 1
REMARK minimizedAffinity -0.937031269
REMARK minimizedRMSD -1
REMARK  0 active torsions:
REMARK  status: ('A' for Active; 'I' for Inactive)
ROOT
ATOM      1  C   UNL d   1      -1.075   0.235  -0.226  0.00  0.00     0.124 A 
ATOM      2  C1  UNL d   1      -0.434  -0.994  -0.163  0.00  0.00     0.062 A 
ATOM      3  C2  UNL d   1       0.941  -1.079  -0.362  0.00  0.00     0.162 A 
ATOM      4  C3  UNL d   1       1.685   0.071  -0.625  0.00  0.00    -0.034 A 
ATOM      5  C4  UNL d   1       1.034   1.304  -0.687  0.00  0.00     0.162 A 
ATOM      6  C5  UNL d   1      -0.340   1.383  -0.488  0.00  0.00     0.062 A 
ATOM      7  F   UNL d   1      -0.957   2.572  -0.549  0.00  0.00    -0.097 F 
ATOM      8  F1  UNL d   1       1.720   2.430  -0.938  0.00  0.00    -0.096 F 
ATOM      9  I   UNL d   1       3.741  -0.050  -0.923  0.00  0.00    -0.060 I 
ATOM     10  F2  UNL d   1       1.533  -2.280  -0.295  0.00  0.00    -0.096 F 
ATOM     11  F3  UNL d   1      -1.142  -2.105   0.089  0.00  0.00    -0.097 F 
ATOM     12  F4  UNL d   1      -2.398   0.313  -0.035  0.00  0.00    -0.092 F 
ENDROOT
TORSDOF 0
ENDMDL
