MODEL 1
REMARK minimizedAffinity 1.65440083
REMARK minimizedRMSD -1
REMARK  0 active torsions:
REMARK  status: ('A' for Active; 'I' for Inactive)
ROOT
ATOM      1  C   UNL d   1       1.546  -1.600  -0.806  0.00  0.00     0.124 A 
ATOM      2  C1  UNL d   1       2.061  -0.316  -0.918  0.00  0.00     0.062 A 
ATOM      3  C2  UNL d   1       1.340   0.772  -0.435  0.00  0.00     0.162 A 
ATOM      4  C3  UNL d   1       0.095   0.581   0.164  0.00  0.00    -0.034 A 
ATOM      5  C4  UNL d   1      -0.417  -0.713   0.272  0.00  0.00     0.162 A 
ATOM      6  C5  UNL d   1       0.307  -1.797  -0.212  0.00  0.00     0.062 A 
ATOM      7  F   UNL d   1      -0.192  -3.037  -0.104  0.00  0.00    -0.097 F 
ATOM      8  F1  UNL d   1      -1.611  -0.932   0.843  0.00  0.00    -0.096 F 
ATOM      9  I   UNL d   1      -0.987   2.206   0.887  0.00  0.00    -0.060 I 
ATOM     10  F2  UNL d   1       1.862   2.001  -0.556  0.00  0.00    -0.096 F 
ATOM     11  F3  UNL d   1       3.257  -0.123  -1.493  0.00  0.00    -0.097 F 
ATOM     12  F4  UNL d   1       2.241  -2.645  -1.273  0.00  0.00    -0.092 F 
ENDROOT
TORSDOF 0
ENDMDL
