MODEL 1
REMARK minimizedAffinity -5.65117121
REMARK minimizedRMSD -1
REMARK  0 active torsions:
REMARK  status: ('A' for Active; 'I' for Inactive)
ROOT
ATOM      1  C   UNL d   1      -1.698   1.617   1.844  0.00  0.00     0.124 A 
ATOM      2  C1  UNL d   1      -1.337   2.094   0.591  0.00  0.00     0.062 A 
ATOM      3  C2  UNL d   1      -0.390   1.415  -0.170  0.00  0.00     0.162 A 
ATOM      4  C3  UNL d   1       0.202   0.251   0.319  0.00  0.00    -0.034 A 
ATOM      5  C4  UNL d   1      -0.165  -0.222   1.580  0.00  0.00     0.162 A 
ATOM      6  C5  UNL d   1      -1.112   0.460   2.337  0.00  0.00     0.062 A 
ATOM      7  F   UNL d   1      -1.460  -0.002   3.547  0.00  0.00    -0.097 F 
ATOM      8  F1  UNL d   1       0.385  -1.339   2.080  0.00  0.00    -0.096 F 
ATOM      9  I   UNL d   1       1.619  -0.767  -0.816  0.00  0.00    -0.060 I 
ATOM     10  F2  UNL d   1      -0.060   1.899  -1.377  0.00  0.00    -0.096 F 
ATOM     11  F3  UNL d   1      -1.901   3.213   0.113  0.00  0.00    -0.097 F 
ATOM     12  F4  UNL d   1      -2.609   2.273   2.574  0.00  0.00    -0.092 F 
ENDROOT
TORSDOF 0
ENDMDL
