MODEL 1
REMARK minimizedAffinity 0.588183165
REMARK minimizedRMSD -1
REMARK  0 active torsions:
REMARK  status: ('A' for Active; 'I' for Inactive)
ROOT
ATOM      1  C   UNL d   1       2.297  -1.125  -0.287  0.00  0.00     0.124 A 
ATOM      2  C1  UNL d   1       1.079  -1.610   0.169  0.00  0.00     0.062 A 
ATOM      3  C2  UNL d   1      -0.033  -0.776   0.217  0.00  0.00     0.162 A 
ATOM      4  C3  UNL d   1       0.066   0.553  -0.195  0.00  0.00    -0.034 A 
ATOM      5  C4  UNL d   1       1.294   1.035  -0.652  0.00  0.00     0.162 A 
ATOM      6  C5  UNL d   1       2.403   0.197  -0.697  0.00  0.00     0.062 A 
ATOM      7  F   UNL d   1       3.579   0.667  -1.138  0.00  0.00    -0.097 F 
ATOM      8  F1  UNL d   1       1.424   2.307  -1.055  0.00  0.00    -0.096 F 
ATOM      9  I   UNL d   1      -1.596   1.805  -0.126  0.00  0.00    -0.060 I 
ATOM     10  F2  UNL d   1      -1.197  -1.272   0.662  0.00  0.00    -0.096 F 
ATOM     11  F3  UNL d   1       0.975  -2.887   0.567  0.00  0.00    -0.097 F 
ATOM     12  F4  UNL d   1       3.367  -1.930  -0.331  0.00  0.00    -0.092 F 
ENDROOT
TORSDOF 0
ENDMDL
