MODEL 1
REMARK minimizedAffinity 4.0679512
REMARK minimizedRMSD -1
REMARK  0 active torsions:
REMARK  status: ('A' for Active; 'I' for Inactive)
ROOT
ATOM      1  C   UNL d   1      -1.026   0.037   0.448  0.00  0.00     0.124 A 
ATOM      2  C1  UNL d   1      -0.329  -1.162   0.390  0.00  0.00     0.062 A 
ATOM      3  C2  UNL d   1       0.817  -1.268  -0.393  0.00  0.00     0.162 A 
ATOM      4  C3  UNL d   1       1.273  -0.172  -1.125  0.00  0.00    -0.034 A 
ATOM      5  C4  UNL d   1       0.566   1.030  -1.062  0.00  0.00     0.162 A 
ATOM      6  C5  UNL d   1      -0.578   1.131  -0.278  0.00  0.00     0.062 A 
ATOM      7  F   UNL d   1      -1.251   2.290  -0.223  0.00  0.00    -0.097 F 
ATOM      8  F1  UNL d   1       0.978   2.104  -1.752  0.00  0.00    -0.096 F 
ATOM      9  I   UNL d   1       2.986  -0.326  -2.297  0.00  0.00    -0.060 I 
ATOM     10  F2  UNL d   1       1.470  -2.439  -0.430  0.00  0.00    -0.096 F 
ATOM     11  F3  UNL d   1      -0.761  -2.221   1.089  0.00  0.00    -0.097 F 
ATOM     12  F4  UNL d   1      -2.129   0.136   1.201  0.00  0.00    -0.092 F 
ENDROOT
TORSDOF 0
ENDMDL
