MODEL 1
REMARK minimizedAffinity -0.26897049
REMARK minimizedRMSD -1
REMARK  0 active torsions:
REMARK  status: ('A' for Active; 'I' for Inactive)
ROOT
ATOM      1  C   UNL d   1      -0.838  -0.300   0.250  0.00  0.00     0.124 A 
ATOM      2  C1  UNL d   1      -0.245  -1.507  -0.096  0.00  0.00     0.062 A 
ATOM      3  C2  UNL d   1       1.051  -1.531  -0.602  0.00  0.00     0.162 A 
ATOM      4  C3  UNL d   1       1.765  -0.343  -0.765  0.00  0.00    -0.034 A 
ATOM      5  C4  UNL d   1       1.162   0.867  -0.416  0.00  0.00     0.162 A 
ATOM      6  C5  UNL d   1      -0.134   0.885   0.090  0.00  0.00     0.062 A 
ATOM      7  F   UNL d   1      -0.704   2.052   0.423  0.00  0.00    -0.097 F 
ATOM      8  F1  UNL d   1       1.820   2.027  -0.560  0.00  0.00    -0.096 F 
ATOM      9  I   UNL d   1       3.704  -0.375  -1.521  0.00  0.00    -0.060 I 
ATOM     10  F2  UNL d   1       1.598  -2.711  -0.928  0.00  0.00    -0.096 F 
ATOM     11  F3  UNL d   1      -0.924  -2.653   0.057  0.00  0.00    -0.097 F 
ATOM     12  F4  UNL d   1      -2.085  -0.280   0.736  0.00  0.00    -0.092 F 
ENDROOT
TORSDOF 0
ENDMDL
