MODEL 1
REMARK minimizedAffinity -1.99636066
REMARK minimizedRMSD -1
REMARK  0 active torsions:
REMARK  status: ('A' for Active; 'I' for Inactive)
ROOT
ATOM      1  C   UNL d   1       1.878  -0.455  -1.290  0.00  0.00     0.124 A 
ATOM      2  C1  UNL d   1       1.444  -1.601  -0.637  0.00  0.00     0.062 A 
ATOM      3  C2  UNL d   1       0.323  -1.555   0.187  0.00  0.00     0.162 A 
ATOM      4  C3  UNL d   1      -0.374  -0.360   0.361  0.00  0.00    -0.034 A 
ATOM      5  C4  UNL d   1       0.068   0.788  -0.298  0.00  0.00     0.162 A 
ATOM      6  C5  UNL d   1       1.190   0.738  -1.120  0.00  0.00     0.062 A 
ATOM      7  F   UNL d   1       1.607   1.846  -1.750  0.00  0.00    -0.097 F 
ATOM      8  F1  UNL d   1      -0.578   1.954  -0.153  0.00  0.00    -0.096 F 
ATOM      9  I   UNL d   1      -2.051  -0.288   1.591  0.00  0.00    -0.060 I 
ATOM     10  F2  UNL d   1      -0.073  -2.678   0.805  0.00  0.00    -0.096 F 
ATOM     11  F3  UNL d   1       2.108  -2.754  -0.798  0.00  0.00    -0.097 F 
ATOM     12  F4  UNL d   1       2.957  -0.501  -2.081  0.00  0.00    -0.092 F 
ENDROOT
TORSDOF 0
ENDMDL
