MODEL 1
REMARK minimizedAffinity 4.13392019
REMARK minimizedRMSD -1
REMARK  0 active torsions:
REMARK  status: ('A' for Active; 'I' for Inactive)
ROOT
ATOM      1  C   UNL d   1       1.222  -0.386  -1.236  0.00  0.00     0.124 A 
ATOM      2  C1  UNL d   1       0.574   0.814  -0.980  0.00  0.00     0.062 A 
ATOM      3  C2  UNL d   1      -0.361   0.900   0.047  0.00  0.00     0.162 A 
ATOM      4  C3  UNL d   1      -0.654  -0.218   0.827  0.00  0.00    -0.034 A 
ATOM      5  C4  UNL d   1       0.001  -1.423   0.563  0.00  0.00     0.162 A 
ATOM      6  C5  UNL d   1       0.935  -1.503  -0.464  0.00  0.00     0.062 A 
ATOM      7  F   UNL d   1       1.559  -2.664  -0.710  0.00  0.00    -0.097 F 
ATOM      8  F1  UNL d   1      -0.257  -2.518   1.294  0.00  0.00    -0.096 F 
ATOM      9  I   UNL d   1      -2.052  -0.094   2.364  0.00  0.00    -0.060 I 
ATOM     10  F2  UNL d   1      -0.972   2.073   0.272  0.00  0.00    -0.096 F 
ATOM     11  F3  UNL d   1       0.850   1.895  -1.724  0.00  0.00    -0.097 F 
ATOM     12  F4  UNL d   1       2.121  -0.466  -2.225  0.00  0.00    -0.092 F 
ENDROOT
TORSDOF 0
ENDMDL
