MODEL 1
REMARK minimizedAffinity -3.07366538
REMARK minimizedRMSD -1
REMARK  0 active torsions:
REMARK  status: ('A' for Active; 'I' for Inactive)
ROOT
ATOM      1  C   UNL d   1       1.911  -0.399  -1.185  0.00  0.00     0.124 A 
ATOM      2  C1  UNL d   1       1.297  -1.539  -0.684  0.00  0.00     0.062 A 
ATOM      3  C2  UNL d   1       0.126  -1.433   0.061  0.00  0.00     0.162 A 
ATOM      4  C3  UNL d   1      -0.440  -0.182   0.308  0.00  0.00    -0.034 A 
ATOM      5  C4  UNL d   1       0.183   0.959  -0.199  0.00  0.00     0.162 A 
ATOM      6  C5  UNL d   1       1.354   0.848  -0.942  0.00  0.00     0.062 A 
ATOM      7  F   UNL d   1       1.946   1.950  -1.426  0.00  0.00    -0.097 F 
ATOM      8  F1  UNL d   1      -0.334   2.177   0.020  0.00  0.00    -0.096 F 
ATOM      9  I   UNL d   1      -2.192  -0.020   1.420  0.00  0.00    -0.060 I 
ATOM     10  F2  UNL d   1      -0.446  -2.551   0.533  0.00  0.00    -0.096 F 
ATOM     11  F3  UNL d   1       1.834  -2.745  -0.916  0.00  0.00    -0.097 F 
ATOM     12  F4  UNL d   1       3.039  -0.504  -1.900  0.00  0.00    -0.092 F 
ENDROOT
TORSDOF 0
ENDMDL
