MODEL 1
REMARK minimizedAffinity -1.1043216
REMARK minimizedRMSD -1
REMARK  0 active torsions:
REMARK  status: ('A' for Active; 'I' for Inactive)
ROOT
ATOM      1  C   UNL d   1       2.402  -1.314  -0.583  0.00  0.00     0.124 A 
ATOM      2  C1  UNL d   1       2.339   0.019  -0.965  0.00  0.00     0.062 A 
ATOM      3  C2  UNL d   1       1.130   0.706  -0.910  0.00  0.00     0.162 A 
ATOM      4  C3  UNL d   1      -0.026   0.062  -0.471  0.00  0.00    -0.034 A 
ATOM      5  C4  UNL d   1       0.045  -1.279  -0.089  0.00  0.00     0.162 A 
ATOM      6  C5  UNL d   1       1.255  -1.962  -0.145  0.00  0.00     0.062 A 
ATOM      7  F   UNL d   1       1.314  -3.250   0.224  0.00  0.00    -0.097 F 
ATOM      8  F1  UNL d   1      -1.048  -1.929   0.338  0.00  0.00    -0.096 F 
ATOM      9  I   UNL d   1      -1.836   1.086  -0.388  0.00  0.00    -0.060 I 
ATOM     10  F2  UNL d   1       1.099   1.993  -1.285  0.00  0.00    -0.096 F 
ATOM     11  F3  UNL d   1       3.446   0.646  -1.388  0.00  0.00    -0.097 F 
ATOM     12  F4  UNL d   1       3.567  -1.974  -0.637  0.00  0.00    -0.092 F 
ENDROOT
TORSDOF 0
ENDMDL
