MODEL 1
REMARK minimizedAffinity -1.93546987
REMARK minimizedRMSD -1
REMARK  0 active torsions:
REMARK  status: ('A' for Active; 'I' for Inactive)
ROOT
ATOM      1  C   UNL d   1       2.494  -0.645  -1.797  0.00  0.00     0.124 A 
ATOM      2  C1  UNL d   1       1.398  -1.495  -1.848  0.00  0.00     0.062 A 
ATOM      3  C2  UNL d   1       0.320  -1.298  -0.989  0.00  0.00     0.162 A 
ATOM      4  C3  UNL d   1       0.332  -0.245  -0.074  0.00  0.00    -0.034 A 
ATOM      5  C4  UNL d   1       1.439   0.604  -0.028  0.00  0.00     0.162 A 
ATOM      6  C5  UNL d   1       2.514   0.403  -0.888  0.00  0.00     0.062 A 
ATOM      7  F   UNL d   1       3.573   1.225  -0.838  0.00  0.00    -0.097 F 
ATOM      8  F1  UNL d   1       1.484   1.626   0.840  0.00  0.00    -0.096 F 
ATOM      9  I   UNL d   1      -1.277   0.053   1.211  0.00  0.00    -0.060 I 
ATOM     10  F2  UNL d   1      -0.727  -2.134  -1.060  0.00  0.00    -0.096 F 
ATOM     11  F3  UNL d   1       1.376  -2.509  -2.725  0.00  0.00    -0.097 F 
ATOM     12  F4  UNL d   1       3.530  -0.838  -2.624  0.00  0.00    -0.092 F 
ENDROOT
TORSDOF 0
ENDMDL
