MODEL 1
REMARK minimizedAffinity 1.05298686
REMARK minimizedRMSD -1
REMARK  0 active torsions:
REMARK  status: ('A' for Active; 'I' for Inactive)
ROOT
ATOM      1  C   UNL d   1       2.203  -0.458  -1.306  0.00  0.00     0.124 A 
ATOM      2  C1  UNL d   1       1.272  -1.479  -1.179  0.00  0.00     0.062 A 
ATOM      3  C2  UNL d   1       0.130  -1.293  -0.405  0.00  0.00     0.162 A 
ATOM      4  C3  UNL d   1      -0.088  -0.079   0.247  0.00  0.00    -0.034 A 
ATOM      5  C4  UNL d   1       0.854   0.943   0.115  0.00  0.00     0.162 A 
ATOM      6  C5  UNL d   1       1.993   0.752  -0.660  0.00  0.00     0.062 A 
ATOM      7  F   UNL d   1       2.892   1.740  -0.782  0.00  0.00    -0.097 F 
ATOM      8  F1  UNL d   1       0.675   2.122   0.728  0.00  0.00    -0.096 F 
ATOM      9  I   UNL d   1      -1.794   0.203   1.405  0.00  0.00    -0.060 I 
ATOM     10  F2  UNL d   1      -0.752  -2.298  -0.299  0.00  0.00    -0.096 F 
ATOM     11  F3  UNL d   1       1.473  -2.650  -1.801  0.00  0.00    -0.097 F 
ATOM     12  F4  UNL d   1       3.302  -0.640  -2.050  0.00  0.00    -0.092 F 
ENDROOT
TORSDOF 0
ENDMDL
