MODEL 1
REMARK minimizedAffinity 1.33823109
REMARK minimizedRMSD -1
REMARK  0 active torsions:
REMARK  status: ('A' for Active; 'I' for Inactive)
ROOT
ATOM      1  C   UNL d   1       1.679  -0.620  -1.144  0.00  0.00     0.124 A 
ATOM      2  C1  UNL d   1       1.322  -1.701  -0.352  0.00  0.00     0.062 A 
ATOM      3  C2  UNL d   1       0.182  -1.640   0.445  0.00  0.00     0.162 A 
ATOM      4  C3  UNL d   1      -0.610  -0.492   0.452  0.00  0.00    -0.034 A 
ATOM      5  C4  UNL d   1      -0.244   0.593  -0.348  0.00  0.00     0.162 A 
ATOM      6  C5  UNL d   1       0.896   0.526  -1.142  0.00  0.00     0.062 A 
ATOM      7  F   UNL d   1       1.240   1.572  -1.907  0.00  0.00    -0.097 F 
ATOM      8  F1  UNL d   1      -0.983   1.712  -0.365  0.00  0.00    -0.096 F 
ATOM      9  I   UNL d   1      -2.315  -0.396   1.641  0.00  0.00    -0.060 I 
ATOM     10  F2  UNL d   1      -0.139  -2.700   1.201  0.00  0.00    -0.096 F 
ATOM     11  F3  UNL d   1       2.078  -2.809  -0.352  0.00  0.00    -0.097 F 
ATOM     12  F4  UNL d   1       2.777  -0.681  -1.909  0.00  0.00    -0.092 F 
ENDROOT
TORSDOF 0
ENDMDL
