MODEL 1
REMARK minimizedAffinity -1.71505535
REMARK minimizedRMSD -1
REMARK  0 active torsions:
REMARK  status: ('A' for Active; 'I' for Inactive)
ROOT
ATOM      1  C   UNL d   1      -0.278   1.444   1.210  0.00  0.00     0.124 A 
ATOM      2  C1  UNL d   1      -1.079   1.981   2.209  0.00  0.00     0.062 A 
ATOM      3  C2  UNL d   1      -2.363   1.487   2.417  0.00  0.00     0.162 A 
ATOM      4  C3  UNL d   1      -2.855   0.449   1.625  0.00  0.00    -0.034 A 
ATOM      5  C4  UNL d   1      -2.044  -0.085   0.623  0.00  0.00     0.162 A 
ATOM      6  C5  UNL d   1      -0.761   0.412   0.418  0.00  0.00     0.062 A 
ATOM      7  F   UNL d   1       0.011  -0.108  -0.547  0.00  0.00    -0.097 F 
ATOM      8  F1  UNL d   1      -2.486  -1.084  -0.156  0.00  0.00    -0.096 F 
ATOM      9  I   UNL d   1      -4.776  -0.292   1.934  0.00  0.00    -0.060 I 
ATOM     10  F2  UNL d   1      -3.115   2.025   3.389  0.00  0.00    -0.096 F 
ATOM     11  F3  UNL d   1      -0.614   2.979   2.974  0.00  0.00    -0.097 F 
ATOM     12  F4  UNL d   1       0.957   1.921   1.011  0.00  0.00    -0.092 F 
ENDROOT
TORSDOF 0
ENDMDL
