MODEL 1
REMARK minimizedAffinity -3.42169976
REMARK minimizedRMSD -1
REMARK  0 active torsions:
REMARK  status: ('A' for Active; 'I' for Inactive)
ROOT
ATOM      1  C   UNL d   1      -1.070  -0.430  -0.043  0.00  0.00     0.172 C 
ATOM      2  N   UNL d   1      -0.819   0.311   1.170  0.00  0.00    -0.070 N 
ATOM      3  C1  UNL d   1      -1.364   1.526   1.492  0.00  0.00    -0.004 A 
ATOM      4  C2  UNL d   1      -0.877   1.894   2.727  0.00  0.00    -0.047 A 
ATOM      5  C3  UNL d   1      -0.008   0.865   3.163  0.00  0.00    -0.047 A 
ATOM      6  C4  UNL d   1       0.009  -0.102   2.180  0.00  0.00    -0.004 A 
ENDROOT
TORSDOF 0
ENDMDL
