MODEL 1
REMARK minimizedAffinity -3.28665376
REMARK minimizedRMSD -1
REMARK  0 active torsions:
REMARK  status: ('A' for Active; 'I' for Inactive)
ROOT
ATOM      1  C   UNL d   1      -1.156   1.418   2.315  0.00  0.00     0.172 C 
ATOM      2  N   UNL d   1      -0.708   0.772   1.103  0.00  0.00    -0.070 N 
ATOM      3  C1  UNL d   1      -1.505   0.406   0.052  0.00  0.00    -0.004 A 
ATOM      4  C2  UNL d   1      -0.702  -0.177  -0.904  0.00  0.00    -0.047 A 
ATOM      5  C3  UNL d   1       0.624  -0.162  -0.410  0.00  0.00    -0.047 A 
ATOM      6  C4  UNL d   1       0.592   0.431   0.835  0.00  0.00    -0.004 A 
ENDROOT
TORSDOF 0
ENDMDL
