MODEL 1
REMARK minimizedAffinity -4.43450165
REMARK minimizedRMSD -1
REMARK  0 active torsions:
REMARK  status: ('A' for Active; 'I' for Inactive)
ROOT
ATOM      1  C   UNL d   1       0.621  -0.229  -0.348  0.00  0.00     0.172 C 
ATOM      2  N   UNL d   1       0.369   0.261   0.987  0.00  0.00    -0.070 N 
ATOM      3  C1  UNL d   1      -0.729   0.978   1.380  0.00  0.00    -0.004 A 
ATOM      4  C2  UNL d   1      -0.594   1.254   2.724  0.00  0.00    -0.047 A 
ATOM      5  C3  UNL d   1       0.628   0.685   3.153  0.00  0.00    -0.047 A 
ATOM      6  C4  UNL d   1       1.204   0.076   2.057  0.00  0.00    -0.004 A 
ENDROOT
TORSDOF 0
ENDMDL
