MODEL 1
REMARK minimizedAffinity -0.619309962
REMARK minimizedRMSD -1
REMARK  0 active torsions:
REMARK  status: ('A' for Active; 'I' for Inactive)
ROOT
ATOM      1  C   UNL d   1       2.079  -0.491   2.125  0.00  0.00     0.172 C 
ATOM      2  N   UNL d   1       0.726  -0.119   1.784  0.00  0.00    -0.070 N 
ATOM      3  C1  UNL d   1       0.236   0.035   0.514  0.00  0.00    -0.004 A 
ATOM      4  C2  UNL d   1      -1.092   0.391   0.615  0.00  0.00    -0.047 A 
ATOM      5  C3  UNL d   1      -1.410   0.454   1.992  0.00  0.00    -0.047 A 
ATOM      6  C4  UNL d   1      -0.267   0.134   2.693  0.00  0.00    -0.004 A 
ENDROOT
TORSDOF 0
ENDMDL
