MODEL 1
REMARK minimizedAffinity -4.19597864
REMARK minimizedRMSD -1
REMARK  0 active torsions:
REMARK  status: ('A' for Active; 'I' for Inactive)
ROOT
ATOM      1  C   UNL d   1      -0.000  -0.118  -0.306  0.00  0.00     0.172 C 
ATOM      2  N   UNL d   1       0.016   0.353   1.059  0.00  0.00    -0.070 N 
ATOM      3  C1  UNL d   1      -0.977   1.072   1.668  0.00  0.00    -0.004 A 
ATOM      4  C2  UNL d   1      -0.582   1.326   2.963  0.00  0.00    -0.047 A 
ATOM      5  C3  UNL d   1       0.693   0.739   3.140  0.00  0.00    -0.047 A 
ATOM      6  C4  UNL d   1       1.040   0.143   1.945  0.00  0.00    -0.004 A 
ENDROOT
TORSDOF 0
ENDMDL
