MODEL 1
REMARK minimizedAffinity -2.25267625
REMARK minimizedRMSD -1
REMARK  0 active torsions:
REMARK  status: ('A' for Active; 'I' for Inactive)
ROOT
ATOM      1  C   UNL d   1       0.570  -1.109  -0.751  0.00  0.00     0.172 C 
ATOM      2  N   UNL d   1       0.674  -0.608  -2.101  0.00  0.00    -0.070 N 
ATOM      3  C1  UNL d   1      -0.193  -0.886  -3.124  0.00  0.00    -0.004 A 
ATOM      4  C2  UNL d   1       0.251  -0.221  -4.246  0.00  0.00    -0.047 A 
ATOM      5  C3  UNL d   1       1.426   0.481  -3.885  0.00  0.00    -0.047 A 
ATOM      6  C4  UNL d   1       1.665   0.224  -2.552  0.00  0.00    -0.004 A 
ENDROOT
TORSDOF 0
ENDMDL
