MODEL 1
REMARK minimizedAffinity -0.995133281
REMARK minimizedRMSD -1
REMARK  0 active torsions:
REMARK  status: ('A' for Active; 'I' for Inactive)
ROOT
ATOM      1  C   UNL d   1      -1.520   0.305   2.794  0.00  0.00     0.172 C 
ATOM      2  N   UNL d   1      -0.564  -0.036   1.766  0.00  0.00    -0.070 N 
ATOM      3  C1  UNL d   1      -0.816  -0.067   0.421  0.00  0.00    -0.004 A 
ATOM      4  C2  UNL d   1       0.349  -0.435  -0.218  0.00  0.00    -0.047 A 
ATOM      5  C3  UNL d   1       1.334  -0.632   0.778  0.00  0.00    -0.047 A 
ATOM      6  C4  UNL d   1       0.742  -0.378   1.998  0.00  0.00    -0.004 A 
ENDROOT
TORSDOF 0
ENDMDL
