MODEL 1
REMARK minimizedAffinity -3.80357981
REMARK minimizedRMSD -1
REMARK  0 active torsions:
REMARK  status: ('A' for Active; 'I' for Inactive)
ROOT
ATOM      1  C   UNL d   1      -1.095  -0.011   0.061  0.00  0.00     0.172 C 
ATOM      2  N   UNL d   1      -0.543   0.381   1.336  0.00  0.00    -0.070 N 
ATOM      3  C1  UNL d   1       0.685   0.015   1.821  0.00  0.00    -0.004 A 
ATOM      4  C2  UNL d   1       0.837   0.593   3.063  0.00  0.00    -0.047 A 
ATOM      5  C3  UNL d   1      -0.340   1.330   3.335  0.00  0.00    -0.047 A 
ATOM      6  C4  UNL d   1      -1.177   1.182   2.249  0.00  0.00    -0.004 A 
ENDROOT
TORSDOF 0
ENDMDL
