MODEL 1
REMARK minimizedAffinity -4.01578808
REMARK minimizedRMSD -1
REMARK  0 active torsions:
REMARK  status: ('A' for Active; 'I' for Inactive)
ROOT
ATOM      1  C   UNL d   1       0.355  -0.053  -0.285  0.00  0.00     0.172 C 
ATOM      2  N   UNL d   1       0.174   0.267   1.112  0.00  0.00    -0.070 N 
ATOM      3  C1  UNL d   1      -0.898   0.929   1.648  0.00  0.00    -0.004 A 
ATOM      4  C2  UNL d   1      -0.693   1.035   3.006  0.00  0.00    -0.047 A 
ATOM      5  C3  UNL d   1       0.546   0.416   3.297  0.00  0.00    -0.047 A 
ATOM      6  C4  UNL d   1       1.061  -0.051   2.107  0.00  0.00    -0.004 A 
ENDROOT
TORSDOF 0
ENDMDL
