MODEL 1
REMARK minimizedAffinity -3.5988934
REMARK minimizedRMSD -1
REMARK  0 active torsions:
REMARK  status: ('A' for Active; 'I' for Inactive)
ROOT
ATOM      1  C   UNL d   1      -0.498   1.336   2.386  0.00  0.00     0.172 C 
ATOM      2  N   UNL d   1      -0.018   0.372   1.425  0.00  0.00    -0.070 N 
ATOM      3  C1  UNL d   1      -0.728  -0.115   0.360  0.00  0.00    -0.004 A 
ATOM      4  C2  UNL d   1       0.079  -1.008  -0.312  0.00  0.00    -0.047 A 
ATOM      5  C3  UNL d   1       1.316  -1.060   0.374  0.00  0.00    -0.047 A 
ATOM      6  C4  UNL d   1       1.229  -0.196   1.445  0.00  0.00    -0.004 A 
ENDROOT
TORSDOF 0
ENDMDL
