MODEL 1
REMARK minimizedAffinity 14.4351625
REMARK minimizedRMSD -1
REMARK  0 active torsions:
REMARK  status: ('A' for Active; 'I' for Inactive)
ROOT
ATOM      1  C   UNL d   1       1.449   1.320   3.063  0.00  0.00     0.124 A 
ATOM      2  C1  UNL d   1       2.196   2.420   2.664  0.00  0.00     0.062 A 
ATOM      3  C2  UNL d   1       1.721   3.263   1.663  0.00  0.00     0.162 A 
ATOM      4  C3  UNL d   1       0.492   3.011   1.055  0.00  0.00    -0.034 A 
ATOM      5  C4  UNL d   1      -0.254   1.903   1.461  0.00  0.00     0.162 A 
ATOM      6  C5  UNL d   1       0.225   1.063   2.461  0.00  0.00     0.062 A 
ATOM      7  F   UNL d   1      -0.499   0.001   2.845  0.00  0.00    -0.097 F 
ATOM      8  F1  UNL d   1      -1.440   1.631   0.897  0.00  0.00    -0.096 F 
ATOM      9  I   UNL d   1      -0.221   4.270  -0.441  0.00  0.00    -0.060 I 
ATOM     10  F2  UNL d   1       2.465   4.318   1.298  0.00  0.00    -0.096 F 
ATOM     11  F3  UNL d   1       3.379   2.670   3.243  0.00  0.00    -0.097 F 
ATOM     12  F4  UNL d   1       1.908   0.510   4.025  0.00  0.00    -0.092 F 
ENDROOT
TORSDOF 0
ENDMDL
