MODEL 1
REMARK minimizedAffinity 4.76387596
REMARK minimizedRMSD -1
REMARK  0 active torsions:
REMARK  status: ('A' for Active; 'I' for Inactive)
ROOT
ATOM      1  C   UNL d   1       0.120   1.925  -0.174  0.00  0.00     0.124 A 
ATOM      2  C1  UNL d   1      -0.996   2.404  -0.848  0.00  0.00     0.062 A 
ATOM      3  C2  UNL d   1      -1.449   1.761  -1.997  0.00  0.00     0.162 A 
ATOM      4  C3  UNL d   1      -0.786   0.632  -2.479  0.00  0.00    -0.034 A 
ATOM      5  C4  UNL d   1       0.335   0.157  -1.796  0.00  0.00     0.162 A 
ATOM      6  C5  UNL d   1       0.784   0.803  -0.649  0.00  0.00     0.062 A 
ATOM      7  F   UNL d   1       1.861   0.339   0.001  0.00  0.00    -0.097 F 
ATOM      8  F1  UNL d   1       0.995  -0.926  -2.233  0.00  0.00    -0.096 F 
ATOM      9  I   UNL d   1      -1.460  -0.331  -4.196  0.00  0.00    -0.060 I 
ATOM     10  F2  UNL d   1      -2.529   2.245  -2.627  0.00  0.00    -0.096 F 
ATOM     11  F3  UNL d   1      -1.639   3.488  -0.392  0.00  0.00    -0.097 F 
ATOM     12  F4  UNL d   1       0.554   2.546   0.930  0.00  0.00    -0.092 F 
ENDROOT
TORSDOF 0
ENDMDL
