MODEL 1
REMARK minimizedAffinity 7.14727116
REMARK minimizedRMSD -1
REMARK  0 active torsions:
REMARK  status: ('A' for Active; 'I' for Inactive)
ROOT
ATOM      1  C   UNL d   1      -0.048   1.995  -0.824  0.00  0.00     0.124 A 
ATOM      2  C1  UNL d   1      -1.382   1.814  -1.160  0.00  0.00     0.062 A 
ATOM      3  C2  UNL d   1      -2.375   2.522  -0.489  0.00  0.00     0.162 A 
ATOM      4  C3  UNL d   1      -2.037   3.419   0.524  0.00  0.00    -0.034 A 
ATOM      5  C4  UNL d   1      -0.692   3.596   0.856  0.00  0.00     0.162 A 
ATOM      6  C5  UNL d   1       0.296   2.885   0.183  0.00  0.00     0.062 A 
ATOM      7  F   UNL d   1       1.585   3.062   0.508  0.00  0.00    -0.097 F 
ATOM      8  F1  UNL d   1      -0.332   4.451   1.825  0.00  0.00    -0.096 F 
ATOM      9  I   UNL d   1      -3.518   4.480   1.530  0.00  0.00    -0.060 I 
ATOM     10  F2  UNL d   1      -3.656   2.327  -0.834  0.00  0.00    -0.096 F 
ATOM     11  F3  UNL d   1      -1.717   0.953  -2.132  0.00  0.00    -0.097 F 
ATOM     12  F4  UNL d   1       0.905   1.312  -1.471  0.00  0.00    -0.092 F 
ENDROOT
TORSDOF 0
ENDMDL
