MODEL 1
REMARK minimizedAffinity 16.0897408
REMARK minimizedRMSD -1
REMARK  0 active torsions:
REMARK  status: ('A' for Active; 'I' for Inactive)
ROOT
ATOM      1  C   UNL d   1       4.105  -5.013  -0.655  0.00  0.00     0.124 A 
ATOM      2  C1  UNL d   1       2.815  -5.513  -0.765  0.00  0.00     0.062 A 
ATOM      3  C2  UNL d   1       2.165  -5.510  -1.996  0.00  0.00     0.162 A 
ATOM      4  C3  UNL d   1       2.805  -5.006  -3.128  0.00  0.00    -0.034 A 
ATOM      5  C4  UNL d   1       4.102  -4.504  -3.010  0.00  0.00     0.162 A 
ATOM      6  C5  UNL d   1       4.747  -4.509  -1.777  0.00  0.00     0.062 A 
ATOM      7  F   UNL d   1       5.994  -4.026  -1.673  0.00  0.00    -0.097 F 
ATOM      8  F1  UNL d   1       4.747  -4.012  -4.078  0.00  0.00    -0.096 F 
ATOM      9  I   UNL d   1       1.837  -5.000  -4.970  0.00  0.00    -0.060 I 
ATOM     10  F2  UNL d   1       0.919  -6.000  -2.072  0.00  0.00    -0.096 F 
ATOM     11  F3  UNL d   1       2.192  -6.000   0.318  0.00  0.00    -0.097 F 
ATOM     12  F4  UNL d   1       4.727  -5.016   0.531  0.00  0.00    -0.092 F 
ENDROOT
TORSDOF 0
ENDMDL
