MODEL 1
REMARK minimizedAffinity 15.4148741
REMARK minimizedRMSD -1
REMARK  0 active torsions:
REMARK  status: ('A' for Active; 'I' for Inactive)
ROOT
ATOM      1  C   UNL d   1      -0.266   3.216   0.193  0.00  0.00     0.124 A 
ATOM      2  C1  UNL d   1       1.042   2.756   0.266  0.00  0.00     0.062 A 
ATOM      3  C2  UNL d   1       1.300   1.431   0.604  0.00  0.00     0.162 A 
ATOM      4  C3  UNL d   1       0.248   0.555   0.871  0.00  0.00    -0.034 A 
ATOM      5  C4  UNL d   1      -1.064   1.024   0.796  0.00  0.00     0.162 A 
ATOM      6  C5  UNL d   1      -1.317   2.350   0.458  0.00  0.00     0.062 A 
ATOM      7  F   UNL d   1      -2.582   2.792   0.388  0.00  0.00    -0.097 F 
ATOM      8  F1  UNL d   1      -2.099   0.209   1.046  0.00  0.00    -0.096 F 
ATOM      9  I   UNL d   1       0.630  -1.428   1.376  0.00  0.00    -0.060 I 
ATOM     10  F2  UNL d   1       2.574   1.014   0.667  0.00  0.00    -0.096 F 
ATOM     11  F3  UNL d   1       2.059   3.591   0.012  0.00  0.00    -0.097 F 
ATOM     12  F4  UNL d   1      -0.512   4.492  -0.131  0.00  0.00    -0.092 F 
ENDROOT
TORSDOF 0
ENDMDL
