MODEL 1
REMARK minimizedAffinity 29.9798603
REMARK minimizedRMSD -1
REMARK  0 active torsions:
REMARK  status: ('A' for Active; 'I' for Inactive)
ROOT
ATOM      1  C   UNL d   1       0.152   1.813  -0.990  0.00  0.00     0.124 A 
ATOM      2  C1  UNL d   1       0.461   1.857   0.363  0.00  0.00     0.062 A 
ATOM      3  C2  UNL d   1       1.078   0.770   0.975  0.00  0.00     0.162 A 
ATOM      4  C3  UNL d   1       1.392  -0.371   0.235  0.00  0.00    -0.034 A 
ATOM      5  C4  UNL d   1       1.077  -0.407  -1.125  0.00  0.00     0.162 A 
ATOM      6  C5  UNL d   1       0.460   0.682  -1.732  0.00  0.00     0.062 A 
ATOM      7  F   UNL d   1       0.162   0.638  -3.039  0.00  0.00    -0.097 F 
ATOM      8  F1  UNL d   1       1.364  -1.488  -1.866  0.00  0.00    -0.096 F 
ATOM      9  I   UNL d   1       2.314  -1.998   1.147  0.00  0.00    -0.060 I 
ATOM     10  F2  UNL d   1       1.366   0.839   2.283  0.00  0.00    -0.096 F 
ATOM     11  F3  UNL d   1       0.164   2.948   1.082  0.00  0.00    -0.097 F 
ATOM     12  F4  UNL d   1      -0.442   2.860  -1.576  0.00  0.00    -0.092 F 
ENDROOT
TORSDOF 0
ENDMDL
