MODEL 1
REMARK minimizedAffinity 13.8378754
REMARK minimizedRMSD -1
REMARK  0 active torsions:
REMARK  status: ('A' for Active; 'I' for Inactive)
ROOT
ATOM      1  C   UNL d   1       0.835   0.303  -1.910  0.00  0.00     0.124 A 
ATOM      2  C1  UNL d   1       0.396   1.333  -1.089  0.00  0.00     0.062 A 
ATOM      3  C2  UNL d   1      -0.700   2.105  -1.462  0.00  0.00     0.162 A 
ATOM      4  C3  UNL d   1      -1.366   1.850  -2.661  0.00  0.00    -0.034 A 
ATOM      5  C4  UNL d   1      -0.918   0.813  -3.481  0.00  0.00     0.162 A 
ATOM      6  C5  UNL d   1       0.178   0.044  -3.104  0.00  0.00     0.062 A 
ATOM      7  F   UNL d   1       0.601  -0.951  -3.898  0.00  0.00    -0.097 F 
ATOM      8  F1  UNL d   1      -1.536   0.540  -4.640  0.00  0.00    -0.096 F 
ATOM      9  I   UNL d   1      -3.006   3.003  -3.221  0.00  0.00    -0.060 I 
ATOM     10  F2  UNL d   1      -1.103   3.094  -0.650  0.00  0.00    -0.096 F 
ATOM     11  F3  UNL d   1       1.030   1.586   0.065  0.00  0.00    -0.097 F 
ATOM     12  F4  UNL d   1       1.891  -0.438  -1.549  0.00  0.00    -0.092 F 
ENDROOT
TORSDOF 0
ENDMDL
