MODEL 1
REMARK minimizedAffinity 8.37364101
REMARK minimizedRMSD -1
REMARK  0 active torsions:
REMARK  status: ('A' for Active; 'I' for Inactive)
ROOT
ATOM      1  C   UNL d   1      -3.397   2.023  -3.387  0.00  0.00     0.124 A 
ATOM      2  C1  UNL d   1      -3.193   3.386  -3.224  0.00  0.00     0.062 A 
ATOM      3  C2  UNL d   1      -3.935   4.299  -3.969  0.00  0.00     0.162 A 
ATOM      4  C3  UNL d   1      -4.889   3.851  -4.883  0.00  0.00    -0.034 A 
ATOM      5  C4  UNL d   1      -5.088   2.479  -5.042  0.00  0.00     0.162 A 
ATOM      6  C5  UNL d   1      -4.344   1.571  -4.296  0.00  0.00     0.062 A 
ATOM      7  F   UNL d   1      -4.542   0.254  -4.454  0.00  0.00    -0.097 F 
ATOM      8  F1  UNL d   1      -5.996   2.014  -5.912  0.00  0.00    -0.096 F 
ATOM      9  I   UNL d   1      -5.999   5.213  -5.999  0.00  0.00    -0.060 I 
ATOM     10  F2  UNL d   1      -3.717   5.610  -3.791  0.00  0.00    -0.096 F 
ATOM     11  F3  UNL d   1      -2.279   3.826  -2.348  0.00  0.00    -0.097 F 
ATOM     12  F4  UNL d   1      -2.682   1.147  -2.670  0.00  0.00    -0.092 F 
ENDROOT
TORSDOF 0
ENDMDL
