MODEL 1
REMARK minimizedAffinity 11.9401808
REMARK minimizedRMSD -1
REMARK  0 active torsions:
REMARK  status: ('A' for Active; 'I' for Inactive)
ROOT
ATOM      1  C   UNL d   1       0.215  -2.779  -2.792  0.00  0.00     0.124 A 
ATOM      2  C1  UNL d   1       1.116  -2.525  -3.817  0.00  0.00     0.062 A 
ATOM      3  C2  UNL d   1       2.121  -3.443  -4.108  0.00  0.00     0.162 A 
ATOM      4  C3  UNL d   1       2.230  -4.624  -3.374  0.00  0.00    -0.034 A 
ATOM      5  C4  UNL d   1       1.321  -4.871  -2.344  0.00  0.00     0.162 A 
ATOM      6  C5  UNL d   1       0.318  -3.951  -2.057  0.00  0.00     0.062 A 
ATOM      7  F   UNL d   1      -0.551  -4.198  -1.066  0.00  0.00    -0.097 F 
ATOM      8  F1  UNL d   1       1.398  -5.997  -1.618  0.00  0.00    -0.096 F 
ATOM      9  I   UNL d   1       3.732  -5.998  -3.807  0.00  0.00    -0.060 I 
ATOM     10  F2  UNL d   1       2.978  -3.172  -5.104  0.00  0.00    -0.096 F 
ATOM     11  F3  UNL d   1       1.019  -1.393  -4.528  0.00  0.00    -0.097 F 
ATOM     12  F4  UNL d   1      -0.751  -1.894  -2.513  0.00  0.00    -0.092 F 
ENDROOT
TORSDOF 0
ENDMDL
