MODEL 1
REMARK minimizedAffinity 6.02090025
REMARK minimizedRMSD -1
REMARK  0 active torsions:
REMARK  status: ('A' for Active; 'I' for Inactive)
ROOT
ATOM      1  O1  BZF d   1       5.283  -4.181  -3.756  0.00  0.00    -0.204 OA
ATOM      2  C2  BZF d   1       5.997  -4.021  -4.928  0.00  0.00     0.174 A 
ATOM      3  C3  BZF d   1       5.307  -4.509  -5.979  0.00  0.00    -0.012 A 
ATOM      4  C3A BZF d   1       4.046  -4.922  -5.442  0.00  0.00    -0.107 A 
ATOM      5  C4  BZF d   1       2.925  -5.473  -5.995  0.00  0.00     0.055 A 
ATOM      6  C5  BZF d   1       1.894  -5.825  -5.184  0.00  0.00    -0.016 A 
ATOM      7  C6  BZF d   1       1.951  -5.645  -3.817  0.00  0.00     0.022 A 
ATOM      8  C7  BZF d   1       3.039  -5.098  -3.223  0.00  0.00     0.029 A 
ATOM      9  C7A BZF d   1       4.070  -4.711  -4.044  0.00  0.00     0.058 A 
ENDROOT
TORSDOF 0
ENDMDL
