MODEL 1
REMARK minimizedAffinity 3.32343793
REMARK minimizedRMSD -1
REMARK  0 active torsions:
REMARK  status: ('A' for Active; 'I' for Inactive)
ROOT
ATOM      1  O1  BZF d   1      -0.977  -1.308   2.293  0.00  0.00    -0.204 OA
ATOM      2  C2  BZF d   1      -1.921  -2.142   2.859  0.00  0.00     0.174 A 
ATOM      3  C3  BZF d   1      -2.406  -3.006   1.944  0.00  0.00    -0.012 A 
ATOM      4  C3A BZF d   1      -1.655  -2.753   0.753  0.00  0.00    -0.107 A 
ATOM      5  C4  BZF d   1      -1.663  -3.303  -0.497  0.00  0.00     0.055 A 
ATOM      6  C5  BZF d   1      -0.854  -2.779  -1.455  0.00  0.00    -0.016 A 
ATOM      7  C6  BZF d   1      -0.030  -1.703  -1.200  0.00  0.00     0.022 A 
ATOM      8  C7  BZF d   1       0.017  -1.126   0.026  0.00  0.00     0.029 A 
ATOM      9  C7A BZF d   1      -0.775  -1.675   1.005  0.00  0.00     0.058 A 
ENDROOT
TORSDOF 0
ENDMDL
