MODEL 1
REMARK minimizedAffinity 15.8787766
REMARK minimizedRMSD -1
REMARK  0 active torsions:
REMARK  status: ('A' for Active; 'I' for Inactive)
ROOT
ATOM      1  O1  BZF d   1      -2.344  -3.789  -1.552  0.00  0.00    -0.204 OA
ATOM      2  C2  BZF d   1      -1.479  -3.700  -2.625  0.00  0.00     0.174 A 
ATOM      3  C3  BZF d   1      -0.375  -3.000  -2.293  0.00  0.00    -0.012 A 
ATOM      4  C3A BZF d   1      -0.520  -2.708  -0.900  0.00  0.00    -0.107 A 
ATOM      5  C4  BZF d   1       0.261  -2.050   0.008  0.00  0.00     0.055 A 
ATOM      6  C5  BZF d   1      -0.202  -1.875   1.273  0.00  0.00    -0.016 A 
ATOM      7  C6  BZF d   1      -1.442  -2.338   1.663  0.00  0.00     0.022 A 
ATOM      8  C7  BZF d   1      -2.250  -3.000   0.800  0.00  0.00     0.029 A 
ATOM      9  C7A BZF d   1      -1.771  -3.208  -0.470  0.00  0.00     0.058 A 
ENDROOT
TORSDOF 0
ENDMDL
