MODEL 1
REMARK minimizedAffinity 9.28705311
REMARK minimizedRMSD -1
REMARK  0 active torsions:
REMARK  status: ('A' for Active; 'I' for Inactive)
ROOT
ATOM      1  O1  BZF d   1       2.778   0.610   1.842  0.00  0.00    -0.204 OA
ATOM      2  C2  BZF d   1       1.500   0.206   1.510  0.00  0.00     0.174 A 
ATOM      3  C3  BZF d   1       0.907   1.109   0.702  0.00  0.00    -0.012 A 
ATOM      4  C3A BZF d   1       1.909   2.096   0.442  0.00  0.00    -0.107 A 
ATOM      5  C4  BZF d   1       1.930   3.238  -0.307  0.00  0.00     0.055 A 
ATOM      6  C5  BZF d   1       3.043   4.018  -0.292  0.00  0.00    -0.016 A 
ATOM      7  C6  BZF d   1       4.149   3.689   0.465  0.00  0.00     0.022 A 
ATOM      8  C7  BZF d   1       4.177   2.564   1.220  0.00  0.00     0.029 A 
ATOM      9  C7A BZF d   1       3.066   1.757   1.181  0.00  0.00     0.058 A 
ENDROOT
TORSDOF 0
ENDMDL
