MODEL 1
REMARK minimizedAffinity 5.91335773
REMARK minimizedRMSD -1
REMARK  0 active torsions:
REMARK  status: ('A' for Active; 'I' for Inactive)
ROOT
ATOM      1  O1  BZF d   1       5.900   1.063  -5.757  0.00  0.00    -0.204 OA
ATOM      2  C2  BZF d   1       4.889   0.122  -5.760  0.00  0.00     0.174 A 
ATOM      3  C3  BZF d   1       3.680   0.718  -5.776  0.00  0.00    -0.012 A 
ATOM      4  C3A BZF d   1       3.953   2.119  -5.877  0.00  0.00    -0.107 A 
ATOM      5  C4  BZF d   1       3.158   3.228  -5.951  0.00  0.00     0.055 A 
ATOM      6  C5  BZF d   1       3.739   4.456  -5.967  0.00  0.00    -0.016 A 
ATOM      7  C6  BZF d   1       5.108   4.613  -5.905  0.00  0.00     0.022 A 
ATOM      8  C7  BZF d   1       5.937   3.543  -5.836  0.00  0.00     0.029 A 
ATOM      9  C7A BZF d   1       5.355   2.299  -5.853  0.00  0.00     0.058 A 
ENDROOT
TORSDOF 0
ENDMDL
