MODEL 1
REMARK minimizedAffinity 10.9014311
REMARK minimizedRMSD -1
REMARK  0 active torsions:
REMARK  status: ('A' for Active; 'I' for Inactive)
ROOT
ATOM      1  O1  BZF d   1      -0.410  -1.709  -2.149  0.00  0.00    -0.204 OA
ATOM      2  C2  BZF d   1      -0.646  -3.015  -1.765  0.00  0.00     0.174 A 
ATOM      3  C3  BZF d   1      -0.178  -3.239  -0.520  0.00  0.00    -0.012 A 
ATOM      4  C3A BZF d   1       0.303  -1.971  -0.064  0.00  0.00    -0.107 A 
ATOM      5  C4  BZF d   1       0.870  -1.546   1.103  0.00  0.00     0.055 A 
ATOM      6  C5  BZF d   1       1.294  -0.258   1.201  0.00  0.00    -0.016 A 
ATOM      7  C6  BZF d   1       1.171   0.628   0.151  0.00  0.00     0.022 A 
ATOM      8  C7  BZF d   1       0.610   0.255  -1.024  0.00  0.00     0.029 A 
ATOM      9  C7A BZF d   1       0.151  -1.037  -1.115  0.00  0.00     0.058 A 
ENDROOT
TORSDOF 0
ENDMDL
