MODEL 1
REMARK minimizedAffinity 10.5567389
REMARK minimizedRMSD -1
REMARK  0 active torsions:
REMARK  status: ('A' for Active; 'I' for Inactive)
ROOT
ATOM      1  O1  BZF d   1       0.517   1.551   2.183  0.00  0.00    -0.204 OA
ATOM      2  C2  BZF d   1       1.861   1.373   1.916  0.00  0.00     0.174 A 
ATOM      3  C3  BZF d   1       2.224   2.053   0.810  0.00  0.00    -0.012 A 
ATOM      4  C3A BZF d   1       1.053   2.771   0.409  0.00  0.00    -0.107 A 
ATOM      5  C4  BZF d   1       0.787   3.636  -0.614  0.00  0.00     0.055 A 
ATOM      6  C5  BZF d   1      -0.479   4.106  -0.769  0.00  0.00    -0.016 A 
ATOM      7  C6  BZF d   1      -1.502   3.728   0.076  0.00  0.00     0.022 A 
ATOM      8  C7  BZF d   1      -1.286   2.876   1.107  0.00  0.00     0.029 A 
ATOM      9  C7A BZF d   1      -0.001   2.425   1.286  0.00  0.00     0.058 A 
ENDROOT
TORSDOF 0
ENDMDL
