MODEL 1
REMARK minimizedAffinity 9.82922268
REMARK minimizedRMSD -1
REMARK  0 active torsions:
REMARK  status: ('A' for Active; 'I' for Inactive)
ROOT
ATOM      1  O1  BZF d   1      -1.805  -0.589   2.798  0.00  0.00    -0.204 OA
ATOM      2  C2  BZF d   1      -1.435  -1.781   2.205  0.00  0.00     0.174 A 
ATOM      3  C3  BZF d   1      -0.548  -1.566   1.212  0.00  0.00    -0.012 A 
ATOM      4  C3A BZF d   1      -0.281  -0.161   1.243  0.00  0.00    -0.107 A 
ATOM      5  C4  BZF d   1       0.531   0.657   0.511  0.00  0.00     0.055 A 
ATOM      6  C5  BZF d   1       0.505   1.995   0.745  0.00  0.00    -0.016 A 
ATOM      7  C6  BZF d   1      -0.322   2.549   1.700  0.00  0.00     0.022 A 
ATOM      8  C7  BZF d   1      -1.141   1.778   2.455  0.00  0.00     0.029 A 
ATOM      9  C7A BZF d   1      -1.094   0.422   2.243  0.00  0.00     0.058 A 
ENDROOT
TORSDOF 0
ENDMDL
