MODEL 1
REMARK minimizedAffinity 7.41331768
REMARK minimizedRMSD -1
REMARK  0 active torsions:
REMARK  status: ('A' for Active; 'I' for Inactive)
ROOT
ATOM      1  O1  BZF d   1      -1.336  -4.762  -0.421  0.00  0.00    -0.204 OA
ATOM      2  C2  BZF d   1      -1.307  -3.559  -1.098  0.00  0.00     0.174 A 
ATOM      3  C3  BZF d   1      -1.226  -2.526  -0.235  0.00  0.00    -0.012 A 
ATOM      4  C3A BZF d   1      -1.110  -3.125   1.059  0.00  0.00    -0.107 A 
ATOM      5  C4  BZF d   1      -0.980  -2.618   2.320  0.00  0.00     0.055 A 
ATOM      6  C5  BZF d   1      -0.965  -3.471   3.378  0.00  0.00    -0.016 A 
ATOM      7  C6  BZF d   1      -1.085  -4.836   3.211  0.00  0.00     0.022 A 
ATOM      8  C7  BZF d   1      -1.211  -5.386   1.979  0.00  0.00     0.029 A 
ATOM      9  C7A BZF d   1      -1.193  -4.528   0.906  0.00  0.00     0.058 A 
ENDROOT
TORSDOF 0
ENDMDL
