MODEL 1
REMARK minimizedAffinity -1.62810338
REMARK minimizedRMSD -1
REMARK  0 active torsions:
REMARK  status: ('A' for Active; 'I' for Inactive)
ROOT
ATOM      1  O1  BZF d   1      -1.386   0.328   1.718  0.00  0.00    -0.204 OA
ATOM      2  C2  BZF d   1      -0.151   0.937   1.836  0.00  0.00     0.174 A 
ATOM      3  C3  BZF d   1      -0.166   2.161   1.270  0.00  0.00    -0.012 A 
ATOM      4  C3A BZF d   1      -1.518   2.365   0.849  0.00  0.00    -0.107 A 
ATOM      5  C4  BZF d   1      -2.163   3.400   0.234  0.00  0.00     0.055 A 
ATOM      6  C5  BZF d   1      -3.471   3.254  -0.105  0.00  0.00    -0.016 A 
ATOM      7  C6  BZF d   1      -4.161   2.087   0.150  0.00  0.00     0.022 A 
ATOM      8  C7  BZF d   1      -3.565   1.035   0.762  0.00  0.00     0.029 A 
ATOM      9  C7A BZF d   1      -2.253   1.192   1.136  0.00  0.00     0.058 A 
ENDROOT
TORSDOF 0
ENDMDL
