MODEL 1
REMARK minimizedAffinity 13.9880505
REMARK minimizedRMSD -1
REMARK  0 active torsions:
REMARK  status: ('A' for Active; 'I' for Inactive)
ROOT
ATOM      1  O1  BZF d   1       0.797   0.208  -0.133  0.00  0.00    -0.204 OA
ATOM      2  C2  BZF d   1       0.684  -0.790   0.816  0.00  0.00     0.174 A 
ATOM      3  C3  BZF d   1       1.178  -0.380   2.002  0.00  0.00    -0.012 A 
ATOM      4  C3A BZF d   1       1.544   0.990   1.804  0.00  0.00    -0.107 A 
ATOM      5  C4  BZF d   1       2.077   1.946   2.619  0.00  0.00     0.055 A 
ATOM      6  C5  BZF d   1       2.382   3.163   2.098  0.00  0.00    -0.016 A 
ATOM      7  C6  BZF d   1       2.172   3.456   0.766  0.00  0.00     0.022 A 
ATOM      8  C7  BZF d   1       1.640   2.541  -0.080  0.00  0.00     0.029 A 
ATOM      9  C7A BZF d   1       1.300   1.321   0.451  0.00  0.00     0.058 A 
ENDROOT
TORSDOF 0
ENDMDL
