MODEL 1
REMARK minimizedAffinity 11.912776
REMARK minimizedRMSD -1
REMARK  0 active torsions:
REMARK  status: ('A' for Active; 'I' for Inactive)
ROOT
ATOM      1  O1  BZF d   1      -1.562   4.591   1.019  0.00  0.00    -0.204 OA
ATOM      2  C2  BZF d   1      -0.531   4.433   0.112  0.00  0.00     0.174 A 
ATOM      3  C3  BZF d   1       0.455   3.678   0.637  0.00  0.00    -0.012 A 
ATOM      4  C3A BZF d   1      -0.027   3.266   1.919  0.00  0.00    -0.107 A 
ATOM      5  C4  BZF d   1       0.494   2.486   2.912  0.00  0.00     0.055 A 
ATOM      6  C5  BZF d   1      -0.201   2.341   4.071  0.00  0.00    -0.016 A 
ATOM      7  C6  BZF d   1      -1.416   2.964   4.272  0.00  0.00     0.022 A 
ATOM      8  C7  BZF d   1      -1.975   3.743   3.315  0.00  0.00     0.029 A 
ATOM      9  C7A BZF d   1      -1.290   3.866   2.130  0.00  0.00     0.058 A 
ENDROOT
TORSDOF 0
ENDMDL
