MODEL 1
REMARK minimizedAffinity 15.8533411
REMARK minimizedRMSD -1
REMARK  0 active torsions:
REMARK  status: ('A' for Active; 'I' for Inactive)
ROOT
ATOM      1  O1  BZF d   1      -1.506  -2.761  -0.442  0.00  0.00    -0.204 OA
ATOM      2  C2  BZF d   1      -0.478  -1.844  -0.346  0.00  0.00     0.174 A 
ATOM      3  C3  BZF d   1       0.613  -2.277  -1.011  0.00  0.00    -0.012 A 
ATOM      4  C3A BZF d   1       0.213  -3.501  -1.634  0.00  0.00    -0.107 A 
ATOM      5  C4  BZF d   1       0.853  -4.396  -2.443  0.00  0.00     0.055 A 
ATOM      6  C5  BZF d   1       0.203  -5.529  -2.819  0.00  0.00    -0.016 A 
ATOM      7  C6  BZF d   1      -1.084  -5.800  -2.402  0.00  0.00     0.022 A 
ATOM      8  C7  BZF d   1      -1.761  -4.940  -1.603  0.00  0.00     0.029 A 
ATOM      9  C7A BZF d   1      -1.119  -3.779  -1.247  0.00  0.00     0.058 A 
ENDROOT
TORSDOF 0
ENDMDL
