MODEL 1
REMARK minimizedAffinity 12.0885601
REMARK minimizedRMSD -1
REMARK  0 active torsions:
REMARK  status: ('A' for Active; 'I' for Inactive)
ROOT
ATOM      1  O1  BZF d   1      -1.385   3.052   1.498  0.00  0.00    -0.204 OA
ATOM      2  C2  BZF d   1      -1.950   2.799   2.733  0.00  0.00     0.174 A 
ATOM      3  C3  BZF d   1      -1.048   2.242   3.567  0.00  0.00    -0.012 A 
ATOM      4  C3A BZF d   1       0.181   2.225   2.834  0.00  0.00    -0.107 A 
ATOM      5  C4  BZF d   1       1.446   1.805   3.132  0.00  0.00     0.055 A 
ATOM      6  C5  BZF d   1       2.404   1.860   2.170  0.00  0.00    -0.016 A 
ATOM      7  C6  BZF d   1       2.131   2.322   0.899  0.00  0.00     0.022 A 
ATOM      8  C7  BZF d   1       0.893   2.754   0.558  0.00  0.00     0.029 A 
ATOM      9  C7A BZF d   1      -0.070   2.731   1.538  0.00  0.00     0.058 A 
ENDROOT
TORSDOF 0
ENDMDL
