MODEL 1
REMARK minimizedAffinity 9.73359108
REMARK minimizedRMSD -1
REMARK  0 active torsions:
REMARK  status: ('A' for Active; 'I' for Inactive)
ROOT
ATOM      1  O1  BZF d   1      -1.116   1.872   2.306  0.00  0.00    -0.204 OA
ATOM      2  C2  BZF d   1      -0.028   2.410   1.647  0.00  0.00     0.174 A 
ATOM      3  C3  BZF d   1       0.503   1.516   0.789  0.00  0.00    -0.012 A 
ATOM      4  C3A BZF d   1      -0.360   0.376   0.852  0.00  0.00    -0.107 A 
ATOM      5  C4  BZF d   1      -0.367  -0.833   0.217  0.00  0.00     0.055 A 
ATOM      6  C5  BZF d   1      -1.307  -1.753   0.558  0.00  0.00    -0.016 A 
ATOM      7  C6  BZF d   1      -2.250  -1.500   1.533  0.00  0.00     0.022 A 
ATOM      8  C7  BZF d   1      -2.286  -0.314   2.187  0.00  0.00     0.029 A 
ATOM      9  C7A BZF d   1      -1.358   0.630   1.821  0.00  0.00     0.058 A 
ENDROOT
TORSDOF 0
ENDMDL
