MODEL 1
REMARK minimizedAffinity 9.73273563
REMARK minimizedRMSD -1
REMARK  0 active torsions:
REMARK  status: ('A' for Active; 'I' for Inactive)
ROOT
ATOM      1  O1  BZF d   1       3.369   1.420   3.310  0.00  0.00    -0.204 OA
ATOM      2  C2  BZF d   1       4.068   1.861   4.418  0.00  0.00     0.174 A 
ATOM      3  C3  BZF d   1       4.774   2.972   4.127  0.00  0.00    -0.012 A 
ATOM      4  C3A BZF d   1       4.428   3.296   2.777  0.00  0.00    -0.107 A 
ATOM      5  C4  BZF d   1       4.793   4.303   1.930  0.00  0.00     0.055 A 
ATOM      6  C5  BZF d   1       4.331   4.291   0.652  0.00  0.00    -0.016 A 
ATOM      7  C6  BZF d   1       3.508   3.286   0.187  0.00  0.00     0.022 A 
ATOM      8  C7  BZF d   1       3.114   2.269   0.992  0.00  0.00     0.029 A 
ATOM      9  C7A BZF d   1       3.553   2.296   2.293  0.00  0.00     0.058 A 
ENDROOT
TORSDOF 0
ENDMDL
