MODEL 1
REMARK minimizedAffinity -3.95010114
REMARK minimizedRMSD -1
REMARK  0 active torsions:
REMARK  status: ('A' for Active; 'I' for Inactive)
ROOT
ATOM      1  O1  BZF d   1       3.698   1.447   3.675  0.00  0.00    -0.204 OA
ATOM      2  C2  BZF d   1       4.690   2.292   4.133  0.00  0.00     0.174 A 
ATOM      3  C3  BZF d   1       4.953   3.256   3.229  0.00  0.00    -0.012 A 
ATOM      4  C3A BZF d   1       4.006   3.053   2.176  0.00  0.00    -0.107 A 
ATOM      5  C4  BZF d   1       3.754   3.703   1.001  0.00  0.00     0.055 A 
ATOM      6  C5  BZF d   1       2.807   3.207   0.162  0.00  0.00    -0.016 A 
ATOM      7  C6  BZF d   1       2.098   2.063   0.463  0.00  0.00     0.022 A 
ATOM      8  C7  BZF d   1       2.308   1.388   1.619  0.00  0.00     0.029 A 
ATOM      9  C7A BZF d   1       3.241   1.904   2.484  0.00  0.00     0.058 A 
ENDROOT
TORSDOF 0
ENDMDL
