MODEL 1
REMARK minimizedAffinity 6.97724915
REMARK minimizedRMSD -1
REMARK  0 active torsions:
REMARK  status: ('A' for Active; 'I' for Inactive)
ROOT
ATOM      1  O1  BZF d   1       3.389   4.442  -5.734  0.00  0.00    -0.204 OA
ATOM      2  C2  BZF d   1       4.504   5.256  -5.672  0.00  0.00     0.174 A 
ATOM      3  C3  BZF d   1       5.634   4.521  -5.672  0.00  0.00    -0.012 A 
ATOM      4  C3A BZF d   1       5.202   3.166  -5.831  0.00  0.00    -0.107 A 
ATOM      5  C4  BZF d   1       5.862   1.974  -5.920  0.00  0.00     0.055 A 
ATOM      6  C5  BZF d   1       5.142   0.824  -5.998  0.00  0.00    -0.016 A 
ATOM      7  C6  BZF d   1       3.762   0.829  -5.983  0.00  0.00     0.022 A 
ATOM      8  C7  BZF d   1       3.063   1.987  -5.902  0.00  0.00     0.029 A 
ATOM      9  C7A BZF d   1       3.788   3.153  -5.857  0.00  0.00     0.058 A 
ENDROOT
TORSDOF 0
ENDMDL
