MODEL 1
REMARK minimizedAffinity -3.30109406
REMARK minimizedRMSD -1
REMARK  0 active torsions:
REMARK  status: ('A' for Active; 'I' for Inactive)
ROOT
ATOM      1  C   UNL d   1       0.016  -0.152  -0.924  0.00  0.00     0.172 C 
ATOM      2  N   UNL d   1       0.305  -0.435   0.462  0.00  0.00    -0.070 N 
ATOM      3  C1  UNL d   1      -0.572  -0.296   1.505  0.00  0.00    -0.004 A 
ATOM      4  C2  UNL d   1       0.084  -0.665   2.660  0.00  0.00    -0.047 A 
ATOM      5  C3  UNL d   1       1.400  -1.038   2.299  0.00  0.00    -0.047 A 
ATOM      6  C4  UNL d   1       1.510  -0.886   0.933  0.00  0.00    -0.004 A 
ENDROOT
TORSDOF 0
ENDMDL
