MODEL 1
REMARK minimizedAffinity -3.46058917
REMARK minimizedRMSD -1
REMARK  0 active torsions:
REMARK  status: ('A' for Active; 'I' for Inactive)
ROOT
ATOM      1  C   UNL d   1      -1.428   0.653  -1.378  0.00  0.00     0.172 C 
ATOM      2  N   UNL d   1      -0.973   0.267  -0.063  0.00  0.00    -0.070 N 
ATOM      3  C1  UNL d   1       0.315   0.357   0.395  0.00  0.00    -0.004 A 
ATOM      4  C2  UNL d   1       0.335  -0.108   1.692  0.00  0.00    -0.047 A 
ATOM      5  C3  UNL d   1      -0.985  -0.492   2.025  0.00  0.00    -0.047 A 
ATOM      6  C4  UNL d   1      -1.775  -0.249   0.921  0.00  0.00    -0.004 A 
ENDROOT
TORSDOF 0
ENDMDL
