MODEL 1
REMARK minimizedAffinity -3.3065722
REMARK minimizedRMSD -1
REMARK  0 active torsions:
REMARK  status: ('A' for Active; 'I' for Inactive)
ROOT
ATOM      1  C   UNL d   1      -0.596   0.038   0.811  0.00  0.00     0.172 C 
ATOM      2  N   UNL d   1      -0.505   0.958  -0.297  0.00  0.00    -0.070 N 
ATOM      3  C1  UNL d   1      -0.094   2.262  -0.221  0.00  0.00    -0.004 A 
ATOM      4  C2  UNL d   1      -0.149   2.797  -1.490  0.00  0.00    -0.047 A 
ATOM      5  C3  UNL d   1      -0.609   1.780  -2.359  0.00  0.00    -0.047 A 
ATOM      6  C4  UNL d   1      -0.822   0.652  -1.594  0.00  0.00    -0.004 A 
ENDROOT
TORSDOF 0
ENDMDL
