MODEL 1
REMARK minimizedAffinity -3.61488414
REMARK minimizedRMSD -1
REMARK  0 active torsions:
REMARK  status: ('A' for Active; 'I' for Inactive)
ROOT
ATOM      1  C   UNL d   1      -2.230  -0.131   0.677  0.00  0.00     0.172 C 
ATOM      2  N   UNL d   1      -0.865  -0.533   0.927  0.00  0.00    -0.070 N 
ATOM      3  C1  UNL d   1      -0.339  -0.855   2.150  0.00  0.00    -0.004 A 
ATOM      4  C2  UNL d   1       0.986  -1.183   1.966  0.00  0.00    -0.047 A 
ATOM      5  C3  UNL d   1       1.267  -1.053   0.585  0.00  0.00    -0.047 A 
ATOM      6  C4  UNL d   1       0.103  -0.650  -0.035  0.00  0.00    -0.004 A 
ENDROOT
TORSDOF 0
ENDMDL
