MODEL 1
REMARK minimizedAffinity -3.65236115
REMARK minimizedRMSD -1
REMARK  0 active torsions:
REMARK  status: ('A' for Active; 'I' for Inactive)
ROOT
ATOM      1  C   UNL d   1      -0.184   0.466  -0.712  0.00  0.00     0.172 C 
ATOM      2  N   UNL d   1       0.317  -0.157   0.491  0.00  0.00    -0.070 N 
ATOM      3  C1  UNL d   1       1.525  -0.789   0.619  0.00  0.00    -0.004 A 
ATOM      4  C2  UNL d   1       1.628  -1.245   1.915  0.00  0.00    -0.047 A 
ATOM      5  C3  UNL d   1       0.440  -0.875   2.589  0.00  0.00    -0.047 A 
ATOM      6  C4  UNL d   1      -0.354  -0.203   1.684  0.00  0.00    -0.004 A 
ENDROOT
TORSDOF 0
ENDMDL
