MODEL 1
REMARK minimizedAffinity -3.13849139
REMARK minimizedRMSD -1
REMARK  0 active torsions:
REMARK  status: ('A' for Active; 'I' for Inactive)
ROOT
ATOM      1  C   UNL d   1      -0.322   0.068  -0.689  0.00  0.00     0.172 C 
ATOM      2  N   UNL d   1       0.113  -0.232   0.654  0.00  0.00    -0.070 N 
ATOM      3  C1  UNL d   1       1.362  -0.665   1.010  0.00  0.00    -0.004 A 
ATOM      4  C2  UNL d   1       1.376  -0.836   2.378  0.00  0.00    -0.047 A 
ATOM      5  C3  UNL d   1       0.091  -0.493   2.860  0.00  0.00    -0.047 A 
ATOM      6  C4  UNL d   1      -0.671  -0.123   1.772  0.00  0.00    -0.004 A 
ENDROOT
TORSDOF 0
ENDMDL
