MODEL 1
REMARK minimizedAffinity -3.1028738
REMARK minimizedRMSD -1
REMARK  0 active torsions:
REMARK  status: ('A' for Active; 'I' for Inactive)
ROOT
ATOM      1  C   UNL d   1       0.748  -1.017   2.955  0.00  0.00     0.172 C 
ATOM      2  N   UNL d   1       0.651  -0.461   1.626  0.00  0.00    -0.070 N 
ATOM      3  C1  UNL d   1       1.053  -1.079   0.471  0.00  0.00    -0.004 A 
ATOM      4  C2  UNL d   1       0.792  -0.224  -0.578  0.00  0.00    -0.047 A 
ATOM      5  C3  UNL d   1       0.215   0.948  -0.035  0.00  0.00    -0.047 A 
ATOM      6  C4  UNL d   1       0.139   0.774   1.331  0.00  0.00    -0.004 A 
ENDROOT
TORSDOF 0
ENDMDL
