MODEL 1
REMARK minimizedAffinity 2.29873967
REMARK minimizedRMSD -1
REMARK  0 active torsions:
REMARK  status: ('A' for Active; 'I' for Inactive)
ROOT
ATOM      1  C   UNL d   1      -1.116  -3.647   3.372  0.00  0.00     0.172 C 
ATOM      2  N   UNL d   1      -0.290  -2.496   3.091  0.00  0.00    -0.070 N 
ATOM      3  C1  UNL d   1      -0.664  -1.188   3.248  0.00  0.00    -0.004 A 
ATOM      4  C2  UNL d   1       0.401  -0.398   2.875  0.00  0.00    -0.047 A 
ATOM      5  C3  UNL d   1       1.451  -1.260   2.479  0.00  0.00    -0.047 A 
ATOM      6  C4  UNL d   1       0.996  -2.554   2.622  0.00  0.00    -0.004 A 
ENDROOT
TORSDOF 0
ENDMDL
