MODEL 1
REMARK minimizedAffinity 11.8077755
REMARK minimizedRMSD -1
REMARK  0 active torsions:
REMARK  status: ('A' for Active; 'I' for Inactive)
ROOT
ATOM      1  N1  IND d   1       0.262   1.791   1.355  0.00  0.00    -0.196 N 
ATOM      2  C2  IND d   1       0.886   1.478   0.180  0.00  0.00     0.054 A 
ATOM      3  C3  IND d   1       0.475   0.268  -0.263  0.00  0.00    -0.031 A 
ATOM      4  C4  IND d   1      -1.289  -1.323   0.729  0.00  0.00     0.051 A 
ATOM      5  C5  IND d   1      -2.103  -1.487   1.814  0.00  0.00    -0.031 A 
ATOM      6  C6  IND d   1      -2.175  -0.545   2.821  0.00  0.00     0.015 A 
ATOM      7  C7  IND d   1      -1.439   0.605   2.773  0.00  0.00    -0.016 A 
ATOM      8  C8  IND d   1      -0.605   0.771   1.677  0.00  0.00    -0.047 A 
ATOM      9  C9  IND d   1      -0.497  -0.201   0.673  0.00  0.00    -0.096 A 
ATOM     10  HN1 IND d   1       0.390   2.506   1.815  0.00  0.00     0.298 HD
ENDROOT
TORSDOF 0
ENDMDL
