MODEL 1
REMARK minimizedAffinity 10.5636978
REMARK minimizedRMSD -1
REMARK  0 active torsions:
REMARK  status: ('A' for Active; 'I' for Inactive)
ROOT
ATOM      1  N1  IND d   1       0.244  -1.352  -3.853  0.00  0.00    -0.196 N 
ATOM      2  C2  IND d   1       0.805  -2.026  -4.901  0.00  0.00     0.054 A 
ATOM      3  C3  IND d   1      -0.070  -2.927  -5.403  0.00  0.00    -0.031 A 
ATOM      4  C4  IND d   1      -2.509  -3.391  -4.724  0.00  0.00     0.051 A 
ATOM      5  C5  IND d   1      -3.452  -3.051  -3.795  0.00  0.00    -0.031 A 
ATOM      6  C6  IND d   1      -3.207  -2.106  -2.820  0.00  0.00     0.015 A 
ATOM      7  C7  IND d   1      -2.008  -1.455  -2.744  0.00  0.00    -0.016 A 
ATOM      8  C8  IND d   1      -1.046  -1.803  -3.681  0.00  0.00    -0.047 A 
ATOM      9  C9  IND d   1      -1.274  -2.791  -4.647  0.00  0.00    -0.096 A 
ATOM     10  HN1 IND d   1       0.632  -0.747  -3.380  0.00  0.00     0.298 HD
ENDROOT
TORSDOF 0
ENDMDL
