MODEL 1
REMARK minimizedAffinity 5.67773581
REMARK minimizedRMSD -1
REMARK  0 active torsions:
REMARK  status: ('A' for Active; 'I' for Inactive)
ROOT
ATOM      1  N1  IND d   1       0.746   1.699   0.668  0.00  0.00    -0.196 N 
ATOM      2  C2  IND d   1       1.317   0.810  -0.199  0.00  0.00     0.054 A 
ATOM      3  C3  IND d   1       0.936  -0.452   0.102  0.00  0.00    -0.031 A 
ATOM      4  C4  IND d   1      -0.700  -1.278   1.909  0.00  0.00     0.051 A 
ATOM      5  C5  IND d   1      -1.446  -0.842   2.968  0.00  0.00    -0.031 A 
ATOM      6  C6  IND d   1      -1.503   0.491   3.320  0.00  0.00     0.015 A 
ATOM      7  C7  IND d   1      -0.821   1.443   2.615  0.00  0.00    -0.016 A 
ATOM      8  C8  IND d   1      -0.057   1.003   1.544  0.00  0.00    -0.047 A 
ATOM      9  C9  IND d   1       0.038  -0.354   1.208  0.00  0.00    -0.096 A 
ATOM     10  HN1 IND d   1       0.868   2.550   0.666  0.00  0.00     0.298 HD
ENDROOT
TORSDOF 0
ENDMDL
