MODEL 1
REMARK minimizedAffinity 3.41760159
REMARK minimizedRMSD -1
REMARK  0 active torsions:
REMARK  status: ('A' for Active; 'I' for Inactive)
ROOT
ATOM      1  N1  IND d   1       2.289  -5.997   1.831  0.00  0.00    -0.196 N 
ATOM      2  C2  IND d   1       3.005  -5.976   2.996  0.00  0.00     0.054 A 
ATOM      3  C3  IND d   1       2.171  -5.934   4.059  0.00  0.00    -0.031 A 
ATOM      4  C4  IND d   1      -0.401  -5.997   4.124  0.00  0.00     0.051 A 
ATOM      5  C5  IND d   1      -1.500  -5.981   3.312  0.00  0.00    -0.031 A 
ATOM      6  C6  IND d   1      -1.390  -5.972   1.936  0.00  0.00     0.015 A 
ATOM      7  C7  IND d   1      -0.171  -5.991   1.319  0.00  0.00    -0.016 A 
ATOM      8  C8  IND d   1       0.947  -6.000   2.141  0.00  0.00    -0.047 A 
ATOM      9  C9  IND d   1       0.842  -5.966   3.538  0.00  0.00    -0.096 A 
ATOM     10  HN1 IND d   1       2.621  -6.007   1.038  0.00  0.00     0.298 HD
ENDROOT
TORSDOF 0
ENDMDL
