MODEL 1
REMARK minimizedAffinity -2.2442255
REMARK minimizedRMSD -1
REMARK  0 active torsions:
REMARK  status: ('A' for Active; 'I' for Inactive)
ROOT
ATOM      1  N1  IND d   1       0.130  -5.998   5.495  0.00  0.00    -0.196 N 
ATOM      2  C2  IND d   1       1.444  -5.993   5.872  0.00  0.00     0.054 A 
ATOM      3  C3  IND d   1       2.246  -5.999   4.783  0.00  0.00    -0.031 A 
ATOM      4  C4  IND d   1       1.617  -5.914   2.288  0.00  0.00     0.051 A 
ATOM      5  C5  IND d   1       0.540  -5.943   1.447  0.00  0.00    -0.031 A 
ATOM      6  C6  IND d   1      -0.755  -5.991   1.922  0.00  0.00     0.015 A 
ATOM      7  C7  IND d   1      -1.023  -5.999   3.262  0.00  0.00    -0.016 A 
ATOM      8  C8  IND d   1       0.069  -5.977   4.119  0.00  0.00    -0.047 A 
ATOM      9  C9  IND d   1       1.386  -5.971   3.643  0.00  0.00    -0.096 A 
ATOM     10  HN1 IND d   1      -0.545  -6.013   6.027  0.00  0.00     0.298 HD
ENDROOT
TORSDOF 0
ENDMDL
