MODEL 1
REMARK minimizedAffinity 15.0964317
REMARK minimizedRMSD -1
REMARK  0 active torsions:
REMARK  status: ('A' for Active; 'I' for Inactive)
ROOT
ATOM      1  N1  IND d   1       1.190   1.599   1.942  0.00  0.00    -0.196 N 
ATOM      2  C2  IND d   1       2.119   1.359   0.967  0.00  0.00     0.054 A 
ATOM      3  C3  IND d   1       1.745   0.304   0.210  0.00  0.00    -0.031 A 
ATOM      4  C4  IND d   1      -0.400  -1.115   0.327  0.00  0.00     0.051 A 
ATOM      5  C5  IND d   1      -1.530  -1.299   1.073  0.00  0.00    -0.031 A 
ATOM      6  C6  IND d   1      -1.818  -0.509   2.168  0.00  0.00     0.015 A 
ATOM      7  C7  IND d   1      -0.989   0.506   2.551  0.00  0.00    -0.016 A 
ATOM      8  C8  IND d   1       0.163   0.692   1.800  0.00  0.00    -0.047 A 
ATOM      9  C9  IND d   1       0.482  -0.134   0.714  0.00  0.00    -0.096 A 
ATOM     10  HN1 IND d   1       1.240   2.212   2.542  0.00  0.00     0.298 HD
ENDROOT
TORSDOF 0
ENDMDL
