MODEL 1
REMARK minimizedAffinity 12.9474964
REMARK minimizedRMSD -1
REMARK  0 active torsions:
REMARK  status: ('A' for Active; 'I' for Inactive)
ROOT
ATOM      1  N1  IND d   1       0.959   1.039   0.323  0.00  0.00    -0.196 N 
ATOM      2  C2  IND d   1       1.324   2.053   1.163  0.00  0.00     0.054 A 
ATOM      3  C3  IND d   1       0.806   1.852   2.396  0.00  0.00    -0.031 A 
ATOM      4  C4  IND d   1      -0.583  -0.125   3.284  0.00  0.00     0.051 A 
ATOM      5  C5  IND d   1      -1.198  -1.276   2.880  0.00  0.00    -0.031 A 
ATOM      6  C6  IND d   1      -1.122  -1.726   1.578  0.00  0.00     0.015 A 
ATOM      7  C7  IND d   1      -0.415  -1.043   0.629  0.00  0.00    -0.016 A 
ATOM      8  C8  IND d   1       0.205   0.131   1.034  0.00  0.00    -0.047 A 
ATOM      9  C9  IND d   1       0.096   0.614   2.344  0.00  0.00    -0.096 A 
ATOM     10  HN1 IND d   1       1.166   0.978  -0.509  0.00  0.00     0.298 HD
ENDROOT
TORSDOF 0
ENDMDL
