MODEL 1
REMARK minimizedAffinity 9.67791653
REMARK minimizedRMSD -1
REMARK  0 active torsions:
REMARK  status: ('A' for Active; 'I' for Inactive)
ROOT
ATOM      1  N1  IND d   1      -2.249  -0.213  -3.003  0.00  0.00    -0.196 N 
ATOM      2  C2  IND d   1      -3.423  -0.556  -2.393  0.00  0.00     0.054 A 
ATOM      3  C3  IND d   1      -3.742  -1.839  -2.675  0.00  0.00    -0.031 A 
ATOM      4  C4  IND d   1      -2.432  -3.590  -4.033  0.00  0.00     0.051 A 
ATOM      5  C5  IND d   1      -1.320  -3.735  -4.815  0.00  0.00    -0.031 A 
ATOM      6  C6  IND d   1      -0.442  -2.694  -5.035  0.00  0.00     0.015 A 
ATOM      7  C7  IND d   1      -0.638  -1.466  -4.470  0.00  0.00    -0.016 A 
ATOM      8  C8  IND d   1      -1.769  -1.313  -3.681  0.00  0.00    -0.047 A 
ATOM      9  C9  IND d   1      -2.686  -2.354  -3.488  0.00  0.00    -0.096 A 
ATOM     10  HN1 IND d   1      -1.873   0.559  -2.969  0.00  0.00     0.298 HD
ENDROOT
TORSDOF 0
ENDMDL
