MODEL 1
REMARK minimizedAffinity 3.32934141
REMARK minimizedRMSD -1
REMARK  0 active torsions:
REMARK  status: ('A' for Active; 'I' for Inactive)
ROOT
ATOM      1  N1  IND d   1      -1.188  -5.917   4.242  0.00  0.00    -0.196 N 
ATOM      2  C2  IND d   1      -0.357  -5.935   5.328  0.00  0.00     0.054 A 
ATOM      3  C3  IND d   1       0.934  -5.997   4.931  0.00  0.00    -0.031 A 
ATOM      4  C4  IND d   1       1.916  -5.973   2.552  0.00  0.00     0.051 A 
ATOM      5  C5  IND d   1       1.551  -6.000   1.235  0.00  0.00    -0.031 A 
ATOM      6  C6  IND d   1       0.227  -5.998   0.845  0.00  0.00     0.015 A 
ATOM      7  C7  IND d   1      -0.785  -5.957   1.762  0.00  0.00    -0.016 A 
ATOM      8  C8  IND d   1      -0.418  -5.937   3.100  0.00  0.00    -0.047 A 
ATOM      9  C9  IND d   1       0.923  -5.982   3.502  0.00  0.00    -0.096 A 
ATOM     10  HN1 IND d   1      -2.047  -5.896   4.268  0.00  0.00     0.298 HD
ENDROOT
TORSDOF 0
ENDMDL
