MODEL 1
REMARK minimizedAffinity 7.90501499
REMARK minimizedRMSD -1
REMARK  0 active torsions:
REMARK  status: ('A' for Active; 'I' for Inactive)
ROOT
ATOM      1  N1  IND d   1       0.543  -3.146  -4.288  0.00  0.00    -0.196 N 
ATOM      2  C2  IND d   1       1.502  -2.216  -3.993  0.00  0.00     0.054 A 
ATOM      3  C3  IND d   1       0.984  -1.237  -3.219  0.00  0.00    -0.031 A 
ATOM      4  C4  IND d   1      -1.383  -1.010  -2.231  0.00  0.00     0.051 A 
ATOM      5  C5  IND d   1      -2.618  -1.594  -2.251  0.00  0.00    -0.031 A 
ATOM      6  C6  IND d   1      -2.867  -2.750  -2.962  0.00  0.00     0.015 A 
ATOM      7  C7  IND d   1      -1.883  -3.374  -3.675  0.00  0.00    -0.016 A 
ATOM      8  C8  IND d   1      -0.629  -2.780  -3.663  0.00  0.00    -0.047 A 
ATOM      9  C9  IND d   1      -0.380  -1.584  -2.978  0.00  0.00    -0.096 A 
ATOM     10  HN1 IND d   1       0.654  -3.842  -4.780  0.00  0.00     0.298 HD
ENDROOT
TORSDOF 0
ENDMDL
