MODEL 1
REMARK minimizedAffinity 2.76037765
REMARK minimizedRMSD -1
REMARK  0 active torsions:
REMARK  status: ('A' for Active; 'I' for Inactive)
ROOT
ATOM      1  N1  IND d   1       0.541  -2.841  -4.334  0.00  0.00    -0.196 N 
ATOM      2  C2  IND d   1       1.322  -1.723  -4.237  0.00  0.00     0.054 A 
ATOM      3  C3  IND d   1       0.572  -0.654  -3.889  0.00  0.00    -0.031 A 
ATOM      4  C4  IND d   1      -1.938  -0.529  -3.329  0.00  0.00     0.051 A 
ATOM      5  C5  IND d   1      -3.077  -1.284  -3.313  0.00  0.00    -0.031 A 
ATOM      6  C6  IND d   1      -3.068  -2.624  -3.641  0.00  0.00     0.015 A 
ATOM      7  C7  IND d   1      -1.912  -3.265  -3.987  0.00  0.00    -0.016 A 
ATOM      8  C8  IND d   1      -0.754  -2.500  -4.011  0.00  0.00    -0.047 A 
ATOM      9  C9  IND d   1      -0.765  -1.129  -3.721  0.00  0.00    -0.096 A 
ATOM     10  HN1 IND d   1       0.812  -3.625  -4.560  0.00  0.00     0.298 HD
ENDROOT
TORSDOF 0
ENDMDL
