MODEL 1
REMARK minimizedAffinity 2.91354084
REMARK minimizedRMSD -1
REMARK  0 active torsions:
REMARK  status: ('A' for Active; 'I' for Inactive)
ROOT
ATOM      1  N1  IND d   1      -0.011  -5.927   5.386  0.00  0.00    -0.196 N 
ATOM      2  C2  IND d   1       1.355  -5.944   5.343  0.00  0.00     0.054 A 
ATOM      3  C3  IND d   1       1.785  -5.999   4.062  0.00  0.00    -0.031 A 
ATOM      4  C4  IND d   1       0.424  -5.969   1.877  0.00  0.00     0.051 A 
ATOM      5  C5  IND d   1      -0.859  -5.995   1.407  0.00  0.00    -0.031 A 
ATOM      6  C6  IND d   1      -1.947  -5.998   2.256  0.00  0.00     0.015 A 
ATOM      7  C7  IND d   1      -1.792  -5.962   3.613  0.00  0.00    -0.016 A 
ATOM      8  C8  IND d   1      -0.490  -5.942   4.094  0.00  0.00    -0.047 A 
ATOM      9  C9  IND d   1       0.618  -5.983   3.238  0.00  0.00    -0.096 A 
ATOM     10  HN1 IND d   1      -0.490  -5.910   6.099  0.00  0.00     0.298 HD
ENDROOT
TORSDOF 0
ENDMDL
