MODEL 1
REMARK minimizedAffinity 4.37251854
REMARK minimizedRMSD -1
REMARK  0 active torsions:
REMARK  status: ('A' for Active; 'I' for Inactive)
ROOT
ATOM      1  N1  IND d   1      -0.130  -5.995   0.445  0.00  0.00    -0.196 N 
ATOM      2  C2  IND d   1      -1.497  -5.990   0.398  0.00  0.00     0.054 A 
ATOM      3  C3  IND d   1      -2.010  -5.999   1.649  0.00  0.00    -0.031 A 
ATOM      4  C4  IND d   1      -0.794  -5.919   3.916  0.00  0.00     0.051 A 
ATOM      5  C5  IND d   1       0.455  -5.950   4.471  0.00  0.00    -0.031 A 
ATOM      6  C6  IND d   1       1.596  -5.995   3.695  0.00  0.00     0.015 A 
ATOM      7  C7  IND d   1       1.530  -6.000   2.331  0.00  0.00    -0.016 A 
ATOM      8  C8  IND d   1       0.263  -5.976   1.765  0.00  0.00    -0.047 A 
ATOM      9  C9  IND d   1      -0.899  -5.973   2.546  0.00  0.00    -0.096 A 
ATOM     10  HN1 IND d   1       0.395  -6.007  -0.236  0.00  0.00     0.298 HD
ENDROOT
TORSDOF 0
ENDMDL
