MODEL 1
REMARK minimizedAffinity 10.2340403
REMARK minimizedRMSD -1
REMARK  0 active torsions:
REMARK  status: ('A' for Active; 'I' for Inactive)
ROOT
ATOM      1  N1  IND d   1       2.211  -5.982   4.699  0.00  0.00    -0.196 N 
ATOM      2  C2  IND d   1       1.496  -5.955   5.864  0.00  0.00     0.054 A 
ATOM      3  C3  IND d   1       0.170  -5.918   5.601  0.00  0.00    -0.031 A 
ATOM      4  C4  IND d   1      -1.051  -5.996   3.336  0.00  0.00     0.051 A 
ATOM      5  C5  IND d   1      -0.823  -5.988   1.989  0.00  0.00    -0.031 A 
ATOM      6  C6  IND d   1       0.454  -5.980   1.465  0.00  0.00     0.015 A 
ATOM      7  C7  IND d   1       1.555  -5.992   2.273  0.00  0.00    -0.016 A 
ATOM      8  C8  IND d   1       1.327  -5.993   3.642  0.00  0.00    -0.047 A 
ATOM      9  C9  IND d   1       0.034  -5.958   4.179  0.00  0.00    -0.096 A 
ATOM     10  HN1 IND d   1       3.068  -5.991   4.637  0.00  0.00     0.298 HD
ENDROOT
TORSDOF 0
ENDMDL
