MODEL 1
REMARK minimizedAffinity 8.36989117
REMARK minimizedRMSD -1
REMARK  0 active torsions:
REMARK  status: ('A' for Active; 'I' for Inactive)
ROOT
ATOM      1  N1  IND d   1      -2.596  -5.974   3.877  0.00  0.00    -0.196 N 
ATOM      2  C2  IND d   1      -3.580  -5.950   2.929  0.00  0.00     0.054 A 
ATOM      3  C3  IND d   1      -3.040  -5.913   1.690  0.00  0.00    -0.031 A 
ATOM      4  C4  IND d   1      -0.566  -5.988   0.982  0.00  0.00     0.051 A 
ATOM      5  C5  IND d   1       0.702  -5.977   1.494  0.00  0.00    -0.031 A 
ATOM      6  C6  IND d   1       0.940  -5.966   2.853  0.00  0.00     0.015 A 
ATOM      7  C7  IND d   1      -0.086  -5.979   3.756  0.00  0.00    -0.016 A 
ATOM      8  C8  IND d   1      -1.374  -5.983   3.240  0.00  0.00    -0.047 A 
ATOM      9  C9  IND d   1      -1.622  -5.950   1.862  0.00  0.00    -0.096 A 
ATOM     10  HN1 IND d   1      -2.719  -5.982   4.728  0.00  0.00     0.298 HD
ENDROOT
TORSDOF 0
ENDMDL
