MODEL 1
REMARK minimizedAffinity -0.429167926
REMARK minimizedRMSD -1
REMARK  0 active torsions:
REMARK  status: ('A' for Active; 'I' for Inactive)
ROOT
ATOM      1  N1  IND d   1       3.570  -5.990   2.708  0.00  0.00    -0.196 N 
ATOM      2  C2  IND d   1       4.282  -5.963   3.874  0.00  0.00     0.054 A 
ATOM      3  C3  IND d   1       3.445  -5.924   4.935  0.00  0.00    -0.031 A 
ATOM      4  C4  IND d   1       0.873  -5.999   4.992  0.00  0.00     0.051 A 
ATOM      5  C5  IND d   1      -0.224  -5.989   4.176  0.00  0.00    -0.031 A 
ATOM      6  C6  IND d   1      -0.109  -5.982   2.801  0.00  0.00     0.015 A 
ATOM      7  C7  IND d   1       1.112  -5.995   2.188  0.00  0.00    -0.016 A 
ATOM      8  C8  IND d   1       2.227  -5.998   3.014  0.00  0.00    -0.047 A 
ATOM      9  C9  IND d   1       2.117  -5.962   4.410  0.00  0.00    -0.096 A 
ATOM     10  HN1 IND d   1       3.905  -6.000   1.916  0.00  0.00     0.298 HD
ENDROOT
TORSDOF 0
ENDMDL
