MODEL 1
REMARK minimizedAffinity -3.30046391
REMARK minimizedRMSD -1
REMARK  0 active torsions:
REMARK  status: ('A' for Active; 'I' for Inactive)
ROOT
ATOM      1  C1  BNZ d   1      -2.744   0.836  -3.186  0.00  0.00     0.000 A 
ATOM      2  C2  BNZ d   1      -3.826   0.389  -3.896  0.00  0.00     0.000 A 
ATOM      3  C3  BNZ d   1      -4.523   1.233  -4.716  0.00  0.00     0.000 A 
ATOM      4  C4  BNZ d   1      -4.162   2.530  -4.793  0.00  0.00     0.000 A 
ATOM      5  C5  BNZ d   1      -3.079   2.998  -4.076  0.00  0.00     0.000 A 
ATOM      6  C6  BNZ d   1      -2.356   2.137  -3.282  0.00  0.00     0.000 A 
ENDROOT
TORSDOF 0
ENDMDL
