MODEL 1
REMARK minimizedAffinity 8.18455601
REMARK minimizedRMSD -1
REMARK  0 active torsions:
REMARK  status: ('A' for Active; 'I' for Inactive)
ROOT
ATOM      1  C1  BNZ d   1      -0.037   1.110  -1.613  0.00  0.00     0.000 A 
ATOM      2  C2  BNZ d   1      -0.016   2.357  -1.046  0.00  0.00     0.000 A 
ATOM      3  C3  BNZ d   1       0.893   2.668  -0.072  0.00  0.00     0.000 A 
ATOM      4  C4  BNZ d   1       1.751   1.722   0.360  0.00  0.00     0.000 A 
ATOM      5  C5  BNZ d   1       1.736   0.458  -0.195  0.00  0.00     0.000 A 
ATOM      6  C6  BNZ d   1       0.846   0.160  -1.202  0.00  0.00     0.000 A 
ENDROOT
TORSDOF 0
ENDMDL
