MODEL 1
REMARK minimizedAffinity 3.98832369
REMARK minimizedRMSD -1
REMARK  0 active torsions:
REMARK  status: ('A' for Active; 'I' for Inactive)
ROOT
ATOM      1  C1  BNZ d   1       4.484   3.933   3.654  0.00  0.00     0.000 A 
ATOM      2  C2  BNZ d   1       4.484   3.247   4.839  0.00  0.00     0.000 A 
ATOM      3  C3  BNZ d   1       4.873   3.855   6.000  0.00  0.00     0.000 A 
ATOM      4  C4  BNZ d   1       5.300   5.134   5.968  0.00  0.00     0.000 A 
ATOM      5  C5  BNZ d   1       5.315   5.836   4.779  0.00  0.00     0.000 A 
ATOM      6  C6  BNZ d   1       4.885   5.233   3.619  0.00  0.00     0.000 A 
ENDROOT
TORSDOF 0
ENDMDL
