MODEL 1
REMARK minimizedAffinity 4.14084578
REMARK minimizedRMSD -1
REMARK  0 active torsions:
REMARK  status: ('A' for Active; 'I' for Inactive)
ROOT
ATOM      1  C1  BNZ d   1       5.255   5.327   3.713  0.00  0.00     0.000 A 
ATOM      2  C2  BNZ d   1       5.837   5.397   4.951  0.00  0.00     0.000 A 
ATOM      3  C3  BNZ d   1       5.344   4.669   5.998  0.00  0.00     0.000 A 
ATOM      4  C4  BNZ d   1       4.248   3.904   5.815  0.00  0.00     0.000 A 
ATOM      5  C5  BNZ d   1       3.645   3.831   4.576  0.00  0.00     0.000 A 
ATOM      6  C6  BNZ d   1       4.167   4.535   3.515  0.00  0.00     0.000 A 
ENDROOT
TORSDOF 0
ENDMDL
