MODEL 1
REMARK minimizedAffinity 3.12889028
REMARK minimizedRMSD -1
REMARK  0 active torsions:
REMARK  status: ('A' for Active; 'I' for Inactive)
ROOT
ATOM      1  C1  BNZ d   1      -0.577   1.435  -0.746  0.00  0.00     0.000 A 
ATOM      2  C2  BNZ d   1      -1.390   1.425   0.356  0.00  0.00     0.000 A 
ATOM      3  C3  BNZ d   1      -2.694   1.024   0.260  0.00  0.00     0.000 A 
ATOM      4  C4  BNZ d   1      -3.193   0.674  -0.942  0.00  0.00     0.000 A 
ATOM      5  C5  BNZ d   1      -2.389   0.688  -2.065  0.00  0.00     0.000 A 
ATOM      6  C6  BNZ d   1      -1.067   1.055  -1.958  0.00  0.00     0.000 A 
ENDROOT
TORSDOF 0
ENDMDL
