MODEL 1
REMARK minimizedAffinity -1.06463027
REMARK minimizedRMSD -1
REMARK  0 active torsions:
REMARK  status: ('A' for Active; 'I' for Inactive)
ROOT
ATOM      1  C1  BNZ d   1       4.157   1.378   0.034  0.00  0.00     0.000 A 
ATOM      2  C2  BNZ d   1       4.189   0.009   0.053  0.00  0.00     0.000 A 
ATOM      3  C3  BNZ d   1       3.038  -0.717   0.177  0.00  0.00     0.000 A 
ATOM      4  C4  BNZ d   1       1.861  -0.074   0.322  0.00  0.00     0.000 A 
ATOM      5  C5  BNZ d   1       1.813   1.306   0.315  0.00  0.00     0.000 A 
ATOM      6  C6  BNZ d   1       2.970   2.033   0.151  0.00  0.00     0.000 A 
ENDROOT
TORSDOF 0
ENDMDL
