MODEL 1
REMARK minimizedAffinity 0.422887832
REMARK minimizedRMSD -1
REMARK  0 active torsions:
REMARK  status: ('A' for Active; 'I' for Inactive)
ROOT
ATOM      1  C1  BNZ d   1      -2.343   0.673  -0.019  0.00  0.00     0.000 A 
ATOM      2  C2  BNZ d   1      -1.360   1.229   0.754  0.00  0.00     0.000 A 
ATOM      3  C3  BNZ d   1      -0.118   1.476   0.238  0.00  0.00     0.000 A 
ATOM      4  C4  BNZ d   1       0.149   1.130  -1.038  0.00  0.00     0.000 A 
ATOM      5  C5  BNZ d   1      -0.830   0.560  -1.828  0.00  0.00     0.000 A 
ATOM      6  C6  BNZ d   1      -2.089   0.349  -1.316  0.00  0.00     0.000 A 
ENDROOT
TORSDOF 0
ENDMDL
