MODEL 1
REMARK minimizedAffinity -4.47543526
REMARK minimizedRMSD -1
REMARK  3 active torsions:
REMARK  status: ('A' for Active; 'I' for Inactive)
REMARK    1  A    between atoms: C3'_2  and  C2'_3 
REMARK    2  A    between atoms: C2'_3  and  C1'_4 
REMARK    3  A    between atoms: C1'_4  and  C1_5 
ROOT
ATOM      1  C1  N4B d   1       5.240  -3.096  -4.732  0.00  0.00    -0.075 A 
ATOM      2  C2  N4B d   1       5.999  -4.188  -4.257  0.00  0.00     0.002 A 
ATOM      3  C3  N4B d   1       5.465  -5.454  -4.273  0.00  0.00     0.002 A 
ATOM      4  C4  N4B d   1       4.174  -5.648  -4.741  0.00  0.00    -0.004 A 
ATOM      5  C5  N4B d   1       3.458  -4.591  -5.222  0.00  0.00     0.002 A 
ATOM      6  C6  N4B d   1       3.983  -3.315  -5.216  0.00  0.00     0.002 A 
ENDROOT
BRANCH   1   7
ATOM      7  C1' N4B d   1       5.749  -1.683  -4.655  0.00  0.00     0.057 C 
BRANCH   7   8
ATOM      8  C2' N4B d   1       5.526  -0.996  -5.999  0.00  0.00     0.009 C 
BRANCH   8   9
ATOM      9  C3' N4B d   1       4.492   0.112  -5.906  0.00  0.00     0.004 C 
ATOM     10  C4' N4B d   1       5.105   1.481  -5.897  0.00  0.00     0.003 C 
ENDBRANCH   8   9
ENDBRANCH   7   8
ENDBRANCH   1   7
TORSDOF 3
ENDMDL
