MODEL 1
REMARK minimizedAffinity -3.81799197
REMARK minimizedRMSD -1
REMARK  3 active torsions:
REMARK  status: ('A' for Active; 'I' for Inactive)
REMARK    1  A    between atoms: C3'_2  and  C2'_3 
REMARK    2  A    between atoms: C2'_3  and  C1'_4 
REMARK    3  A    between atoms: C1'_4  and  C1_5 
ROOT
ATOM      1  C1  N4B d   1       4.473  -2.854  -5.115  0.00  0.00    -0.075 A 
ATOM      2  C2  N4B d   1       3.492  -2.008  -5.678  0.00  0.00     0.002 A 
ATOM      3  C3  N4B d   1       3.789  -0.693  -5.941  0.00  0.00     0.002 A 
ATOM      4  C4  N4B d   1       5.049  -0.200  -5.634  0.00  0.00    -0.004 A 
ATOM      5  C5  N4B d   1       5.998  -1.030  -5.114  0.00  0.00     0.002 A 
ATOM      6  C6  N4B d   1       5.715  -2.355  -4.848  0.00  0.00     0.002 A 
ENDROOT
BRANCH   1   7
ATOM      7  C1' N4B d   1       4.169  -4.276  -4.730  0.00  0.00     0.057 C 
BRANCH   7   8
ATOM      8  C2' N4B d   1       4.879  -5.220  -5.697  0.00  0.00     0.009 C 
BRANCH   8   9
ATOM      9  C3' N4B d   1       5.990  -6.000  -5.016  0.00  0.00     0.004 C 
ATOM     10  C4' N4B d   1       5.872  -5.994  -3.521  0.00  0.00     0.003 C 
ENDBRANCH   8   9
ENDBRANCH   7   8
ENDBRANCH   1   7
TORSDOF 3
ENDMDL
