MODEL 1
REMARK minimizedAffinity -3.98997855
REMARK minimizedRMSD -1
REMARK  3 active torsions:
REMARK  status: ('A' for Active; 'I' for Inactive)
REMARK    1  A    between atoms: C3'_2  and  C2'_3 
REMARK    2  A    between atoms: C2'_3  and  C1'_4 
REMARK    3  A    between atoms: C1'_4  and  C1_5 
ROOT
ATOM      1  C1  N4B d   1       4.619  -2.336  -5.009  0.00  0.00    -0.075 A 
ATOM      2  C2  N4B d   1       5.577  -1.860  -4.087  0.00  0.00     0.002 A 
ATOM      3  C3  N4B d   1       6.000  -0.555  -4.147  0.00  0.00     0.002 A 
ATOM      4  C4  N4B d   1       5.495   0.285  -5.129  0.00  0.00    -0.004 A 
ATOM      5  C5  N4B d   1       4.551  -0.175  -5.999  0.00  0.00     0.002 A 
ATOM      6  C6  N4B d   1       4.114  -1.484  -5.948  0.00  0.00     0.002 A 
ENDROOT
BRANCH   1   7
ATOM      7  C1' N4B d   1       4.190  -3.777  -5.036  0.00  0.00     0.057 C 
BRANCH   7   8
ATOM      8  C2' N4B d   1       5.165  -4.573  -5.899  0.00  0.00     0.009 C 
BRANCH   8   9
ATOM      9  C3' N4B d   1       5.573  -5.879  -5.239  0.00  0.00     0.004 C 
ATOM     10  C4' N4B d   1       5.724  -5.756  -3.752  0.00  0.00     0.003 C 
ENDBRANCH   8   9
ENDBRANCH   7   8
ENDBRANCH   1   7
TORSDOF 3
ENDMDL
