MODEL 1
REMARK minimizedAffinity -5.51424313
REMARK minimizedRMSD -1
REMARK  3 active torsions:
REMARK  status: ('A' for Active; 'I' for Inactive)
REMARK    1  A    between atoms: C3'_2  and  C2'_3 
REMARK    2  A    between atoms: C2'_3  and  C1'_4 
REMARK    3  A    between atoms: C1'_4  and  C1_5 
ROOT
ATOM      1  C1  N4B d   1       0.030   0.226   0.786  0.00  0.00    -0.075 A 
ATOM      2  C2  N4B d   1      -1.290   0.520   0.376  0.00  0.00     0.002 A 
ATOM      3  C3  N4B d   1      -2.273   0.715   1.316  0.00  0.00     0.002 A 
ATOM      4  C4  N4B d   1      -1.965   0.604   2.663  0.00  0.00    -0.004 A 
ATOM      5  C5  N4B d   1      -0.683   0.345   3.051  0.00  0.00     0.002 A 
ATOM      6  C6  N4B d   1       0.316   0.150   2.118  0.00  0.00     0.002 A 
ENDROOT
BRANCH   1   7
ATOM      7  C1' N4B d   1       1.119  -0.080  -0.205  0.00  0.00     0.057 C 
BRANCH   7   8
ATOM      8  C2' N4B d   1       0.595   0.166  -1.617  0.00  0.00     0.009 C 
BRANCH   8   9
ATOM      9  C3' N4B d   1       1.575  -0.307  -2.677  0.00  0.00     0.004 C 
ATOM     10  C4' N4B d   1       0.904  -1.017  -3.814  0.00  0.00     0.003 C 
ENDBRANCH   8   9
ENDBRANCH   7   8
ENDBRANCH   1   7
TORSDOF 3
ENDMDL
