MODEL 1
REMARK minimizedAffinity -1.4247117
REMARK minimizedRMSD -1
REMARK  3 active torsions:
REMARK  status: ('A' for Active; 'I' for Inactive)
REMARK    1  A    between atoms: C3'_2  and  C2'_3 
REMARK    2  A    between atoms: C2'_3  and  C1'_4 
REMARK    3  A    between atoms: C1'_4  and  C1_5 
ROOT
ATOM      1  C1  N4B d   1       0.207   0.141  -0.161  0.00  0.00    -0.075 A 
ATOM      2  C2  N4B d   1       1.490  -0.236   0.292  0.00  0.00     0.002 A 
ATOM      3  C3  N4B d   1       1.747  -0.312   1.639  0.00  0.00     0.002 A 
ATOM      4  C4  N4B d   1       0.747   0.001   2.547  0.00  0.00    -0.004 A 
ATOM      5  C5  N4B d   1      -0.497   0.339   2.102  0.00  0.00     0.002 A 
ATOM      6  C6  N4B d   1      -0.771   0.416   0.751  0.00  0.00     0.002 A 
ENDROOT
BRANCH   1   7
ATOM      7  C1' N4B d   1      -0.098   0.322  -1.623  0.00  0.00     0.057 C 
BRANCH   7   8
ATOM      8  C2' N4B d   1       1.210   0.334  -2.409  0.00  0.00     0.009 C 
BRANCH   8   9
ATOM      9  C3' N4B d   1       1.264  -0.780  -3.440  0.00  0.00     0.004 C 
ATOM     10  C4' N4B d   1      -0.012  -1.566  -3.513  0.00  0.00     0.003 C 
ENDBRANCH   8   9
ENDBRANCH   7   8
ENDBRANCH   1   7
TORSDOF 3
ENDMDL
