MODEL 1
REMARK minimizedAffinity -2.81848955
REMARK minimizedRMSD -1
REMARK  3 active torsions:
REMARK  status: ('A' for Active; 'I' for Inactive)
REMARK    1  A    between atoms: C3'_2  and  C2'_3 
REMARK    2  A    between atoms: C2'_3  and  C1'_4 
REMARK    3  A    between atoms: C1'_4  and  C1_5 
ROOT
ATOM      1  C1  N4B d   1      -0.136   0.005  -0.334  0.00  0.00    -0.075 A 
ATOM      2  C2  N4B d   1       0.626  -0.112   0.849  0.00  0.00     0.002 A 
ATOM      3  C3  N4B d   1       0.026   0.064   2.072  0.00  0.00     0.002 A 
ATOM      4  C4  N4B d   1      -1.323   0.375   2.136  0.00  0.00    -0.004 A 
ATOM      5  C5  N4B d   1      -2.058   0.462   0.990  0.00  0.00     0.002 A 
ATOM      6  C6  N4B d   1      -1.470   0.283  -0.246  0.00  0.00     0.002 A 
ENDROOT
BRANCH   1   7
ATOM      7  C1' N4B d   1       0.493  -0.095  -1.697  0.00  0.00     0.057 C 
BRANCH   7   8
ATOM      8  C2' N4B d   1      -0.213  -1.187  -2.495  0.00  0.00     0.009 C 
BRANCH   8   9
ATOM      9  C3' N4B d   1       0.544  -1.542  -3.764  0.00  0.00     0.004 C 
ATOM     10  C4' N4B d   1       2.015  -1.719  -3.532  0.00  0.00     0.003 C 
ENDBRANCH   8   9
ENDBRANCH   7   8
ENDBRANCH   1   7
TORSDOF 3
ENDMDL
