MODEL 1
REMARK minimizedAffinity -2.03475928
REMARK minimizedRMSD -1
REMARK  3 active torsions:
REMARK  status: ('A' for Active; 'I' for Inactive)
REMARK    1  A    between atoms: C3'_2  and  C2'_3 
REMARK    2  A    between atoms: C2'_3  and  C1'_4 
REMARK    3  A    between atoms: C1'_4  and  C1_5 
ROOT
ATOM      1  C1  N4B d   1       0.580  -0.298  -1.148  0.00  0.00    -0.075 A 
ATOM      2  C2  N4B d   1       0.882  -1.033  -2.316  0.00  0.00     0.002 A 
ATOM      3  C3  N4B d   1       0.140  -0.846  -3.456  0.00  0.00     0.002 A 
ATOM      4  C4  N4B d   1      -0.916   0.054  -3.447  0.00  0.00    -0.004 A 
ATOM      5  C5  N4B d   1      -1.185   0.778  -2.323  0.00  0.00     0.002 A 
ATOM      6  C6  N4B d   1      -0.445   0.603  -1.171  0.00  0.00     0.002 A 
ENDROOT
BRANCH   1   7
ATOM      7  C1' N4B d   1       1.308  -0.531   0.147  0.00  0.00     0.057 C 
BRANCH   7   8
ATOM      8  C2' N4B d   1       1.124   0.685   1.051  0.00  0.00     0.009 C 
BRANCH   8   9
ATOM      9  C3' N4B d   1       0.618   0.296   2.430  0.00  0.00     0.004 C 
ATOM     10  C4' N4B d   1      -0.431   1.234   2.949  0.00  0.00     0.003 C 
ENDBRANCH   8   9
ENDBRANCH   7   8
ENDBRANCH   1   7
TORSDOF 3
ENDMDL
