MODEL 1
REMARK minimizedAffinity -3.25622797
REMARK minimizedRMSD -1
REMARK  3 active torsions:
REMARK  status: ('A' for Active; 'I' for Inactive)
REMARK    1  A    between atoms: C3'_2  and  C2'_3 
REMARK    2  A    between atoms: C2'_3  and  C1'_4 
REMARK    3  A    between atoms: C1'_4  and  C1_5 
ROOT
ATOM      1  C1  N4B d   1      -0.282   0.380   0.663  0.00  0.00    -0.075 A 
ATOM      2  C2  N4B d   1      -0.080   0.555   2.050  0.00  0.00     0.002 A 
ATOM      3  C3  N4B d   1      -1.136   0.894   2.860  0.00  0.00     0.002 A 
ATOM      4  C4  N4B d   1      -2.394   1.080   2.306  0.00  0.00    -0.004 A 
ATOM      5  C5  N4B d   1      -2.586   0.885   0.970  0.00  0.00     0.002 A 
ATOM      6  C6  N4B d   1      -1.534   0.540   0.144  0.00  0.00     0.002 A 
ENDROOT
BRANCH   1   7
ATOM      7  C1' N4B d   1       0.858   0.094  -0.275  0.00  0.00     0.057 C 
BRANCH   7   8
ATOM      8  C2' N4B d   1       0.327  -0.657  -1.493  0.00  0.00     0.009 C 
BRANCH   8   9
ATOM      9  C3' N4B d   1       1.284  -0.578  -2.670  0.00  0.00     0.004 C 
ATOM     10  C4' N4B d   1       1.509  -1.908  -3.325  0.00  0.00     0.003 C 
ENDBRANCH   8   9
ENDBRANCH   7   8
ENDBRANCH   1   7
TORSDOF 3
ENDMDL
