MODEL 1
REMARK minimizedAffinity -4.2877717
REMARK minimizedRMSD -1
REMARK  3 active torsions:
REMARK  status: ('A' for Active; 'I' for Inactive)
REMARK    1  A    between atoms: C3'_2  and  C2'_3 
REMARK    2  A    between atoms: C2'_3  and  C1'_4 
REMARK    3  A    between atoms: C1'_4  and  C1_5 
ROOT
ATOM      1  C1  N4B d   1       1.459  -0.936  -1.340  0.00  0.00    -0.075 A 
ATOM      2  C2  N4B d   1       2.214  -1.704  -2.254  0.00  0.00     0.002 A 
ATOM      3  C3  N4B d   1       1.825  -1.784  -3.568  0.00  0.00     0.002 A 
ATOM      4  C4  N4B d   1       0.679  -1.124  -3.986  0.00  0.00    -0.004 A 
ATOM      5  C5  N4B d   1      -0.030  -0.364  -3.103  0.00  0.00     0.002 A 
ATOM      6  C6  N4B d   1       0.351  -0.271  -1.780  0.00  0.00     0.002 A 
ENDROOT
BRANCH   1   7
ATOM      7  C1' N4B d   1       1.796  -0.888   0.125  0.00  0.00     0.057 C 
BRANCH   7   8
ATOM      8  C2' N4B d   1       1.128   0.332   0.753  0.00  0.00     0.009 C 
BRANCH   8   9
ATOM      9  C3' N4B d   1       0.417  -0.015   2.050  0.00  0.00     0.004 C 
ATOM     10  C4' N4B d   1       0.359   1.138   3.007  0.00  0.00     0.003 C 
ENDBRANCH   8   9
ENDBRANCH   7   8
ENDBRANCH   1   7
TORSDOF 3
ENDMDL
