MODEL 1
REMARK minimizedAffinity -0.144657224
REMARK minimizedRMSD -1
REMARK  3 active torsions:
REMARK  status: ('A' for Active; 'I' for Inactive)
REMARK    1  A    between atoms: C3'_2  and  C2'_3 
REMARK    2  A    between atoms: C2'_3  and  C1'_4 
REMARK    3  A    between atoms: C1'_4  and  C1_5 
ROOT
ATOM      1  C1  N4B d   1      -0.011   0.158  -0.017  0.00  0.00    -0.075 A 
ATOM      2  C2  N4B d   1      -1.176   0.609   0.642  0.00  0.00     0.002 A 
ATOM      3  C3  N4B d   1      -1.179   0.758   2.008  0.00  0.00     0.002 A 
ATOM      4  C4  N4B d   1      -0.039   0.446   2.734  0.00  0.00    -0.004 A 
ATOM      5  C5  N4B d   1       1.090   0.035   2.087  0.00  0.00     0.002 A 
ATOM      6  C6  N4B d   1       1.108  -0.115   0.715  0.00  0.00     0.002 A 
ENDROOT
BRANCH   1   7
ATOM      7  C1' N4B d   1       0.013  -0.102  -1.498  0.00  0.00     0.057 C 
BRANCH   7   8
ATOM      8  C2' N4B d   1       1.459  -0.101  -1.983  0.00  0.00     0.009 C 
BRANCH   8   9
ATOM      9  C3' N4B d   1       1.556  -0.328  -3.482  0.00  0.00     0.004 C 
ATOM     10  C4' N4B d   1       1.119  -1.703  -3.891  0.00  0.00     0.003 C 
ENDBRANCH   8   9
ENDBRANCH   7   8
ENDBRANCH   1   7
TORSDOF 3
ENDMDL
