MODEL 1
REMARK minimizedAffinity -4.90532398
REMARK minimizedRMSD -1
REMARK  3 active torsions:
REMARK  status: ('A' for Active; 'I' for Inactive)
REMARK    1  A    between atoms: C3'_2  and  C2'_3 
REMARK    2  A    between atoms: C2'_3  and  C1'_4 
REMARK    3  A    between atoms: C1'_4  and  C1_5 
ROOT
ATOM      1  C1  N4B d   1       0.654  -0.619  -1.782  0.00  0.00    -0.075 A 
ATOM      2  C2  N4B d   1       0.345   0.668  -1.289  0.00  0.00     0.002 A 
ATOM      3  C3  N4B d   1       0.469   0.938   0.052  0.00  0.00     0.002 A 
ATOM      4  C4  N4B d   1       0.881  -0.064   0.918  0.00  0.00    -0.004 A 
ATOM      5  C5  N4B d   1       1.202  -1.297   0.430  0.00  0.00     0.002 A 
ATOM      6  C6  N4B d   1       1.085  -1.581  -0.915  0.00  0.00     0.002 A 
ENDROOT
BRANCH   1   7
ATOM      7  C1' N4B d   1       0.451  -0.985  -3.226  0.00  0.00     0.057 C 
BRANCH   7   8
ATOM      8  C2' N4B d   1       1.810  -1.092  -3.911  0.00  0.00     0.009 C 
BRANCH   8   9
ATOM      9  C3' N4B d   1       2.599   0.202  -3.814  0.00  0.00     0.004 C 
ATOM     10  C4' N4B d   1       3.961   0.100  -4.434  0.00  0.00     0.003 C 
ENDBRANCH   8   9
ENDBRANCH   7   8
ENDBRANCH   1   7
TORSDOF 3
ENDMDL
