MODEL 1
REMARK minimizedAffinity -2.56569982
REMARK minimizedRMSD -1
REMARK  3 active torsions:
REMARK  status: ('A' for Active; 'I' for Inactive)
REMARK    1  A    between atoms: C3'_2  and  C2'_3 
REMARK    2  A    between atoms: C2'_3  and  C1'_4 
REMARK    3  A    between atoms: C1'_4  and  C1_5 
ROOT
ATOM      1  C1  N4B d   1      -0.040   0.289   0.025  0.00  0.00    -0.075 A 
ATOM      2  C2  N4B d   1       0.752   0.235   1.193  0.00  0.00     0.002 A 
ATOM      3  C3  N4B d   1       0.156   0.272   2.429  0.00  0.00     0.002 A 
ATOM      4  C4  N4B d   1      -1.223   0.381   2.522  0.00  0.00    -0.004 A 
ATOM      5  C5  N4B d   1      -1.983   0.407   1.390  0.00  0.00     0.002 A 
ATOM      6  C6  N4B d   1      -1.398   0.367   0.140  0.00  0.00     0.002 A 
ENDROOT
BRANCH   1   7
ATOM      7  C1' N4B d   1       0.572   0.338  -1.348  0.00  0.00     0.057 C 
BRANCH   7   8
ATOM      8  C2' N4B d   1       1.093  -1.049  -1.714  0.00  0.00     0.009 C 
BRANCH   8   9
ATOM      9  C3' N4B d   1       1.630  -1.098  -3.134  0.00  0.00     0.004 C 
ATOM     10  C4' N4B d   1       0.902  -2.085  -3.997  0.00  0.00     0.003 C 
ENDBRANCH   8   9
ENDBRANCH   7   8
ENDBRANCH   1   7
TORSDOF 3
ENDMDL
