MODEL 1
REMARK minimizedAffinity -0.0753834099
REMARK minimizedRMSD -1
REMARK  0 active torsions:
REMARK  status: ('A' for Active; 'I' for Inactive)
ROOT
ATOM      1  C   UNL d   1       4.601  -5.882  -5.999  0.00  0.00     0.020 A 
ATOM      2  C1  UNL d   1       5.812  -5.866  -5.309  0.00  0.00     0.020 A 
ATOM      3  C2  UNL d   1       5.821  -5.892  -3.913  0.00  0.00     0.034 A 
ATOM      4  C3  UNL d   1       4.616  -5.933  -3.202  0.00  0.00     0.017 A 
ATOM      5  C4  UNL d   1       3.401  -5.949  -3.896  0.00  0.00     0.017 A 
ATOM      6  C5  UNL d   1       3.398  -5.923  -5.294  0.00  0.00     0.034 A 
ATOM      7 Cl   UNL d   1       1.873  -5.999  -3.088  0.00  0.00    -0.070 Cl
ATOM      8 Cl1  UNL d   1       4.702  -5.963  -1.477  0.00  0.00    -0.070 Cl
ENDROOT
TORSDOF 0
ENDMDL
