MODEL 1
REMARK minimizedAffinity 10.3214359
REMARK minimizedRMSD -1
REMARK  0 active torsions:
REMARK  status: ('A' for Active; 'I' for Inactive)
ROOT
ATOM      1  C   UNL d   1       3.762   1.481   0.367  0.00  0.00     0.020 A 
ATOM      2  C1  UNL d   1       3.160   0.835   1.445  0.00  0.00     0.020 A 
ATOM      3  C2  UNL d   1       1.875   1.203   1.851  0.00  0.00     0.034 A 
ATOM      4  C3  UNL d   1       1.189   2.221   1.178  0.00  0.00     0.017 A 
ATOM      5  C4  UNL d   1       1.795   2.868   0.095  0.00  0.00     0.017 A 
ATOM      6  C5  UNL d   1       3.081   2.495  -0.307  0.00  0.00     0.034 A 
ATOM      7 Cl   UNL d   1       1.011   4.133  -0.785  0.00  0.00    -0.070 Cl
ATOM      8 Cl1  UNL d   1      -0.396   2.625   1.734  0.00  0.00    -0.070 Cl
ENDROOT
TORSDOF 0
ENDMDL
