MODEL 1
REMARK minimizedAffinity 7.69944286
REMARK minimizedRMSD -1
REMARK  0 active torsions:
REMARK  status: ('A' for Active; 'I' for Inactive)
ROOT
ATOM      1  C   UNL d   1      -1.719  -0.257  -1.278  0.00  0.00     0.020 A 
ATOM      2  C1  UNL d   1      -2.105   1.083  -1.320  0.00  0.00     0.020 A 
ATOM      3  C2  UNL d   1      -3.021   1.516  -2.280  0.00  0.00     0.034 A 
ATOM      4  C3  UNL d   1      -3.556   0.609  -3.203  0.00  0.00     0.017 A 
ATOM      5  C4  UNL d   1      -3.168  -0.735  -3.160  0.00  0.00     0.017 A 
ATOM      6  C5  UNL d   1      -2.250  -1.163  -2.197  0.00  0.00     0.034 A 
ATOM      7 Cl   UNL d   1      -3.784  -1.912  -4.266  0.00  0.00    -0.070 Cl
ATOM      8 Cl1  UNL d   1      -4.684   1.215  -4.362  0.00  0.00    -0.070 Cl
ENDROOT
TORSDOF 0
ENDMDL
