MODEL 1
REMARK minimizedAffinity 6.62436199
REMARK minimizedRMSD -1
REMARK  0 active torsions:
REMARK  status: ('A' for Active; 'I' for Inactive)
ROOT
ATOM      1  C   UNL d   1       2.237  -5.997   1.375  0.00  0.00     0.020 A 
ATOM      2  C1  UNL d   1       0.954  -5.999   0.829  0.00  0.00     0.020 A 
ATOM      3  C2  UNL d   1       0.786  -6.000  -0.558  0.00  0.00     0.034 A 
ATOM      4  C3  UNL d   1       1.902  -5.998  -1.402  0.00  0.00     0.017 A 
ATOM      5  C4  UNL d   1       3.190  -5.996  -0.852  0.00  0.00     0.017 A 
ATOM      6  C5  UNL d   1       3.352  -5.995   0.537  0.00  0.00     0.034 A 
ATOM      7 Cl   UNL d   1       4.615  -5.994  -1.829  0.00  0.00    -0.070 Cl
ATOM      8 Cl1  UNL d   1       1.621  -6.000  -3.107  0.00  0.00    -0.070 Cl
ENDROOT
TORSDOF 0
ENDMDL
