MODEL 1
REMARK minimizedAffinity 2.8379724
REMARK minimizedRMSD -1
REMARK  0 active torsions:
REMARK  status: ('A' for Active; 'I' for Inactive)
ROOT
ATOM      1  C   UNL d   1       1.653  -5.991   1.065  0.00  0.00     0.020 A 
ATOM      2  C1  UNL d   1       1.101  -5.992  -0.215  0.00  0.00     0.020 A 
ATOM      3  C2  UNL d   1       1.935  -5.993  -1.335  0.00  0.00     0.034 A 
ATOM      4  C3  UNL d   1       3.326  -5.995  -1.177  0.00  0.00     0.017 A 
ATOM      5  C4  UNL d   1       3.879  -5.995   0.108  0.00  0.00     0.017 A 
ATOM      6  C5  UNL d   1       3.040  -5.993   1.227  0.00  0.00     0.034 A 
ATOM      7 Cl   UNL d   1       5.586  -5.996   0.383  0.00  0.00    -0.070 Cl
ATOM      8 Cl1  UNL d   1       4.297  -5.998  -2.606  0.00  0.00    -0.070 Cl
ENDROOT
TORSDOF 0
ENDMDL
