MODEL 1
REMARK minimizedAffinity 5.87218618
REMARK minimizedRMSD -1
REMARK  0 active torsions:
REMARK  status: ('A' for Active; 'I' for Inactive)
ROOT
ATOM      1  C   UNL d   1       3.080   1.077   1.169  0.00  0.00     0.020 A 
ATOM      2  C1  UNL d   1       2.464   1.801   2.190  0.00  0.00     0.020 A 
ATOM      3  C2  UNL d   1       1.875   1.130   3.263  0.00  0.00     0.034 A 
ATOM      4  C3  UNL d   1       1.901  -0.269   3.319  0.00  0.00     0.017 A 
ATOM      5  C4  UNL d   1       2.520  -0.994   2.294  0.00  0.00     0.017 A 
ATOM      6  C5  UNL d   1       3.108  -0.317   1.221  0.00  0.00     0.034 A 
ATOM      7 Cl   UNL d   1       2.591  -2.721   2.293  0.00  0.00    -0.070 Cl
ATOM      8 Cl1  UNL d   1       1.153  -1.033   4.677  0.00  0.00    -0.070 Cl
ENDROOT
TORSDOF 0
ENDMDL
