MODEL 1
REMARK minimizedAffinity 3.80409956
REMARK minimizedRMSD -1
REMARK  0 active torsions:
REMARK  status: ('A' for Active; 'I' for Inactive)
ROOT
ATOM      1  C   UNL d   1       5.325  -5.830  -2.963  0.00  0.00     0.020 A 
ATOM      2  C1  UNL d   1       5.426  -6.000  -1.583  0.00  0.00     0.020 A 
ATOM      3  C2  UNL d   1       4.275  -5.999  -0.793  0.00  0.00     0.034 A 
ATOM      4  C3  UNL d   1       3.017  -5.828  -1.382  0.00  0.00     0.017 A 
ATOM      5  C4  UNL d   1       2.916  -5.658  -2.768  0.00  0.00     0.017 A 
ATOM      6  C5  UNL d   1       4.072  -5.659  -3.554  0.00  0.00     0.034 A 
ATOM      7 Cl   UNL d   1       1.399  -5.441  -3.567  0.00  0.00    -0.070 Cl
ATOM      8 Cl1  UNL d   1       1.635  -5.839  -0.345  0.00  0.00    -0.070 Cl
ENDROOT
TORSDOF 0
ENDMDL
