MODEL 1
REMARK minimizedAffinity 5.86826038
REMARK minimizedRMSD -1
REMARK  0 active torsions:
REMARK  status: ('A' for Active; 'I' for Inactive)
ROOT
ATOM      1  C   UNL d   1       2.155  -5.980  -1.292  0.00  0.00     0.020 A 
ATOM      2  C1  UNL d   1       1.477  -5.994  -2.511  0.00  0.00     0.020 A 
ATOM      3  C2  UNL d   1       2.195  -5.999  -3.709  0.00  0.00     0.034 A 
ATOM      4  C3  UNL d   1       3.595  -5.991  -3.691  0.00  0.00     0.017 A 
ATOM      5  C4  UNL d   1       4.274  -5.978  -2.467  0.00  0.00     0.017 A 
ATOM      6  C5  UNL d   1       3.550  -5.972  -1.271  0.00  0.00     0.034 A 
ATOM      7 Cl   UNL d   1       5.999  -5.968  -2.365  0.00  0.00    -0.070 Cl
ATOM      8 Cl1  UNL d   1       4.418  -5.999  -5.210  0.00  0.00    -0.070 Cl
ENDROOT
TORSDOF 0
ENDMDL
