MODEL 1
REMARK minimizedAffinity -1.55987823
REMARK minimizedRMSD -1
REMARK  0 active torsions:
REMARK  status: ('A' for Active; 'I' for Inactive)
ROOT
ATOM      1  C   UNL d   1       2.708  -5.993  -1.847  0.00  0.00     0.020 A 
ATOM      2  C1  UNL d   1       4.100  -6.000  -1.768  0.00  0.00     0.020 A 
ATOM      3  C2  UNL d   1       4.866  -5.994  -2.936  0.00  0.00     0.034 A 
ATOM      4  C3  UNL d   1       4.241  -5.982  -4.188  0.00  0.00     0.017 A 
ATOM      5  C4  UNL d   1       2.843  -5.976  -4.266  0.00  0.00     0.017 A 
ATOM      6  C5  UNL d   1       2.081  -5.981  -3.094  0.00  0.00     0.034 A 
ATOM      7 Cl   UNL d   1       2.000  -5.961  -5.775  0.00  0.00    -0.070 Cl
ATOM      8 Cl1  UNL d   1       5.250  -5.975  -5.590  0.00  0.00    -0.070 Cl
ENDROOT
TORSDOF 0
ENDMDL
