MODEL 1
REMARK minimizedAffinity 5.92640352
REMARK minimizedRMSD -1
REMARK  0 active torsions:
REMARK  status: ('A' for Active; 'I' for Inactive)
ROOT
ATOM      1  C   UNL d   1       1.262  -1.812  -0.120  0.00  0.00     0.020 A 
ATOM      2  C1  UNL d   1       1.026  -1.190   1.105  0.00  0.00     0.020 A 
ATOM      3  C2  UNL d   1       0.578   0.133   1.142  0.00  0.00     0.034 A 
ATOM      4  C3  UNL d   1       0.364   0.837  -0.048  0.00  0.00     0.017 A 
ATOM      5  C4  UNL d   1       0.602   0.212  -1.278  0.00  0.00     0.017 A 
ATOM      6  C5  UNL d   1       1.050  -1.112  -1.309  0.00  0.00     0.034 A 
ATOM      7 Cl   UNL d   1       0.361   1.016  -2.788  0.00  0.00    -0.070 Cl
ATOM      8 Cl1  UNL d   1      -0.191   2.469   0.072  0.00  0.00    -0.070 Cl
ENDROOT
TORSDOF 0
ENDMDL
