MODEL 1
REMARK minimizedAffinity 6.04713726
REMARK minimizedRMSD -1
REMARK  0 active torsions:
REMARK  status: ('A' for Active; 'I' for Inactive)
ROOT
ATOM      1  C   UNL d   1       0.752   1.812   0.155  0.00  0.00     0.020 A 
ATOM      2  C1  UNL d   1      -0.021   0.757   0.639  0.00  0.00     0.020 A 
ATOM      3  C2  UNL d   1       0.315  -0.560   0.318  0.00  0.00     0.034 A 
ATOM      4  C3  UNL d   1       1.426  -0.826  -0.491  0.00  0.00     0.017 A 
ATOM      5  C4  UNL d   1       2.201   0.233  -0.976  0.00  0.00     0.017 A 
ATOM      6  C5  UNL d   1       1.861   1.550  -0.651  0.00  0.00     0.034 A 
ATOM      7 Cl   UNL d   1       3.587  -0.016  -1.979  0.00  0.00    -0.070 Cl
ATOM      8 Cl1  UNL d   1       1.783  -2.478  -0.848  0.00  0.00    -0.070 Cl
ENDROOT
TORSDOF 0
ENDMDL
