MODEL 1
REMARK minimizedAffinity 1.92674458
REMARK minimizedRMSD -1
REMARK  0 active torsions:
REMARK  status: ('A' for Active; 'I' for Inactive)
ROOT
ATOM      1  C   UNL d   1       5.939  -0.011  -6.000  0.00  0.00     0.020 A 
ATOM      2  C1  UNL d   1       5.465   0.861  -5.022  0.00  0.00     0.020 A 
ATOM      3  C2  UNL d   1       4.882   0.355  -3.858  0.00  0.00     0.034 A 
ATOM      4  C3  UNL d   1       4.772  -1.027  -3.669  0.00  0.00     0.017 A 
ATOM      5  C4  UNL d   1       5.249  -1.902  -4.652  0.00  0.00     0.017 A 
ATOM      6  C5  UNL d   1       5.832  -1.390  -5.815  0.00  0.00     0.034 A 
ATOM      7 Cl   UNL d   1       5.149  -3.620  -4.490  0.00  0.00    -0.070 Cl
ATOM      8 Cl1  UNL d   1       4.041  -1.583  -2.206  0.00  0.00    -0.070 Cl
ENDROOT
TORSDOF 0
ENDMDL
