MODEL 1
REMARK minimizedAffinity 1.80636764
REMARK minimizedRMSD -1
REMARK  0 active torsions:
REMARK  status: ('A' for Active; 'I' for Inactive)
ROOT
ATOM      1  C   UNL d   1       1.478  -1.149  -0.670  0.00  0.00     0.020 A 
ATOM      2  C1  UNL d   1       0.423  -0.518  -1.327  0.00  0.00     0.020 A 
ATOM      3  C2  UNL d   1       0.002   0.749  -0.917  0.00  0.00     0.034 A 
ATOM      4  C3  UNL d   1       0.637   1.389   0.154  0.00  0.00     0.017 A 
ATOM      5  C4  UNL d   1       1.696   0.754   0.813  0.00  0.00     0.017 A 
ATOM      6  C5  UNL d   1       2.114  -0.514   0.398  0.00  0.00     0.034 A 
ATOM      7 Cl   UNL d   1       2.529   1.481   2.143  0.00  0.00    -0.070 Cl
ATOM      8 Cl1  UNL d   1       0.065   2.955   0.608  0.00  0.00    -0.070 Cl
ENDROOT
TORSDOF 0
ENDMDL
