MODEL 1
REMARK minimizedAffinity -0.765613735
REMARK minimizedRMSD -1
REMARK  0 active torsions:
REMARK  status: ('A' for Active; 'I' for Inactive)
ROOT
ATOM      1  C   UNL d   1       0.707  -0.896  -1.833  0.00  0.00    -0.002 A 
ATOM      2  C1  UNL d   1       1.415  -0.723  -0.652  0.00  0.00     0.010 A 
ATOM      3  C2  UNL d   1       0.781  -0.232   0.490  0.00  0.00     0.041 A 
ATOM      4  C3  UNL d   1      -0.591   0.084   0.427  0.00  0.00    -0.075 A 
ATOM      5  S   UNL d   1      -1.577   0.698   1.700  0.00  0.00     0.015 SA
ATOM      6  C4  UNL d   1      -2.961   0.744   0.708  0.00  0.00     0.022 A 
ATOM      7  C5  UNL d   1      -2.696   0.305  -0.568  0.00  0.00     0.026 A 
ATOM      8  C6  UNL d   1      -1.325  -0.083  -0.751  0.00  0.00    -0.082 A 
ATOM      9  C7  UNL d   1      -0.654  -0.582  -1.893  0.00  0.00     0.045 A 
ENDROOT
TORSDOF 0
ENDMDL
