MODEL 1
REMARK minimizedAffinity -2.8024919
REMARK minimizedRMSD -1
REMARK  0 active torsions:
REMARK  status: ('A' for Active; 'I' for Inactive)
ROOT
ATOM      1  C   UNL d   1      -1.624   1.362   2.416  0.00  0.00    -0.002 A 
ATOM      2  C1  UNL d   1      -0.396   1.295   3.060  0.00  0.00     0.010 A 
ATOM      3  C2  UNL d   1       0.700   0.696   2.437  0.00  0.00     0.041 A 
ATOM      4  C3  UNL d   1       0.542   0.163   1.143  0.00  0.00    -0.075 A 
ATOM      5  S   UNL d   1       1.746  -0.616   0.185  0.00  0.00     0.015 SA
ATOM      6  C4  UNL d   1       0.659  -0.877  -1.102  0.00  0.00     0.022 A 
ATOM      7  C5  UNL d   1      -0.596  -0.388  -0.824  0.00  0.00     0.026 A 
ATOM      8  C6  UNL d   1      -0.684   0.219   0.474  0.00  0.00    -0.082 A 
ATOM      9  C7  UNL d   1      -1.777   0.832   1.132  0.00  0.00     0.045 A 
ENDROOT
TORSDOF 0
ENDMDL
