MODEL 1
REMARK minimizedAffinity 1.37343156
REMARK minimizedRMSD -1
REMARK  0 active torsions:
REMARK  status: ('A' for Active; 'I' for Inactive)
ROOT
ATOM      1  C   UNL d   1       0.042   2.209   2.249  0.00  0.00    -0.002 A 
ATOM      2  C1  UNL d   1       1.174   1.850   1.530  0.00  0.00     0.010 A 
ATOM      3  C2  UNL d   1       1.136   0.778   0.637  0.00  0.00     0.041 A 
ATOM      4  C3  UNL d   1      -0.069   0.067   0.475  0.00  0.00    -0.075 A 
ATOM      5  S   UNL d   1      -0.350  -1.280  -0.564  0.00  0.00     0.015 SA
ATOM      6  C4  UNL d   1      -1.979  -1.410  -0.079  0.00  0.00     0.022 A 
ATOM      7  C5  UNL d   1      -2.317  -0.457   0.853  0.00  0.00     0.026 A 
ATOM      8  C6  UNL d   1      -1.222   0.411   1.186  0.00  0.00    -0.082 A 
ATOM      9  C7  UNL d   1      -1.152   1.502   2.086  0.00  0.00     0.045 A 
ENDROOT
TORSDOF 0
ENDMDL
