MODEL 1
REMARK minimizedAffinity -0.3621701
REMARK minimizedRMSD -1
REMARK  0 active torsions:
REMARK  status: ('A' for Active; 'I' for Inactive)
ROOT
ATOM      1  C   UNL d   1      -1.391   1.179   2.417  0.00  0.00    -0.002 A 
ATOM      2  C1  UNL d   1      -0.054   1.526   2.546  0.00  0.00     0.010 A 
ATOM      3  C2  UNL d   1       0.872   1.159   1.567  0.00  0.00     0.041 A 
ATOM      4  C3  UNL d   1       0.426   0.432   0.445  0.00  0.00    -0.075 A 
ATOM      5  S   UNL d   1       1.380  -0.124  -0.879  0.00  0.00     0.015 SA
ATOM      6  C4  UNL d   1       0.034  -0.834  -1.646  0.00  0.00     0.022 A 
ATOM      7  C5  UNL d   1      -1.123  -0.661  -0.924  0.00  0.00     0.026 A 
ATOM      8  C6  UNL d   1      -0.916   0.073   0.293  0.00  0.00    -0.082 A 
ATOM      9  C7  UNL d   1      -1.830   0.459   1.303  0.00  0.00     0.045 A 
ENDROOT
TORSDOF 0
ENDMDL
