MODEL 1
REMARK minimizedAffinity -4.26361656
REMARK minimizedRMSD -1
REMARK  0 active torsions:
REMARK  status: ('A' for Active; 'I' for Inactive)
ROOT
ATOM      1  C   UNL d   1      -1.409   1.116   2.814  0.00  0.00    -0.002 A 
ATOM      2  C1  UNL d   1      -0.041   1.139   3.045  0.00  0.00     0.010 A 
ATOM      3  C2  UNL d   1       0.854   0.738   2.051  0.00  0.00     0.041 A 
ATOM      4  C3  UNL d   1       0.345   0.311   0.809  0.00  0.00    -0.075 A 
ATOM      5  S   UNL d   1       1.252  -0.225  -0.557  0.00  0.00     0.015 SA
ATOM      6  C4  UNL d   1      -0.156  -0.497  -1.479  0.00  0.00     0.022 A 
ATOM      7  C5  UNL d   1      -1.298  -0.192  -0.777  0.00  0.00     0.026 A 
ATOM      8  C6  UNL d   1      -1.028   0.279   0.552  0.00  0.00    -0.082 A 
ATOM      9  C7  UNL d   1      -1.910   0.691   1.581  0.00  0.00     0.045 A 
ENDROOT
TORSDOF 0
ENDMDL
