MODEL 1
REMARK minimizedAffinity -3.67283535
REMARK minimizedRMSD -1
REMARK  0 active torsions:
REMARK  status: ('A' for Active; 'I' for Inactive)
ROOT
ATOM      1  C   UNL d   1      -1.070   0.999   2.617  0.00  0.00    -0.002 A 
ATOM      2  C1  UNL d   1       0.289   1.027   2.895  0.00  0.00     0.010 A 
ATOM      3  C2  UNL d   1       1.202   0.406   2.040  0.00  0.00     0.041 A 
ATOM      4  C3  UNL d   1       0.721  -0.248   0.889  0.00  0.00    -0.075 A 
ATOM      5  S   UNL d   1       1.653  -1.076  -0.302  0.00  0.00     0.015 SA
ATOM      6  C4  UNL d   1       0.269  -1.486  -1.208  0.00  0.00     0.022 A 
ATOM      7  C5  UNL d   1      -0.884  -1.011  -0.631  0.00  0.00     0.026 A 
ATOM      8  C6  UNL d   1      -0.643  -0.289   0.587  0.00  0.00    -0.082 A 
ATOM      9  C7  UNL d   1      -1.543   0.349   1.474  0.00  0.00     0.045 A 
ENDROOT
TORSDOF 0
ENDMDL
