MODEL 1
REMARK minimizedAffinity -4.75388002
REMARK minimizedRMSD -1
REMARK  0 active torsions:
REMARK  status: ('A' for Active; 'I' for Inactive)
ROOT
ATOM      1  C   UNL d   1      -1.371   1.523   2.139  0.00  0.00    -0.002 A 
ATOM      2  C1  UNL d   1      -0.095   1.420   2.676  0.00  0.00     0.010 A 
ATOM      3  C2  UNL d   1       0.910   0.733   1.993  0.00  0.00     0.041 A 
ATOM      4  C3  UNL d   1       0.609   0.146   0.748  0.00  0.00    -0.075 A 
ATOM      5  S   UNL d   1       1.681  -0.744  -0.268  0.00  0.00     0.015 SA
ATOM      6  C4  UNL d   1       0.471  -1.008  -1.439  0.00  0.00     0.022 A 
ATOM      7  C5  UNL d   1      -0.728  -0.438  -1.080  0.00  0.00     0.026 A 
ATOM      8  C6  UNL d   1      -0.668   0.236   0.186  0.00  0.00    -0.082 A 
ATOM      9  C7  UNL d   1      -1.665   0.939   0.904  0.00  0.00     0.045 A 
ENDROOT
TORSDOF 0
ENDMDL
