MODEL 1
REMARK minimizedAffinity 1.97085786
REMARK minimizedRMSD -1
REMARK  0 active torsions:
REMARK  status: ('A' for Active; 'I' for Inactive)
ROOT
ATOM      1  C   UNL d   1       4.675   0.053  -3.663  0.00  0.00    -0.002 A 
ATOM      2  C1  UNL d   1       4.470  -0.573  -4.884  0.00  0.00     0.010 A 
ATOM      3  C2  UNL d   1       3.207  -0.570  -5.481  0.00  0.00     0.041 A 
ATOM      4  C3  UNL d   1       2.145   0.082  -4.825  0.00  0.00    -0.075 A 
ATOM      5  S   UNL d   1       0.514   0.215  -5.367  0.00  0.00     0.015 SA
ATOM      6  C4  UNL d   1       0.051   1.108  -3.991  0.00  0.00     0.022 A 
ATOM      7  C5  UNL d   1       1.102   1.309  -3.129  0.00  0.00     0.026 A 
ATOM      8  C6  UNL d   1       2.327   0.721  -3.595  0.00  0.00    -0.082 A 
ATOM      9  C7  UNL d   1       3.618   0.699  -3.015  0.00  0.00     0.045 A 
ENDROOT
TORSDOF 0
ENDMDL
