MODEL 1
REMARK minimizedAffinity -4.73447514
REMARK minimizedRMSD -1
REMARK  0 active torsions:
REMARK  status: ('A' for Active; 'I' for Inactive)
ROOT
ATOM      1  C   UNL d   1       1.457  -0.381   3.655  0.00  0.00     0.077 C 
ATOM      2  C1  UNL d   1       0.442   0.095   2.658  0.00  0.00    -0.074 A 
ATOM      3  C2  UNL d   1      -0.687   0.810   3.068  0.00  0.00    -0.005 A 
ATOM      4  C3  UNL d   1      -1.618   1.255   2.129  0.00  0.00     0.006 A 
ATOM      5  C4  UNL d   1      -1.428   0.990   0.772  0.00  0.00    -0.005 A 
ATOM      6  C5  UNL d   1      -0.304   0.277   0.343  0.00  0.00    -0.074 A 
ATOM      7  C6  UNL d   1      -0.080  -0.008  -1.112  0.00  0.00     0.077 C 
ATOM      8  C7  UNL d   1       0.630  -0.161   1.293  0.00  0.00    -0.001 A 
ENDROOT
TORSDOF 0
ENDMDL
