MODEL 1
REMARK minimizedAffinity -3.15345573
REMARK minimizedRMSD -1
REMARK  0 active torsions:
REMARK  status: ('A' for Active; 'I' for Inactive)
ROOT
ATOM      1  C   UNL d   1      -1.703   1.516  -1.584  0.00  0.00     0.077 C 
ATOM      2  C1  UNL d   1      -0.867   0.960  -0.470  0.00  0.00    -0.074 A 
ATOM      3  C2  UNL d   1       0.299   0.236  -0.739  0.00  0.00    -0.005 A 
ATOM      4  C3  UNL d   1       1.071  -0.268   0.308  0.00  0.00     0.006 A 
ATOM      5  C4  UNL d   1       0.686  -0.053   1.631  0.00  0.00    -0.005 A 
ATOM      6  C5  UNL d   1      -0.477   0.668   1.920  0.00  0.00    -0.074 A 
ATOM      7  C6  UNL d   1      -0.900   0.916   3.337  0.00  0.00     0.077 C 
ATOM      8  C7  UNL d   1      -1.244   1.177   0.863  0.00  0.00    -0.001 A 
ENDROOT
TORSDOF 0
ENDMDL
