MODEL 1
REMARK minimizedAffinity -4.12145042
REMARK minimizedRMSD -1
REMARK  0 active torsions:
REMARK  status: ('A' for Active; 'I' for Inactive)
ROOT
ATOM      1  C   UNL d   1      -1.249   0.850   0.488  0.00  0.00     0.077 C 
ATOM      2  C1  UNL d   1      -0.536   0.137  -0.622  0.00  0.00    -0.074 A 
ATOM      3  C2  UNL d   1      -0.420  -1.257  -0.624  0.00  0.00    -0.005 A 
ATOM      4  C3  UNL d   1       0.238  -1.906  -1.668  0.00  0.00     0.006 A 
ATOM      5  C4  UNL d   1       0.786  -1.171  -2.720  0.00  0.00    -0.005 A 
ATOM      6  C5  UNL d   1       0.679   0.224  -2.736  0.00  0.00    -0.074 A 
ATOM      7  C6  UNL d   1       1.253   1.029  -3.863  0.00  0.00     0.077 C 
ATOM      8  C7  UNL d   1       0.010   0.869  -1.686  0.00  0.00    -0.001 A 
ENDROOT
TORSDOF 0
ENDMDL
