MODEL 1
REMARK minimizedAffinity -4.69245052
REMARK minimizedRMSD -1
REMARK  0 active torsions:
REMARK  status: ('A' for Active; 'I' for Inactive)
ROOT
ATOM      1  C   UNL d   1       1.196  -0.523   3.300  0.00  0.00     0.077 C 
ATOM      2  C1  UNL d   1       0.338  -0.281   2.094  0.00  0.00    -0.074 A 
ATOM      3  C2  UNL d   1      -1.017   0.038   2.229  0.00  0.00    -0.005 A 
ATOM      4  C3  UNL d   1      -1.801   0.270   1.098  0.00  0.00     0.006 A 
ATOM      5  C4  UNL d   1      -1.238   0.185  -0.176  0.00  0.00    -0.005 A 
ATOM      6  C5  UNL d   1       0.115  -0.131  -0.330  0.00  0.00    -0.074 A 
ATOM      7  C6  UNL d   1       0.738  -0.217  -1.692  0.00  0.00     0.077 C 
ATOM      8  C7  UNL d   1       0.898  -0.356   0.811  0.00  0.00    -0.001 A 
ENDROOT
TORSDOF 0
ENDMDL
