MODEL 1
REMARK minimizedAffinity -4.22749567
REMARK minimizedRMSD -1
REMARK  0 active torsions:
REMARK  status: ('A' for Active; 'I' for Inactive)
ROOT
ATOM      1  C   UNL d   1      -1.764   0.713   0.771  0.00  0.00     0.077 C 
ATOM      2  C1  UNL d   1      -0.724   0.204  -0.183  0.00  0.00    -0.074 A 
ATOM      3  C2  UNL d   1       0.253  -0.705   0.236  0.00  0.00    -0.005 A 
ATOM      4  C3  UNL d   1       1.207  -1.176  -0.665  0.00  0.00     0.006 A 
ATOM      5  C4  UNL d   1       1.195  -0.745  -1.992  0.00  0.00    -0.005 A 
ATOM      6  C5  UNL d   1       0.226   0.163  -2.429  0.00  0.00    -0.074 A 
ATOM      7  C6  UNL d   1       0.192   0.630  -3.854  0.00  0.00     0.077 C 
ATOM      8  C7  UNL d   1      -0.735   0.627  -1.520  0.00  0.00    -0.001 A 
ENDROOT
TORSDOF 0
ENDMDL
