MODEL 1
REMARK minimizedAffinity -3.71902943
REMARK minimizedRMSD -1
REMARK  0 active torsions:
REMARK  status: ('A' for Active; 'I' for Inactive)
ROOT
ATOM      1  C   UNL d   1      -1.380   2.120   0.174  0.00  0.00     0.077 C 
ATOM      2  C1  UNL d   1      -0.548   1.035  -0.444  0.00  0.00    -0.074 A 
ATOM      3  C2  UNL d   1      -0.523  -0.251   0.104  0.00  0.00    -0.005 A 
ATOM      4  C3  UNL d   1       0.249  -1.252  -0.486  0.00  0.00     0.006 A 
ATOM      5  C4  UNL d   1       1.001  -0.977  -1.629  0.00  0.00    -0.005 A 
ATOM      6  C5  UNL d   1       0.987   0.303  -2.192  0.00  0.00    -0.074 A 
ATOM      7  C6  UNL d   1       1.783   0.613  -3.425  0.00  0.00     0.077 C 
ATOM      8  C7  UNL d   1       0.204   1.301  -1.596  0.00  0.00    -0.001 A 
ENDROOT
TORSDOF 0
ENDMDL
