MODEL 1
REMARK minimizedAffinity -0.586015701
REMARK minimizedRMSD -1
REMARK  0 active torsions:
REMARK  status: ('A' for Active; 'I' for Inactive)
ROOT
ATOM      1  C   UNL d   1       0.198  -0.068  -4.613  0.00  0.00     0.077 C 
ATOM      2  C1  UNL d   1       0.448  -0.036  -3.135  0.00  0.00    -0.074 A 
ATOM      3  C2  UNL d   1       1.729   0.207  -2.628  0.00  0.00    -0.005 A 
ATOM      4  C3  UNL d   1       1.944   0.243  -1.250  0.00  0.00     0.006 A 
ATOM      5  C4  UNL d   1       0.884   0.038  -0.367  0.00  0.00    -0.005 A 
ATOM      6  C5  UNL d   1      -0.404  -0.205  -0.856  0.00  0.00    -0.074 A 
ATOM      7  C6  UNL d   1      -1.557  -0.417   0.080  0.00  0.00     0.077 C 
ATOM      8  C7  UNL d   1      -0.614  -0.233  -2.241  0.00  0.00    -0.001 A 
ENDROOT
TORSDOF 0
ENDMDL
