MODEL 1
REMARK minimizedAffinity -4.47174883
REMARK minimizedRMSD -1
REMARK  0 active torsions:
REMARK  status: ('A' for Active; 'I' for Inactive)
ROOT
ATOM      1  C   UNL d   1       1.026  -0.774   3.663  0.00  0.00     0.077 C 
ATOM      2  C1  UNL d   1       0.153  -0.325   2.530  0.00  0.00    -0.074 A 
ATOM      3  C2  UNL d   1      -1.063   0.323   2.771  0.00  0.00    -0.005 A 
ATOM      4  C3  UNL d   1      -1.860   0.743   1.706  0.00  0.00     0.006 A 
ATOM      5  C4  UNL d   1      -1.450   0.520   0.391  0.00  0.00    -0.005 A 
ATOM      6  C5  UNL d   1      -0.237  -0.125   0.130  0.00  0.00    -0.074 A 
ATOM      7  C6  UNL d   1       0.223  -0.364  -1.277  0.00  0.00     0.077 C 
ATOM      8  C7  UNL d   1       0.561  -0.538   1.206  0.00  0.00    -0.001 A 
ENDROOT
TORSDOF 0
ENDMDL
