MODEL 1
REMARK minimizedAffinity 9.98370838
REMARK minimizedRMSD -1
REMARK  1 active torsions:
REMARK  status: ('A' for Active; 'I' for Inactive)
REMARK    1  A    between atoms: C1_2  and  C2_3 
ROOT
ATOM      1  C2  UNL d   1      -0.663  -0.092   2.137  0.00  0.00    -0.081 A 
ATOM      2  C3  UNL d   1      -0.831  -0.728   0.901  0.00  0.00     0.006 A 
ATOM      3  C4  UNL d   1      -1.838  -0.317   0.025  0.00  0.00     0.002 A 
ATOM      4  C5  UNL d   1      -2.687   0.741   0.365  0.00  0.00    -0.080 A 
ATOM      5  C6  UNL d   1      -3.752   1.212  -0.580  0.00  0.00     0.076 C 
ATOM      6  C7  UNL d   1      -2.530   1.366   1.607  0.00  0.00     0.002 A 
ATOM      7  C8  UNL d   1      -1.524   0.955   2.485  0.00  0.00     0.006 A 
ENDROOT
BRANCH   1   8
ATOM      8  C1  UNL d   1       0.463  -0.490   3.057  0.00  0.00     0.054 C 
ATOM      9  C   UNL d   1       1.808  -0.416   2.350  0.00  0.00     0.018 C 
ENDBRANCH   1   8
TORSDOF 1
ENDMDL
