MODEL 1
REMARK minimizedAffinity 4.86662674
REMARK minimizedRMSD -1
REMARK  1 active torsions:
REMARK  status: ('A' for Active; 'I' for Inactive)
REMARK    1  A    between atoms: C1_2  and  C2_3 
ROOT
ATOM      1  C2  UNL d   1      -1.469  -1.002   1.060  0.00  0.00    -0.081 A 
ATOM      2  C3  UNL d   1      -0.273  -1.015   0.333  0.00  0.00     0.006 A 
ATOM      3  C4  UNL d   1      -0.206  -1.653  -0.908  0.00  0.00     0.002 A 
ATOM      4  C5  UNL d   1      -1.334  -2.282  -1.445  0.00  0.00    -0.080 A 
ATOM      5  C6  UNL d   1      -1.284  -2.944  -2.790  0.00  0.00     0.076 C 
ATOM      6  C7  UNL d   1      -2.525  -2.284  -0.710  0.00  0.00     0.002 A 
ATOM      7  C8  UNL d   1      -2.592  -1.647   0.531  0.00  0.00     0.006 A 
ENDROOT
BRANCH   1   8
ATOM      8  C1  UNL d   1      -1.562  -0.260   2.369  0.00  0.00     0.054 C 
ATOM      9  C   UNL d   1      -2.340   1.040   2.213  0.00  0.00     0.018 C 
ENDBRANCH   1   8
TORSDOF 1
ENDMDL
