MODEL 1
REMARK minimizedAffinity 4.65523672
REMARK minimizedRMSD -1
REMARK  1 active torsions:
REMARK  status: ('A' for Active; 'I' for Inactive)
REMARK    1  A    between atoms: C1_2  and  C2_3 
ROOT
ATOM      1  C2  UNL d   1       0.469   0.089   1.896  0.00  0.00    -0.081 A 
ATOM      2  C3  UNL d   1       0.407  -0.310   3.237  0.00  0.00     0.006 A 
ATOM      3  C4  UNL d   1      -0.825  -0.561   3.845  0.00  0.00     0.002 A 
ATOM      4  C5  UNL d   1      -2.015  -0.426   3.121  0.00  0.00    -0.080 A 
ATOM      5  C6  UNL d   1      -3.342  -0.722   3.753  0.00  0.00     0.076 C 
ATOM      6  C7  UNL d   1      -1.954  -0.010   1.786  0.00  0.00     0.002 A 
ATOM      7  C8  UNL d   1      -0.722   0.242   1.178  0.00  0.00     0.006 A 
ENDROOT
BRANCH   1   8
ATOM      8  C1  UNL d   1       1.800   0.298   1.219  0.00  0.00     0.054 C 
ATOM      9  C   UNL d   1       2.833  -0.706   1.709  0.00  0.00     0.018 C 
ENDBRANCH   1   8
TORSDOF 1
ENDMDL
