MODEL 1
REMARK minimizedAffinity -0.451519936
REMARK minimizedRMSD -1
REMARK  1 active torsions:
REMARK  status: ('A' for Active; 'I' for Inactive)
REMARK    1  A    between atoms: C1_2  and  C2_3 
ROOT
ATOM      1  C2  UNL d   1       0.598  -1.389   0.473  0.00  0.00    -0.076 A 
ATOM      2  C3  UNL d   1      -0.436  -0.624   1.040  0.00  0.00     0.004 A 
ATOM      3  C4  UNL d   1      -1.031  -1.002   2.243  0.00  0.00    -0.003 A 
ATOM      4  C5  UNL d   1      -0.602  -2.151   2.898  0.00  0.00     0.000 A 
ATOM      5  C6  UNL d   1       0.435  -2.912   2.358  0.00  0.00     0.000 A 
ATOM      6  C7  UNL d   1       1.057  -2.536   1.155  0.00  0.00    -0.073 A 
ATOM      7  C8  UNL d   1       2.166  -3.398   0.616  0.00  0.00     0.078 C 
ENDROOT
BRANCH   1   8
ATOM      8  C1  UNL d   1       1.188  -0.945  -0.847  0.00  0.00     0.053 C 
ATOM      9  C   UNL d   1       1.967   0.356  -0.729  0.00  0.00     0.018 C 
ENDBRANCH   1   8
TORSDOF 1
ENDMDL
