MODEL 1
REMARK minimizedAffinity 4.76378298
REMARK minimizedRMSD -1
REMARK  1 active torsions:
REMARK  status: ('A' for Active; 'I' for Inactive)
REMARK    1  A    between atoms: C1_2  and  C2_3 
ROOT
ATOM      1  C2  UNL d   1      -1.675  -0.938   1.783  0.00  0.00    -0.076 A 
ATOM      2  C3  UNL d   1      -2.555  -2.035   1.771  0.00  0.00     0.004 A 
ATOM      3  C4  UNL d   1      -2.384  -3.100   2.654  0.00  0.00    -0.003 A 
ATOM      4  C5  UNL d   1      -1.332  -3.086   3.563  0.00  0.00     0.000 A 
ATOM      5  C6  UNL d   1      -0.461  -1.998   3.600  0.00  0.00     0.000 A 
ATOM      6  C7  UNL d   1      -0.628  -0.908   2.728  0.00  0.00    -0.073 A 
ATOM      7  C8  UNL d   1       0.345   0.236   2.808  0.00  0.00     0.078 C 
ENDROOT
BRANCH   1   8
ATOM      8  C1  UNL d   1      -1.894   0.175   0.784  0.00  0.00     0.053 C 
ATOM      9  C   UNL d   1      -1.267  -0.124  -0.569  0.00  0.00     0.018 C 
ENDBRANCH   1   8
TORSDOF 1
ENDMDL
