MODEL 1
REMARK minimizedAffinity 3.36647916
REMARK minimizedRMSD -1
REMARK  1 active torsions:
REMARK  status: ('A' for Active; 'I' for Inactive)
REMARK    1  A    between atoms: C1_2  and  C2_3 
ROOT
ATOM      1  C2  UNL d   1      -0.849  -1.253   1.782  0.00  0.00    -0.076 A 
ATOM      2  C3  UNL d   1       0.473  -1.560   1.415  0.00  0.00     0.004 A 
ATOM      3  C4  UNL d   1       0.966  -1.216   0.157  0.00  0.00    -0.003 A 
ATOM      4  C5  UNL d   1       0.146  -0.559  -0.753  0.00  0.00     0.000 A 
ATOM      5  C6  UNL d   1      -1.163  -0.231  -0.399  0.00  0.00     0.000 A 
ATOM      6  C7  UNL d   1      -1.670  -0.556   0.871  0.00  0.00    -0.073 A 
ATOM      7  C8  UNL d   1      -3.090  -0.183   1.198  0.00  0.00     0.078 C 
ENDROOT
BRANCH   1   8
ATOM      8  C1  UNL d   1      -1.336  -1.675   3.150  0.00  0.00     0.053 C 
ATOM      9  C   UNL d   1      -2.039  -3.023   3.128  0.00  0.00     0.018 C 
ENDBRANCH   1   8
TORSDOF 1
ENDMDL
