MODEL 1
REMARK minimizedAffinity -0.0851387456
REMARK minimizedRMSD -1
REMARK  1 active torsions:
REMARK  status: ('A' for Active; 'I' for Inactive)
REMARK    1  A    between atoms: C1_2  and  C2_3 
ROOT
ATOM      1  C2  UNL d   1       1.270  -1.953   0.920  0.00  0.00    -0.076 A 
ATOM      2  C3  UNL d   1       0.785  -2.187   2.218  0.00  0.00     0.004 A 
ATOM      3  C4  UNL d   1      -0.216  -1.387   2.766  0.00  0.00    -0.003 A 
ATOM      4  C5  UNL d   1      -0.750  -0.339   2.023  0.00  0.00     0.000 A 
ATOM      5  C6  UNL d   1      -0.293  -0.103   0.727  0.00  0.00     0.000 A 
ATOM      6  C7  UNL d   1       0.705  -0.910   0.154  0.00  0.00    -0.073 A 
ATOM      7  C8  UNL d   1       1.165  -0.607  -1.245  0.00  0.00     0.078 C 
ENDROOT
BRANCH   1   8
ATOM      8  C1  UNL d   1       2.377  -2.836   0.390  0.00  0.00     0.053 C 
ATOM      9  C   UNL d   1       2.546  -4.110   1.203  0.00  0.00     0.018 C 
ENDBRANCH   1   8
TORSDOF 1
ENDMDL
