MODEL 1
REMARK minimizedAffinity -4.67341709
REMARK minimizedRMSD -1
REMARK  1 active torsions:
REMARK  status: ('A' for Active; 'I' for Inactive)
REMARK    1  A    between atoms: C1_2  and  C2_3 
ROOT
ATOM      1  C2  UNL d   1       1.491  -1.962   1.163  0.00  0.00    -0.076 A 
ATOM      2  C3  UNL d   1       1.187  -1.924   2.535  0.00  0.00     0.004 A 
ATOM      3  C4  UNL d   1       0.093  -1.201   3.007  0.00  0.00    -0.003 A 
ATOM      4  C5  UNL d   1      -0.715  -0.504   2.115  0.00  0.00     0.000 A 
ATOM      5  C6  UNL d   1      -0.438  -0.545   0.749  0.00  0.00     0.000 A 
ATOM      6  C7  UNL d   1       0.652  -1.283   0.255  0.00  0.00    -0.073 A 
ATOM      7  C8  UNL d   1       0.907  -1.288  -1.227  0.00  0.00     0.078 C 
ENDROOT
BRANCH   1   8
ATOM      8  C1  UNL d   1       2.706  -2.741   0.713  0.00  0.00     0.053 C 
ATOM      9  C   UNL d   1       2.414  -4.223   0.532  0.00  0.00     0.018 C 
ENDBRANCH   1   8
TORSDOF 1
ENDMDL
