MODEL 1
REMARK minimizedAffinity -6.72077608
REMARK minimizedRMSD -1
REMARK  0 active torsions:
REMARK  status: ('A' for Active; 'I' for Inactive)
ROOT
ATOM      1  N1  IND d   1      -0.055   0.008   0.028  0.00  0.00    -0.196 N 
ATOM      2  C2  IND d   1       1.030  -0.259  -0.759  0.00  0.00     0.054 A 
ATOM      3  C3  IND d   1       1.760  -1.266  -0.229  0.00  0.00    -0.031 A 
ATOM      4  C4  IND d   1       1.305  -2.688   1.868  0.00  0.00     0.051 A 
ATOM      5  C5  IND d   1       0.455  -2.795   2.933  0.00  0.00    -0.031 A 
ATOM      6  C6  IND d   1      -0.632  -1.959   3.086  0.00  0.00     0.015 A 
ATOM      7  C7  IND d   1      -0.917  -0.987   2.169  0.00  0.00    -0.016 A 
ATOM      8  C8  IND d   1      -0.052  -0.870   1.090  0.00  0.00    -0.047 A 
ATOM      9  C9  IND d   1       1.077  -1.688   0.952  0.00  0.00    -0.096 A 
ATOM     10  HN1 IND d   1      -0.641   0.620  -0.115  0.00  0.00     0.298 HD
ENDROOT
TORSDOF 0
ENDMDL
