MODEL 1
REMARK minimizedAffinity -5.64363813
REMARK minimizedRMSD -1
REMARK  0 active torsions:
REMARK  status: ('A' for Active; 'I' for Inactive)
ROOT
ATOM      1  N1  IND d   1      -0.398  -0.309   0.709  0.00  0.00    -0.196 N 
ATOM      2  C2  IND d   1       0.710  -0.024  -0.040  0.00  0.00     0.054 A 
ATOM      3  C3  IND d   1       1.735  -0.832   0.310  0.00  0.00    -0.031 A 
ATOM      4  C4  IND d   1       1.788  -2.762   2.013  0.00  0.00     0.051 A 
ATOM      5  C5  IND d   1       1.028  -3.378   2.967  0.00  0.00    -0.031 A 
ATOM      6  C6  IND d   1      -0.274  -2.997   3.220  0.00  0.00     0.015 A 
ATOM      7  C7  IND d   1      -0.870  -1.988   2.518  0.00  0.00    -0.016 A 
ATOM      8  C8  IND d   1      -0.098  -1.356   1.553  0.00  0.00    -0.047 A 
ATOM      9  C9  IND d   1       1.237  -1.710   1.321  0.00  0.00    -0.096 A 
ATOM     10  HN1 IND d   1      -1.154   0.097   0.660  0.00  0.00     0.298 HD
ENDROOT
TORSDOF 0
ENDMDL
