MODEL 1
REMARK minimizedAffinity -6.33114481
REMARK minimizedRMSD -1
REMARK  0 active torsions:
REMARK  status: ('A' for Active; 'I' for Inactive)
ROOT
ATOM      1  N1  IND d   1      -1.409   0.248   1.776  0.00  0.00    -0.196 N 
ATOM      2  C2  IND d   1      -1.991  -0.596   2.681  0.00  0.00     0.054 A 
ATOM      3  C3  IND d   1      -1.414  -1.817   2.625  0.00  0.00    -0.031 A 
ATOM      4  C4  IND d   1       0.569  -2.624   1.196  0.00  0.00     0.051 A 
ATOM      5  C5  IND d   1       1.408  -2.225   0.194  0.00  0.00    -0.031 A 
ATOM      6  C6  IND d   1       1.352  -0.954  -0.341  0.00  0.00     0.015 A 
ATOM      7  C7  IND d   1       0.458  -0.028   0.116  0.00  0.00    -0.016 A 
ATOM      8  C8  IND d   1      -0.401  -0.432   1.129  0.00  0.00    -0.047 A 
ATOM      9  C9  IND d   1      -0.376  -1.734   1.647  0.00  0.00    -0.096 A 
ATOM     10  HN1 IND d   1      -1.635   1.065   1.635  0.00  0.00     0.298 HD
ENDROOT
TORSDOF 0
ENDMDL
