MODEL 1
REMARK minimizedAffinity -4.50708008
REMARK minimizedRMSD -1
REMARK  0 active torsions:
REMARK  status: ('A' for Active; 'I' for Inactive)
ROOT
ATOM      1  N1  IND d   1      -0.751   0.237   0.412  0.00  0.00    -0.196 N 
ATOM      2  C2  IND d   1       0.160   0.714  -0.489  0.00  0.00     0.054 A 
ATOM      3  C3  IND d   1       1.292  -0.023  -0.447  0.00  0.00    -0.031 A 
ATOM      4  C4  IND d   1       1.830  -2.118   0.949  0.00  0.00     0.051 A 
ATOM      5  C5  IND d   1       1.325  -2.911   1.941  0.00  0.00    -0.031 A 
ATOM      6  C6  IND d   1       0.075  -2.692   2.483  0.00  0.00     0.015 A 
ATOM      7  C7  IND d   1      -0.724  -1.674   2.044  0.00  0.00    -0.016 A 
ATOM      8  C8  IND d   1      -0.211  -0.863   1.041  0.00  0.00    -0.047 A 
ATOM      9  C9  IND d   1       1.074  -1.055   0.517  0.00  0.00    -0.096 A 
ATOM     10  HN1 IND d   1      -1.531   0.568   0.561  0.00  0.00     0.298 HD
ENDROOT
TORSDOF 0
ENDMDL
