MODEL 1
REMARK minimizedAffinity -4.94657278
REMARK minimizedRMSD -1
REMARK  0 active torsions:
REMARK  status: ('A' for Active; 'I' for Inactive)
ROOT
ATOM      1  N1  IND d   1      -0.515   0.060   0.519  0.00  0.00    -0.196 N 
ATOM      2  C2  IND d   1       0.176   0.385  -0.616  0.00  0.00     0.054 A 
ATOM      3  C3  IND d   1       1.170  -0.506  -0.832  0.00  0.00    -0.031 A 
ATOM      4  C4  IND d   1       1.781  -2.628   0.491  0.00  0.00     0.051 A 
ATOM      5  C5  IND d   1       1.459  -3.321   1.624  0.00  0.00    -0.031 A 
ATOM      6  C6  IND d   1       0.441  -2.915   2.463  0.00  0.00     0.015 A 
ATOM      7  C7  IND d   1      -0.304  -1.803   2.192  0.00  0.00    -0.016 A 
ATOM      8  C8  IND d   1       0.024  -1.093   1.045  0.00  0.00    -0.047 A 
ATOM      9  C9  IND d   1       1.083  -1.476   0.213  0.00  0.00    -0.096 A 
ATOM     10  HN1 IND d   1      -1.175   0.503   0.848  0.00  0.00     0.298 HD
ENDROOT
TORSDOF 0
ENDMDL
