MODEL 1
REMARK minimizedAffinity -2.92542315
REMARK minimizedRMSD -1
REMARK  0 active torsions:
REMARK  status: ('A' for Active; 'I' for Inactive)
ROOT
ATOM      1  N1  IND d   1      -1.125   3.815  -5.024  0.00  0.00    -0.196 N 
ATOM      2  C2  IND d   1      -0.110   4.632  -4.612  0.00  0.00     0.054 A 
ATOM      3  C3  IND d   1       0.098   4.490  -3.284  0.00  0.00    -0.031 A 
ATOM      4  C4  IND d   1      -1.043   2.901  -1.610  0.00  0.00     0.051 A 
ATOM      5  C5  IND d   1      -2.056   1.989  -1.509  0.00  0.00    -0.031 A 
ATOM      6  C6  IND d   1      -2.824   1.630  -2.598  0.00  0.00     0.015 A 
ATOM      7  C7  IND d   1      -2.600   2.163  -3.835  0.00  0.00    -0.016 A 
ATOM      8  C8  IND d   1      -1.576   3.095  -3.940  0.00  0.00    -0.047 A 
ATOM      9  C9  IND d   1      -0.821   3.495  -2.830  0.00  0.00    -0.096 A 
ATOM     10  HN1 IND d   1      -1.431   3.760  -5.826  0.00  0.00     0.298 HD
ENDROOT
TORSDOF 0
ENDMDL
