MODEL 1
REMARK minimizedAffinity -2.39613795
REMARK minimizedRMSD -1
REMARK  0 active torsions:
REMARK  status: ('A' for Active; 'I' for Inactive)
ROOT
ATOM      1  N1  IND d   1      -1.399  -0.081  -1.517  0.00  0.00    -0.196 N 
ATOM      2  C2  IND d   1      -1.439   1.274  -1.344  0.00  0.00     0.054 A 
ATOM      3  C3  IND d   1      -0.326   1.700  -0.707  0.00  0.00    -0.031 A 
ATOM      4  C4  IND d   1       1.737   0.360   0.053  0.00  0.00     0.051 A 
ATOM      5  C5  IND d   1       2.219  -0.915   0.146  0.00  0.00    -0.031 A 
ATOM      6  C6  IND d   1       1.506  -2.000  -0.324  0.00  0.00     0.015 A 
ATOM      7  C7  IND d   1       0.285  -1.847  -0.916  0.00  0.00    -0.016 A 
ATOM      8  C8  IND d   1      -0.211  -0.554  -1.005  0.00  0.00    -0.047 A 
ATOM      9  C9  IND d   1       0.489   0.546  -0.492  0.00  0.00    -0.096 A 
ATOM     10  HN1 IND d   1      -2.013  -0.558  -1.885  0.00  0.00     0.298 HD
ENDROOT
TORSDOF 0
ENDMDL
