MODEL 1
REMARK minimizedAffinity -1.48063803
REMARK minimizedRMSD -1
REMARK  0 active torsions:
REMARK  status: ('A' for Active; 'I' for Inactive)
ROOT
ATOM      1  N1  IND d   1      -1.066   0.560  -3.834  0.00  0.00    -0.196 N 
ATOM      2  C2  IND d   1      -2.266   1.151  -3.549  0.00  0.00     0.054 A 
ATOM      3  C3  IND d   1      -2.537   1.051  -2.228  0.00  0.00    -0.031 A 
ATOM      4  C4  IND d   1      -1.108   0.048  -0.336  0.00  0.00     0.051 A 
ATOM      5  C5  IND d   1       0.051  -0.641  -0.111  0.00  0.00    -0.031 A 
ATOM      6  C6  IND d   1       0.915  -0.970  -1.136  0.00  0.00     0.015 A 
ATOM      7  C7  IND d   1       0.657  -0.609  -2.428  0.00  0.00    -0.016 A 
ATOM      8  C8  IND d   1      -0.522   0.085  -2.661  0.00  0.00    -0.047 A 
ATOM      9  C9  IND d   1      -1.423   0.384  -1.632  0.00  0.00    -0.096 A 
ATOM     10  HN1 IND d   1      -0.712   0.496  -4.615  0.00  0.00     0.298 HD
ENDROOT
TORSDOF 0
ENDMDL
