MODEL 1
REMARK minimizedAffinity -3.92555094
REMARK minimizedRMSD -1
REMARK  0 active torsions:
REMARK  status: ('A' for Active; 'I' for Inactive)
ROOT
ATOM      1  N1  IND d   1      -1.276   0.300   1.961  0.00  0.00    -0.196 N 
ATOM      2  C2  IND d   1      -1.567   1.180   0.957  0.00  0.00     0.054 A 
ATOM      3  C3  IND d   1      -0.604   1.149   0.009  0.00  0.00    -0.031 A 
ATOM      4  C4  IND d   1       1.488  -0.344  -0.148  0.00  0.00     0.051 A 
ATOM      5  C5  IND d   1       2.199  -1.279   0.551  0.00  0.00    -0.031 A 
ATOM      6  C6  IND d   1       1.778  -1.747   1.779  0.00  0.00     0.015 A 
ATOM      7  C7  IND d   1       0.619  -1.304   2.351  0.00  0.00    -0.016 A 
ATOM      8  C8  IND d   1      -0.102  -0.349   1.648  0.00  0.00    -0.047 A 
ATOM      9  C9  IND d   1       0.343   0.161   0.421  0.00  0.00    -0.096 A 
ATOM     10  HN1 IND d   1      -1.746   0.173   2.669  0.00  0.00     0.298 HD
ENDROOT
TORSDOF 0
ENDMDL
