MODEL 1
REMARK minimizedAffinity -3.00989628
REMARK minimizedRMSD -1
REMARK  0 active torsions:
REMARK  status: ('A' for Active; 'I' for Inactive)
ROOT
ATOM      1  N1  IND d   1      -2.405  -0.133  -3.148  0.00  0.00    -0.196 N 
ATOM      2  C2  IND d   1      -2.979   1.057  -3.501  0.00  0.00     0.054 A 
ATOM      3  C3  IND d   1      -2.552   2.046  -2.684  0.00  0.00    -0.031 A 
ATOM      4  C4  IND d   1      -0.834   1.957  -0.769  0.00  0.00     0.051 A 
ATOM      5  C5  IND d   1      -0.066   1.085  -0.050  0.00  0.00    -0.031 A 
ATOM      6  C6  IND d   1      -0.036  -0.265  -0.335  0.00  0.00     0.015 A 
ATOM      7  C7  IND d   1      -0.767  -0.793  -1.361  0.00  0.00    -0.016 A 
ATOM      8  C8  IND d   1      -1.553   0.089  -2.088  0.00  0.00    -0.047 A 
ATOM      9  C9  IND d   1      -1.621   1.453  -1.777  0.00  0.00    -0.096 A 
ATOM     10  HN1 IND d   1      -2.551  -0.892  -3.525  0.00  0.00     0.298 HD
ENDROOT
TORSDOF 0
ENDMDL
