MODEL 1
REMARK minimizedAffinity -3.12826753
REMARK minimizedRMSD -1
REMARK  0 active torsions:
REMARK  status: ('A' for Active; 'I' for Inactive)
ROOT
ATOM      1  N1  IND d   1      -0.863  -0.462  -0.087  0.00  0.00    -0.196 N 
ATOM      2  C2  IND d   1       0.009  -0.052  -1.057  0.00  0.00     0.054 A 
ATOM      3  C3  IND d   1       1.263  -0.468  -0.769  0.00  0.00    -0.031 A 
ATOM      4  C4  IND d   1       2.095  -1.919   1.188  0.00  0.00     0.051 A 
ATOM      5  C5  IND d   1       1.675  -2.505   2.349  0.00  0.00    -0.031 A 
ATOM      6  C6  IND d   1       0.361  -2.441   2.764  0.00  0.00     0.015 A 
ATOM      7  C7  IND d   1      -0.589  -1.795   2.025  0.00  0.00    -0.016 A 
ATOM      8  C8  IND d   1      -0.165  -1.193   0.849  0.00  0.00    -0.047 A 
ATOM      9  C9  IND d   1       1.176  -1.218   0.444  0.00  0.00    -0.096 A 
ATOM     10  HN1 IND d   1      -1.705  -0.291  -0.066  0.00  0.00     0.298 HD
ENDROOT
TORSDOF 0
ENDMDL
