MODEL 1
REMARK minimizedAffinity -3.95900202
REMARK minimizedRMSD -1
REMARK  0 active torsions:
REMARK  status: ('A' for Active; 'I' for Inactive)
ROOT
ATOM      1  N1  IND d   1      -0.885  -1.159   2.223  0.00  0.00    -0.196 N 
ATOM      2  C2  IND d   1      -0.172  -2.005   3.026  0.00  0.00     0.054 A 
ATOM      3  C3  IND d   1       1.043  -2.252   2.488  0.00  0.00    -0.031 A 
ATOM      4  C4  IND d   1       2.110  -1.294   0.350  0.00  0.00     0.051 A 
ATOM      5  C5  IND d   1       1.832  -0.510  -0.734  0.00  0.00    -0.031 A 
ATOM      6  C6  IND d   1       0.610   0.113  -0.890  0.00  0.00     0.015 A 
ATOM      7  C7  IND d   1      -0.379  -0.017   0.043  0.00  0.00    -0.016 A 
ATOM      8  C8  IND d   1      -0.103  -0.818   1.142  0.00  0.00    -0.047 A 
ATOM      9  C9  IND d   1       1.119  -1.487   1.284  0.00  0.00    -0.096 A 
ATOM     10  HN1 IND d   1      -1.688  -0.886   2.369  0.00  0.00     0.298 HD
ENDROOT
TORSDOF 0
ENDMDL
