MODEL 1
REMARK minimizedAffinity -4.273808
REMARK minimizedRMSD -1
REMARK  0 active torsions:
REMARK  status: ('A' for Active; 'I' for Inactive)
ROOT
ATOM      1  N1  IND d   1      -1.022  -0.737  -0.638  0.00  0.00    -0.196 N 
ATOM      2  C2  IND d   1       0.018  -0.447   0.201  0.00  0.00     0.054 A 
ATOM      3  C3  IND d   1       0.410   0.837   0.038  0.00  0.00    -0.031 A 
ATOM      4  C4  IND d   1      -0.581   2.670  -1.473  0.00  0.00     0.051 A 
ATOM      5  C5  IND d   1      -1.517   2.873  -2.448  0.00  0.00    -0.031 A 
ATOM      6  C6  IND d   1      -2.355   1.864  -2.876  0.00  0.00     0.015 A 
ATOM      7  C7  IND d   1      -2.295   0.611  -2.334  0.00  0.00    -0.016 A 
ATOM      8  C8  IND d   1      -1.341   0.399  -1.349  0.00  0.00    -0.047 A 
ATOM      9  C9  IND d   1      -0.459   1.408  -0.941  0.00  0.00    -0.096 A 
ATOM     10  HN1 IND d   1      -1.412  -1.500  -0.709  0.00  0.00     0.298 HD
ENDROOT
TORSDOF 0
ENDMDL
