MODEL 1
REMARK minimizedAffinity 0.952766657
REMARK minimizedRMSD -1
REMARK  0 active torsions:
REMARK  status: ('A' for Active; 'I' for Inactive)
ROOT
ATOM      1  N1  IND d   1      -0.621   0.192   0.399  0.00  0.00    -0.196 N 
ATOM      2  C2  IND d   1       0.166   0.559  -0.657  0.00  0.00     0.054 A 
ATOM      3  C3  IND d   1       1.362  -0.069  -0.593  0.00  0.00    -0.031 A 
ATOM      4  C4  IND d   1       2.202  -1.817   1.101  0.00  0.00     0.051 A 
ATOM      5  C5  IND d   1       1.853  -2.444   2.264  0.00  0.00    -0.031 A 
ATOM      6  C6  IND d   1       0.636  -2.223   2.875  0.00  0.00     0.015 A 
ATOM      7  C7  IND d   1      -0.286  -1.370   2.338  0.00  0.00    -0.016 A 
ATOM      8  C8  IND d   1       0.067  -0.725   1.161  0.00  0.00    -0.047 A 
ATOM      9  C9  IND d   1       1.318  -0.914   0.558  0.00  0.00    -0.096 A 
ATOM     10  HN1 IND d   1      -1.413   0.486   0.559  0.00  0.00     0.298 HD
ENDROOT
TORSDOF 0
ENDMDL
