MODEL 1
REMARK minimizedAffinity -5.83541393
REMARK minimizedRMSD -1
REMARK  0 active torsions:
REMARK  status: ('A' for Active; 'I' for Inactive)
ROOT
ATOM      1  N1  IND d   1      -0.835   0.300   0.415  0.00  0.00    -0.196 N 
ATOM      2  C2  IND d   1      -0.058   0.718  -0.630  0.00  0.00     0.054 A 
ATOM      3  C3  IND d   1       1.009  -0.099  -0.778  0.00  0.00    -0.031 A 
ATOM      4  C4  IND d   1       1.625  -2.238   0.515  0.00  0.00     0.051 A 
ATOM      5  C5  IND d   1       1.239  -3.000   1.582  0.00  0.00    -0.031 A 
ATOM      6  C6  IND d   1       0.118  -2.696   2.328  0.00  0.00     0.015 A 
ATOM      7  C7  IND d   1      -0.668  -1.621   2.026  0.00  0.00    -0.016 A 
ATOM      8  C8  IND d   1      -0.276  -0.841   0.948  0.00  0.00    -0.047 A 
ATOM      9  C9  IND d   1       0.884  -1.119   0.213  0.00  0.00    -0.096 A 
ATOM     10  HN1 IND d   1      -1.552   0.685   0.692  0.00  0.00     0.298 HD
ENDROOT
TORSDOF 0
ENDMDL
