MODEL 1
REMARK minimizedAffinity -2.66389894
REMARK minimizedRMSD -1
REMARK  0 active torsions:
REMARK  status: ('A' for Active; 'I' for Inactive)
ROOT
ATOM      1  N1  IND d   1      -1.178   0.606   0.996  0.00  0.00    -0.196 N 
ATOM      2  C2  IND d   1      -0.688   1.058  -0.198  0.00  0.00     0.054 A 
ATOM      3  C3  IND d   1       0.369   0.308  -0.586  0.00  0.00    -0.031 A 
ATOM      4  C4  IND d   1       1.400  -1.768   0.532  0.00  0.00     0.051 A 
ATOM      5  C5  IND d   1       1.318  -2.538   1.658  0.00  0.00    -0.031 A 
ATOM      6  C6  IND d   1       0.379  -2.296   2.640  0.00  0.00     0.015 A 
ATOM      7  C7  IND d   1      -0.524  -1.277   2.526  0.00  0.00    -0.016 A 
ATOM      8  C8  IND d   1      -0.439  -0.489   1.387  0.00  0.00    -0.047 A 
ATOM      9  C9  IND d   1       0.539  -0.704   0.407  0.00  0.00    -0.096 A 
ATOM     10  HN1 IND d   1      -1.836   0.949   1.430  0.00  0.00     0.298 HD
ENDROOT
TORSDOF 0
ENDMDL
