MODEL 1
REMARK minimizedAffinity 4.0081377
REMARK minimizedRMSD -1
REMARK  0 active torsions:
REMARK  status: ('A' for Active; 'I' for Inactive)
ROOT
ATOM      1  O1  BZF d   1       0.408   2.372  -2.656  0.00  0.00    -0.204 OA
ATOM      2  C2  BZF d   1       0.409   1.004  -2.848  0.00  0.00     0.174 A 
ATOM      3  C3  BZF d   1       1.302   0.407  -2.033  0.00  0.00    -0.012 A 
ATOM      4  C3A BZF d   1       1.830   1.459  -1.218  0.00  0.00    -0.107 A 
ATOM      5  C4  BZF d   1       2.746   1.493  -0.206  0.00  0.00     0.055 A 
ATOM      6  C5  BZF d   1       3.092   2.693   0.331  0.00  0.00    -0.016 A 
ATOM      7  C6  BZF d   1       2.547   3.876  -0.123  0.00  0.00     0.022 A 
ATOM      8  C7  BZF d   1       1.630   3.892  -1.121  0.00  0.00     0.029 A 
ATOM      9  C7A BZF d   1       1.254   2.678  -1.644  0.00  0.00     0.058 A 
ENDROOT
TORSDOF 0
ENDMDL
