MODEL 1
REMARK minimizedAffinity -3.73933029
REMARK minimizedRMSD -1
REMARK  0 active torsions:
REMARK  status: ('A' for Active; 'I' for Inactive)
ROOT
ATOM      1  O1  BZF d   1       2.993  -3.953   4.733  0.00  0.00    -0.204 OA
ATOM      2  C2  BZF d   1       3.445  -5.032   5.467  0.00  0.00     0.174 A 
ATOM      3  C3  BZF d   1       4.657  -4.776   5.998  0.00  0.00    -0.012 A 
ATOM      4  C3A BZF d   1       4.943  -3.419   5.645  0.00  0.00    -0.107 A 
ATOM      5  C4  BZF d   1       5.995  -2.585   5.898  0.00  0.00     0.055 A 
ATOM      6  C5  BZF d   1       5.999  -1.343   5.347  0.00  0.00    -0.016 A 
ATOM      7  C6  BZF d   1       4.973  -0.904   4.537  0.00  0.00     0.022 A 
ATOM      8  C7  BZF d   1       3.906  -1.693   4.262  0.00  0.00     0.029 A 
ATOM      9  C7A BZF d   1       3.883  -2.938   4.844  0.00  0.00     0.058 A 
ENDROOT
TORSDOF 0
ENDMDL
