MODEL 1
REMARK minimizedAffinity 1.47255003
REMARK minimizedRMSD -1
REMARK  0 active torsions:
REMARK  status: ('A' for Active; 'I' for Inactive)
ROOT
ATOM      1  O1  BZF d   1      -4.506   3.256   5.999  0.00  0.00    -0.204 OA
ATOM      2  C2  BZF d   1      -4.123   4.139   5.009  0.00  0.00     0.174 A 
ATOM      3  C3  BZF d   1      -4.127   3.536   3.803  0.00  0.00    -0.012 A 
ATOM      4  C3A BZF d   1      -4.627   2.218   4.043  0.00  0.00    -0.107 A 
ATOM      5  C4  BZF d   1      -4.878   1.147   3.233  0.00  0.00     0.055 A 
ATOM      6  C5  BZF d   1      -5.294  -0.020   3.791  0.00  0.00    -0.016 A 
ATOM      7  C6  BZF d   1      -5.465  -0.153   5.154  0.00  0.00     0.022 A 
ATOM      8  C7  BZF d   1      -5.234   0.883   5.997  0.00  0.00     0.029 A 
ATOM      9  C7A BZF d   1      -4.845   2.073   5.432  0.00  0.00     0.058 A 
ENDROOT
TORSDOF 0
ENDMDL
