MODEL 1
REMARK minimizedAffinity -0.229554161
REMARK minimizedRMSD -1
REMARK  0 active torsions:
REMARK  status: ('A' for Active; 'I' for Inactive)
ROOT
ATOM      1  O1  BZF d   1      -2.057   5.986   4.771  0.00  0.00    -0.204 OA
ATOM      2  C2  BZF d   1      -2.747   5.969   5.968  0.00  0.00     0.174 A 
ATOM      3  C3  BZF d   1      -4.078   6.000   5.753  0.00  0.00    -0.012 A 
ATOM      4  C3A BZF d   1      -4.232   5.946   4.332  0.00  0.00    -0.107 A 
ATOM      5  C4  BZF d   1      -5.318   5.929   3.505  0.00  0.00     0.055 A 
ATOM      6  C5  BZF d   1      -5.125   5.947   2.160  0.00  0.00    -0.016 A 
ATOM      7  C6  BZF d   1      -3.861   5.987   1.609  0.00  0.00     0.022 A 
ATOM      8  C7  BZF d   1      -2.753   6.000   2.388  0.00  0.00     0.029 A 
ATOM      9  C7A BZF d   1      -2.944   5.948   3.747  0.00  0.00     0.058 A 
ENDROOT
TORSDOF 0
ENDMDL
