MODEL 1
REMARK minimizedAffinity -0.508794308
REMARK minimizedRMSD -1
REMARK  0 active torsions:
REMARK  status: ('A' for Active; 'I' for Inactive)
ROOT
ATOM      1  O1  BZF d   1      -1.592   5.966   4.632  0.00  0.00    -0.204 OA
ATOM      2  C2  BZF d   1      -2.029   5.952   5.943  0.00  0.00     0.174 A 
ATOM      3  C3  BZF d   1      -3.375   6.000   5.999  0.00  0.00    -0.012 A 
ATOM      4  C3A BZF d   1      -3.811   5.952   4.637  0.00  0.00    -0.107 A 
ATOM      5  C4  BZF d   1      -5.041   5.951   4.044  0.00  0.00     0.055 A 
ATOM      6  C5  BZF d   1      -5.120   5.971   2.688  0.00  0.00    -0.016 A 
ATOM      7  C6  BZF d   1      -3.992   5.998   1.894  0.00  0.00     0.022 A 
ATOM      8  C7  BZF d   1      -2.750   5.995   2.437  0.00  0.00     0.029 A 
ATOM      9  C7A BZF d   1      -2.666   5.941   3.807  0.00  0.00     0.058 A 
ENDROOT
TORSDOF 0
ENDMDL
