MODEL 1
REMARK minimizedAffinity -3.25484133
REMARK minimizedRMSD -1
REMARK  0 active torsions:
REMARK  status: ('A' for Active; 'I' for Inactive)
ROOT
ATOM      1  O1  BZF d   1      -2.134   5.996   4.933  0.00  0.00    -0.204 OA
ATOM      2  C2  BZF d   1      -3.047   5.999   5.970  0.00  0.00     0.174 A 
ATOM      3  C3  BZF d   1      -4.309   5.950   5.496  0.00  0.00    -0.012 A 
ATOM      4  C3A BZF d   1      -4.173   5.821   4.078  0.00  0.00    -0.107 A 
ATOM      5  C4  BZF d   1      -5.072   5.709   3.055  0.00  0.00     0.055 A 
ATOM      6  C5  BZF d   1      -4.615   5.674   1.776  0.00  0.00    -0.016 A 
ATOM      7  C6  BZF d   1      -3.269   5.755   1.483  0.00  0.00     0.022 A 
ATOM      8  C7  BZF d   1      -2.340   5.862   2.464  0.00  0.00     0.029 A 
ATOM      9  C7A BZF d   1      -2.796   5.864   3.759  0.00  0.00     0.058 A 
ENDROOT
TORSDOF 0
ENDMDL
