MODEL 1
REMARK minimizedAffinity 6.37192011
REMARK minimizedRMSD -1
REMARK  0 active torsions:
REMARK  status: ('A' for Active; 'I' for Inactive)
ROOT
ATOM      1  O1  BZF d   1      -3.205   3.757   5.286  0.00  0.00    -0.204 OA
ATOM      2  C2  BZF d   1      -2.999   4.935   5.979  0.00  0.00     0.174 A 
ATOM      3  C3  BZF d   1      -3.358   5.998   5.231  0.00  0.00    -0.012 A 
ATOM      4  C3A BZF d   1      -3.903   5.446   4.028  0.00  0.00    -0.107 A 
ATOM      5  C4  BZF d   1      -4.444   5.999   2.903  0.00  0.00     0.055 A 
ATOM      6  C5  BZF d   1      -4.815   5.184   1.880  0.00  0.00    -0.016 A 
ATOM      7  C6  BZF d   1      -4.655   3.816   1.947  0.00  0.00     0.022 A 
ATOM      8  C7  BZF d   1      -4.127   3.221   3.045  0.00  0.00     0.029 A 
ATOM      9  C7A BZF d   1      -3.782   4.039   4.093  0.00  0.00     0.058 A 
ENDROOT
TORSDOF 0
ENDMDL
