MODEL 1
REMARK minimizedAffinity 7.61821365
REMARK minimizedRMSD -1
REMARK  0 active torsions:
REMARK  status: ('A' for Active; 'I' for Inactive)
ROOT
ATOM      1  O1  BZF d   1       0.008   1.654  -3.328  0.00  0.00    -0.204 OA
ATOM      2  C2  BZF d   1       0.588   2.883  -3.082  0.00  0.00     0.174 A 
ATOM      3  C3  BZF d   1       1.635   2.758  -2.241  0.00  0.00    -0.012 A 
ATOM      4  C3A BZF d   1       1.772   1.352  -2.016  0.00  0.00    -0.107 A 
ATOM      5  C4  BZF d   1       2.643   0.598  -1.282  0.00  0.00     0.055 A 
ATOM      6  C5  BZF d   1       2.459  -0.746  -1.215  0.00  0.00    -0.016 A 
ATOM      7  C6  BZF d   1       1.413  -1.369  -1.865  0.00  0.00     0.022 A 
ATOM      8  C7  BZF d   1       0.526  -0.665  -2.609  0.00  0.00     0.029 A 
ATOM      9  C7A BZF d   1       0.729   0.690  -2.705  0.00  0.00     0.058 A 
ENDROOT
TORSDOF 0
ENDMDL
