MODEL 1
REMARK minimizedAffinity 15.8936958
REMARK minimizedRMSD -1
REMARK  0 active torsions:
REMARK  status: ('A' for Active; 'I' for Inactive)
ROOT
ATOM      1  O1  BZF d   1       0.450   0.569  -2.784  0.00  0.00    -0.204 OA
ATOM      2  C2  BZF d   1       1.290  -0.083  -1.902  0.00  0.00     0.174 A 
ATOM      3  C3  BZF d   1       2.361   0.682  -1.608  0.00  0.00    -0.012 A 
ATOM      4  C3A BZF d   1       2.133   1.924  -2.280  0.00  0.00    -0.107 A 
ATOM      5  C4  BZF d   1       2.836   3.092  -2.358  0.00  0.00     0.055 A 
ATOM      6  C5  BZF d   1       2.374   4.088  -3.159  0.00  0.00    -0.016 A 
ATOM      7  C6  BZF d   1       1.218   3.948  -3.899  0.00  0.00     0.022 A 
ATOM      8  C7  BZF d   1       0.484   2.810  -3.850  0.00  0.00     0.029 A 
ATOM      9  C7A BZF d   1       0.931   1.814  -3.017  0.00  0.00     0.058 A 
ENDROOT
TORSDOF 0
ENDMDL
