MODEL 1
REMARK minimizedAffinity -1.47722685
REMARK minimizedRMSD -1
REMARK  0 active torsions:
REMARK  status: ('A' for Active; 'I' for Inactive)
ROOT
ATOM      1  O1  BZF d   1      -2.131   5.892   4.668  0.00  0.00    -0.204 OA
ATOM      2  C2  BZF d   1      -2.949   5.856   5.781  0.00  0.00     0.174 A 
ATOM      3  C3  BZF d   1      -4.248   5.909   5.422  0.00  0.00    -0.012 A 
ATOM      4  C3A BZF d   1      -4.244   5.891   3.991  0.00  0.00    -0.107 A 
ATOM      5  C4  BZF d   1      -5.232   5.909   3.049  0.00  0.00     0.055 A 
ATOM      6  C5  BZF d   1      -4.891   5.956   1.734  0.00  0.00    -0.016 A 
ATOM      7  C6  BZF d   1      -3.573   5.992   1.327  0.00  0.00     0.022 A 
ATOM      8  C7  BZF d   1      -2.558   5.972   2.225  0.00  0.00     0.029 A 
ATOM      9  C7A BZF d   1      -2.899   5.890   3.553  0.00  0.00     0.058 A 
ENDROOT
TORSDOF 0
ENDMDL
