MODEL 1
REMARK minimizedAffinity 8.0370903
REMARK minimizedRMSD -1
REMARK  0 active torsions:
REMARK  status: ('A' for Active; 'I' for Inactive)
ROOT
ATOM      1  O1  BZF d   1       0.227   2.127  -4.798  0.00  0.00    -0.204 OA
ATOM      2  C2  BZF d   1       0.925   3.319  -4.820  0.00  0.00     0.174 A 
ATOM      3  C3  BZF d   1       1.736   3.418  -3.747  0.00  0.00    -0.012 A 
ATOM      4  C3A BZF d   1       1.601   2.171  -3.057  0.00  0.00    -0.107 A 
ATOM      5  C4  BZF d   1       2.167   1.659  -1.925  0.00  0.00     0.055 A 
ATOM      6  C5  BZF d   1       1.766   0.439  -1.480  0.00  0.00    -0.016 A 
ATOM      7  C6  BZF d   1       0.798  -0.292  -2.138  0.00  0.00     0.022 A 
ATOM      8  C7  BZF d   1       0.212   0.173  -3.268  0.00  0.00     0.029 A 
ATOM      9  C7A BZF d   1       0.639   1.391  -3.738  0.00  0.00     0.058 A 
ENDROOT
TORSDOF 0
ENDMDL
