MODEL 1
REMARK minimizedAffinity -2.41585588
REMARK minimizedRMSD -1
REMARK  0 active torsions:
REMARK  status: ('A' for Active; 'I' for Inactive)
ROOT
ATOM      1  O1  BZF d   1      -4.472   5.704   5.474  0.00  0.00    -0.204 OA
ATOM      2  C2  BZF d   1      -3.208   5.909   5.993  0.00  0.00     0.174 A 
ATOM      3  C3  BZF d   1      -2.294   6.000   5.006  0.00  0.00    -0.012 A 
ATOM      4  C3A BZF d   1      -3.045   5.935   3.790  0.00  0.00    -0.107 A 
ATOM      5  C4  BZF d   1      -2.701   5.989   2.470  0.00  0.00     0.055 A 
ATOM      6  C5  BZF d   1      -3.666   5.822   1.528  0.00  0.00    -0.016 A 
ATOM      7  C6  BZF d   1      -4.983   5.595   1.871  0.00  0.00     0.022 A 
ATOM      8  C7  BZF d   1      -5.374   5.539   3.167  0.00  0.00     0.029 A 
ATOM      9  C7A BZF d   1      -4.406   5.739   4.121  0.00  0.00     0.058 A 
ENDROOT
TORSDOF 0
ENDMDL
