MODEL 1
REMARK minimizedAffinity 6.56973267
REMARK minimizedRMSD -1
REMARK  0 active torsions:
REMARK  status: ('A' for Active; 'I' for Inactive)
ROOT
ATOM      1  O1  BZF d   1      -5.272   5.922   3.172  0.00  0.00    -0.204 OA
ATOM      2  C2  BZF d   1      -4.963   5.922   1.826  0.00  0.00     0.174 A 
ATOM      3  C3  BZF d   1      -3.629   5.998   1.642  0.00  0.00    -0.012 A 
ATOM      4  C3A BZF d   1      -3.065   5.956   2.956  0.00  0.00    -0.107 A 
ATOM      5  C4  BZF d   1      -1.784   5.980   3.429  0.00  0.00     0.055 A 
ATOM      6  C5  BZF d   1      -1.576   5.999   4.772  0.00  0.00    -0.016 A 
ATOM      7  C6  BZF d   1      -2.624   6.000   5.669  0.00  0.00     0.022 A 
ATOM      8  C7  BZF d   1      -3.912   5.971   5.247  0.00  0.00     0.029 A 
ATOM      9  C7A BZF d   1      -4.125   5.919   3.891  0.00  0.00     0.058 A 
ENDROOT
TORSDOF 0
ENDMDL
