MODEL 1
REMARK minimizedAffinity -0.0956537873
REMARK minimizedRMSD -1
REMARK  0 active torsions:
REMARK  status: ('A' for Active; 'I' for Inactive)
ROOT
ATOM      1  O1  BZF d   1      -2.337   5.909   4.718  0.00  0.00    -0.204 OA
ATOM      2  C2  BZF d   1      -2.843   6.000   6.000  0.00  0.00     0.174 A 
ATOM      3  C3  BZF d   1      -4.191   5.949   5.987  0.00  0.00    -0.012 A 
ATOM      4  C3A BZF d   1      -4.546   5.725   4.619  0.00  0.00    -0.107 A 
ATOM      5  C4  BZF d   1      -5.738   5.567   3.972  0.00  0.00     0.055 A 
ATOM      6  C5  BZF d   1      -5.744   5.438   2.620  0.00  0.00    -0.016 A 
ATOM      7  C6  BZF d   1      -4.578   5.469   1.883  0.00  0.00     0.022 A 
ATOM      8  C7  BZF d   1      -3.371   5.618   2.480  0.00  0.00     0.029 A 
ATOM      9  C7A BZF d   1      -3.359   5.715   3.850  0.00  0.00     0.058 A 
ENDROOT
TORSDOF 0
ENDMDL
