MODEL 1
REMARK minimizedAffinity 4.51456594
REMARK minimizedRMSD -1
REMARK  0 active torsions:
REMARK  status: ('A' for Active; 'I' for Inactive)
ROOT
ATOM      1  O1  BZF d   1      -5.441   5.626   2.765  0.00  0.00    -0.204 OA
ATOM      2  C2  BZF d   1      -4.701   5.557   1.600  0.00  0.00     0.174 A 
ATOM      3  C3  BZF d   1      -3.385   5.692   1.861  0.00  0.00    -0.012 A 
ATOM      4  C3A BZF d   1      -3.289   5.763   3.287  0.00  0.00    -0.107 A 
ATOM      5  C4  BZF d   1      -2.240   5.884   4.152  0.00  0.00     0.055 A 
ATOM      6  C5  BZF d   1      -2.491   5.998   5.483  0.00  0.00    -0.016 A 
ATOM      7  C6  BZF d   1      -3.777   5.999   5.982  0.00  0.00     0.022 A 
ATOM      8  C7  BZF d   1      -4.850   5.877   5.163  0.00  0.00     0.029 A 
ATOM      9  C7A BZF d   1      -4.598   5.728   3.821  0.00  0.00     0.058 A 
ENDROOT
TORSDOF 0
ENDMDL
