MODEL 1
REMARK minimizedAffinity -1.08483601
REMARK minimizedRMSD -1
REMARK  0 active torsions:
REMARK  status: ('A' for Active; 'I' for Inactive)
ROOT
ATOM      1  O1  BZF d   1      -2.655   5.955   2.146  0.00  0.00    -0.204 OA
ATOM      2  C2  BZF d   1      -3.882   5.927   1.511  0.00  0.00     0.174 A 
ATOM      3  C3  BZF d   1      -4.885   5.873   2.411  0.00  0.00    -0.012 A 
ATOM      4  C3A BZF d   1      -4.248   5.960   3.690  0.00  0.00    -0.107 A 
ATOM      5  C4  BZF d   1      -4.716   5.975   4.973  0.00  0.00     0.055 A 
ATOM      6  C5  BZF d   1      -3.827   5.995   6.000  0.00  0.00    -0.016 A 
ATOM      7  C6  BZF d   1      -2.465   5.996   5.781  0.00  0.00     0.022 A 
ATOM      8  C7  BZF d   1      -1.953   5.987   4.526  0.00  0.00     0.029 A 
ATOM      9  C7A BZF d   1      -2.849   6.000   3.486  0.00  0.00     0.058 A 
ENDROOT
TORSDOF 0
ENDMDL
