MODEL 1
REMARK minimizedAffinity -1.10173249
REMARK minimizedRMSD -1
REMARK  0 active torsions:
REMARK  status: ('A' for Active; 'I' for Inactive)
ROOT
ATOM      1  O1  BZF d   1      -4.795   5.979   5.161  0.00  0.00    -0.204 OA
ATOM      2  C2  BZF d   1      -3.698   5.999   6.000  0.00  0.00     0.174 A 
ATOM      3  C3  BZF d   1      -2.552   5.953   5.290  0.00  0.00    -0.012 A 
ATOM      4  C3A BZF d   1      -2.958   5.994   3.918  0.00  0.00    -0.107 A 
ATOM      5  C4  BZF d   1      -2.274   5.993   2.736  0.00  0.00     0.055 A 
ATOM      6  C5  BZF d   1      -2.970   5.966   1.570  0.00  0.00    -0.016 A 
ATOM      7  C6  BZF d   1      -4.349   5.934   1.548  0.00  0.00     0.022 A 
ATOM      8  C7  BZF d   1      -5.072   5.939   2.695  0.00  0.00     0.029 A 
ATOM      9  C7A BZF d   1      -4.371   6.000   3.875  0.00  0.00     0.058 A 
ENDROOT
TORSDOF 0
ENDMDL
