MODEL 1
REMARK minimizedAffinity -1.58221805
REMARK minimizedRMSD -1
REMARK  0 active torsions:
REMARK  status: ('A' for Active; 'I' for Inactive)
ROOT
ATOM      1  O1  BZF d   1      -5.671   5.992   4.488  0.00  0.00    -0.204 OA
ATOM      2  C2  BZF d   1      -5.860   5.974   3.120  0.00  0.00     0.174 A 
ATOM      3  C3  BZF d   1      -4.676   5.999   2.474  0.00  0.00    -0.012 A 
ATOM      4  C3A BZF d   1      -3.684   5.942   3.503  0.00  0.00    -0.107 A 
ATOM      5  C4  BZF d   1      -2.319   5.920   3.491  0.00  0.00     0.055 A 
ATOM      6  C5  BZF d   1      -1.647   5.937   4.672  0.00  0.00    -0.016 A 
ATOM      7  C6  BZF d   1      -2.308   5.982   5.882  0.00  0.00     0.022 A 
ATOM      8  C7  BZF d   1      -3.662   6.000   5.945  0.00  0.00     0.029 A 
ATOM      9  C7A BZF d   1      -4.343   5.949   4.754  0.00  0.00     0.058 A 
ENDROOT
TORSDOF 0
ENDMDL
