MODEL 1
REMARK minimizedAffinity 9.71589756
REMARK minimizedRMSD -1
REMARK  0 active torsions:
REMARK  status: ('A' for Active; 'I' for Inactive)
ROOT
ATOM      1  O1  BZF d   1      -5.951   5.457   2.653  0.00  0.00    -0.204 OA
ATOM      2  C2  BZF d   1      -5.667   4.887   1.426  0.00  0.00     0.174 A 
ATOM      3  C3  BZF d   1      -4.351   4.612   1.320  0.00  0.00    -0.012 A 
ATOM      4  C3A BZF d   1      -3.791   4.950   2.592  0.00  0.00    -0.107 A 
ATOM      5  C4  BZF d   1      -2.530   4.885   3.111  0.00  0.00     0.055 A 
ATOM      6  C5  BZF d   1      -2.304   5.362   4.363  0.00  0.00    -0.016 A 
ATOM      7  C6  BZF d   1      -3.315   5.916   5.122  0.00  0.00     0.022 A 
ATOM      8  C7  BZF d   1      -4.584   5.998   4.652  0.00  0.00     0.029 A 
ATOM      9  C7A BZF d   1      -4.821   5.486   3.400  0.00  0.00     0.058 A 
ENDROOT
TORSDOF 0
ENDMDL
