MODEL 1
REMARK minimizedAffinity -4.94615507
REMARK minimizedRMSD -1
REMARK  0 active torsions:
REMARK  status: ('A' for Active; 'I' for Inactive)
ROOT
ATOM      1  C1  BNZ d   1       1.748   1.549  -2.005  0.00  0.00     0.000 A 
ATOM      2  C2  BNZ d   1       1.349   0.621  -1.081  0.00  0.00     0.000 A 
ATOM      3  C3  BNZ d   1       0.874   1.010   0.141  0.00  0.00     0.000 A 
ATOM      4  C4  BNZ d   1       0.836   2.322   0.450  0.00  0.00     0.000 A 
ATOM      5  C5  BNZ d   1       1.244   3.269  -0.467  0.00  0.00     0.000 A 
ATOM      6  C6  BNZ d   1       1.685   2.876  -1.710  0.00  0.00     0.000 A 
ENDROOT
TORSDOF 0
ENDMDL
