MODEL 1
REMARK minimizedAffinity -3.64683008
REMARK minimizedRMSD -1
REMARK  0 active torsions:
REMARK  status: ('A' for Active; 'I' for Inactive)
ROOT
ATOM      1  C1  BNZ d   1       1.428   1.608  -2.206  0.00  0.00     0.000 A 
ATOM      2  C2  BNZ d   1       1.072   0.470  -1.533  0.00  0.00     0.000 A 
ATOM      3  C3  BNZ d   1       0.977   0.464  -0.169  0.00  0.00     0.000 A 
ATOM      4  C4  BNZ d   1       1.277   1.583   0.521  0.00  0.00     0.000 A 
ATOM      5  C5  BNZ d   1       1.647   2.736  -0.143  0.00  0.00     0.000 A 
ATOM      6  C6  BNZ d   1       1.703   2.749  -1.518  0.00  0.00     0.000 A 
ENDROOT
TORSDOF 0
ENDMDL
