MODEL 1
REMARK minimizedAffinity -2.43649316
REMARK minimizedRMSD -1
REMARK  0 active torsions:
REMARK  status: ('A' for Active; 'I' for Inactive)
ROOT
ATOM      1  C1  BNZ d   1       1.309   2.512  -2.357  0.00  0.00     0.000 A 
ATOM      2  C2  BNZ d   1       1.612   1.225  -2.713  0.00  0.00     0.000 A 
ATOM      3  C3  BNZ d   1       1.471   0.200  -1.819  0.00  0.00     0.000 A 
ATOM      4  C4  BNZ d   1       1.068   0.469  -0.561  0.00  0.00     0.000 A 
ATOM      5  C5  BNZ d   1       0.768   1.763  -0.184  0.00  0.00     0.000 A 
ATOM      6  C6  BNZ d   1       0.873   2.786  -1.097  0.00  0.00     0.000 A 
ENDROOT
TORSDOF 0
ENDMDL
