MODEL 1
REMARK minimizedAffinity 3.89570427
REMARK minimizedRMSD -1
REMARK  0 active torsions:
REMARK  status: ('A' for Active; 'I' for Inactive)
ROOT
ATOM      1  C1  BNZ d   1      -4.704   1.887   2.739  0.00  0.00     0.000 A 
ATOM      2  C2  BNZ d   1      -4.615   2.554   1.546  0.00  0.00     0.000 A 
ATOM      3  C3  BNZ d   1      -3.528   3.331   1.259  0.00  0.00     0.000 A 
ATOM      4  C4  BNZ d   1      -2.552   3.472   2.178  0.00  0.00     0.000 A 
ATOM      5  C5  BNZ d   1      -2.632   2.814   3.389  0.00  0.00     0.000 A 
ATOM      6  C6  BNZ d   1      -3.709   2.001   3.660  0.00  0.00     0.000 A 
ENDROOT
TORSDOF 0
ENDMDL
