MODEL 1
REMARK minimizedAffinity -2.66150165
REMARK minimizedRMSD -1
REMARK  0 active torsions:
REMARK  status: ('A' for Active; 'I' for Inactive)
ROOT
ATOM      1  C1  BNZ d   1       1.141  -1.927  -1.524  0.00  0.00     0.000 A 
ATOM      2  C2  BNZ d   1       0.115  -2.554  -2.179  0.00  0.00     0.000 A 
ATOM      3  C3  BNZ d   1      -0.569  -3.579  -1.588  0.00  0.00     0.000 A 
ATOM      4  C4  BNZ d   1      -0.202  -4.002  -0.361  0.00  0.00     0.000 A 
ATOM      5  C5  BNZ d   1       0.837  -3.385   0.308  0.00  0.00     0.000 A 
ATOM      6  C6  BNZ d   1       1.498  -2.328  -0.274  0.00  0.00     0.000 A 
ENDROOT
TORSDOF 0
ENDMDL
