MODEL 1
REMARK minimizedAffinity -5.03762293
REMARK minimizedRMSD -1
REMARK  0 active torsions:
REMARK  status: ('A' for Active; 'I' for Inactive)
ROOT
ATOM      1  C1  BNZ d   1       1.208   2.842   1.032  0.00  0.00     0.000 A 
ATOM      2  C2  BNZ d   1       0.845   1.543   1.269  0.00  0.00     0.000 A 
ATOM      3  C3  BNZ d   1       0.743   0.647   0.242  0.00  0.00     0.000 A 
ATOM      4  C4  BNZ d   1       0.965   1.059  -1.023  0.00  0.00     0.000 A 
ATOM      5  C5  BNZ d   1       1.322   2.368  -1.279  0.00  0.00     0.000 A 
ATOM      6  C6  BNZ d   1       1.462   3.258  -0.239  0.00  0.00     0.000 A 
ENDROOT
TORSDOF 0
ENDMDL
