MODEL 1
REMARK minimizedAffinity -3.59306955
REMARK minimizedRMSD -1
REMARK  0 active torsions:
REMARK  status: ('A' for Active; 'I' for Inactive)
ROOT
ATOM      1  C1  BNZ d   1       0.871  -0.170   0.155  0.00  0.00     0.000 A 
ATOM      2  C2  BNZ d   1       0.985   0.272  -1.136  0.00  0.00     0.000 A 
ATOM      3  C3  BNZ d   1       1.062   1.608  -1.414  0.00  0.00     0.000 A 
ATOM      4  C4  BNZ d   1       0.985   2.500  -0.406  0.00  0.00     0.000 A 
ATOM      5  C5  BNZ d   1       0.861   2.071   0.900  0.00  0.00     0.000 A 
ATOM      6  C6  BNZ d   1       0.823   0.724   1.180  0.00  0.00     0.000 A 
ENDROOT
TORSDOF 0
ENDMDL
