MODEL 1
REMARK minimizedAffinity -2.85701823
REMARK minimizedRMSD -1
REMARK  0 active torsions:
REMARK  status: ('A' for Active; 'I' for Inactive)
ROOT
ATOM      1  C1  BNZ d   1       1.485   4.439  -0.296  0.00  0.00     0.000 A 
ATOM      2  C2  BNZ d   1       1.538   4.046  -1.607  0.00  0.00     0.000 A 
ATOM      3  C3  BNZ d   1       1.391   2.731  -1.951  0.00  0.00     0.000 A 
ATOM      4  C4  BNZ d   1       1.230   1.807  -0.982  0.00  0.00     0.000 A 
ATOM      5  C5  BNZ d   1       1.184   2.186   0.345  0.00  0.00     0.000 A 
ATOM      6  C6  BNZ d   1       1.293   3.515   0.684  0.00  0.00     0.000 A 
ENDROOT
TORSDOF 0
ENDMDL
