MODEL 1
REMARK minimizedAffinity -3.85553288
REMARK minimizedRMSD -1
REMARK  0 active torsions:
REMARK  status: ('A' for Active; 'I' for Inactive)
ROOT
ATOM      1  C1  BNZ d   1       1.167  -0.421  -0.909  0.00  0.00     0.000 A 
ATOM      2  C2  BNZ d   1       1.263   0.405   0.179  0.00  0.00     0.000 A 
ATOM      3  C3  BNZ d   1       1.170   1.761   0.038  0.00  0.00     0.000 A 
ATOM      4  C4  BNZ d   1       1.022   2.291  -1.193  0.00  0.00     0.000 A 
ATOM      5  C5  BNZ d   1       0.934   1.472  -2.301  0.00  0.00     0.000 A 
ATOM      6  C6  BNZ d   1       0.989   0.105  -2.151  0.00  0.00     0.000 A 
ENDROOT
TORSDOF 0
ENDMDL
