MODEL 1
REMARK minimizedAffinity -4.07755423
REMARK minimizedRMSD -1
REMARK  0 active torsions:
REMARK  status: ('A' for Active; 'I' for Inactive)
ROOT
ATOM      1  C1  BNZ d   1       1.152   2.468  -1.154  0.00  0.00     0.000 A 
ATOM      2  C2  BNZ d   1       1.517   1.379  -1.900  0.00  0.00     0.000 A 
ATOM      3  C3  BNZ d   1       1.500   0.124  -1.360  0.00  0.00     0.000 A 
ATOM      4  C4  BNZ d   1       1.158  -0.036  -0.065  0.00  0.00     0.000 A 
ATOM      5  C5  BNZ d   1       0.797   1.053   0.703  0.00  0.00     0.000 A 
ATOM      6  C6  BNZ d   1       0.777   2.310   0.145  0.00  0.00     0.000 A 
ENDROOT
TORSDOF 0
ENDMDL
