MODEL 1
REMARK minimizedAffinity -3.86698508
REMARK minimizedRMSD -1
REMARK  0 active torsions:
REMARK  status: ('A' for Active; 'I' for Inactive)
ROOT
ATOM      1  C1  BNZ d   1       0.642   0.266   0.047  0.00  0.00     0.000 A 
ATOM      2  C2  BNZ d   1       0.976   0.406  -1.274  0.00  0.00     0.000 A 
ATOM      3  C3  BNZ d   1       1.526   1.568  -1.738  0.00  0.00     0.000 A 
ATOM      4  C4  BNZ d   1       1.705   2.601  -0.890  0.00  0.00     0.000 A 
ATOM      5  C5  BNZ d   1       1.365   2.479   0.443  0.00  0.00     0.000 A 
ATOM      6  C6  BNZ d   1       0.848   1.294   0.914  0.00  0.00     0.000 A 
ENDROOT
TORSDOF 0
ENDMDL
