MODEL 1
REMARK minimizedAffinity -3.6410923
REMARK minimizedRMSD -1
REMARK  0 active torsions:
REMARK  status: ('A' for Active; 'I' for Inactive)
ROOT
ATOM      1  C1  BNZ d   1       0.704   1.130   0.255  0.00  0.00     0.000 A 
ATOM      2  C2  BNZ d   1       0.728   2.299  -0.459  0.00  0.00     0.000 A 
ATOM      3  C3  BNZ d   1       1.256   2.339  -1.719  0.00  0.00     0.000 A 
ATOM      4  C4  BNZ d   1       1.795   1.221  -2.248  0.00  0.00     0.000 A 
ATOM      5  C5  BNZ d   1       1.787   0.037  -1.537  0.00  0.00     0.000 A 
ATOM      6  C6  BNZ d   1       1.219  -0.008  -0.284  0.00  0.00     0.000 A 
ENDROOT
TORSDOF 0
ENDMDL
