MODEL 1
REMARK minimizedAffinity -4.06002855
REMARK minimizedRMSD -1
REMARK  0 active torsions:
REMARK  status: ('A' for Active; 'I' for Inactive)
ROOT
ATOM      1  C1  BNZ d   1       0.875   2.229  -0.705  0.00  0.00     0.000 A 
ATOM      2  C2  BNZ d   1       1.089   1.285  -1.674  0.00  0.00     0.000 A 
ATOM      3  C3  BNZ d   1       1.315  -0.021  -1.340  0.00  0.00     0.000 A 
ATOM      4  C4  BNZ d   1       1.366  -0.374  -0.040  0.00  0.00     0.000 A 
ATOM      5  C5  BNZ d   1       1.161   0.568   0.949  0.00  0.00     0.000 A 
ATOM      6  C6  BNZ d   1       0.895   1.875   0.608  0.00  0.00     0.000 A 
ENDROOT
TORSDOF 0
ENDMDL
