MODEL 1
REMARK minimizedAffinity -3.42178845
REMARK minimizedRMSD -1
REMARK  0 active torsions:
REMARK  status: ('A' for Active; 'I' for Inactive)
ROOT
ATOM      1  C1  BNZ d   1       0.556   1.254  -1.446  0.00  0.00     0.000 A 
ATOM      2  C2  BNZ d   1       1.079   1.136  -0.186  0.00  0.00     0.000 A 
ATOM      3  C3  BNZ d   1       1.606   2.221   0.457  0.00  0.00     0.000 A 
ATOM      4  C4  BNZ d   1       1.648   3.411  -0.175  0.00  0.00     0.000 A 
ATOM      5  C5  BNZ d   1       1.134   3.544  -1.450  0.00  0.00     0.000 A 
ATOM      6  C6  BNZ d   1       0.568   2.458  -2.079  0.00  0.00     0.000 A 
ENDROOT
TORSDOF 0
ENDMDL
