MODEL 1
REMARK minimizedAffinity -0.625883341
REMARK minimizedRMSD -1
REMARK  1 active torsions:
REMARK  status: ('A' for Active; 'I' for Inactive)
REMARK    1  A    between atoms: N_2  and  C1_3 
ROOT
ATOM      1  C1  UNL d   1      -0.407  -0.382   1.165  0.00  0.00     0.143 A 
ATOM      2  C2  UNL d   1       0.473   0.624   0.751  0.00  0.00    -0.057 A 
ATOM      3  C3  UNL d   1       0.361   1.211  -0.515  0.00  0.00     0.033 A 
ATOM      4  C4  UNL d   1      -0.619   0.781  -1.403  0.00  0.00    -0.042 A 
ATOM      5  C5  UNL d   1      -1.489  -0.235  -1.023  0.00  0.00     0.033 A 
ATOM      6  C6  UNL d   1      -1.376  -0.813   0.245  0.00  0.00    -0.057 A 
ENDROOT
BRANCH   1   7
ATOM      7  N   UNL d   1      -0.286  -1.074   2.373  0.00  0.00    -0.732 N 
ATOM      8  C   UNL d   1       0.467  -2.308   2.443  0.00  0.00     0.284 C 
ATOM      9  H3  UNL d   1      -0.138  -0.451   3.164  0.00  0.00     0.395 HD
ENDBRANCH   1   7
TORSDOF 1
ENDMDL
