MODEL 1
REMARK minimizedAffinity -3.89797878
REMARK minimizedRMSD -1
REMARK  1 active torsions:
REMARK  status: ('A' for Active; 'I' for Inactive)
REMARK    1  A    between atoms: N_2  and  C1_3 
ROOT
ATOM      1  C1  UNL d   1      -0.431   0.524  -0.292  0.00  0.00     0.143 A 
ATOM      2  C2  UNL d   1       0.327  -0.638  -0.111  0.00  0.00    -0.057 A 
ATOM      3  C3  UNL d   1       0.356  -1.301   1.122  0.00  0.00     0.033 A 
ATOM      4  C4  UNL d   1      -0.352  -0.795   2.207  0.00  0.00    -0.042 A 
ATOM      5  C5  UNL d   1      -1.092   0.372   2.057  0.00  0.00     0.033 A 
ATOM      6  C6  UNL d   1      -1.123   1.026   0.822  0.00  0.00    -0.057 A 
ENDROOT
BRANCH   1   7
ATOM      7  N   UNL d   1      -0.422   1.283  -1.464  0.00  0.00    -0.732 N 
ATOM      8  C   UNL d   1      -1.314   2.413  -1.618  0.00  0.00     0.284 C 
ATOM      9  H3  UNL d   1       0.519   1.446  -1.815  0.00  0.00     0.395 HD
ENDBRANCH   1   7
TORSDOF 1
ENDMDL
