MODEL 1
REMARK minimizedAffinity -3.32720113
REMARK minimizedRMSD -1
REMARK  1 active torsions:
REMARK  status: ('A' for Active; 'I' for Inactive)
REMARK    1  A    between atoms: N_2  and  C1_3 
ROOT
ATOM      1  C1  UNL d   1      -0.242   0.776  -0.951  0.00  0.00     0.143 A 
ATOM      2  C2  UNL d   1       0.375   2.023  -1.095  0.00  0.00    -0.057 A 
ATOM      3  C3  UNL d   1      -0.131   2.987  -1.975  0.00  0.00     0.033 A 
ATOM      4  C4  UNL d   1      -1.251   2.707  -2.752  0.00  0.00    -0.042 A 
ATOM      5  C5  UNL d   1      -1.865   1.465  -2.644  0.00  0.00     0.033 A 
ATOM      6  C6  UNL d   1      -1.359   0.509  -1.758  0.00  0.00    -0.057 A 
ENDROOT
BRANCH   1   7
ATOM      7  N   UNL d   1       0.271  -0.259  -0.165  0.00  0.00    -0.732 N 
ATOM      8  C   UNL d   1      -0.061  -0.352   1.240  0.00  0.00     0.284 C 
ATOM      9  H3  UNL d   1       0.272  -1.153  -0.652  0.00  0.00     0.395 HD
ENDBRANCH   1   7
TORSDOF 1
ENDMDL
