MODEL 1
REMARK minimizedAffinity -4.11544418
REMARK minimizedRMSD -1
REMARK  1 active torsions:
REMARK  status: ('A' for Active; 'I' for Inactive)
REMARK    1  A    between atoms: N_2  and  C1_3 
ROOT
ATOM      1  C1  UNL d   1       0.147  -0.377  -0.485  0.00  0.00     0.143 A 
ATOM      2  C2  UNL d   1      -0.749  -0.105   0.553  0.00  0.00    -0.057 A 
ATOM      3  C3  UNL d   1      -0.548  -0.620   1.840  0.00  0.00     0.033 A 
ATOM      4  C4  UNL d   1       0.542  -1.442   2.104  0.00  0.00    -0.042 A 
ATOM      5  C5  UNL d   1       1.433  -1.747   1.081  0.00  0.00     0.033 A 
ATOM      6  C6  UNL d   1       1.230  -1.224  -0.200  0.00  0.00    -0.057 A 
ENDROOT
BRANCH   1   7
ATOM      7  N   UNL d   1      -0.050   0.023  -1.809  0.00  0.00    -0.732 N 
ATOM      8  C   UNL d   1      -0.796   1.226  -2.111  0.00  0.00     0.284 C 
ATOM      9  H3  UNL d   1       0.780  -0.106  -2.382  0.00  0.00     0.395 HD
ENDBRANCH   1   7
TORSDOF 1
ENDMDL
