MODEL 1
REMARK minimizedAffinity -2.96021819
REMARK minimizedRMSD -1
REMARK  1 active torsions:
REMARK  status: ('A' for Active; 'I' for Inactive)
REMARK    1  A    between atoms: N_2  and  C1_3 
ROOT
ATOM      1  C1  UNL d   1      -0.462   1.382  -1.400  0.00  0.00     0.143 A 
ATOM      2  C2  UNL d   1      -0.519   1.692  -0.037  0.00  0.00    -0.057 A 
ATOM      3  C3  UNL d   1      -0.499   0.687   0.938  0.00  0.00     0.033 A 
ATOM      4  C4  UNL d   1      -0.450  -0.652   0.564  0.00  0.00    -0.042 A 
ATOM      5  C5  UNL d   1      -0.418  -0.984  -0.786  0.00  0.00     0.033 A 
ATOM      6  C6  UNL d   1      -0.431   0.024  -1.754  0.00  0.00    -0.057 A 
ENDROOT
BRANCH   1   7
ATOM      7  N   UNL d   1      -0.578   2.331  -2.419  0.00  0.00    -0.732 N 
ATOM      8  C   UNL d   1      -1.803   3.082  -2.591  0.00  0.00     0.284 C 
ATOM      9  H3  UNL d   1       0.269   2.884  -2.532  0.00  0.00     0.395 HD
ENDBRANCH   1   7
TORSDOF 1
ENDMDL
