MODEL 1
REMARK minimizedAffinity -1.83424675
REMARK minimizedRMSD -1
REMARK  1 active torsions:
REMARK  status: ('A' for Active; 'I' for Inactive)
REMARK    1  A    between atoms: N_2  and  C1_3 
ROOT
ATOM      1  C1  UNL d   1      -0.470   0.115  -0.629  0.00  0.00     0.143 A 
ATOM      2  C2  UNL d   1       0.730  -0.568  -0.857  0.00  0.00    -0.057 A 
ATOM      3  C3  UNL d   1       1.360  -1.289   0.164  0.00  0.00     0.033 A 
ATOM      4  C4  UNL d   1       0.814  -1.315   1.444  0.00  0.00    -0.042 A 
ATOM      5  C5  UNL d   1      -0.364  -0.623   1.699  0.00  0.00     0.033 A 
ATOM      6  C6  UNL d   1      -0.992   0.090   0.673  0.00  0.00    -0.057 A 
ENDROOT
BRANCH   1   7
ATOM      7  N   UNL d   1      -1.093   0.931  -1.578  0.00  0.00    -0.732 N 
ATOM      8  C   UNL d   1      -0.879   2.362  -1.574  0.00  0.00     0.284 C 
ATOM      9  H3  UNL d   1      -1.097   0.514  -2.506  0.00  0.00     0.395 HD
ENDBRANCH   1   7
TORSDOF 1
ENDMDL
