MODEL 1
REMARK minimizedAffinity 6.77492905
REMARK minimizedRMSD -1
REMARK  1 active torsions:
REMARK  status: ('A' for Active; 'I' for Inactive)
REMARK    1  A    between atoms: C1_2  and  C2_3 
ROOT
ATOM      1  C2  UNL d   1       1.584  -2.728   0.588  0.00  0.00    -0.081 A 
ATOM      2  C3  UNL d   1       1.257  -4.090   0.557  0.00  0.00     0.006 A 
ATOM      3  C4  UNL d   1       1.096  -4.752  -0.662  0.00  0.00     0.002 A 
ATOM      4  C5  UNL d   1       1.267  -4.066  -1.870  0.00  0.00    -0.080 A 
ATOM      5  C6  UNL d   1       1.126  -4.772  -3.186  0.00  0.00     0.076 C 
ATOM      6  C7  UNL d   1       1.576  -2.702  -1.839  0.00  0.00     0.002 A 
ATOM      7  C8  UNL d   1       1.737  -2.040  -0.620  0.00  0.00     0.006 A 
ENDROOT
BRANCH   1   8
ATOM      8  C1  UNL d   1       1.822  -2.027   1.901  0.00  0.00     0.054 C 
ATOM      9  C   UNL d   1       0.848  -0.874   2.097  0.00  0.00     0.018 C 
ENDBRANCH   1   8
TORSDOF 1
ENDMDL
