MODEL 1
REMARK minimizedAffinity -1.14605033
REMARK minimizedRMSD -1
REMARK  1 active torsions:
REMARK  status: ('A' for Active; 'I' for Inactive)
REMARK    1  A    between atoms: C1_2  and  C2_3 
ROOT
ATOM      1  C2  UNL d   1       2.727  -2.913   4.820  0.00  0.00    -0.081 A 
ATOM      2  C3  UNL d   1       3.337  -2.815   3.563  0.00  0.00     0.006 A 
ATOM      3  C4  UNL d   1       2.656  -2.240   2.488  0.00  0.00     0.002 A 
ATOM      4  C5  UNL d   1       1.358  -1.746   2.652  0.00  0.00    -0.080 A 
ATOM      5  C6  UNL d   1       0.627  -1.100   1.514  0.00  0.00     0.076 C 
ATOM      6  C7  UNL d   1       0.741  -1.860   3.903  0.00  0.00     0.002 A 
ATOM      7  C8  UNL d   1       1.422  -2.435   4.979  0.00  0.00     0.006 A 
ENDROOT
BRANCH   1   8
ATOM      8  C1  UNL d   1       3.483  -3.473   5.997  0.00  0.00     0.054 C 
ATOM      9  C   UNL d   1       4.931  -3.004   6.000  0.00  0.00     0.018 C 
ENDBRANCH   1   8
TORSDOF 1
ENDMDL
