MODEL 1
REMARK minimizedAffinity 7.23905277
REMARK minimizedRMSD -1
REMARK  1 active torsions:
REMARK  status: ('A' for Active; 'I' for Inactive)
REMARK    1  A    between atoms: C1_2  and  C2_3 
ROOT
ATOM      1  C2  UNL d   1      -4.342  -4.678  -2.540  0.00  0.00    -0.081 A 
ATOM      2  C3  UNL d   1      -4.362  -5.323  -3.782  0.00  0.00     0.006 A 
ATOM      3  C4  UNL d   1      -4.908  -4.689  -4.901  0.00  0.00     0.002 A 
ATOM      4  C5  UNL d   1      -5.437  -3.398  -4.797  0.00  0.00    -0.080 A 
ATOM      5  C6  UNL d   1      -5.999  -2.695  -5.997  0.00  0.00     0.076 C 
ATOM      6  C7  UNL d   1      -5.433  -2.760  -3.552  0.00  0.00     0.002 A 
ATOM      7  C8  UNL d   1      -4.888  -3.394  -2.433  0.00  0.00     0.006 A 
ENDROOT
BRANCH   1   8
ATOM      8  C1  UNL d   1      -3.695  -5.333  -1.346  0.00  0.00     0.054 C 
ATOM      9  C   UNL d   1      -3.783  -4.445  -0.113  0.00  0.00     0.018 C 
ENDBRANCH   1   8
TORSDOF 1
ENDMDL
