MODEL 1
REMARK minimizedAffinity 6.98302937
REMARK minimizedRMSD -1
REMARK  1 active torsions:
REMARK  status: ('A' for Active; 'I' for Inactive)
REMARK    1  A    between atoms: N_2  and  C1_3 
ROOT
ATOM      1  C1  UNL d   1      -2.939   0.493  -3.456  0.00  0.00     0.143 A 
ATOM      2  C2  UNL d   1      -3.926  -0.434  -3.806  0.00  0.00    -0.057 A 
ATOM      3  C3  UNL d   1      -3.737  -1.807  -3.605  0.00  0.00     0.033 A 
ATOM      4  C4  UNL d   1      -2.541  -2.280  -3.075  0.00  0.00    -0.042 A 
ATOM      5  C5  UNL d   1      -1.536  -1.378  -2.742  0.00  0.00     0.033 A 
ATOM      6  C6  UNL d   1      -1.734  -0.008  -2.939  0.00  0.00    -0.057 A 
ENDROOT
BRANCH   1   7
ATOM      7  N   UNL d   1      -3.028   1.862  -3.722  0.00  0.00    -0.732 N 
ATOM      8  C   UNL d   1      -3.808   2.730  -2.867  0.00  0.00     0.284 C 
ATOM      9  H3  UNL d   1      -2.138   2.259  -4.017  0.00  0.00     0.395 HD
ENDBRANCH   1   7
TORSDOF 1
ENDMDL
