MODEL 1
REMARK minimizedAffinity 4.05439472
REMARK minimizedRMSD -1
REMARK  1 active torsions:
REMARK  status: ('A' for Active; 'I' for Inactive)
REMARK    1  A    between atoms: N_2  and  C1_3 
ROOT
ATOM      1  C1  UNL d   1      -2.779   1.315  -3.308  0.00  0.00     0.143 A 
ATOM      2  C2  UNL d   1      -2.635   0.110  -4.004  0.00  0.00    -0.057 A 
ATOM      3  C3  UNL d   1      -2.333  -1.083  -3.337  0.00  0.00     0.033 A 
ATOM      4  C4  UNL d   1      -2.142  -1.087  -1.959  0.00  0.00    -0.042 A 
ATOM      5  C5  UNL d   1      -2.256   0.103  -1.249  0.00  0.00     0.033 A 
ATOM      6  C6  UNL d   1      -2.564   1.290  -1.921  0.00  0.00    -0.057 A 
ENDROOT
BRANCH   1   7
ATOM      7  N   UNL d   1      -2.981   2.551  -3.925  0.00  0.00    -0.732 N 
ATOM      8  C   UNL d   1      -3.842   3.545  -3.322  0.00  0.00     0.284 C 
ATOM      9  H3  UNL d   1      -2.125   2.930  -4.325  0.00  0.00     0.395 HD
ENDBRANCH   1   7
TORSDOF 1
ENDMDL
