MODEL 1
REMARK minimizedAffinity 1.36129069
REMARK minimizedRMSD -1
REMARK  0 active torsions:
REMARK  status: ('A' for Active; 'I' for Inactive)
ROOT
ATOM      1  C1  BNZ d   1       5.996   4.022  -3.016  0.00  0.00     0.000 A 
ATOM      2  C2  BNZ d   1       4.891   3.312  -3.404  0.00  0.00     0.000 A 
ATOM      3  C3  BNZ d   1       3.696   3.940  -3.621  0.00  0.00     0.000 A 
ATOM      4  C4  BNZ d   1       3.598   5.269  -3.412  0.00  0.00     0.000 A 
ATOM      5  C5  BNZ d   1       4.701   5.997  -3.012  0.00  0.00     0.000 A 
ATOM      6  C6  BNZ d   1       5.911   5.368  -2.832  0.00  0.00     0.000 A 
ENDROOT
TORSDOF 0
ENDMDL
