MODEL 1
REMARK minimizedAffinity -2.44655752
REMARK minimizedRMSD -1
REMARK  0 active torsions:
REMARK  status: ('A' for Active; 'I' for Inactive)
ROOT
ATOM      1  C1  BNZ d   1       5.724   5.086  -1.147  0.00  0.00     0.000 A 
ATOM      2  C2  BNZ d   1       4.721   4.162  -1.270  0.00  0.00     0.000 A 
ATOM      3  C3  BNZ d   1       3.927   4.134  -2.382  0.00  0.00     0.000 A 
ATOM      4  C4  BNZ d   1       4.110   5.055  -3.350  0.00  0.00     0.000 A 
ATOM      5  C5  BNZ d   1       5.111   6.000  -3.237  0.00  0.00     0.000 A 
ATOM      6  C6  BNZ d   1       5.933   6.000  -2.134  0.00  0.00     0.000 A 
ENDROOT
TORSDOF 0
ENDMDL
