MODEL 1
REMARK minimizedAffinity 5.20526695
REMARK minimizedRMSD -1
REMARK  0 active torsions:
REMARK  status: ('A' for Active; 'I' for Inactive)
ROOT
ATOM      1  C1  BNZ d   1       1.391  -3.002  -2.084  0.00  0.00     0.000 A 
ATOM      2  C2  BNZ d   1       0.096  -2.558  -2.120  0.00  0.00     0.000 A 
ATOM      3  C3  BNZ d   1      -0.331  -1.724  -3.115  0.00  0.00     0.000 A 
ATOM      4  C4  BNZ d   1       0.545  -1.305  -4.050  0.00  0.00     0.000 A 
ATOM      5  C5  BNZ d   1       1.856  -1.736  -4.023  0.00  0.00     0.000 A 
ATOM      6  C6  BNZ d   1       2.273  -2.606  -3.042  0.00  0.00     0.000 A 
ENDROOT
TORSDOF 0
ENDMDL
