MODEL 1
REMARK minimizedAffinity -1.96147799
REMARK minimizedRMSD -1
REMARK  0 active torsions:
REMARK  status: ('A' for Active; 'I' for Inactive)
ROOT
ATOM      1  C1  BNZ d   1       3.896   5.991  -5.135  0.00  0.00     0.000 A 
ATOM      2  C2  BNZ d   1       4.664   5.257  -5.999  0.00  0.00     0.000 A 
ATOM      3  C3  BNZ d   1       5.701   4.495  -5.540  0.00  0.00     0.000 A 
ATOM      4  C4  BNZ d   1       5.994   4.498  -4.223  0.00  0.00     0.000 A 
ATOM      5  C5  BNZ d   1       5.235   5.240  -3.340  0.00  0.00     0.000 A 
ATOM      6  C6  BNZ d   1       4.168   5.975  -3.801  0.00  0.00     0.000 A 
ENDROOT
TORSDOF 0
ENDMDL
