MODEL 1
REMARK minimizedAffinity -2.01622391
REMARK minimizedRMSD -1
REMARK  0 active torsions:
REMARK  status: ('A' for Active; 'I' for Inactive)
ROOT
ATOM      1  C1  BNZ d   1       5.999   4.503  -2.789  0.00  0.00     0.000 A 
ATOM      2  C2  BNZ d   1       4.966   5.266  -2.313  0.00  0.00     0.000 A 
ATOM      3  C3  BNZ d   1       3.917   5.607  -3.120  0.00  0.00     0.000 A 
ATOM      4  C4  BNZ d   1       3.921   5.219  -4.411  0.00  0.00     0.000 A 
ATOM      5  C5  BNZ d   1       4.960   4.457  -4.909  0.00  0.00     0.000 A 
ATOM      6  C6  BNZ d   1       5.995   4.083  -4.083  0.00  0.00     0.000 A 
ENDROOT
TORSDOF 0
ENDMDL
