MODEL 1
REMARK minimizedAffinity -2.77743292
REMARK minimizedRMSD -1
REMARK  0 active torsions:
REMARK  status: ('A' for Active; 'I' for Inactive)
ROOT
ATOM      1  C1  BNZ d   1       3.985   5.987  -5.224  0.00  0.00     0.000 A 
ATOM      2  C2  BNZ d   1       4.027   5.846  -3.862  0.00  0.00     0.000 A 
ATOM      3  C3  BNZ d   1       5.040   5.152  -3.262  0.00  0.00     0.000 A 
ATOM      4  C4  BNZ d   1       5.986   4.566  -4.025  0.00  0.00     0.000 A 
ATOM      5  C5  BNZ d   1       5.951   4.691  -5.399  0.00  0.00     0.000 A 
ATOM      6  C6  BNZ d   1       4.952   5.424  -5.998  0.00  0.00     0.000 A 
ENDROOT
TORSDOF 0
ENDMDL
