MODEL 1
REMARK minimizedAffinity -1.43404174
REMARK minimizedRMSD -1
REMARK  0 active torsions:
REMARK  status: ('A' for Active; 'I' for Inactive)
ROOT
ATOM      1  C1  BNZ d   1       4.522   3.750  -4.122  0.00  0.00     0.000 A 
ATOM      2  C2  BNZ d   1       3.709   4.851  -4.144  0.00  0.00     0.000 A 
ATOM      3  C3  BNZ d   1       4.044   5.983  -3.454  0.00  0.00     0.000 A 
ATOM      4  C4  BNZ d   1       5.169   5.998  -2.711  0.00  0.00     0.000 A 
ATOM      5  C5  BNZ d   1       5.995   4.892  -2.671  0.00  0.00     0.000 A 
ATOM      6  C6  BNZ d   1       5.674   3.768  -3.398  0.00  0.00     0.000 A 
ENDROOT
TORSDOF 0
ENDMDL
