MODEL 1
REMARK minimizedAffinity -3.60793948
REMARK minimizedRMSD -1
REMARK  0 active torsions:
REMARK  status: ('A' for Active; 'I' for Inactive)
ROOT
ATOM      1  C1  BNZ d   1       5.905   5.316  -5.125  0.00  0.00     0.000 A 
ATOM      2  C2  BNZ d   1       4.731   5.998  -5.303  0.00  0.00     0.000 A 
ATOM      3  C3  BNZ d   1       3.645   5.740  -4.514  0.00  0.00     0.000 A 
ATOM      4  C4  BNZ d   1       3.722   4.774  -3.576  0.00  0.00     0.000 A 
ATOM      5  C5  BNZ d   1       4.896   4.070  -3.391  0.00  0.00     0.000 A 
ATOM      6  C6  BNZ d   1       5.999   4.360  -4.161  0.00  0.00     0.000 A 
ENDROOT
TORSDOF 0
ENDMDL
