MODEL 1
REMARK minimizedAffinity 5.15276957
REMARK minimizedRMSD -1
REMARK  0 active torsions:
REMARK  status: ('A' for Active; 'I' for Inactive)
ROOT
ATOM      1  C1  BNZ d   1      -0.150  -1.970  -3.300  0.00  0.00     0.000 A 
ATOM      2  C2  BNZ d   1      -1.289  -2.244  -2.590  0.00  0.00     0.000 A 
ATOM      3  C3  BNZ d   1      -1.219  -2.673  -1.294  0.00  0.00     0.000 A 
ATOM      4  C4  BNZ d   1      -0.012  -2.866  -0.723  0.00  0.00     0.000 A 
ATOM      5  C5  BNZ d   1       1.145  -2.602  -1.429  0.00  0.00     0.000 A 
ATOM      6  C6  BNZ d   1       1.070  -2.133  -2.721  0.00  0.00     0.000 A 
ENDROOT
TORSDOF 0
ENDMDL
