MODEL 1
REMARK minimizedAffinity -3.36214399
REMARK minimizedRMSD -1
REMARK  0 active torsions:
REMARK  status: ('A' for Active; 'I' for Inactive)
ROOT
ATOM      1  C1  BNZ d   1       4.894   3.769  -5.316  0.00  0.00     0.000 A 
ATOM      2  C2  BNZ d   1       5.996   3.861  -4.509  0.00  0.00     0.000 A 
ATOM      3  C3  BNZ d   1       5.989   4.663  -3.402  0.00  0.00     0.000 A 
ATOM      4  C4  BNZ d   1       4.895   5.402  -3.127  0.00  0.00     0.000 A 
ATOM      5  C5  BNZ d   1       3.779   5.329  -3.936  0.00  0.00     0.000 A 
ATOM      6  C6  BNZ d   1       3.776   4.490  -5.027  0.00  0.00     0.000 A 
ENDROOT
TORSDOF 0
ENDMDL
