MODEL 1
REMARK minimizedAffinity -2.96153951
REMARK minimizedRMSD -1
REMARK  0 active torsions:
REMARK  status: ('A' for Active; 'I' for Inactive)
ROOT
ATOM      1  C1  BNZ d   1       4.878  -2.332   5.999  0.00  0.00     0.000 A 
ATOM      2  C2  BNZ d   1       5.172  -3.072   4.886  0.00  0.00     0.000 A 
ATOM      3  C3  BNZ d   1       4.401  -2.983   3.761  0.00  0.00     0.000 A 
ATOM      4  C4  BNZ d   1       3.313  -2.185   3.765  0.00  0.00     0.000 A 
ATOM      5  C5  BNZ d   1       2.998  -1.439   4.883  0.00  0.00     0.000 A 
ATOM      6  C6  BNZ d   1       3.799  -1.502   6.000  0.00  0.00     0.000 A 
ENDROOT
TORSDOF 0
ENDMDL
