MODEL 1
REMARK minimizedAffinity -4.05068159
REMARK minimizedRMSD -1
REMARK  0 active torsions:
REMARK  status: ('A' for Active; 'I' for Inactive)
ROOT
ATOM      1  C1  BNZ d   1       3.766   4.569  -3.854  0.00  0.00     0.000 A 
ATOM      2  C2  BNZ d   1       5.105   4.629  -3.574  0.00  0.00     0.000 A 
ATOM      3  C3  BNZ d   1       5.995   3.828  -4.234  0.00  0.00     0.000 A 
ATOM      4  C4  BNZ d   1       5.541   2.941  -5.143  0.00  0.00     0.000 A 
ATOM      5  C5  BNZ d   1       4.193   2.862  -5.429  0.00  0.00     0.000 A 
ATOM      6  C6  BNZ d   1       3.304   3.697  -4.791  0.00  0.00     0.000 A 
ENDROOT
TORSDOF 0
ENDMDL
