MODEL 1
REMARK minimizedAffinity -4.20319366
REMARK minimizedRMSD -1
REMARK  0 active torsions:
REMARK  status: ('A' for Active; 'I' for Inactive)
ROOT
ATOM      1  C1  BNZ d   1      -0.842  -5.293  -4.930  0.00  0.00     0.000 A 
ATOM      2  C2  BNZ d   1      -0.901  -4.438  -5.998  0.00  0.00     0.000 A 
ATOM      3  C3  BNZ d   1      -0.924  -3.085  -5.810  0.00  0.00     0.000 A 
ATOM      4  C4  BNZ d   1      -0.928  -2.589  -4.556  0.00  0.00     0.000 A 
ATOM      5  C5  BNZ d   1      -0.878  -3.438  -3.469  0.00  0.00     0.000 A 
ATOM      6  C6  BNZ d   1      -0.816  -4.799  -3.662  0.00  0.00     0.000 A 
ENDROOT
TORSDOF 0
ENDMDL
