MODEL 1
REMARK minimizedAffinity -3.18727326
REMARK minimizedRMSD -1
REMARK  0 active torsions:
REMARK  status: ('A' for Active; 'I' for Inactive)
ROOT
ATOM      1  C1  BNZ d   1       4.880   3.925  -4.383  0.00  0.00     0.000 A 
ATOM      2  C2  BNZ d   1       3.780   4.704  -4.140  0.00  0.00     0.000 A 
ATOM      3  C3  BNZ d   1       3.792   5.640  -3.144  0.00  0.00     0.000 A 
ATOM      4  C4  BNZ d   1       4.886   5.767  -2.366  0.00  0.00     0.000 A 
ATOM      5  C5  BNZ d   1       5.999   4.982  -2.593  0.00  0.00     0.000 A 
ATOM      6  C6  BNZ d   1       5.998   4.068  -3.622  0.00  0.00     0.000 A 
ENDROOT
TORSDOF 0
ENDMDL
