MODEL 1
REMARK minimizedAffinity 0.561401904
REMARK minimizedRMSD -1
REMARK  0 active torsions:
REMARK  status: ('A' for Active; 'I' for Inactive)
ROOT
ATOM      1  C2' OXE d   1      -5.553   1.699   5.000  0.00  0.00     0.078 C 
ATOM      2  C1' OXE d   1      -5.991   2.818   2.463  0.00  0.00     0.078 C 
ATOM      3  C1  OXE d   1      -5.895   3.757   3.639  0.00  0.00    -0.078 A 
ATOM      4  C2  OXE d   1      -5.727   3.198   4.883  0.00  0.00    -0.078 A 
ATOM      5  C3  OXE d   1      -5.578   4.022   5.995  0.00  0.00     0.003 A 
ATOM      6  C4  OXE d   1      -5.751   5.407   5.879  0.00  0.00    -0.002 A 
ATOM      7  C5  OXE d   1      -5.962   5.994   4.627  0.00  0.00    -0.002 A 
ATOM      8  C6  OXE d   1      -5.994   5.189   3.494  0.00  0.00     0.003 A 
ENDROOT
TORSDOF 0
ENDMDL
