MODEL 1
REMARK minimizedAffinity 2.63159609
REMARK minimizedRMSD -1
REMARK  0 active torsions:
REMARK  status: ('A' for Active; 'I' for Inactive)
ROOT
ATOM      1  C2' OXE d   1      -5.651   4.270   1.731  0.00  0.00     0.078 C 
ATOM      2  C1' OXE d   1      -5.660   2.054   3.454  0.00  0.00     0.078 C 
ATOM      3  C1  OXE d   1      -5.792   3.425   4.069  0.00  0.00    -0.078 A 
ATOM      4  C2  OXE d   1      -5.740   4.506   3.223  0.00  0.00    -0.078 A 
ATOM      5  C3  OXE d   1      -5.912   5.790   3.733  0.00  0.00     0.003 A 
ATOM      6  C4  OXE d   1      -5.984   5.999   5.115  0.00  0.00    -0.002 A 
ATOM      7  C5  OXE d   1      -5.999   4.914   5.998  0.00  0.00    -0.002 A 
ATOM      8  C6  OXE d   1      -5.947   3.621   5.490  0.00  0.00     0.003 A 
ENDROOT
TORSDOF 0
ENDMDL
