MODEL 1
REMARK minimizedAffinity -0.967136621
REMARK minimizedRMSD -1
REMARK  0 active torsions:
REMARK  status: ('A' for Active; 'I' for Inactive)
ROOT
ATOM      1  C2' OXE d   1      -3.746   1.413  -2.487  0.00  0.00     0.078 C 
ATOM      2  C1' OXE d   1      -2.219  -0.739  -1.529  0.00  0.00     0.078 C 
ATOM      3  C1  OXE d   1      -3.538  -0.457  -0.854  0.00  0.00    -0.078 A 
ATOM      4  C2  OXE d   1      -4.257   0.626  -1.299  0.00  0.00    -0.078 A 
ATOM      5  C3  OXE d   1      -5.506   0.898  -0.747  0.00  0.00     0.003 A 
ATOM      6  C4  OXE d   1      -5.966   0.172   0.357  0.00  0.00    -0.002 A 
ATOM      7  C5  OXE d   1      -5.231  -0.911   0.851  0.00  0.00    -0.002 A 
ATOM      8  C6  OXE d   1      -4.038  -1.265   0.231  0.00  0.00     0.003 A 
ENDROOT
TORSDOF 0
ENDMDL
