MODEL 1
REMARK minimizedAffinity 1.01036763
REMARK minimizedRMSD -1
REMARK  0 active torsions:
REMARK  status: ('A' for Active; 'I' for Inactive)
ROOT
ATOM      1  C2' OXE d   1      -1.987   0.652  -0.550  0.00  0.00     0.078 C 
ATOM      2  C1' OXE d   1      -4.120   2.054  -1.719  0.00  0.00     0.078 C 
ATOM      3  C1  OXE d   1      -4.430   1.138  -0.563  0.00  0.00    -0.078 A 
ATOM      4  C2  OXE d   1      -3.388   0.420  -0.027  0.00  0.00    -0.078 A 
ATOM      5  C3  OXE d   1      -3.610  -0.398   1.077  0.00  0.00     0.003 A 
ATOM      6  C4  OXE d   1      -4.911  -0.615   1.549  0.00  0.00    -0.002 A 
ATOM      7  C5  OXE d   1      -5.992   0.076   0.992  0.00  0.00    -0.002 A 
ATOM      8  C6  OXE d   1      -5.764   0.986  -0.034  0.00  0.00     0.003 A 
ENDROOT
TORSDOF 0
ENDMDL
