MODEL 1
REMARK minimizedAffinity 29.2783737
REMARK minimizedRMSD -1
REMARK  0 active torsions:
REMARK  status: ('A' for Active; 'I' for Inactive)
ROOT
ATOM      1  C   UNL d   1      -4.120  -1.229   2.396  0.00  0.00     0.124 A 
ATOM      2  C1  UNL d   1      -3.344  -0.124   2.075  0.00  0.00     0.062 A 
ATOM      3  C2  UNL d   1      -2.889   0.727   3.078  0.00  0.00     0.162 A 
ATOM      4  C3  UNL d   1      -3.209   0.476   4.413  0.00  0.00    -0.034 A 
ATOM      5  C4  UNL d   1      -3.991  -0.637   4.727  0.00  0.00     0.162 A 
ATOM      6  C5  UNL d   1      -4.443  -1.485   3.721  0.00  0.00     0.062 A 
ATOM      7  F   UNL d   1      -5.192  -2.552   4.033  0.00  0.00    -0.097 F 
ATOM      8  F1  UNL d   1      -4.316  -0.908   6.000  0.00  0.00    -0.096 F 
ATOM      9  I   UNL d   1      -2.531   1.746   5.916  0.00  0.00    -0.060 I 
ATOM     10  F2  UNL d   1      -2.141   1.788   2.739  0.00  0.00    -0.096 F 
ATOM     11  F3  UNL d   1      -3.032   0.126   0.795  0.00  0.00    -0.097 F 
ATOM     12  F4  UNL d   1      -4.557  -2.046   1.428  0.00  0.00    -0.092 F 
ENDROOT
TORSDOF 0
ENDMDL
