MODEL 1
REMARK minimizedAffinity 17.146843
REMARK minimizedRMSD -1
REMARK  0 active torsions:
REMARK  status: ('A' for Active; 'I' for Inactive)
ROOT
ATOM      1  C   UNL d   1       2.225  -4.079  -1.428  0.00  0.00     0.124 A 
ATOM      2  C1  UNL d   1       1.278  -3.115  -1.744  0.00  0.00     0.062 A 
ATOM      3  C2  UNL d   1       1.487  -1.786  -1.387  0.00  0.00     0.162 A 
ATOM      4  C3  UNL d   1       2.648  -1.412  -0.711  0.00  0.00    -0.034 A 
ATOM      5  C4  UNL d   1       3.595  -2.388  -0.396  0.00  0.00     0.162 A 
ATOM      6  C5  UNL d   1       3.383  -3.715  -0.755  0.00  0.00     0.062 A 
ATOM      7  F   UNL d   1       4.299  -4.645  -0.448  0.00  0.00    -0.097 F 
ATOM      8  F1  UNL d   1       4.723  -2.064   0.254  0.00  0.00    -0.096 F 
ATOM      9  I   UNL d   1       2.963   0.574  -0.176  0.00  0.00    -0.060 I 
ATOM     10  F2  UNL d   1       0.555  -0.875  -1.706  0.00  0.00    -0.096 F 
ATOM     11  F3  UNL d   1       0.159  -3.464  -2.394  0.00  0.00    -0.097 F 
ATOM     12  F4  UNL d   1       2.022  -5.357  -1.772  0.00  0.00    -0.092 F 
ENDROOT
TORSDOF 0
ENDMDL
