MODEL 1
REMARK minimizedAffinity 23.0487633
REMARK minimizedRMSD -1
REMARK  0 active torsions:
REMARK  status: ('A' for Active; 'I' for Inactive)
ROOT
ATOM      1  C   UNL d   1      -0.898   1.113  -3.794  0.00  0.00     0.124 A 
ATOM      2  C1  UNL d   1      -2.224   1.485  -3.619  0.00  0.00     0.062 A 
ATOM      3  C2  UNL d   1      -2.720   2.624  -4.247  0.00  0.00     0.162 A 
ATOM      4  C3  UNL d   1      -1.891   3.399  -5.057  0.00  0.00    -0.034 A 
ATOM      5  C4  UNL d   1      -0.558   3.019  -5.228  0.00  0.00     0.162 A 
ATOM      6  C5  UNL d   1      -0.067   1.880  -4.598  0.00  0.00     0.062 A 
ATOM      7  F   UNL d   1       1.214   1.523  -4.768  0.00  0.00    -0.097 F 
ATOM      8  F1  UNL d   1       0.267   3.742  -6.000  0.00  0.00    -0.096 F 
ATOM      9  I   UNL d   1      -2.629   5.102  -5.998  0.00  0.00    -0.060 I 
ATOM     10  F2  UNL d   1      -4.006   2.959  -4.060  0.00  0.00    -0.096 F 
ATOM     11  F3  UNL d   1      -3.029   0.746  -2.842  0.00  0.00    -0.097 F 
ATOM     12  F4  UNL d   1      -0.423   0.018  -3.188  0.00  0.00    -0.092 F 
ENDROOT
TORSDOF 0
ENDMDL
