MODEL 1
REMARK minimizedAffinity 24.2324905
REMARK minimizedRMSD -1
REMARK  0 active torsions:
REMARK  status: ('A' for Active; 'I' for Inactive)
ROOT
ATOM      1  C   UNL d   1      -1.202   0.102   2.817  0.00  0.00     0.124 A 
ATOM      2  C1  UNL d   1      -2.335   0.904   2.822  0.00  0.00     0.062 A 
ATOM      3  C2  UNL d   1      -3.601   0.326   2.820  0.00  0.00     0.162 A 
ATOM      4  C3  UNL d   1      -3.742  -1.062   2.814  0.00  0.00    -0.034 A 
ATOM      5  C4  UNL d   1      -2.598  -1.861   2.808  0.00  0.00     0.162 A 
ATOM      6  C5  UNL d   1      -1.334  -1.279   2.810  0.00  0.00     0.062 A 
ATOM      7  F   UNL d   1      -0.241  -2.055   2.805  0.00  0.00    -0.097 F 
ATOM      8  F1  UNL d   1      -2.697  -3.199   2.802  0.00  0.00    -0.096 F 
ATOM      9  I   UNL d   1      -5.634  -1.929   2.810  0.00  0.00    -0.060 I 
ATOM     10  F2  UNL d   1      -4.679   1.125   2.825  0.00  0.00    -0.096 F 
ATOM     11  F3  UNL d   1      -2.210   2.239   2.828  0.00  0.00    -0.097 F 
ATOM     12  F4  UNL d   1       0.015   0.661   2.818  0.00  0.00    -0.092 F 
ENDROOT
TORSDOF 0
ENDMDL
