MODEL 1
REMARK minimizedAffinity 19.4194088
REMARK minimizedRMSD -1
REMARK  0 active torsions:
REMARK  status: ('A' for Active; 'I' for Inactive)
ROOT
ATOM      1  C   UNL d   1      -3.590  -0.723   2.827  0.00  0.00     0.124 A 
ATOM      2  C1  UNL d   1      -3.517   0.658   2.950  0.00  0.00     0.062 A 
ATOM      3  C2  UNL d   1      -2.282   1.300   2.917  0.00  0.00     0.162 A 
ATOM      4  C3  UNL d   1      -1.110   0.561   2.760  0.00  0.00    -0.034 A 
ATOM      5  C4  UNL d   1      -1.191  -0.827   2.638  0.00  0.00     0.162 A 
ATOM      6  C5  UNL d   1      -2.427  -1.464   2.671  0.00  0.00     0.062 A 
ATOM      7  F   UNL d   1      -2.495  -2.798   2.552  0.00  0.00    -0.097 F 
ATOM      8  F1  UNL d   1      -0.083  -1.568   2.484  0.00  0.00    -0.096 F 
ATOM      9  I   UNL d   1       0.739   1.517   2.710  0.00  0.00    -0.060 I 
ATOM     10  F2  UNL d   1      -2.242   2.635   3.039  0.00  0.00    -0.096 F 
ATOM     11  F3  UNL d   1      -4.639   1.376   3.103  0.00  0.00    -0.097 F 
ATOM     12  F4  UNL d   1      -4.779  -1.338   2.861  0.00  0.00    -0.092 F 
ENDROOT
TORSDOF 0
ENDMDL
