MODEL 1
REMARK minimizedAffinity 32.8042107
REMARK minimizedRMSD -1
REMARK  0 active torsions:
REMARK  status: ('A' for Active; 'I' for Inactive)
ROOT
ATOM      1  C   UNL d   1       3.772  -0.265  -0.352  0.00  0.00     0.124 A 
ATOM      2  C1  UNL d   1       3.817  -1.587   0.069  0.00  0.00     0.062 A 
ATOM      3  C2  UNL d   1       2.827  -2.481  -0.326  0.00  0.00     0.162 A 
ATOM      4  C3  UNL d   1       1.783  -2.058  -1.149  0.00  0.00    -0.034 A 
ATOM      5  C4  UNL d   1       1.744  -0.727  -1.568  0.00  0.00     0.162 A 
ATOM      6  C5  UNL d   1       2.736   0.164  -1.170  0.00  0.00     0.062 A 
ATOM      7  F   UNL d   1       2.691   1.440  -1.578  0.00  0.00    -0.097 F 
ATOM      8  F1  UNL d   1       0.755  -0.286  -2.359  0.00  0.00    -0.096 F 
ATOM      9  I   UNL d   1       0.301  -3.393  -1.742  0.00  0.00    -0.060 I 
ATOM     10  F2  UNL d   1       2.896  -3.753   0.096  0.00  0.00    -0.096 F 
ATOM     11  F3  UNL d   1       4.817  -2.003   0.860  0.00  0.00    -0.097 F 
ATOM     12  F4  UNL d   1       4.726   0.594   0.030  0.00  0.00    -0.092 F 
ENDROOT
TORSDOF 0
ENDMDL
