MODEL 1
REMARK minimizedAffinity 17.6891651
REMARK minimizedRMSD -1
REMARK  0 active torsions:
REMARK  status: ('A' for Active; 'I' for Inactive)
ROOT
ATOM      1  C   UNL d   1       3.368  -2.518  -0.066  0.00  0.00     0.124 A 
ATOM      2  C1  UNL d   1       4.394  -1.593   0.062  0.00  0.00     0.062 A 
ATOM      3  C2  UNL d   1       4.218  -0.286  -0.385  0.00  0.00     0.162 A 
ATOM      4  C3  UNL d   1       3.010   0.103  -0.963  0.00  0.00    -0.034 A 
ATOM      5  C4  UNL d   1       1.983  -0.834  -1.089  0.00  0.00     0.162 A 
ATOM      6  C5  UNL d   1       2.164  -2.139  -0.641  0.00  0.00     0.062 A 
ATOM      7  F   UNL d   1       1.171  -3.032  -0.765  0.00  0.00    -0.097 F 
ATOM      8  F1  UNL d   1       0.808  -0.494  -1.640  0.00  0.00    -0.096 F 
ATOM      9  I   UNL d   1       2.742   2.055  -1.632  0.00  0.00    -0.060 I 
ATOM     10  F2  UNL d   1       5.227   0.587  -0.249  0.00  0.00    -0.096 F 
ATOM     11  F3  UNL d   1       5.559  -1.958   0.616  0.00  0.00    -0.097 F 
ATOM     12  F4  UNL d   1       3.541  -3.775   0.364  0.00  0.00    -0.092 F 
ENDROOT
TORSDOF 0
ENDMDL
