MODEL 1
REMARK minimizedAffinity 22.4155293
REMARK minimizedRMSD -1
REMARK  0 active torsions:
REMARK  status: ('A' for Active; 'I' for Inactive)
ROOT
ATOM      1  C   UNL d   1      -3.419   0.929   2.728  0.00  0.00     0.124 A 
ATOM      2  C1  UNL d   1      -4.056  -0.075   2.012  0.00  0.00     0.062 A 
ATOM      3  C2  UNL d   1      -4.400  -1.270   2.637  0.00  0.00     0.162 A 
ATOM      4  C3  UNL d   1      -4.108  -1.468   3.987  0.00  0.00    -0.034 A 
ATOM      5  C4  UNL d   1      -3.465  -0.454   4.700  0.00  0.00     0.162 A 
ATOM      6  C5  UNL d   1      -3.124   0.739   4.070  0.00  0.00     0.062 A 
ATOM      7  F   UNL d   1      -2.508   1.707   4.763  0.00  0.00    -0.097 F 
ATOM      8  F1  UNL d   1      -3.169  -0.611   5.998  0.00  0.00    -0.096 F 
ATOM      9  I   UNL d   1      -4.620  -3.254   4.925  0.00  0.00    -0.060 I 
ATOM     10  F2  UNL d   1      -5.016  -2.223   1.921  0.00  0.00    -0.096 F 
ATOM     11  F3  UNL d   1      -4.342   0.106   0.714  0.00  0.00    -0.097 F 
ATOM     12  F4  UNL d   1      -3.088   2.077   2.123  0.00  0.00    -0.092 F 
ENDROOT
TORSDOF 0
ENDMDL
