MODEL 1
REMARK minimizedAffinity 17.5275421
REMARK minimizedRMSD -1
REMARK  0 active torsions:
REMARK  status: ('A' for Active; 'I' for Inactive)
ROOT
ATOM      1  C   UNL d   1       3.126  -2.124  -0.559  0.00  0.00     0.124 A 
ATOM      2  C1  UNL d   1       2.642  -3.418  -0.695  0.00  0.00     0.062 A 
ATOM      3  C2  UNL d   1       1.727  -3.721  -1.699  0.00  0.00     0.162 A 
ATOM      4  C3  UNL d   1       1.289  -2.728  -2.575  0.00  0.00    -0.034 A 
ATOM      5  C4  UNL d   1       1.779  -1.429  -2.431  0.00  0.00     0.162 A 
ATOM      6  C5  UNL d   1       2.694  -1.131  -1.427  0.00  0.00     0.062 A 
ATOM      7  F   UNL d   1       3.160   0.120  -1.297  0.00  0.00    -0.097 F 
ATOM      8  F1  UNL d   1       1.379  -0.450  -3.257  0.00  0.00    -0.096 F 
ATOM      9  I   UNL d   1      -0.080  -3.177  -4.077  0.00  0.00    -0.060 I 
ATOM     10  F2  UNL d   1       1.276  -4.980  -1.807  0.00  0.00    -0.096 F 
ATOM     11  F3  UNL d   1       3.057  -4.379   0.143  0.00  0.00    -0.097 F 
ATOM     12  F4  UNL d   1       4.006  -1.835   0.408  0.00  0.00    -0.092 F 
ENDROOT
TORSDOF 0
ENDMDL
