MODEL 1
REMARK minimizedAffinity 12.5079269
REMARK minimizedRMSD -1
REMARK  0 active torsions:
REMARK  status: ('A' for Active; 'I' for Inactive)
ROOT
ATOM      1  C   UNL d   1       2.025  -2.957  -1.218  0.00  0.00     0.124 A 
ATOM      2  C1  UNL d   1       3.060  -2.837  -0.301  0.00  0.00     0.062 A 
ATOM      3  C2  UNL d   1       3.667  -1.603  -0.087  0.00  0.00     0.162 A 
ATOM      4  C3  UNL d   1       3.239  -0.477  -0.791  0.00  0.00    -0.034 A 
ATOM      5  C4  UNL d   1       2.199  -0.606  -1.713  0.00  0.00     0.162 A 
ATOM      6  C5  UNL d   1       1.596  -1.842  -1.924  0.00  0.00     0.062 A 
ATOM      7  F   UNL d   1       0.597  -1.955  -2.810  0.00  0.00    -0.097 F 
ATOM      8  F1  UNL d   1       1.764   0.456  -2.408  0.00  0.00    -0.096 F 
ATOM      9  I   UNL d   1       4.144   1.370  -0.475  0.00  0.00    -0.060 I 
ATOM     10  F2  UNL d   1       4.664  -1.517   0.806  0.00  0.00    -0.096 F 
ATOM     11  F3  UNL d   1       3.477  -3.914   0.381  0.00  0.00    -0.097 F 
ATOM     12  F4  UNL d   1       1.444  -4.146  -1.423  0.00  0.00    -0.092 F 
ENDROOT
TORSDOF 0
ENDMDL
