MODEL 1
REMARK minimizedAffinity 11.5488262
REMARK minimizedRMSD -1
REMARK  0 active torsions:
REMARK  status: ('A' for Active; 'I' for Inactive)
ROOT
ATOM      1  C   UNL d   1       1.893  -3.999  -2.097  0.00  0.00     0.124 A 
ATOM      2  C1  UNL d   1       2.385  -3.318  -3.202  0.00  0.00     0.062 A 
ATOM      3  C2  UNL d   1       2.639  -1.952  -3.126  0.00  0.00     0.162 A 
ATOM      4  C3  UNL d   1       2.403  -1.256  -1.940  0.00  0.00    -0.034 A 
ATOM      5  C4  UNL d   1       1.907  -1.948  -0.833  0.00  0.00     0.162 A 
ATOM      6  C5  UNL d   1       1.654  -3.313  -0.914  0.00  0.00     0.062 A 
ATOM      7  F   UNL d   1       1.179  -3.969   0.155  0.00  0.00    -0.097 F 
ATOM      8  F1  UNL d   1       1.668  -1.310   0.323  0.00  0.00    -0.096 F 
ATOM      9  I   UNL d   1       2.782   0.787  -1.823  0.00  0.00    -0.060 I 
ATOM     10  F2  UNL d   1       3.114  -1.319  -4.209  0.00  0.00    -0.096 F 
ATOM     11  F3  UNL d   1       2.615  -3.978  -4.346  0.00  0.00    -0.097 F 
ATOM     12  F4  UNL d   1       1.648  -5.313  -2.173  0.00  0.00    -0.092 F 
ENDROOT
TORSDOF 0
ENDMDL
