MODEL 1
REMARK minimizedAffinity 11.2195911
REMARK minimizedRMSD -1
REMARK  0 active torsions:
REMARK  status: ('A' for Active; 'I' for Inactive)
ROOT
ATOM      1  C   UNL d   1       2.450  -1.664  -2.925  0.00  0.00     0.124 A 
ATOM      2  C1  UNL d   1       2.317  -1.836  -1.554  0.00  0.00     0.062 A 
ATOM      3  C2  UNL d   1       2.587  -3.072  -0.974  0.00  0.00     0.162 A 
ATOM      4  C3  UNL d   1       2.992  -4.147  -1.765  0.00  0.00    -0.034 A 
ATOM      5  C4  UNL d   1       3.123  -3.967  -3.143  0.00  0.00     0.162 A 
ATOM      6  C5  UNL d   1       2.853  -2.729  -3.718  0.00  0.00     0.062 A 
ATOM      7  F   UNL d   1       2.982  -2.565  -5.043  0.00  0.00    -0.097 F 
ATOM      8  F1  UNL d   1       3.511  -4.979  -3.933  0.00  0.00    -0.096 F 
ATOM      9  I   UNL d   1       3.396  -5.998  -0.902  0.00  0.00    -0.060 I 
ATOM     10  F2  UNL d   1       2.450  -3.210   0.353  0.00  0.00    -0.096 F 
ATOM     11  F3  UNL d   1       1.928  -0.809  -0.786  0.00  0.00    -0.097 F 
ATOM     12  F4  UNL d   1       2.190  -0.474  -3.480  0.00  0.00    -0.092 F 
ENDROOT
TORSDOF 0
ENDMDL
