MODEL 1
REMARK minimizedAffinity 19.6523533
REMARK minimizedRMSD -1
REMARK  0 active torsions:
REMARK  status: ('A' for Active; 'I' for Inactive)
ROOT
ATOM      1  C   UNL d   1       2.329  -1.505  -2.526  0.00  0.00     0.124 A 
ATOM      2  C1  UNL d   1       2.632  -1.546  -1.172  0.00  0.00     0.062 A 
ATOM      3  C2  UNL d   1       3.679  -2.340  -0.714  0.00  0.00     0.162 A 
ATOM      4  C3  UNL d   1       4.431  -3.100  -1.610  0.00  0.00    -0.034 A 
ATOM      5  C4  UNL d   1       4.119  -3.055  -2.970  0.00  0.00     0.162 A 
ATOM      6  C5  UNL d   1       3.072  -2.259  -3.423  0.00  0.00     0.062 A 
ATOM      7  F   UNL d   1       2.780  -2.221  -4.731  0.00  0.00    -0.097 F 
ATOM      8  F1  UNL d   1       4.821  -3.773  -3.859  0.00  0.00    -0.096 F 
ATOM      9  I   UNL d   1       5.997  -4.290  -0.928  0.00  0.00    -0.060 I 
ATOM     10  F2  UNL d   1       3.950  -2.361   0.600  0.00  0.00    -0.096 F 
ATOM     11  F3  UNL d   1       1.915  -0.819  -0.304  0.00  0.00    -0.097 F 
ATOM     12  F4  UNL d   1       1.320  -0.740  -2.965  0.00  0.00    -0.092 F 
ENDROOT
TORSDOF 0
ENDMDL
