MODEL 1
REMARK minimizedAffinity 14.5414886
REMARK minimizedRMSD -1
REMARK  0 active torsions:
REMARK  status: ('A' for Active; 'I' for Inactive)
ROOT
ATOM      1  C   UNL d   1       1.601  -4.009  -1.745  0.00  0.00     0.124 A 
ATOM      2  C1  UNL d   1       2.453  -3.739  -0.683  0.00  0.00     0.062 A 
ATOM      3  C2  UNL d   1       2.788  -2.424  -0.371  0.00  0.00     0.162 A 
ATOM      4  C3  UNL d   1       2.270  -1.369  -1.122  0.00  0.00    -0.034 A 
ATOM      5  C4  UNL d   1       1.414  -1.648  -2.188  0.00  0.00     0.162 A 
ATOM      6  C5  UNL d   1       1.082  -2.964  -2.496  0.00  0.00     0.062 A 
ATOM      7  F   UNL d   1       0.258  -3.223  -3.522  0.00  0.00    -0.097 F 
ATOM      8  F1  UNL d   1       0.897  -0.658  -2.930  0.00  0.00    -0.096 F 
ATOM      9  I   UNL d   1       2.768   0.598  -0.658  0.00  0.00    -0.060 I 
ATOM     10  F2  UNL d   1       3.614  -2.193   0.660  0.00  0.00    -0.096 F 
ATOM     11  F3  UNL d   1       2.957  -4.747   0.044  0.00  0.00    -0.097 F 
ATOM     12  F4  UNL d   1       1.281  -5.274  -2.043  0.00  0.00    -0.092 F 
ENDROOT
TORSDOF 0
ENDMDL
