MODEL 1
REMARK minimizedAffinity 19.6481266
REMARK minimizedRMSD -1
REMARK  0 active torsions:
REMARK  status: ('A' for Active; 'I' for Inactive)
ROOT
ATOM      1  C   UNL d   1       1.628  -3.381  -1.604  0.00  0.00     0.124 A 
ATOM      2  C1  UNL d   1       1.429  -2.293  -2.443  0.00  0.00     0.062 A 
ATOM      3  C2  UNL d   1       2.000  -1.061  -2.138  0.00  0.00     0.162 A 
ATOM      4  C3  UNL d   1       2.776  -0.909  -0.989  0.00  0.00    -0.034 A 
ATOM      5  C4  UNL d   1       2.971  -2.008  -0.150  0.00  0.00     0.162 A 
ATOM      6  C5  UNL d   1       2.399  -3.237  -0.458  0.00  0.00     0.062 A 
ATOM      7  F   UNL d   1       2.592  -4.287   0.353  0.00  0.00    -0.097 F 
ATOM      8  F1  UNL d   1       3.712  -1.897   0.963  0.00  0.00    -0.096 F 
ATOM      9  I   UNL d   1       3.631   0.932  -0.531  0.00  0.00    -0.060 I 
ATOM     10  F2  UNL d   1       1.791  -0.027  -2.967  0.00  0.00    -0.096 F 
ATOM     11  F3  UNL d   1       0.684  -2.429  -3.549  0.00  0.00    -0.097 F 
ATOM     12  F4  UNL d   1       1.077  -4.565  -1.898  0.00  0.00    -0.092 F 
ENDROOT
TORSDOF 0
ENDMDL
