MODEL 1
REMARK minimizedAffinity 24.1208572
REMARK minimizedRMSD -1
REMARK  0 active torsions:
REMARK  status: ('A' for Active; 'I' for Inactive)
ROOT
ATOM      1  C   UNL d   1      -2.096   2.638   1.929  0.00  0.00     0.124 A 
ATOM      2  C1  UNL d   1      -1.526   2.739   3.190  0.00  0.00     0.062 A 
ATOM      3  C2  UNL d   1      -1.654   1.694   4.102  0.00  0.00     0.162 A 
ATOM      4  C3  UNL d   1      -2.355   0.539   3.754  0.00  0.00    -0.034 A 
ATOM      5  C4  UNL d   1      -2.927   0.446   2.484  0.00  0.00     0.162 A 
ATOM      6  C5  UNL d   1      -2.796   1.492   1.577  0.00  0.00     0.062 A 
ATOM      7  F   UNL d   1      -3.347   1.394   0.359  0.00  0.00    -0.097 F 
ATOM      8  F1  UNL d   1      -3.607  -0.650   2.118  0.00  0.00    -0.096 F 
ATOM      9  I   UNL d   1      -2.549  -1.024   5.114  0.00  0.00    -0.060 I 
ATOM     10  F2  UNL d   1      -1.093   1.819   5.313  0.00  0.00    -0.096 F 
ATOM     11  F3  UNL d   1      -0.851   3.845   3.533  0.00  0.00    -0.097 F 
ATOM     12  F4  UNL d   1      -1.972   3.645   1.054  0.00  0.00    -0.092 F 
ENDROOT
TORSDOF 0
ENDMDL
