MODEL 1
REMARK minimizedAffinity 12.2139654
REMARK minimizedRMSD -1
REMARK  0 active torsions:
REMARK  status: ('A' for Active; 'I' for Inactive)
ROOT
ATOM      1  C   UNL d   1      -6.000  -1.127  -1.029  0.00  0.00     0.077 C 
ATOM      2  C1  UNL d   1      -4.832  -0.846  -0.132  0.00  0.00    -0.074 A 
ATOM      3  C2  UNL d   1      -4.431   0.466   0.138  0.00  0.00    -0.005 A 
ATOM      4  C3  UNL d   1      -3.349   0.712   0.982  0.00  0.00     0.006 A 
ATOM      5  C4  UNL d   1      -2.657  -0.351   1.565  0.00  0.00    -0.005 A 
ATOM      6  C5  UNL d   1      -3.044  -1.670   1.308  0.00  0.00    -0.074 A 
ATOM      7  C6  UNL d   1      -2.317  -2.823   1.934  0.00  0.00     0.077 C 
ATOM      8  C7  UNL d   1      -4.137  -1.908   0.464  0.00  0.00    -0.001 A 
ENDROOT
TORSDOF 0
ENDMDL
