MODEL 1
REMARK minimizedAffinity -1.47070837
REMARK minimizedRMSD -1
REMARK  0 active torsions:
REMARK  status: ('A' for Active; 'I' for Inactive)
ROOT
ATOM      1  C   UNL d   1       2.310  -5.497   5.999  0.00  0.00     0.077 C 
ATOM      2  C1  UNL d   1       1.194  -4.496   5.992  0.00  0.00    -0.074 A 
ATOM      3  C2  UNL d   1      -0.143  -4.909   5.996  0.00  0.00    -0.005 A 
ATOM      4  C3  UNL d   1      -1.170  -3.966   5.999  0.00  0.00     0.006 A 
ATOM      5  C4  UNL d   1      -0.873  -2.603   5.997  0.00  0.00    -0.005 A 
ATOM      6  C5  UNL d   1       0.457  -2.171   5.993  0.00  0.00    -0.074 A 
ATOM      7  C6  UNL d   1       0.794  -0.709   6.000  0.00  0.00     0.077 C 
ATOM      8  C7  UNL d   1       1.484  -3.125   5.997  0.00  0.00    -0.001 A 
ENDROOT
TORSDOF 0
ENDMDL
