MODEL 1
REMARK minimizedAffinity 2.31445074
REMARK minimizedRMSD -1
REMARK  0 active torsions:
REMARK  status: ('A' for Active; 'I' for Inactive)
ROOT
ATOM      1  C   UNL d   1      -0.838  -2.343  -2.072  0.00  0.00     0.077 C 
ATOM      2  C1  UNL d   1      -0.224  -1.384  -1.097  0.00  0.00    -0.074 A 
ATOM      3  C2  UNL d   1      -0.984  -0.365  -0.514  0.00  0.00    -0.005 A 
ATOM      4  C3  UNL d   1      -0.401   0.514   0.399  0.00  0.00     0.006 A 
ATOM      5  C4  UNL d   1       0.946   0.383   0.738  0.00  0.00    -0.005 A 
ATOM      6  C5  UNL d   1       1.722  -0.630   0.166  0.00  0.00    -0.074 A 
ATOM      7  C6  UNL d   1       3.169  -0.791   0.527  0.00  0.00     0.077 C 
ATOM      8  C7  UNL d   1       1.127  -1.514  -0.745  0.00  0.00    -0.001 A 
ENDROOT
TORSDOF 0
ENDMDL
