MODEL 1
REMARK minimizedAffinity 2.12844825
REMARK minimizedRMSD -1
REMARK  0 active torsions:
REMARK  status: ('A' for Active; 'I' for Inactive)
ROOT
ATOM      1  C   UNL d   1       0.572  -1.470   5.946  0.00  0.00     0.077 C 
ATOM      2  C1  UNL d   1       0.485  -2.967   5.970  0.00  0.00    -0.074 A 
ATOM      3  C2  UNL d   1      -0.755  -3.615   5.970  0.00  0.00    -0.005 A 
ATOM      4  C3  UNL d   1      -0.820  -5.008   5.982  0.00  0.00     0.006 A 
ATOM      5  C4  UNL d   1       0.351  -5.766   5.995  0.00  0.00    -0.005 A 
ATOM      6  C5  UNL d   1       1.599  -5.136   5.994  0.00  0.00    -0.074 A 
ATOM      7  C6  UNL d   1       2.868  -5.936   5.998  0.00  0.00     0.077 C 
ATOM      8  C7  UNL d   1       1.657  -3.736   5.974  0.00  0.00    -0.001 A 
ENDROOT
TORSDOF 0
ENDMDL
