MODEL 1
REMARK minimizedAffinity 0.371275961
REMARK minimizedRMSD -1
REMARK  0 active torsions:
REMARK  status: ('A' for Active; 'I' for Inactive)
ROOT
ATOM      1  C   UNL d   1       0.530  -0.413   5.985  0.00  0.00     0.077 C 
ATOM      2  C1  UNL d   1       0.346  -1.902   5.997  0.00  0.00    -0.074 A 
ATOM      3  C2  UNL d   1      -0.933  -2.468   5.999  0.00  0.00    -0.005 A 
ATOM      4  C3  UNL d   1      -1.088  -3.854   6.000  0.00  0.00     0.006 A 
ATOM      5  C4  UNL d   1       0.031  -4.687   5.999  0.00  0.00    -0.005 A 
ATOM      6  C5  UNL d   1       1.318  -4.139   5.996  0.00  0.00    -0.074 A 
ATOM      7  C6  UNL d   1       2.532  -5.019   5.985  0.00  0.00     0.077 C 
ATOM      8  C7  UNL d   1       1.466  -2.745   5.988  0.00  0.00    -0.001 A 
ENDROOT
TORSDOF 0
ENDMDL
