MODEL 1
REMARK minimizedAffinity 1.59847748
REMARK minimizedRMSD -1
REMARK  0 active torsions:
REMARK  status: ('A' for Active; 'I' for Inactive)
ROOT
ATOM      1  C   UNL d   1       0.396  -1.492   5.960  0.00  0.00     0.077 C 
ATOM      2  C1  UNL d   1       0.509  -2.987   5.967  0.00  0.00    -0.074 A 
ATOM      3  C2  UNL d   1       1.760  -3.613   5.984  0.00  0.00    -0.005 A 
ATOM      4  C3  UNL d   1       1.850  -5.005   5.999  0.00  0.00     0.006 A 
ATOM      5  C4  UNL d   1       0.692  -5.784   5.998  0.00  0.00    -0.005 A 
ATOM      6  C5  UNL d   1      -0.567  -5.176   5.982  0.00  0.00    -0.074 A 
ATOM      7  C6  UNL d   1      -1.821  -5.998   5.990  0.00  0.00     0.077 C 
ATOM      8  C7  UNL d   1      -0.649  -3.777   5.973  0.00  0.00    -0.001 A 
ENDROOT
TORSDOF 0
ENDMDL
