MODEL 1
REMARK minimizedAffinity -1.02164841
REMARK minimizedRMSD -1
REMARK  0 active torsions:
REMARK  status: ('A' for Active; 'I' for Inactive)
ROOT
ATOM      1  C   UNL d   1       2.630  -5.683   6.000  0.00  0.00     0.077 C 
ATOM      2  C1  UNL d   1       1.443  -4.767   5.992  0.00  0.00    -0.074 A 
ATOM      3  C2  UNL d   1       0.141  -5.278   5.996  0.00  0.00    -0.005 A 
ATOM      4  C3  UNL d   1      -0.954  -4.413   5.998  0.00  0.00     0.006 A 
ATOM      5  C4  UNL d   1      -0.758  -3.032   5.995  0.00  0.00    -0.005 A 
ATOM      6  C5  UNL d   1       0.536  -2.503   5.992  0.00  0.00    -0.074 A 
ATOM      7  C6  UNL d   1       0.764  -1.020   5.999  0.00  0.00     0.077 C 
ATOM      8  C7  UNL d   1       1.631  -3.378   5.997  0.00  0.00    -0.001 A 
ENDROOT
TORSDOF 0
ENDMDL
