MODEL 1
REMARK minimizedAffinity 2.5009501
REMARK minimizedRMSD -1
REMARK  0 active torsions:
REMARK  status: ('A' for Active; 'I' for Inactive)
ROOT
ATOM      1  C   UNL d   1       0.313  -0.337   6.000  0.00  0.00     0.077 C 
ATOM      2  C1  UNL d   1       0.607  -1.808   5.992  0.00  0.00    -0.074 A 
ATOM      3  C2  UNL d   1       1.925  -2.277   5.997  0.00  0.00    -0.005 A 
ATOM      4  C3  UNL d   1       2.184  -3.648   6.000  0.00  0.00     0.006 A 
ATOM      5  C4  UNL d   1       1.129  -4.562   5.997  0.00  0.00    -0.005 A 
ATOM      6  C5  UNL d   1      -0.195  -4.111   5.992  0.00  0.00    -0.074 A 
ATOM      7  C6  UNL d   1      -1.340  -5.080   5.999  0.00  0.00     0.077 C 
ATOM      8  C7  UNL d   1      -0.446  -2.732   5.997  0.00  0.00    -0.001 A 
ENDROOT
TORSDOF 0
ENDMDL
