MODEL 1
REMARK minimizedAffinity 7.83961105
REMARK minimizedRMSD -1
REMARK  0 active torsions:
REMARK  status: ('A' for Active; 'I' for Inactive)
ROOT
ATOM      1  C   UNL d   1      -6.000  -1.507  -1.906  0.00  0.00     0.077 C 
ATOM      2  C1  UNL d   1      -5.349  -0.715  -0.811  0.00  0.00    -0.074 A 
ATOM      3  C2  UNL d   1      -4.146  -1.137  -0.235  0.00  0.00    -0.005 A 
ATOM      4  C3  UNL d   1      -3.548  -0.385   0.776  0.00  0.00     0.006 A 
ATOM      5  C4  UNL d   1      -4.146   0.795   1.221  0.00  0.00    -0.005 A 
ATOM      6  C5  UNL d   1      -5.348   1.233   0.657  0.00  0.00    -0.074 A 
ATOM      7  C6  UNL d   1      -5.999   2.504   1.117  0.00  0.00     0.077 C 
ATOM      8  C7  UNL d   1      -5.940   0.475  -0.364  0.00  0.00    -0.001 A 
ENDROOT
TORSDOF 0
ENDMDL
