MODEL 1
REMARK minimizedAffinity 1.77500808
REMARK minimizedRMSD -1
REMARK  0 active torsions:
REMARK  status: ('A' for Active; 'I' for Inactive)
ROOT
ATOM      1  C   UNL d   1       1.142  -1.406   5.988  0.00  0.00     0.077 C 
ATOM      2  C1  UNL d   1       0.971  -2.896   5.998  0.00  0.00    -0.074 A 
ATOM      3  C2  UNL d   1      -0.303  -3.473   5.995  0.00  0.00    -0.005 A 
ATOM      4  C3  UNL d   1      -0.446  -4.860   5.994  0.00  0.00     0.006 A 
ATOM      5  C4  UNL d   1       0.681  -5.683   5.996  0.00  0.00    -0.005 A 
ATOM      6  C5  UNL d   1       1.962  -5.124   5.997  0.00  0.00    -0.074 A 
ATOM      7  C6  UNL d   1       3.184  -5.994   5.989  0.00  0.00     0.077 C 
ATOM      8  C7  UNL d   1       2.098  -3.729   5.991  0.00  0.00    -0.001 A 
ENDROOT
TORSDOF 0
ENDMDL
