MODEL 1
REMARK minimizedAffinity 9.58713245
REMARK minimizedRMSD -1
REMARK  0 active torsions:
REMARK  status: ('A' for Active; 'I' for Inactive)
ROOT
ATOM      1  C   UNL d   1       4.160   2.285   5.946  0.00  0.00     0.124 A 
ATOM      2  C1  UNL d   1       4.564   3.613   5.955  0.00  0.00     0.062 A 
ATOM      3  C2  UNL d   1       3.617   4.633   5.968  0.00  0.00     0.162 A 
ATOM      4  C3  UNL d   1       2.256   4.329   5.973  0.00  0.00    -0.034 A 
ATOM      5  C4  UNL d   1       1.857   2.991   5.963  0.00  0.00     0.162 A 
ATOM      6  C5  UNL d   1       2.807   1.976   5.950  0.00  0.00     0.062 A 
ATOM      7  F   UNL d   1       2.415   0.694   5.941  0.00  0.00    -0.097 F 
ATOM      8  F1  UNL d   1       0.556   2.664   5.967  0.00  0.00    -0.096 F 
ATOM      9  I   UNL d   1       0.837   5.851   5.993  0.00  0.00    -0.060 I 
ATOM     10  F2  UNL d   1       4.037   5.907   5.977  0.00  0.00    -0.096 F 
ATOM     11  F3  UNL d   1       5.871   3.915   5.951  0.00  0.00    -0.097 F 
ATOM     12  F4  UNL d   1       5.074   1.306   5.932  0.00  0.00    -0.092 F 
ENDROOT
TORSDOF 0
ENDMDL
