MODEL 1
REMARK minimizedAffinity -1.46337712
REMARK minimizedRMSD -1
REMARK  0 active torsions:
REMARK  status: ('A' for Active; 'I' for Inactive)
ROOT
ATOM      1  C   UNL d   1       4.624   2.377   5.411  0.00  0.00     0.124 A 
ATOM      2  C1  UNL d   1       4.784   3.755   5.364  0.00  0.00     0.062 A 
ATOM      3  C2  UNL d   1       3.685   4.594   5.531  0.00  0.00     0.162 A 
ATOM      4  C3  UNL d   1       2.417   4.056   5.748  0.00  0.00    -0.034 A 
ATOM      5  C4  UNL d   1       2.264   2.669   5.793  0.00  0.00     0.162 A 
ATOM      6  C5  UNL d   1       3.365   1.836   5.625  0.00  0.00     0.062 A 
ATOM      7  F   UNL d   1       3.208   0.505   5.671  0.00  0.00    -0.097 F 
ATOM      8  F1  UNL d   1       1.058   2.119   6.000  0.00  0.00    -0.096 F 
ATOM      9  I   UNL d   1       0.771   5.306   5.998  0.00  0.00    -0.060 I 
ATOM     10  F2  UNL d   1       3.869   5.921   5.480  0.00  0.00    -0.096 F 
ATOM     11  F3  UNL d   1       6.000   4.281   5.156  0.00  0.00    -0.097 F 
ATOM     12  F4  UNL d   1       5.683   1.573   5.249  0.00  0.00    -0.092 F 
ENDROOT
TORSDOF 0
ENDMDL
