MODEL 1
REMARK minimizedAffinity 16.5822811
REMARK minimizedRMSD -1
REMARK  0 active torsions:
REMARK  status: ('A' for Active; 'I' for Inactive)
ROOT
ATOM      1  C   UNL d   1       5.084   1.795   2.031  0.00  0.00     0.124 A 
ATOM      2  C1  UNL d   1       4.230   2.274   3.015  0.00  0.00     0.062 A 
ATOM      3  C2  UNL d   1       3.276   1.434   3.583  0.00  0.00     0.162 A 
ATOM      4  C3  UNL d   1       3.172   0.106   3.169  0.00  0.00    -0.034 A 
ATOM      5  C4  UNL d   1       4.034  -0.368   2.179  0.00  0.00     0.162 A 
ATOM      6  C5  UNL d   1       4.985   0.476   1.614  0.00  0.00     0.062 A 
ATOM      7  F   UNL d   1       5.810   0.012   0.663  0.00  0.00    -0.097 F 
ATOM      8  F1  UNL d   1       3.961  -1.639   1.757  0.00  0.00    -0.096 F 
ATOM      9  I   UNL d   1       1.748  -1.153   4.016  0.00  0.00    -0.060 I 
ATOM     10  F2  UNL d   1       2.464   1.923   4.532  0.00  0.00    -0.096 F 
ATOM     11  F3  UNL d   1       4.323   3.549   3.419  0.00  0.00    -0.097 F 
ATOM     12  F4  UNL d   1       6.000   2.606   1.486  0.00  0.00    -0.092 F 
ENDROOT
TORSDOF 0
ENDMDL
