MODEL 1
REMARK minimizedAffinity 10.2780247
REMARK minimizedRMSD -1
REMARK  0 active torsions:
REMARK  status: ('A' for Active; 'I' for Inactive)
ROOT
ATOM      1  C   UNL d   1       2.165  -2.669  -0.968  0.00  0.00     0.124 A 
ATOM      2  C1  UNL d   1       2.381  -2.071   0.266  0.00  0.00     0.062 A 
ATOM      3  C2  UNL d   1       2.958  -0.807   0.340  0.00  0.00     0.162 A 
ATOM      4  C3  UNL d   1       3.322  -0.130  -0.824  0.00  0.00    -0.034 A 
ATOM      5  C4  UNL d   1       3.102  -0.737  -2.062  0.00  0.00     0.162 A 
ATOM      6  C5  UNL d   1       2.526  -2.001  -2.131  0.00  0.00     0.062 A 
ATOM      7  F   UNL d   1       2.318  -2.577  -3.324  0.00  0.00    -0.097 F 
ATOM      8  F1  UNL d   1       3.440  -0.115  -3.201  0.00  0.00    -0.096 F 
ATOM      9  I   UNL d   1       4.185   1.761  -0.718  0.00  0.00    -0.060 I 
ATOM     10  F2  UNL d   1       3.155  -0.253   1.546  0.00  0.00    -0.096 F 
ATOM     11  F3  UNL d   1       2.035  -2.714   1.390  0.00  0.00    -0.097 F 
ATOM     12  F4  UNL d   1       1.611  -3.886  -1.037  0.00  0.00    -0.092 F 
ENDROOT
TORSDOF 0
ENDMDL
