MODEL 1
REMARK minimizedAffinity 12.0199022
REMARK minimizedRMSD -1
REMARK  0 active torsions:
REMARK  status: ('A' for Active; 'I' for Inactive)
ROOT
ATOM      1  C   UNL d   1      -2.747   0.173   0.160  0.00  0.00     0.124 A 
ATOM      2  C1  UNL d   1      -2.020  -0.078  -0.996  0.00  0.00     0.062 A 
ATOM      3  C2  UNL d   1      -2.631   0.019  -2.242  0.00  0.00     0.162 A 
ATOM      4  C3  UNL d   1      -3.978   0.369  -2.341  0.00  0.00    -0.034 A 
ATOM      5  C4  UNL d   1      -4.702   0.620  -1.174  0.00  0.00     0.162 A 
ATOM      6  C5  UNL d   1      -4.087   0.522   0.070  0.00  0.00     0.062 A 
ATOM      7  F   UNL d   1      -4.791   0.765   1.185  0.00  0.00    -0.097 F 
ATOM      8  F1  UNL d   1      -5.999   0.959  -1.232  0.00  0.00    -0.096 F 
ATOM      9  I   UNL d   1      -4.896   0.515  -4.203  0.00  0.00    -0.060 I 
ATOM     10  F2  UNL d   1      -1.904  -0.230  -3.342  0.00  0.00    -0.096 F 
ATOM     11  F3  UNL d   1      -0.725  -0.416  -0.911  0.00  0.00    -0.097 F 
ATOM     12  F4  UNL d   1      -2.156   0.079   1.358  0.00  0.00    -0.092 F 
ENDROOT
TORSDOF 0
ENDMDL
