MODEL 1
REMARK minimizedAffinity 24.3747864
REMARK minimizedRMSD -1
REMARK  0 active torsions:
REMARK  status: ('A' for Active; 'I' for Inactive)
ROOT
ATOM      1  C   UNL d   1       5.244   3.944   2.738  0.00  0.00     0.124 A 
ATOM      2  C1  UNL d   1       4.827   2.648   2.466  0.00  0.00     0.062 A 
ATOM      3  C2  UNL d   1       4.044   1.957   3.387  0.00  0.00     0.162 A 
ATOM      4  C3  UNL d   1       3.672   2.561   4.588  0.00  0.00    -0.034 A 
ATOM      5  C4  UNL d   1       4.095   3.864   4.854  0.00  0.00     0.162 A 
ATOM      6  C5  UNL d   1       4.878   4.551   3.931  0.00  0.00     0.062 A 
ATOM      7  F   UNL d   1       5.279   5.803   4.195  0.00  0.00    -0.097 F 
ATOM      8  F1  UNL d   1       3.755   4.475   5.999  0.00  0.00    -0.096 F 
ATOM      9  I   UNL d   1       2.501   1.532   5.967  0.00  0.00    -0.060 I 
ATOM     10  F2  UNL d   1       3.656   0.706   3.098  0.00  0.00    -0.096 F 
ATOM     11  F3  UNL d   1       5.180   2.059   1.315  0.00  0.00    -0.097 F 
ATOM     12  F4  UNL d   1       5.998   4.606   1.851  0.00  0.00    -0.092 F 
ENDROOT
TORSDOF 0
ENDMDL
