MODEL 1
REMARK minimizedAffinity -3.00726056
REMARK minimizedRMSD -1
REMARK  0 active torsions:
REMARK  status: ('A' for Active; 'I' for Inactive)
ROOT
ATOM      1  C   UNL d   1      -1.577   0.762   0.394  0.00  0.00     0.078 C 
ATOM      2  C1  UNL d   1      -0.373  -0.071   0.072  0.00  0.00    -0.077 A 
ATOM      3  C2  UNL d   1       0.847   0.525  -0.270  0.00  0.00    -0.001 A 
ATOM      4  C3  UNL d   1       1.957  -0.264  -0.577  0.00  0.00     0.003 A 
ATOM      5  C4  UNL d   1       1.858  -1.653  -0.547  0.00  0.00    -0.005 A 
ATOM      6  C5  UNL d   1       0.648  -2.256  -0.210  0.00  0.00     0.003 A 
ATOM      7  C6  UNL d   1      -0.463  -1.469   0.097  0.00  0.00    -0.001 A 
ENDROOT
TORSDOF 0
ENDMDL
