MODEL 1
REMARK minimizedAffinity -3.9275496
REMARK minimizedRMSD -1
REMARK  0 active torsions:
REMARK  status: ('A' for Active; 'I' for Inactive)
ROOT
ATOM      1  C   UNL d   1      -1.028   0.311  -0.010  0.00  0.00     0.078 C 
ATOM      2  C1  UNL d   1       0.462   0.152  -0.075  0.00  0.00    -0.077 A 
ATOM      3  C2  UNL d   1       1.046  -1.112  -0.225  0.00  0.00    -0.001 A 
ATOM      4  C3  UNL d   1       2.434  -1.246  -0.275  0.00  0.00     0.003 A 
ATOM      5  C4  UNL d   1       3.250  -0.121  -0.174  0.00  0.00    -0.005 A 
ATOM      6  C5  UNL d   1       2.678   1.140  -0.023  0.00  0.00     0.003 A 
ATOM      7  C6  UNL d   1       1.289   1.277   0.027  0.00  0.00    -0.001 A 
ENDROOT
TORSDOF 0
ENDMDL
