MODEL 1
REMARK minimizedAffinity -3.53922272
REMARK minimizedRMSD -1
REMARK  0 active torsions:
REMARK  status: ('A' for Active; 'I' for Inactive)
ROOT
ATOM      1  C   UNL d   1      -1.675   0.636  -0.139  0.00  0.00     0.078 C 
ATOM      2  C1  UNL d   1      -0.523  -0.323  -0.165  0.00  0.00    -0.077 A 
ATOM      3  C2  UNL d   1       0.800   0.138  -0.158  0.00  0.00    -0.001 A 
ATOM      4  C3  UNL d   1       1.862  -0.766  -0.193  0.00  0.00     0.003 A 
ATOM      5  C4  UNL d   1       1.614  -2.137  -0.234  0.00  0.00    -0.005 A 
ATOM      6  C5  UNL d   1       0.302  -2.605  -0.243  0.00  0.00     0.003 A 
ATOM      7  C6  UNL d   1      -0.762  -1.702  -0.209  0.00  0.00    -0.001 A 
ENDROOT
TORSDOF 0
ENDMDL
