MODEL 1
REMARK minimizedAffinity -2.99714279
REMARK minimizedRMSD -1
REMARK  0 active torsions:
REMARK  status: ('A' for Active; 'I' for Inactive)
ROOT
ATOM      1  C   UNL d   1       2.405  -1.863  -0.426  0.00  0.00     0.078 C 
ATOM      2  C1  UNL d   1       1.086  -1.150  -0.455  0.00  0.00    -0.077 A 
ATOM      3  C2  UNL d   1      -0.096  -1.832  -0.769  0.00  0.00    -0.001 A 
ATOM      4  C3  UNL d   1      -1.315  -1.153  -0.802  0.00  0.00     0.003 A 
ATOM      5  C4  UNL d   1      -1.364   0.211  -0.522  0.00  0.00    -0.005 A 
ATOM      6  C5  UNL d   1      -0.193   0.899  -0.211  0.00  0.00     0.003 A 
ATOM      7  C6  UNL d   1       1.027   0.222  -0.178  0.00  0.00    -0.001 A 
ENDROOT
TORSDOF 0
ENDMDL
