MODEL 1
REMARK minimizedAffinity -3.48274446
REMARK minimizedRMSD -1
REMARK  0 active torsions:
REMARK  status: ('A' for Active; 'I' for Inactive)
ROOT
ATOM      1  C   UNL d   1      -0.762   0.475   0.002  0.00  0.00     0.078 C 
ATOM      2  C1  UNL d   1       0.687   0.093  -0.060  0.00  0.00    -0.077 A 
ATOM      3  C2  UNL d   1       1.074  -1.243  -0.220  0.00  0.00    -0.001 A 
ATOM      4  C3  UNL d   1       2.426  -1.585  -0.267  0.00  0.00     0.003 A 
ATOM      5  C4  UNL d   1       3.402  -0.597  -0.152  0.00  0.00    -0.005 A 
ATOM      6  C5  UNL d   1       3.027   0.735   0.011  0.00  0.00     0.003 A 
ATOM      7  C6  UNL d   1       1.675   1.079   0.057  0.00  0.00    -0.001 A 
ENDROOT
TORSDOF 0
ENDMDL
