MODEL 1
REMARK minimizedAffinity -3.65134311
REMARK minimizedRMSD -1
REMARK  0 active torsions:
REMARK  status: ('A' for Active; 'I' for Inactive)
ROOT
ATOM      1  C   UNL d   1       3.724  -1.419   0.117  0.00  0.00     0.078 C 
ATOM      2  C1  UNL d   1       2.301  -1.142  -0.266  0.00  0.00    -0.077 A 
ATOM      3  C2  UNL d   1       1.477  -2.159  -0.764  0.00  0.00    -0.001 A 
ATOM      4  C3  UNL d   1       0.158  -1.884  -1.126  0.00  0.00     0.003 A 
ATOM      5  C4  UNL d   1      -0.350  -0.593  -0.995  0.00  0.00    -0.005 A 
ATOM      6  C5  UNL d   1       0.464   0.426  -0.502  0.00  0.00     0.003 A 
ATOM      7  C6  UNL d   1       1.784   0.153  -0.140  0.00  0.00    -0.001 A 
ENDROOT
TORSDOF 0
ENDMDL
