MODEL 1
REMARK minimizedAffinity 3.69877672
REMARK minimizedRMSD -1
REMARK  0 active torsions:
REMARK  status: ('A' for Active; 'I' for Inactive)
ROOT
ATOM      1  C4' PXY d   1       5.934  -6.000  -6.000  0.00  0.00     0.077 C 
ATOM      2  C1' PXY d   1       1.624  -3.012  -3.569  0.00  0.00     0.077 C 
ATOM      3  C1  PXY d   1       2.753  -3.805  -4.197  0.00  0.00    -0.082 A 
ATOM      4  C2  PXY d   1       3.649  -3.184  -4.947  0.00  0.00     0.003 A 
ATOM      5  C3  PXY d   1       4.659  -3.891  -5.549  0.00  0.00     0.003 A 
ATOM      6  C4  PXY d   1       4.782  -5.238  -5.338  0.00  0.00    -0.082 A 
ATOM      7  C5  PXY d   1       3.878  -5.876  -4.565  0.00  0.00     0.003 A 
ATOM      8  C6  PXY d   1       2.837  -5.148  -3.997  0.00  0.00     0.003 A 
ENDROOT
TORSDOF 0
ENDMDL
