MODEL 1
REMARK minimizedAffinity 3.60932803
REMARK minimizedRMSD -1
REMARK  0 active torsions:
REMARK  status: ('A' for Active; 'I' for Inactive)
ROOT
ATOM      1  C4' PXY d   1      -0.304  -1.937  -3.351  0.00  0.00     0.077 C 
ATOM      2  C1' PXY d   1      -0.091   1.961   0.912  0.00  0.00     0.077 C 
ATOM      3  C1  PXY d   1      -0.160   0.940  -0.206  0.00  0.00    -0.082 A 
ATOM      4  C2  PXY d   1       0.811   0.052  -0.342  0.00  0.00     0.003 A 
ATOM      5  C3  PXY d   1       0.781  -0.858  -1.367  0.00  0.00     0.003 A 
ATOM      6  C4  PXY d   1      -0.281  -0.894  -2.231  0.00  0.00    -0.082 A 
ATOM      7  C5  PXY d   1      -1.281   0.002  -2.092  0.00  0.00     0.003 A 
ATOM      8  C6  PXY d   1      -1.211   0.944  -1.070  0.00  0.00     0.003 A 
ENDROOT
TORSDOF 0
ENDMDL
