MODEL 1
REMARK minimizedAffinity -3.05266237
REMARK minimizedRMSD -1
REMARK  0 active torsions:
REMARK  status: ('A' for Active; 'I' for Inactive)
ROOT
ATOM      1  C4' PXY d   1       0.207   3.710  -5.999  0.00  0.00     0.077 C 
ATOM      2  C1' PXY d   1       5.902   4.696  -5.978  0.00  0.00     0.077 C 
ATOM      3  C1  PXY d   1       4.406   4.449  -5.979  0.00  0.00    -0.082 A 
ATOM      4  C2  PXY d   1       3.948   3.208  -5.967  0.00  0.00     0.003 A 
ATOM      5  C3  PXY d   1       2.599   2.966  -5.999  0.00  0.00     0.003 A 
ATOM      6  C4  PXY d   1       1.709   4.006  -5.990  0.00  0.00    -0.082 A 
ATOM      7  C5  PXY d   1       2.168   5.276  -5.991  0.00  0.00     0.003 A 
ATOM      8  C6  PXY d   1       3.542   5.500  -6.000  0.00  0.00     0.003 A 
ENDROOT
TORSDOF 0
ENDMDL
