MODEL 1
REMARK minimizedAffinity 6.48656607
REMARK minimizedRMSD -1
REMARK  0 active torsions:
REMARK  status: ('A' for Active; 'I' for Inactive)
ROOT
ATOM      1  C4' PXY d   1       0.848  -0.677   0.786  0.00  0.00     0.077 C 
ATOM      2  C1' PXY d   1      -4.294   1.891   0.167  0.00  0.00     0.077 C 
ATOM      3  C1  PXY d   1      -2.941   1.229   0.334  0.00  0.00    -0.082 A 
ATOM      4  C2  PXY d   1      -2.648   0.151  -0.375  0.00  0.00     0.003 A 
ATOM      5  C3  PXY d   1      -1.441  -0.479  -0.214  0.00  0.00     0.003 A 
ATOM      6  C4  PXY d   1      -0.503   0.030   0.644  0.00  0.00    -0.082 A 
ATOM      7  C5  PXY d   1      -0.790   1.136   1.363  0.00  0.00     0.003 A 
ATOM      8  C6  PXY d   1      -2.036   1.737   1.215  0.00  0.00     0.003 A 
ENDROOT
TORSDOF 0
ENDMDL
