MODEL 1
REMARK minimizedAffinity -0.963396966
REMARK minimizedRMSD -1
REMARK  0 active torsions:
REMARK  status: ('A' for Active; 'I' for Inactive)
ROOT
ATOM      1  C4' PXY d   1       3.190   4.595  -5.878  0.00  0.00     0.077 C 
ATOM      2  C1' PXY d   1      -2.580   4.254  -5.900  0.00  0.00     0.077 C 
ATOM      3  C1  PXY d   1      -1.068   4.354  -5.901  0.00  0.00    -0.082 A 
ATOM      4  C2  PXY d   1      -0.339   3.254  -5.805  0.00  0.00     0.003 A 
ATOM      5  C3  PXY d   1       1.030   3.330  -5.771  0.00  0.00     0.003 A 
ATOM      6  C4  PXY d   1       1.660   4.540  -5.891  0.00  0.00    -0.082 A 
ATOM      7  C5  PXY d   1       0.924   5.666  -6.000  0.00  0.00     0.003 A 
ATOM      8  C6  PXY d   1      -0.465   5.571  -5.990  0.00  0.00     0.003 A 
ENDROOT
TORSDOF 0
ENDMDL
