MODEL 1
REMARK minimizedAffinity -1.00989318
REMARK minimizedRMSD -1
REMARK  0 active torsions:
REMARK  status: ('A' for Active; 'I' for Inactive)
ROOT
ATOM      1  C4' PXY d   1      -2.460   3.008  -5.979  0.00  0.00     0.077 C 
ATOM      2  C1' PXY d   1       2.493   5.988  -6.000  0.00  0.00     0.077 C 
ATOM      3  C1  PXY d   1       1.200   5.196  -6.000  0.00  0.00    -0.082 A 
ATOM      4  C2  PXY d   1       0.042   5.836  -5.999  0.00  0.00     0.003 A 
ATOM      5  C3  PXY d   1      -1.137   5.135  -5.967  0.00  0.00     0.003 A 
ATOM      6  C4  PXY d   1      -1.130   3.766  -5.989  0.00  0.00    -0.082 A 
ATOM      7  C5  PXY d   1       0.048   3.107  -6.000  0.00  0.00     0.003 A 
ATOM      8  C6  PXY d   1       1.233   3.836  -5.991  0.00  0.00     0.003 A 
ENDROOT
TORSDOF 0
ENDMDL
