MODEL 1
REMARK minimizedAffinity -3.94156623
REMARK minimizedRMSD -1
REMARK  0 active torsions:
REMARK  status: ('A' for Active; 'I' for Inactive)
ROOT
ATOM      1  C4' PXY d   1       1.139   2.134  -5.999  0.00  0.00     0.077 C 
ATOM      2  C1' PXY d   1      -3.172   5.984  -5.891  0.00  0.00     0.077 C 
ATOM      3  C1  PXY d   1      -2.034   4.983  -5.924  0.00  0.00    -0.082 A 
ATOM      4  C2  PXY d   1      -2.301   3.690  -5.999  0.00  0.00     0.003 A 
ATOM      5  C3  PXY d   1      -1.285   2.770  -5.997  0.00  0.00     0.003 A 
ATOM      6  C4  PXY d   1       0.021   3.180  -5.973  0.00  0.00    -0.082 A 
ATOM      7  C5  PXY d   1       0.303   4.499  -5.907  0.00  0.00     0.003 A 
ATOM      8  C6  PXY d   1      -0.744   5.415  -5.868  0.00  0.00     0.003 A 
ENDROOT
TORSDOF 0
ENDMDL
