MODEL 1
REMARK minimizedAffinity -0.844406843
REMARK minimizedRMSD -1
REMARK  0 active torsions:
REMARK  status: ('A' for Active; 'I' for Inactive)
ROOT
ATOM      1  C4' PXY d   1       0.267   4.341  -5.984  0.00  0.00     0.077 C 
ATOM      2  C1' PXY d   1       5.997   3.576  -5.988  0.00  0.00     0.077 C 
ATOM      3  C1  PXY d   1       4.493   3.765  -5.992  0.00  0.00    -0.082 A 
ATOM      4  C2  PXY d   1       3.987   4.987  -5.998  0.00  0.00     0.003 A 
ATOM      5  C3  PXY d   1       2.629   5.176  -5.969  0.00  0.00     0.003 A 
ATOM      6  C4  PXY d   1       1.780   4.103  -5.989  0.00  0.00    -0.082 A 
ATOM      7  C5  PXY d   1       2.288   2.852  -5.995  0.00  0.00     0.003 A 
ATOM      8  C6  PXY d   1       3.669   2.681  -5.982  0.00  0.00     0.003 A 
ENDROOT
TORSDOF 0
ENDMDL
