MODEL 1
REMARK minimizedAffinity 0.57619369
REMARK minimizedRMSD -1
REMARK  0 active torsions:
REMARK  status: ('A' for Active; 'I' for Inactive)
ROOT
ATOM      1  C4' PXY d   1       2.651   3.546  -5.995  0.00  0.00     0.077 C 
ATOM      2  C1' PXY d   1      -3.121   3.850  -5.982  0.00  0.00     0.077 C 
ATOM      3  C1  PXY d   1      -1.608   3.758  -5.980  0.00  0.00    -0.082 A 
ATOM      4  C2  PXY d   1      -0.885   4.867  -5.968  0.00  0.00     0.003 A 
ATOM      5  C3  PXY d   1       0.484   4.802  -5.999  0.00  0.00     0.003 A 
ATOM      6  C4  PXY d   1       1.121   3.590  -5.988  0.00  0.00    -0.082 A 
ATOM      7  C5  PXY d   1       0.391   2.455  -5.989  0.00  0.00     0.003 A 
ATOM      8  C6  PXY d   1      -0.998   2.542  -5.999  0.00  0.00     0.003 A 
ENDROOT
TORSDOF 0
ENDMDL
