MODEL 1
REMARK minimizedAffinity -1.77626634
REMARK minimizedRMSD -1
REMARK  0 active torsions:
REMARK  status: ('A' for Active; 'I' for Inactive)
ROOT
ATOM      1  C4' PXY d   1      -0.733   3.606  -5.995  0.00  0.00     0.077 C 
ATOM      2  C1' PXY d   1       4.907   4.876  -5.985  0.00  0.00     0.077 C 
ATOM      3  C1  PXY d   1       3.430   4.531  -5.993  0.00  0.00    -0.082 A 
ATOM      4  C2  PXY d   1       2.532   5.503  -6.000  0.00  0.00     0.003 A 
ATOM      5  C3  PXY d   1       1.193   5.209  -5.975  0.00  0.00     0.003 A 
ATOM      6  C4  PXY d   1       0.769   3.907  -5.996  0.00  0.00    -0.082 A 
ATOM      7  C5  PXY d   1       1.679   2.911  -6.000  0.00  0.00     0.003 A 
ATOM      8  C6  PXY d   1       3.034   3.230  -5.984  0.00  0.00     0.003 A 
ENDROOT
TORSDOF 0
ENDMDL
