MODEL 1
REMARK minimizedAffinity -0.0717798099
REMARK minimizedRMSD -1
REMARK  0 active torsions:
REMARK  status: ('A' for Active; 'I' for Inactive)
ROOT
ATOM      1  C4' PXY d   1      -5.065   4.513  -5.978  0.00  0.00     0.077 C 
ATOM      2  C1' PXY d   1       0.715   4.586  -5.999  0.00  0.00     0.077 C 
ATOM      3  C1  PXY d   1      -0.800   4.555  -5.999  0.00  0.00    -0.082 A 
ATOM      4  C2  PXY d   1      -1.478   5.692  -5.999  0.00  0.00     0.003 A 
ATOM      5  C3  PXY d   1      -2.849   5.682  -5.967  0.00  0.00     0.003 A 
ATOM      6  C4  PXY d   1      -3.534   4.497  -5.988  0.00  0.00    -0.082 A 
ATOM      7  C5  PXY d   1      -2.850   3.333  -5.998  0.00  0.00     0.003 A 
ATOM      8  C6  PXY d   1      -1.458   3.364  -5.989  0.00  0.00     0.003 A 
ENDROOT
TORSDOF 0
ENDMDL
