MODEL 1
REMARK minimizedAffinity 6.54732656
REMARK minimizedRMSD -1
REMARK  0 active torsions:
REMARK  status: ('A' for Active; 'I' for Inactive)
ROOT
ATOM      1  C4' PXY d   1       0.016   5.779  -5.996  0.00  0.00     0.077 C 
ATOM      2  C1' PXY d   1       0.657   0.034  -5.979  0.00  0.00     0.077 C 
ATOM      3  C1  PXY d   1       0.501   1.542  -5.978  0.00  0.00    -0.082 A 
ATOM      4  C2  PXY d   1      -0.711   2.074  -5.965  0.00  0.00     0.003 A 
ATOM      5  C3  PXY d   1      -0.870   3.436  -5.996  0.00  0.00     0.003 A 
ATOM      6  C4  PXY d   1       0.222   4.262  -5.988  0.00  0.00    -0.082 A 
ATOM      7  C5  PXY d   1       1.461   3.727  -5.990  0.00  0.00     0.003 A 
ATOM      8  C6  PXY d   1       1.601   2.342  -6.000  0.00  0.00     0.003 A 
ENDROOT
TORSDOF 0
ENDMDL
