MODEL 1
REMARK minimizedAffinity -1.00643504
REMARK minimizedRMSD -1
REMARK  0 active torsions:
REMARK  status: ('A' for Active; 'I' for Inactive)
ROOT
ATOM      1  C4' PXY d   1      -2.103   6.000  -5.999  0.00  0.00     0.077 C 
ATOM      2  C1' PXY d   1       1.462   3.113  -2.481  0.00  0.00     0.077 C 
ATOM      3  C1  PXY d   1       0.537   3.874  -3.411  0.00  0.00    -0.082 A 
ATOM      4  C2  PXY d   1      -0.659   4.245  -2.984  0.00  0.00     0.003 A 
ATOM      5  C3  PXY d   1      -1.520   4.907  -3.821  0.00  0.00     0.003 A 
ATOM      6  C4  PXY d   1      -1.133   5.238  -5.092  0.00  0.00    -0.082 A 
ATOM      7  C5  PXY d   1       0.090   4.872  -5.532  0.00  0.00     0.003 A 
ATOM      8  C6  PXY d   1       0.934   4.165  -4.679  0.00  0.00     0.003 A 
ENDROOT
TORSDOF 0
ENDMDL
