MODEL 1
REMARK minimizedAffinity 10.6197138
REMARK minimizedRMSD -1
REMARK  0 active torsions:
REMARK  status: ('A' for Active; 'I' for Inactive)
ROOT
ATOM      1  C4' PXY d   1       1.072  -4.112  -1.628  0.00  0.00     0.077 C 
ATOM      2  C1' PXY d   1       3.115   1.294  -1.748  0.00  0.00     0.077 C 
ATOM      3  C1  PXY d   1       2.590  -0.128  -1.709  0.00  0.00    -0.082 A 
ATOM      4  C2  PXY d   1       1.763  -0.545  -2.654  0.00  0.00     0.003 A 
ATOM      5  C3  PXY d   1       1.253  -1.818  -2.617  0.00  0.00     0.003 A 
ATOM      6  C4  PXY d   1       1.635  -2.689  -1.632  0.00  0.00    -0.082 A 
ATOM      7  C5  PXY d   1       2.486  -2.273  -0.670  0.00  0.00     0.003 A 
ATOM      8  C6  PXY d   1       2.960  -0.965  -0.703  0.00  0.00     0.003 A 
ENDROOT
TORSDOF 0
ENDMDL
