MODEL 1
REMARK minimizedAffinity 3.32371068
REMARK minimizedRMSD -1
REMARK  0 active torsions:
REMARK  status: ('A' for Active; 'I' for Inactive)
ROOT
ATOM      1  C4' PXY d   1      -2.201  -5.995  -4.555  0.00  0.00     0.077 C 
ATOM      2  C1' PXY d   1      -4.858  -4.820   0.442  0.00  0.00     0.077 C 
ATOM      3  C1  PXY d   1      -4.172  -5.134  -0.872  0.00  0.00    -0.082 A 
ATOM      4  C2  PXY d   1      -2.851  -5.169  -0.928  0.00  0.00     0.003 A 
ATOM      5  C3  PXY d   1      -2.213  -5.420  -2.116  0.00  0.00     0.003 A 
ATOM      6  C4  PXY d   1      -2.936  -5.691  -3.247  0.00  0.00    -0.082 A 
ATOM      7  C5  PXY d   1      -4.285  -5.668  -3.195  0.00  0.00     0.003 A 
ATOM      8  C6  PXY d   1      -4.913  -5.370  -1.989  0.00  0.00     0.003 A 
ENDROOT
TORSDOF 0
ENDMDL
