MODEL 1
REMARK minimizedAffinity 4.50884676
REMARK minimizedRMSD -1
REMARK  0 active torsions:
REMARK  status: ('A' for Active; 'I' for Inactive)
ROOT
ATOM      1  C4' PXY d   1      -0.852  -3.225   3.302  0.00  0.00     0.077 C 
ATOM      2  C1' PXY d   1      -4.913   0.621   1.843  0.00  0.00     0.077 C 
ATOM      3  C1  PXY d   1      -3.841  -0.386   2.214  0.00  0.00    -0.082 A 
ATOM      4  C2  PXY d   1      -4.122  -1.352   3.074  0.00  0.00     0.003 A 
ATOM      5  C3  PXY d   1      -3.156  -2.251   3.445  0.00  0.00     0.003 A 
ATOM      6  C4  PXY d   1      -1.905  -2.193   2.891  0.00  0.00    -0.082 A 
ATOM      7  C5  PXY d   1      -1.614  -1.216   2.005  0.00  0.00     0.003 A 
ATOM      8  C6  PXY d   1      -2.597  -0.289   1.673  0.00  0.00     0.003 A 
ENDROOT
TORSDOF 0
ENDMDL
