MODEL 1
REMARK minimizedAffinity 0.542026997
REMARK minimizedRMSD -1
REMARK  0 active torsions:
REMARK  status: ('A' for Active; 'I' for Inactive)
ROOT
ATOM      1  C4' PXY d   1      -0.072   4.763  -5.958  0.00  0.00     0.077 C 
ATOM      2  C1' PXY d   1      -5.851   4.816  -5.844  0.00  0.00     0.077 C 
ATOM      3  C1  PXY d   1      -4.335   4.814  -5.878  0.00  0.00    -0.082 A 
ATOM      4  C2  PXY d   1      -3.684   3.664  -5.943  0.00  0.00     0.003 A 
ATOM      5  C3  PXY d   1      -2.313   3.643  -5.943  0.00  0.00     0.003 A 
ATOM      6  C4  PXY d   1      -1.602   4.813  -5.930  0.00  0.00    -0.082 A 
ATOM      7  C5  PXY d   1      -2.259   5.991  -5.876  0.00  0.00     0.003 A 
ATOM      8  C6  PXY d   1      -3.651   5.989  -5.835  0.00  0.00     0.003 A 
ENDROOT
TORSDOF 0
ENDMDL
