MODEL 1
REMARK minimizedAffinity 7.12481689
REMARK minimizedRMSD -1
REMARK  0 active torsions:
REMARK  status: ('A' for Active; 'I' for Inactive)
ROOT
ATOM      1  C4' PXY d   1      -1.795  -0.439   0.966  0.00  0.00     0.077 C 
ATOM      2  C1' PXY d   1      -5.996  -1.636   4.752  0.00  0.00     0.077 C 
ATOM      3  C1  PXY d   1      -4.903  -1.316   3.751  0.00  0.00    -0.082 A 
ATOM      4  C2  PXY d   1      -3.807  -2.057   3.720  0.00  0.00     0.003 A 
ATOM      5  C3  PXY d   1      -2.795  -1.763   2.843  0.00  0.00     0.003 A 
ATOM      6  C4  PXY d   1      -2.928  -0.731   1.953  0.00  0.00    -0.082 A 
ATOM      7  C5  PXY d   1      -4.048   0.023   1.971  0.00  0.00     0.003 A 
ATOM      8  C6  PXY d   1      -5.046  -0.267   2.897  0.00  0.00     0.003 A 
ENDROOT
TORSDOF 0
ENDMDL
