MODEL 1
REMARK minimizedAffinity 2.0415585
REMARK minimizedRMSD -1
REMARK  0 active torsions:
REMARK  status: ('A' for Active; 'I' for Inactive)
ROOT
ATOM      1  C4' PXY d   1       2.376   1.503  -2.574  0.00  0.00     0.077 C 
ATOM      2  C1' PXY d   1      -1.744   1.474   1.480  0.00  0.00     0.077 C 
ATOM      3  C1  PXY d   1      -0.667   1.494   0.413  0.00  0.00    -0.082 A 
ATOM      4  C2  PXY d   1      -0.218   0.353  -0.084  0.00  0.00     0.003 A 
ATOM      5  C3  PXY d   1       0.778   0.351  -1.026  0.00  0.00     0.003 A 
ATOM      6  C4  PXY d   1       1.283   1.531  -1.503  0.00  0.00    -0.082 A 
ATOM      7  C5  PXY d   1       0.822   2.700  -1.008  0.00  0.00     0.003 A 
ATOM      8  C6  PXY d   1      -0.161   2.679  -0.023  0.00  0.00     0.003 A 
ENDROOT
TORSDOF 0
ENDMDL
