MODEL 1
REMARK minimizedAffinity 6.94314003
REMARK minimizedRMSD -1
REMARK  0 active torsions:
REMARK  status: ('A' for Active; 'I' for Inactive)
ROOT
ATOM      1  C4' PXY d   1      -0.969  -0.827  -2.984  0.00  0.00     0.077 C 
ATOM      2  C1' PXY d   1       4.483  -1.787  -1.319  0.00  0.00     0.077 C 
ATOM      3  C1  PXY d   1       3.050  -1.532  -1.744  0.00  0.00    -0.082 A 
ATOM      4  C2  PXY d   1       2.568  -2.137  -2.817  0.00  0.00     0.003 A 
ATOM      5  C3  PXY d   1       1.285  -1.893  -3.233  0.00  0.00     0.003 A 
ATOM      6  C4  PXY d   1       0.469  -1.062  -2.513  0.00  0.00    -0.082 A 
ATOM      7  C5  PXY d   1       0.950  -0.449  -1.411  0.00  0.00     0.003 A 
ATOM      8  C6  PXY d   1       2.268  -0.678  -1.028  0.00  0.00     0.003 A 
ENDROOT
TORSDOF 0
ENDMDL
