MODEL 1
REMARK minimizedAffinity -2.15011549
REMARK minimizedRMSD -1
REMARK  1 active torsions:
REMARK  status: ('A' for Active; 'I' for Inactive)
REMARK    1  A    between atoms: C1_2  and  C2_3 
ROOT
ATOM      1  C2  UNL d   1       5.996   2.409   2.959  0.00  0.00    -0.081 A 
ATOM      2  C3  UNL d   1       6.000   1.168   2.310  0.00  0.00     0.006 A 
ATOM      3  C4  UNL d   1       5.997  -0.017   3.048  0.00  0.00     0.002 A 
ATOM      4  C5  UNL d   1       5.982   0.018   4.447  0.00  0.00    -0.080 A 
ATOM      5  C6  UNL d   1       5.948  -1.247   5.251  0.00  0.00     0.076 C 
ATOM      6  C7  UNL d   1       5.996   1.257   5.095  0.00  0.00     0.002 A 
ATOM      7  C8  UNL d   1       6.000   2.443   4.357  0.00  0.00     0.006 A 
ENDROOT
BRANCH   1   8
ATOM      8  C1  UNL d   1       5.934   3.689   2.165  0.00  0.00     0.054 C 
ATOM      9  C   UNL d   1       5.031   4.713   2.836  0.00  0.00     0.018 C 
ENDBRANCH   1   8
TORSDOF 1
ENDMDL
