MODEL 1
REMARK minimizedAffinity -1.30360186
REMARK minimizedRMSD -1
REMARK  1 active torsions:
REMARK  status: ('A' for Active; 'I' for Inactive)
REMARK    1  A    between atoms: C1_2  and  C2_3 
ROOT
ATOM      1  C2  UNL d   1       5.990   0.130   3.875  0.00  0.00    -0.081 A 
ATOM      2  C3  UNL d   1       5.999   0.809   5.099  0.00  0.00     0.006 A 
ATOM      3  C4  UNL d   1       5.982   2.206   5.134  0.00  0.00     0.002 A 
ATOM      4  C5  UNL d   1       5.947   2.945   3.947  0.00  0.00    -0.080 A 
ATOM      5  C6  UNL d   1       5.897   4.444   3.971  0.00  0.00     0.076 C 
ATOM      6  C7  UNL d   1       5.955   2.266   2.723  0.00  0.00     0.002 A 
ATOM      7  C8  UNL d   1       5.973   0.870   2.688  0.00  0.00     0.006 A 
ENDROOT
BRANCH   1   8
ATOM      8  C1  UNL d   1       5.943  -1.376   3.835  0.00  0.00     0.054 C 
ATOM      9  C   UNL d   1       5.959  -1.968   5.237  0.00  0.00     0.018 C 
ENDBRANCH   1   8
TORSDOF 1
ENDMDL
