MODEL 1
REMARK minimizedAffinity 16.5105247
REMARK minimizedRMSD -1
REMARK  1 active torsions:
REMARK  status: ('A' for Active; 'I' for Inactive)
REMARK    1  A    between atoms: C1_2  and  C2_3 
ROOT
ATOM      1  C2  UNL d   1      -1.914   1.895   2.753  0.00  0.00    -0.081 A 
ATOM      2  C3  UNL d   1      -1.236   3.052   3.155  0.00  0.00     0.006 A 
ATOM      3  C4  UNL d   1      -0.659   3.900   2.206  0.00  0.00     0.002 A 
ATOM      4  C5  UNL d   1      -0.756   3.608   0.841  0.00  0.00    -0.080 A 
ATOM      5  C6  UNL d   1      -0.167   4.525  -0.189  0.00  0.00     0.076 C 
ATOM      6  C7  UNL d   1      -1.419   2.443   0.441  0.00  0.00     0.002 A 
ATOM      7  C8  UNL d   1      -1.995   1.595   1.389  0.00  0.00     0.006 A 
ENDROOT
BRANCH   1   8
ATOM      8  C1  UNL d   1      -2.593   1.013   3.770  0.00  0.00     0.054 C 
ATOM      9  C   UNL d   1      -2.917  -0.355   3.187  0.00  0.00     0.018 C 
ENDBRANCH   1   8
TORSDOF 1
ENDMDL
