MODEL 1
REMARK minimizedAffinity 0.93320328
REMARK minimizedRMSD -1
REMARK  1 active torsions:
REMARK  status: ('A' for Active; 'I' for Inactive)
REMARK    1  A    between atoms: C1_2  and  C2_3 
ROOT
ATOM      1  C2  UNL d   1       5.099   0.883   4.213  0.00  0.00    -0.081 A 
ATOM      2  C3  UNL d   1       5.719   0.710   5.456  0.00  0.00     0.006 A 
ATOM      3  C4  UNL d   1       5.998  -0.572   5.936  0.00  0.00     0.002 A 
ATOM      4  C5  UNL d   1       5.670  -1.701   5.178  0.00  0.00    -0.080 A 
ATOM      5  C6  UNL d   1       5.991  -3.081   5.669  0.00  0.00     0.076 C 
ATOM      6  C7  UNL d   1       5.035  -1.529   3.944  0.00  0.00     0.002 A 
ATOM      7  C8  UNL d   1       4.755  -0.248   3.463  0.00  0.00     0.006 A 
ENDROOT
BRANCH   1   8
ATOM      8  C1  UNL d   1       4.856   2.265   3.663  0.00  0.00     0.054 C 
ATOM      9  C   UNL d   1       5.963   3.226   4.072  0.00  0.00     0.018 C 
ENDBRANCH   1   8
TORSDOF 1
ENDMDL
