MODEL 1
REMARK minimizedAffinity -2.19647074
REMARK minimizedRMSD -1
REMARK  1 active torsions:
REMARK  status: ('A' for Active; 'I' for Inactive)
REMARK    1  A    between atoms: C1_2  and  C2_3 
ROOT
ATOM      1  C2  UNL d   1       5.919   0.253   4.360  0.00  0.00    -0.081 A 
ATOM      2  C3  UNL d   1       5.937   0.878   3.108  0.00  0.00     0.006 A 
ATOM      3  C4  UNL d   1       5.950   2.271   3.012  0.00  0.00     0.002 A 
ATOM      4  C5  UNL d   1       5.954   3.062   4.166  0.00  0.00    -0.080 A 
ATOM      5  C6  UNL d   1       6.000   4.559   4.077  0.00  0.00     0.076 C 
ATOM      6  C7  UNL d   1       5.919   2.438   5.417  0.00  0.00     0.002 A 
ATOM      7  C8  UNL d   1       5.904   1.045   5.514  0.00  0.00     0.006 A 
ENDROOT
BRANCH   1   8
ATOM      8  C1  UNL d   1       5.969  -1.250   4.468  0.00  0.00     0.054 C 
ATOM      9  C   UNL d   1       5.796  -1.708   5.909  0.00  0.00     0.018 C 
ENDBRANCH   1   8
TORSDOF 1
ENDMDL
