MODEL 1
REMARK minimizedAffinity 5.03339577
REMARK minimizedRMSD -1
REMARK  1 active torsions:
REMARK  status: ('A' for Active; 'I' for Inactive)
REMARK    1  A    between atoms: C1_2  and  C2_3 
ROOT
ATOM      1  C2  UNL d   1      -0.965   2.709   2.798  0.00  0.00    -0.081 A 
ATOM      2  C3  UNL d   1      -0.254   3.876   3.101  0.00  0.00     0.006 A 
ATOM      3  C4  UNL d   1       0.155   4.741   2.083  0.00  0.00     0.002 A 
ATOM      4  C5  UNL d   1      -0.147   4.457   0.747  0.00  0.00    -0.080 A 
ATOM      5  C6  UNL d   1       0.260   5.393  -0.353  0.00  0.00     0.076 C 
ATOM      6  C7  UNL d   1      -0.843   3.282   0.442  0.00  0.00     0.002 A 
ATOM      7  C8  UNL d   1      -1.251   2.417   1.460  0.00  0.00     0.006 A 
ENDROOT
BRANCH   1   8
ATOM      8  C1  UNL d   1      -1.464   1.807   3.898  0.00  0.00     0.054 C 
ATOM      9  C   UNL d   1      -1.894   0.453   3.352  0.00  0.00     0.018 C 
ENDBRANCH   1   8
TORSDOF 1
ENDMDL
