MODEL 1
REMARK minimizedAffinity 6.56971645
REMARK minimizedRMSD -1
REMARK  1 active torsions:
REMARK  status: ('A' for Active; 'I' for Inactive)
REMARK    1  A    between atoms: C1_2  and  C2_3 
ROOT
ATOM      1  C2  UNL d   1       5.815   2.149   3.861  0.00  0.00    -0.081 A 
ATOM      2  C3  UNL d   1       5.409   1.725   2.590  0.00  0.00     0.006 A 
ATOM      3  C4  UNL d   1       5.182   0.370   2.335  0.00  0.00     0.002 A 
ATOM      4  C5  UNL d   1       5.348  -0.581   3.347  0.00  0.00    -0.080 A 
ATOM      5  C6  UNL d   1       5.078  -2.034   3.095  0.00  0.00     0.076 C 
ATOM      6  C7  UNL d   1       5.770  -0.158   4.613  0.00  0.00     0.002 A 
ATOM      7  C8  UNL d   1       5.998   1.195   4.868  0.00  0.00     0.006 A 
ENDROOT
BRANCH   1   8
ATOM      8  C1  UNL d   1       5.998   3.616   4.157  0.00  0.00     0.054 C 
ATOM      9  C   UNL d   1       5.992   4.443   2.879  0.00  0.00     0.018 C 
ENDBRANCH   1   8
TORSDOF 1
ENDMDL
