MODEL 1
REMARK minimizedAffinity 12.6632013
REMARK minimizedRMSD -1
REMARK  1 active torsions:
REMARK  status: ('A' for Active; 'I' for Inactive)
REMARK    1  A    between atoms: C1_2  and  C2_3 
ROOT
ATOM      1  C2  UNL d   1       5.515   3.793   3.558  0.00  0.00    -0.081 A 
ATOM      2  C3  UNL d   1       6.000   2.880   4.502  0.00  0.00     0.006 A 
ATOM      3  C4  UNL d   1       5.597   1.543   4.466  0.00  0.00     0.002 A 
ATOM      4  C5  UNL d   1       4.710   1.095   3.482  0.00  0.00    -0.080 A 
ATOM      5  C6  UNL d   1       4.293  -0.344   3.414  0.00  0.00     0.076 C 
ATOM      6  C7  UNL d   1       4.212   2.011   2.549  0.00  0.00     0.002 A 
ATOM      7  C8  UNL d   1       4.614   3.348   2.585  0.00  0.00     0.006 A 
ENDROOT
BRANCH   1   8
ATOM      8  C1  UNL d   1       5.998   5.221   3.554  0.00  0.00     0.054 C 
ATOM      9  C   UNL d   1       5.998   5.809   4.958  0.00  0.00     0.018 C 
ENDBRANCH   1   8
TORSDOF 1
ENDMDL
