MODEL 1
REMARK minimizedAffinity 0.251948506
REMARK minimizedRMSD -1
REMARK  1 active torsions:
REMARK  status: ('A' for Active; 'I' for Inactive)
REMARK    1  A    between atoms: C1_2  and  C2_3 
ROOT
ATOM      1  C2  UNL d   1       5.940   0.362   4.519  0.00  0.00    -0.081 A 
ATOM      2  C3  UNL d   1       5.983   0.175   3.131  0.00  0.00     0.006 A 
ATOM      3  C4  UNL d   1       5.988   1.274   2.269  0.00  0.00     0.002 A 
ATOM      4  C5  UNL d   1       5.959   2.577   2.778  0.00  0.00    -0.080 A 
ATOM      5  C6  UNL d   1       5.995   3.765   1.864  0.00  0.00     0.076 C 
ATOM      6  C7  UNL d   1       5.899   2.763   4.163  0.00  0.00     0.002 A 
ATOM      7  C8  UNL d   1       5.893   1.665   5.026  0.00  0.00     0.006 A 
ENDROOT
BRANCH   1   8
ATOM      8  C1  UNL d   1       6.000  -0.819   5.453  0.00  0.00     0.054 C 
ATOM      9  C   UNL d   1       5.983  -2.133   4.686  0.00  0.00     0.018 C 
ENDBRANCH   1   8
TORSDOF 1
ENDMDL
