MODEL 1
REMARK minimizedAffinity -1.399382
REMARK minimizedRMSD -1
REMARK  1 active torsions:
REMARK  status: ('A' for Active; 'I' for Inactive)
REMARK    1  A    between atoms: C1_2  and  C2_3 
ROOT
ATOM      1  C2  UNL d   1       5.728   1.012   3.842  0.00  0.00    -0.081 A 
ATOM      2  C3  UNL d   1       5.669   1.290   5.213  0.00  0.00     0.006 A 
ATOM      3  C4  UNL d   1       5.769   2.605   5.673  0.00  0.00     0.002 A 
ATOM      4  C5  UNL d   1       5.922   3.663   4.771  0.00  0.00    -0.080 A 
ATOM      5  C6  UNL d   1       6.000   5.083   5.250  0.00  0.00     0.076 C 
ATOM      6  C7  UNL d   1       5.999   3.383   3.403  0.00  0.00     0.002 A 
ATOM      7  C8  UNL d   1       5.900   2.069   2.942  0.00  0.00     0.006 A 
ENDROOT
BRANCH   1   8
ATOM      8  C1  UNL d   1       5.556  -0.399   3.338  0.00  0.00     0.054 C 
ATOM      9  C   UNL d   1       5.644  -1.407   4.475  0.00  0.00     0.018 C 
ENDBRANCH   1   8
TORSDOF 1
ENDMDL
