MODEL 1
REMARK minimizedAffinity -3.35336065
REMARK minimizedRMSD -1
REMARK  1 active torsions:
REMARK  status: ('A' for Active; 'I' for Inactive)
REMARK    1  A    between atoms: C1_2  and  C2_3 
ROOT
ATOM      1  C2  UNL d   1       5.129   1.755   4.156  0.00  0.00    -0.081 A 
ATOM      2  C3  UNL d   1       5.588   1.562   5.465  0.00  0.00     0.006 A 
ATOM      3  C4  UNL d   1       5.860   0.276   5.938  0.00  0.00     0.002 A 
ATOM      4  C5  UNL d   1       5.683  -0.837   5.109  0.00  0.00    -0.080 A 
ATOM      5  C6  UNL d   1       6.000  -2.220   5.595  0.00  0.00     0.076 C 
ATOM      6  C7  UNL d   1       5.208  -0.646   3.807  0.00  0.00     0.002 A 
ATOM      7  C8  UNL d   1       4.936   0.639   3.334  0.00  0.00     0.006 A 
ENDROOT
BRANCH   1   8
ATOM      8  C1  UNL d   1       4.897   3.145   3.622  0.00  0.00     0.054 C 
ATOM      9  C   UNL d   1       5.996   4.100   4.068  0.00  0.00     0.018 C 
ENDBRANCH   1   8
TORSDOF 1
ENDMDL
