MODEL 1
REMARK minimizedAffinity -0.613937318
REMARK minimizedRMSD -1
REMARK  1 active torsions:
REMARK  status: ('A' for Active; 'I' for Inactive)
REMARK    1  A    between atoms: C1_2  and  C2_3 
ROOT
ATOM      1  C2  UNL d   1       5.431   1.016   4.388  0.00  0.00    -0.081 A 
ATOM      2  C3  UNL d   1       5.228   1.951   3.366  0.00  0.00     0.006 A 
ATOM      3  C4  UNL d   1       5.399   3.315   3.610  0.00  0.00     0.002 A 
ATOM      4  C5  UNL d   1       5.783   3.767   4.877  0.00  0.00    -0.080 A 
ATOM      5  C6  UNL d   1       6.000   5.227   5.145  0.00  0.00     0.076 C 
ATOM      6  C7  UNL d   1       5.969   2.834   5.903  0.00  0.00     0.002 A 
ATOM      7  C8  UNL d   1       5.797   1.470   5.660  0.00  0.00     0.006 A 
ENDROOT
BRANCH   1   8
ATOM      8  C1  UNL d   1       5.310  -0.461   4.111  0.00  0.00     0.054 C 
ATOM      9  C   UNL d   1       5.989  -0.836   2.802  0.00  0.00     0.018 C 
ENDBRANCH   1   8
TORSDOF 1
ENDMDL
