MODEL 1
REMARK minimizedAffinity -1.05138171
REMARK minimizedRMSD -1
REMARK  1 active torsions:
REMARK  status: ('A' for Active; 'I' for Inactive)
REMARK    1  A    between atoms: C1_2  and  C2_3 
ROOT
ATOM      1  C2  UNL d   1       5.924   1.020   4.935  0.00  0.00    -0.081 A 
ATOM      2  C3  UNL d   1       5.952   2.202   5.685  0.00  0.00     0.006 A 
ATOM      3  C4  UNL d   1       5.989   3.444   5.047  0.00  0.00     0.002 A 
ATOM      4  C5  UNL d   1       5.991   3.526   3.651  0.00  0.00    -0.080 A 
ATOM      5  C6  UNL d   1       6.000   4.854   2.954  0.00  0.00     0.076 C 
ATOM      6  C7  UNL d   1       5.981   2.344   2.901  0.00  0.00     0.002 A 
ATOM      7  C8  UNL d   1       5.945   1.102   3.538  0.00  0.00     0.006 A 
ENDROOT
BRANCH   1   8
ATOM      8  C1  UNL d   1       5.819  -0.320   5.618  0.00  0.00     0.054 C 
ATOM      9  C   UNL d   1       5.856  -1.460   4.611  0.00  0.00     0.018 C 
ENDBRANCH   1   8
TORSDOF 1
ENDMDL
