MODEL 1
REMARK minimizedAffinity 5.37149763
REMARK minimizedRMSD -1
REMARK  0 active torsions:
REMARK  status: ('A' for Active; 'I' for Inactive)
ROOT
ATOM      1  C   UNL d   1       1.908  -1.838  -0.392  0.00  0.00     0.124 A 
ATOM      2  C1  UNL d   1       2.800  -0.823  -0.075  0.00  0.00     0.062 A 
ATOM      3  C2  UNL d   1       2.335   0.465   0.171  0.00  0.00     0.162 A 
ATOM      4  C3  UNL d   1       0.971   0.747   0.101  0.00  0.00    -0.034 A 
ATOM      5  C4  UNL d   1       0.080  -0.279  -0.220  0.00  0.00     0.162 A 
ATOM      6  C5  UNL d   1       0.549  -1.565  -0.465  0.00  0.00     0.062 A 
ATOM      7  F   UNL d   1      -0.314  -2.544  -0.772  0.00  0.00    -0.097 F 
ATOM      8  F1  UNL d   1      -1.238  -0.043  -0.296  0.00  0.00    -0.096 F 
ATOM      9  I   UNL d   1       0.272   2.673   0.468  0.00  0.00    -0.060 I 
ATOM     10  F2  UNL d   1       3.220   1.427   0.476  0.00  0.00    -0.096 F 
ATOM     11  F3  UNL d   1       4.113  -1.085  -0.005  0.00  0.00    -0.097 F 
ATOM     12  F4  UNL d   1       2.358  -3.077  -0.629  0.00  0.00    -0.092 F 
ENDROOT
TORSDOF 0
ENDMDL
