MODEL 1
REMARK minimizedAffinity -1.24135232
REMARK minimizedRMSD -1
REMARK  0 active torsions:
REMARK  status: ('A' for Active; 'I' for Inactive)
ROOT
ATOM      1  C   UNL d   1       2.112  -0.130  -0.037  0.00  0.00     0.124 A 
ATOM      2  C1  UNL d   1       1.293  -1.238  -0.207  0.00  0.00     0.062 A 
ATOM      3  C2  UNL d   1      -0.091  -1.087  -0.239  0.00  0.00     0.162 A 
ATOM      4  C3  UNL d   1      -0.664   0.177  -0.102  0.00  0.00    -0.034 A 
ATOM      5  C4  UNL d   1       0.166   1.286   0.070  0.00  0.00     0.162 A 
ATOM      6  C5  UNL d   1       1.548   1.130   0.102  0.00  0.00     0.062 A 
ATOM      7  F   UNL d   1       2.337   2.202   0.266  0.00  0.00    -0.097 F 
ATOM      8  F1  UNL d   1      -0.352   2.516   0.205  0.00  0.00    -0.096 F 
ATOM      9  I   UNL d   1      -2.732   0.406  -0.150  0.00  0.00    -0.060 I 
ATOM     10  F2  UNL d   1      -0.858  -2.175  -0.405  0.00  0.00    -0.096 F 
ATOM     11  F3  UNL d   1       1.835  -2.457  -0.340  0.00  0.00    -0.097 F 
ATOM     12  F4  UNL d   1       3.442  -0.278  -0.005  0.00  0.00    -0.092 F 
ENDROOT
TORSDOF 0
ENDMDL
