MODEL 1
REMARK minimizedAffinity 3.54488492
REMARK minimizedRMSD -1
REMARK  0 active torsions:
REMARK  status: ('A' for Active; 'I' for Inactive)
ROOT
ATOM      1  C   UNL d   1       0.881  -0.891  -0.549  0.00  0.00     0.124 A 
ATOM      2  C1  UNL d   1       0.019  -1.877  -0.089  0.00  0.00     0.062 A 
ATOM      3  C2  UNL d   1      -1.135  -1.528   0.606  0.00  0.00     0.162 A 
ATOM      4  C3  UNL d   1      -1.435  -0.187   0.844  0.00  0.00    -0.034 A 
ATOM      5  C4  UNL d   1      -0.562   0.799   0.379  0.00  0.00     0.162 A 
ATOM      6  C5  UNL d   1       0.590   0.445  -0.315  0.00  0.00     0.062 A 
ATOM      7  F   UNL d   1       1.422   1.399  -0.758  0.00  0.00    -0.097 F 
ATOM      8  F1  UNL d   1      -0.820   2.098   0.591  0.00  0.00    -0.096 F 
ATOM      9  I   UNL d   1      -3.160   0.339   1.883  0.00  0.00    -0.060 I 
ATOM     10  F2  UNL d   1      -1.951  -2.501   1.039  0.00  0.00    -0.096 F 
ATOM     11  F3  UNL d   1       0.299  -3.169  -0.314  0.00  0.00    -0.097 F 
ATOM     12  F4  UNL d   1       1.992  -1.230  -1.217  0.00  0.00    -0.092 F 
ENDROOT
TORSDOF 0
ENDMDL
