MODEL 1
REMARK minimizedAffinity -0.56384784
REMARK minimizedRMSD -1
REMARK  0 active torsions:
REMARK  status: ('A' for Active; 'I' for Inactive)
ROOT
ATOM      1  C   UNL d   1       2.911  -0.315   0.433  0.00  0.00     0.124 A 
ATOM      2  C1  UNL d   1       2.406   0.914   0.833  0.00  0.00     0.062 A 
ATOM      3  C2  UNL d   1       1.099   1.272   0.514  0.00  0.00     0.162 A 
ATOM      4  C3  UNL d   1       0.287   0.398  -0.208  0.00  0.00    -0.034 A 
ATOM      5  C4  UNL d   1       0.801  -0.837  -0.607  0.00  0.00     0.162 A 
ATOM      6  C5  UNL d   1       2.108  -1.190  -0.287  0.00  0.00     0.062 A 
ATOM      7  F   UNL d   1       2.594  -2.378  -0.674  0.00  0.00    -0.097 F 
ATOM      8  F1  UNL d   1       0.047  -1.701  -1.303  0.00  0.00    -0.096 F 
ATOM      9  I   UNL d   1      -1.668   0.929  -0.686  0.00  0.00    -0.060 I 
ATOM     10  F2  UNL d   1       0.638   2.466   0.914  0.00  0.00    -0.096 F 
ATOM     11  F3  UNL d   1       3.180   1.761   1.527  0.00  0.00    -0.097 F 
ATOM     12  F4  UNL d   1       4.169  -0.656   0.740  0.00  0.00    -0.092 F 
ENDROOT
TORSDOF 0
ENDMDL
