MODEL 1
REMARK minimizedAffinity -5.64832926
REMARK minimizedRMSD -1
REMARK  0 active torsions:
REMARK  status: ('A' for Active; 'I' for Inactive)
ROOT
ATOM      1  C   UNL d   1       2.640  -0.096   0.115  0.00  0.00     0.124 A 
ATOM      2  C1  UNL d   1       1.740  -1.150   0.043  0.00  0.00     0.062 A 
ATOM      3  C2  UNL d   1       0.372  -0.900  -0.017  0.00  0.00     0.162 A 
ATOM      4  C3  UNL d   1      -0.105   0.410  -0.008  0.00  0.00    -0.034 A 
ATOM      5  C4  UNL d   1       0.806   1.466   0.065  0.00  0.00     0.162 A 
ATOM      6  C5  UNL d   1       2.172   1.211   0.126  0.00  0.00     0.062 A 
ATOM      7  F   UNL d   1       3.040   2.231   0.195  0.00  0.00    -0.097 F 
ATOM      8  F1  UNL d   1       0.381   2.738   0.077  0.00  0.00    -0.096 F 
ATOM      9  I   UNL d   1      -2.150   0.788  -0.098  0.00  0.00    -0.060 I 
ATOM     10  F2  UNL d   1      -0.475  -1.939  -0.086  0.00  0.00    -0.096 F 
ATOM     11  F3  UNL d   1       2.189  -2.414   0.033  0.00  0.00    -0.097 F 
ATOM     12  F4  UNL d   1       3.955  -0.339   0.174  0.00  0.00    -0.092 F 
ENDROOT
TORSDOF 0
ENDMDL
