MODEL 1
REMARK minimizedAffinity 6.01648617
REMARK minimizedRMSD -1
REMARK  0 active torsions:
REMARK  status: ('A' for Active; 'I' for Inactive)
ROOT
ATOM      1  C   UNL d   1       1.528  -0.954  -0.714  0.00  0.00     0.124 A 
ATOM      2  C1  UNL d   1       1.833   0.364  -0.404  0.00  0.00     0.062 A 
ATOM      3  C2  UNL d   1       0.901   1.161   0.256  0.00  0.00     0.162 A 
ATOM      4  C3  UNL d   1      -0.344   0.642   0.611  0.00  0.00    -0.034 A 
ATOM      5  C4  UNL d   1      -0.643  -0.685   0.294  0.00  0.00     0.162 A 
ATOM      6  C5  UNL d   1       0.291  -1.477  -0.365  0.00  0.00     0.062 A 
ATOM      7  F   UNL d   1      -0.004  -2.750  -0.664  0.00  0.00    -0.097 F 
ATOM      8  F1  UNL d   1      -1.830  -1.216   0.621  0.00  0.00    -0.096 F 
ATOM      9  I   UNL d   1      -1.739   1.830   1.597  0.00  0.00    -0.060 I 
ATOM     10  F2  UNL d   1       1.222   2.432   0.543  0.00  0.00    -0.096 F 
ATOM     11  F3  UNL d   1       3.027   0.873  -0.741  0.00  0.00    -0.097 F 
ATOM     12  F4  UNL d   1       2.426  -1.718  -1.349  0.00  0.00    -0.092 F 
ENDROOT
TORSDOF 0
ENDMDL
