MODEL 1
REMARK minimizedAffinity -2.89771485
REMARK minimizedRMSD -1
REMARK  0 active torsions:
REMARK  status: ('A' for Active; 'I' for Inactive)
ROOT
ATOM      1  C   UNL d   1       2.907  -0.366  -0.043  0.00  0.00     0.124 A 
ATOM      2  C1  UNL d   1       2.007  -1.411  -0.202  0.00  0.00     0.062 A 
ATOM      3  C2  UNL d   1       0.638  -1.158  -0.226  0.00  0.00     0.162 A 
ATOM      4  C3  UNL d   1       0.160   0.145  -0.090  0.00  0.00    -0.034 A 
ATOM      5  C4  UNL d   1       1.071   1.191   0.071  0.00  0.00     0.162 A 
ATOM      6  C5  UNL d   1       2.438   0.933   0.094  0.00  0.00     0.062 A 
ATOM      7  F   UNL d   1       3.306   1.944   0.248  0.00  0.00    -0.097 F 
ATOM      8  F1  UNL d   1       0.646   2.456   0.204  0.00  0.00    -0.096 F 
ATOM      9  I   UNL d   1      -1.885   0.526  -0.125  0.00  0.00    -0.060 I 
ATOM     10  F2  UNL d   1      -0.208  -2.187  -0.381  0.00  0.00    -0.096 F 
ATOM     11  F3  UNL d   1       2.457  -2.667  -0.333  0.00  0.00    -0.097 F 
ATOM     12  F4  UNL d   1       4.223  -0.611  -0.019  0.00  0.00    -0.092 F 
ENDROOT
TORSDOF 0
ENDMDL
