MODEL 1
REMARK minimizedAffinity 1.39924061
REMARK minimizedRMSD -1
REMARK  0 active torsions:
REMARK  status: ('A' for Active; 'I' for Inactive)
ROOT
ATOM      1  C   UNL d   1       2.914  -0.095  -0.050  0.00  0.00     0.124 A 
ATOM      2  C1  UNL d   1       2.336   1.166  -0.006  0.00  0.00     0.062 A 
ATOM      3  C2  UNL d   1       0.953   1.305  -0.072  0.00  0.00     0.162 A 
ATOM      4  C3  UNL d   1       0.137   0.179  -0.181  0.00  0.00    -0.034 A 
ATOM      5  C4  UNL d   1       0.725  -1.087  -0.225  0.00  0.00     0.162 A 
ATOM      6  C5  UNL d   1       2.108  -1.220  -0.159  0.00  0.00     0.062 A 
ATOM      7  F   UNL d   1       2.665  -2.439  -0.201  0.00  0.00    -0.097 F 
ATOM      8  F1  UNL d   1      -0.030  -2.190  -0.330  0.00  0.00    -0.096 F 
ATOM      9  I   UNL d   1      -1.932   0.382  -0.280  0.00  0.00    -0.060 I 
ATOM     10  F2  UNL d   1       0.422   2.536  -0.028  0.00  0.00    -0.096 F 
ATOM     11  F3  UNL d   1       3.112   2.254   0.099  0.00  0.00    -0.097 F 
ATOM     12  F4  UNL d   1       4.245  -0.226   0.013  0.00  0.00    -0.092 F 
ENDROOT
TORSDOF 0
ENDMDL
