MODEL 1
REMARK minimizedAffinity -2.53363895
REMARK minimizedRMSD -1
REMARK  0 active torsions:
REMARK  status: ('A' for Active; 'I' for Inactive)
ROOT
ATOM      1  C1  BNZ d   1      -4.175   3.385  -5.850  0.00  0.00     0.000 A 
ATOM      2  C2  BNZ d   1      -5.274   4.189  -6.000  0.00  0.00     0.000 A 
ATOM      3  C3  BNZ d   1      -5.240   5.500  -5.614  0.00  0.00     0.000 A 
ATOM      4  C4  BNZ d   1      -4.123   5.994  -5.042  0.00  0.00     0.000 A 
ATOM      5  C5  BNZ d   1      -3.010   5.194  -4.876  0.00  0.00     0.000 A 
ATOM      6  C6  BNZ d   1      -3.035   3.886  -5.302  0.00  0.00     0.000 A 
ENDROOT
TORSDOF 0
ENDMDL
