MODEL 1
REMARK minimizedAffinity -0.548196077
REMARK minimizedRMSD -1
REMARK  0 active torsions:
REMARK  status: ('A' for Active; 'I' for Inactive)
ROOT
ATOM      1  C1  BNZ d   1      -1.692   4.539  -5.999  0.00  0.00     0.000 A 
ATOM      2  C2  BNZ d   1      -2.462   3.407  -5.996  0.00  0.00     0.000 A 
ATOM      3  C3  BNZ d   1      -3.827   3.489  -5.999  0.00  0.00     0.000 A 
ATOM      4  C4  BNZ d   1      -4.418   4.701  -5.964  0.00  0.00     0.000 A 
ATOM      5  C5  BNZ d   1      -3.655   5.851  -5.958  0.00  0.00     0.000 A 
ATOM      6  C6  BNZ d   1      -2.282   5.765  -5.994  0.00  0.00     0.000 A 
ENDROOT
TORSDOF 0
ENDMDL
