MODEL 1
REMARK minimizedAffinity 5.52712631
REMARK minimizedRMSD -1
REMARK  0 active torsions:
REMARK  status: ('A' for Active; 'I' for Inactive)
ROOT
ATOM      1  C1  BNZ d   1      -3.698   3.340  -5.808  0.00  0.00     0.000 A 
ATOM      2  C2  BNZ d   1      -3.875   4.698  -5.826  0.00  0.00     0.000 A 
ATOM      3  C3  BNZ d   1      -2.803   5.542  -5.897  0.00  0.00     0.000 A 
ATOM      4  C4  BNZ d   1      -1.555   5.030  -5.910  0.00  0.00     0.000 A 
ATOM      5  C5  BNZ d   1      -1.360   3.664  -5.883  0.00  0.00     0.000 A 
ATOM      6  C6  BNZ d   1      -2.443   2.816  -5.851  0.00  0.00     0.000 A 
ENDROOT
TORSDOF 0
ENDMDL
