MODEL 1
REMARK minimizedAffinity -2.35033321
REMARK minimizedRMSD -1
REMARK  0 active torsions:
REMARK  status: ('A' for Active; 'I' for Inactive)
ROOT
ATOM      1  C1  BNZ d   1      -3.744   3.274  -5.979  0.00  0.00     0.000 A 
ATOM      2  C2  BNZ d   1      -5.015   3.784  -5.974  0.00  0.00     0.000 A 
ATOM      3  C3  BNZ d   1      -5.228   5.133  -6.000  0.00  0.00     0.000 A 
ATOM      4  C4  BNZ d   1      -4.172   5.972  -5.991  0.00  0.00     0.000 A 
ATOM      5  C5  BNZ d   1      -2.884   5.474  -5.986  0.00  0.00     0.000 A 
ATOM      6  C6  BNZ d   1      -2.673   4.114  -5.999  0.00  0.00     0.000 A 
ENDROOT
TORSDOF 0
ENDMDL
