MODEL 1
REMARK minimizedAffinity 2.7922349
REMARK minimizedRMSD -1
REMARK  0 active torsions:
REMARK  status: ('A' for Active; 'I' for Inactive)
ROOT
ATOM      1  C1  BNZ d   1      -2.652   3.102  -5.961  0.00  0.00     0.000 A 
ATOM      2  C2  BNZ d   1      -3.549   4.137  -5.953  0.00  0.00     0.000 A 
ATOM      3  C3  BNZ d   1      -3.121   5.434  -5.992  0.00  0.00     0.000 A 
ATOM      4  C4  BNZ d   1      -1.798   5.696  -5.999  0.00  0.00     0.000 A 
ATOM      5  C5  BNZ d   1      -0.881   4.664  -5.998  0.00  0.00     0.000 A 
ATOM      6  C6  BNZ d   1      -1.316   3.359  -5.998  0.00  0.00     0.000 A 
ENDROOT
TORSDOF 0
ENDMDL
