MODEL 1
REMARK minimizedAffinity 0.344514698
REMARK minimizedRMSD -1
REMARK  0 active torsions:
REMARK  status: ('A' for Active; 'I' for Inactive)
ROOT
ATOM      1  C1  BNZ d   1      -1.566   5.221  -5.995  0.00  0.00     0.000 A 
ATOM      2  C2  BNZ d   1      -0.644   4.209  -5.990  0.00  0.00     0.000 A 
ATOM      3  C3  BNZ d   1      -1.041   2.901  -6.000  0.00  0.00     0.000 A 
ATOM      4  C4  BNZ d   1      -2.357   2.607  -5.975  0.00  0.00     0.000 A 
ATOM      5  C5  BNZ d   1      -3.299   3.616  -5.970  0.00  0.00     0.000 A 
ATOM      6  C6  BNZ d   1      -2.896   4.932  -6.000  0.00  0.00     0.000 A 
ENDROOT
TORSDOF 0
ENDMDL
