MODEL 1
REMARK minimizedAffinity -2.07140446
REMARK minimizedRMSD -1
REMARK  0 active torsions:
REMARK  status: ('A' for Active; 'I' for Inactive)
ROOT
ATOM      1  C1  BNZ d   1      -1.453   4.146  -3.754  0.00  0.00     0.000 A 
ATOM      2  C2  BNZ d   1      -2.822   4.151  -3.782  0.00  0.00     0.000 A 
ATOM      3  C3  BNZ d   1      -3.501   3.753  -4.900  0.00  0.00     0.000 A 
ATOM      4  C4  BNZ d   1      -2.811   3.388  -6.000  0.00  0.00     0.000 A 
ATOM      5  C5  BNZ d   1      -1.430   3.386  -5.990  0.00  0.00     0.000 A 
ATOM      6  C6  BNZ d   1      -0.750   3.751  -4.850  0.00  0.00     0.000 A 
ENDROOT
TORSDOF 0
ENDMDL
