MODEL 1
REMARK minimizedAffinity 4.12140512
REMARK minimizedRMSD -1
REMARK  0 active torsions:
REMARK  status: ('A' for Active; 'I' for Inactive)
ROOT
ATOM      1  C1  BNZ d   1      -2.042   0.378   1.386  0.00  0.00     0.000 A 
ATOM      2  C2  BNZ d   1      -1.236  -0.724   1.492  0.00  0.00     0.000 A 
ATOM      3  C3  BNZ d   1       0.054  -0.694   1.043  0.00  0.00     0.000 A 
ATOM      4  C4  BNZ d   1       0.524   0.424   0.452  0.00  0.00     0.000 A 
ATOM      5  C5  BNZ d   1      -0.279   1.540   0.329  0.00  0.00     0.000 A 
ATOM      6  C6  BNZ d   1      -1.565   1.519   0.818  0.00  0.00     0.000 A 
ENDROOT
TORSDOF 0
ENDMDL
