MODEL 1
REMARK minimizedAffinity -2.86962724
REMARK minimizedRMSD -1
REMARK  0 active torsions:
REMARK  status: ('A' for Active; 'I' for Inactive)
ROOT
ATOM      1  C1  BNZ d   1      -4.440   3.193  -5.984  0.00  0.00     0.000 A 
ATOM      2  C2  BNZ d   1      -5.669   3.798  -5.978  0.00  0.00     0.000 A 
ATOM      3  C3  BNZ d   1      -5.778   5.160  -6.000  0.00  0.00     0.000 A 
ATOM      4  C4  BNZ d   1      -4.660   5.915  -5.986  0.00  0.00     0.000 A 
ATOM      5  C5  BNZ d   1      -3.415   5.320  -5.982  0.00  0.00     0.000 A 
ATOM      6  C6  BNZ d   1      -3.309   3.948  -6.000  0.00  0.00     0.000 A 
ENDROOT
TORSDOF 0
ENDMDL
