MODEL 1
REMARK minimizedAffinity 6.47547626
REMARK minimizedRMSD -1
REMARK  0 active torsions:
REMARK  status: ('A' for Active; 'I' for Inactive)
ROOT
ATOM      1  C1  BNZ d   1      -0.050   2.770   1.683  0.00  0.00     0.000 A 
ATOM      2  C2  BNZ d   1      -1.335   2.983   2.105  0.00  0.00     0.000 A 
ATOM      3  C3  BNZ d   1      -1.601   3.291   3.410  0.00  0.00     0.000 A 
ATOM      4  C4  BNZ d   1      -0.588   3.346   4.298  0.00  0.00     0.000 A 
ATOM      5  C5  BNZ d   1       0.713   3.125   3.890  0.00  0.00     0.000 A 
ATOM      6  C6  BNZ d   1       0.981   2.854   2.568  0.00  0.00     0.000 A 
ENDROOT
TORSDOF 0
ENDMDL
