MODEL 1
REMARK minimizedAffinity -0.298847973
REMARK minimizedRMSD -1
REMARK  0 active torsions:
REMARK  status: ('A' for Active; 'I' for Inactive)
ROOT
ATOM      1  C1  BNZ d   1      -4.909   3.992  -4.539  0.00  0.00     0.000 A 
ATOM      2  C2  BNZ d   1      -4.007   3.282  -5.287  0.00  0.00     0.000 A 
ATOM      3  C3  BNZ d   1      -3.032   3.922  -6.000  0.00  0.00     0.000 A 
ATOM      4  C4  BNZ d   1      -2.983   5.269  -5.996  0.00  0.00     0.000 A 
ATOM      5  C5  BNZ d   1      -3.891   6.000  -5.255  0.00  0.00     0.000 A 
ATOM      6  C6  BNZ d   1      -4.847   5.351  -4.508  0.00  0.00     0.000 A 
ENDROOT
TORSDOF 0
ENDMDL
