MODEL 1
REMARK minimizedAffinity 1.44840097
REMARK minimizedRMSD -1
REMARK  0 active torsions:
REMARK  status: ('A' for Active; 'I' for Inactive)
ROOT
ATOM      1  C1  BNZ d   1      -1.535   1.889  -5.999  0.00  0.00     0.000 A 
ATOM      2  C2  BNZ d   1      -0.217   2.261  -6.000  0.00  0.00     0.000 A 
ATOM      3  C3  BNZ d   1       0.138   3.580  -5.968  0.00  0.00     0.000 A 
ATOM      4  C4  BNZ d   1      -0.823   4.526  -5.977  0.00  0.00     0.000 A 
ATOM      5  C5  BNZ d   1      -2.156   4.168  -5.985  0.00  0.00     0.000 A 
ATOM      6  C6  BNZ d   1      -2.510   2.838  -5.978  0.00  0.00     0.000 A 
ENDROOT
TORSDOF 0
ENDMDL
