MODEL 1
REMARK minimizedAffinity -1.35672045
REMARK minimizedRMSD -1
REMARK  0 active torsions:
REMARK  status: ('A' for Active; 'I' for Inactive)
ROOT
ATOM      1  C1  BNZ d   1      -4.037   3.865  -5.986  0.00  0.00     0.000 A 
ATOM      2  C2  BNZ d   1      -3.000   2.971  -6.000  0.00  0.00     0.000 A 
ATOM      3  C3  BNZ d   1      -1.703   3.403  -5.986  0.00  0.00     0.000 A 
ATOM      4  C4  BNZ d   1      -1.445   4.727  -5.999  0.00  0.00     0.000 A 
ATOM      5  C5  BNZ d   1      -2.480   5.641  -5.994  0.00  0.00     0.000 A 
ATOM      6  C6  BNZ d   1      -3.784   5.202  -5.969  0.00  0.00     0.000 A 
ENDROOT
TORSDOF 0
ENDMDL
