MODEL 1
REMARK minimizedAffinity 5.03431225
REMARK minimizedRMSD -1
REMARK  0 active torsions:
REMARK  status: ('A' for Active; 'I' for Inactive)
ROOT
ATOM      1  C1  BNZ d   1      -0.665  -4.516  -2.709  0.00  0.00     0.000 A 
ATOM      2  C2  BNZ d   1      -1.398  -5.496  -2.093  0.00  0.00     0.000 A 
ATOM      3  C3  BNZ d   1      -2.467  -5.179  -1.304  0.00  0.00     0.000 A 
ATOM      4  C4  BNZ d   1      -2.779  -3.883  -1.098  0.00  0.00     0.000 A 
ATOM      5  C5  BNZ d   1      -2.044  -2.883  -1.704  0.00  0.00     0.000 A 
ATOM      6  C6  BNZ d   1      -0.992  -3.207  -2.530  0.00  0.00     0.000 A 
ENDROOT
TORSDOF 0
ENDMDL
