MODEL 1
REMARK minimizedAffinity 0.353213757
REMARK minimizedRMSD -1
REMARK  0 active torsions:
REMARK  status: ('A' for Active; 'I' for Inactive)
ROOT
ATOM      1  C1  BNZ d   1       0.551   2.174  -6.000  0.00  0.00     0.000 A 
ATOM      2  C2  BNZ d   1      -0.818   2.215  -6.000  0.00  0.00     0.000 A 
ATOM      3  C3  BNZ d   1      -1.483   3.400  -5.851  0.00  0.00     0.000 A 
ATOM      4  C4  BNZ d   1      -0.780   4.535  -5.662  0.00  0.00     0.000 A 
ATOM      5  C5  BNZ d   1       0.601   4.509  -5.650  0.00  0.00     0.000 A 
ATOM      6  C6  BNZ d   1       1.267   3.320  -5.839  0.00  0.00     0.000 A 
ENDROOT
TORSDOF 0
ENDMDL
