MODEL 1
REMARK minimizedAffinity -4.01981783
REMARK minimizedRMSD -1
REMARK  0 active torsions:
REMARK  status: ('A' for Active; 'I' for Inactive)
ROOT
ATOM      1  C   UNL d   1       0.588  -1.669  -0.927  0.00  0.00     0.078 C 
ATOM      2  C1  UNL d   1       0.336  -0.309  -0.347  0.00  0.00    -0.077 A 
ATOM      3  C2  UNL d   1       0.387  -0.094   1.036  0.00  0.00    -0.001 A 
ATOM      4  C3  UNL d   1       0.141   1.175   1.563  0.00  0.00     0.003 A 
ATOM      5  C4  UNL d   1      -0.159   2.239   0.714  0.00  0.00    -0.005 A 
ATOM      6  C5  UNL d   1      -0.214   2.034  -0.663  0.00  0.00     0.003 A 
ATOM      7  C6  UNL d   1       0.032   0.766  -1.191  0.00  0.00    -0.001 A 
ENDROOT
TORSDOF 0
ENDMDL
