MODEL 1
REMARK minimizedAffinity -1.61364603
REMARK minimizedRMSD -1
REMARK  0 active torsions:
REMARK  status: ('A' for Active; 'I' for Inactive)
ROOT
ATOM      1  C   UNL d   1      -1.309  -3.454  -0.720  0.00  0.00     0.078 C 
ATOM      2  C1  UNL d   1      -0.698  -2.132  -0.360  0.00  0.00    -0.077 A 
ATOM      3  C2  UNL d   1      -1.130  -1.422   0.768  0.00  0.00    -0.001 A 
ATOM      4  C3  UNL d   1      -0.559  -0.189   1.086  0.00  0.00     0.003 A 
ATOM      5  C4  UNL d   1       0.445   0.346   0.282  0.00  0.00    -0.005 A 
ATOM      6  C5  UNL d   1       0.879  -0.352  -0.843  0.00  0.00     0.003 A 
ATOM      7  C6  UNL d   1       0.310  -1.586  -1.163  0.00  0.00    -0.001 A 
ENDROOT
TORSDOF 0
ENDMDL
