MODEL 1
REMARK minimizedAffinity -3.16877246
REMARK minimizedRMSD -1
REMARK  0 active torsions:
REMARK  status: ('A' for Active; 'I' for Inactive)
ROOT
ATOM      1  C   UNL d   1       0.008   3.497  -0.841  0.00  0.00     0.078 C 
ATOM      2  C1  UNL d   1       0.106   2.326   0.091  0.00  0.00    -0.077 A 
ATOM      3  C2  UNL d   1       0.505   1.066  -0.373  0.00  0.00    -0.001 A 
ATOM      4  C3  UNL d   1       0.583  -0.017   0.503  0.00  0.00     0.003 A 
ATOM      5  C4  UNL d   1       0.262   0.148   1.849  0.00  0.00    -0.005 A 
ATOM      6  C5  UNL d   1      -0.138   1.396   2.320  0.00  0.00     0.003 A 
ATOM      7  C6  UNL d   1      -0.217   2.481   1.445  0.00  0.00    -0.001 A 
ENDROOT
TORSDOF 0
ENDMDL
