MODEL 1
REMARK minimizedAffinity -1.93710685
REMARK minimizedRMSD -1
REMARK  0 active torsions:
REMARK  status: ('A' for Active; 'I' for Inactive)
ROOT
ATOM      1  C   UNL d   1       0.034  -1.184  -1.136  0.00  0.00     0.078 C 
ATOM      2  C1  UNL d   1       0.046  -0.118  -0.082  0.00  0.00    -0.077 A 
ATOM      3  C2  UNL d   1      -0.296   1.205  -0.390  0.00  0.00    -0.001 A 
ATOM      4  C3  UNL d   1      -0.271   2.189   0.600  0.00  0.00     0.003 A 
ATOM      5  C4  UNL d   1       0.097   1.861   1.903  0.00  0.00    -0.005 A 
ATOM      6  C5  UNL d   1       0.441   0.548   2.218  0.00  0.00     0.003 A 
ATOM      7  C6  UNL d   1       0.417  -0.437   1.230  0.00  0.00    -0.001 A 
ENDROOT
TORSDOF 0
ENDMDL
