MODEL 1
REMARK minimizedAffinity -2.69257402
REMARK minimizedRMSD -1
REMARK  0 active torsions:
REMARK  status: ('A' for Active; 'I' for Inactive)
ROOT
ATOM      1  C   UNL d   1       0.309   0.166   0.514  0.00  0.00     0.078 C 
ATOM      2  C1  UNL d   1       0.019  -1.220   0.022  0.00  0.00    -0.077 A 
ATOM      3  C2  UNL d   1       0.421  -1.631  -1.255  0.00  0.00    -0.001 A 
ATOM      4  C3  UNL d   1       0.137  -2.922  -1.703  0.00  0.00     0.003 A 
ATOM      5  C4  UNL d   1      -0.552  -3.812  -0.881  0.00  0.00    -0.005 A 
ATOM      6  C5  UNL d   1      -0.958  -3.412   0.390  0.00  0.00     0.003 A 
ATOM      7  C6  UNL d   1      -0.674  -2.121   0.840  0.00  0.00    -0.001 A 
ENDROOT
TORSDOF 0
ENDMDL
