MODEL 1
REMARK minimizedAffinity -2.74844074
REMARK minimizedRMSD -1
REMARK  0 active torsions:
REMARK  status: ('A' for Active; 'I' for Inactive)
ROOT
ATOM      1  C   UNL d   1       0.343  -1.922  -0.423  0.00  0.00     0.078 C 
ATOM      2  C1  UNL d   1       0.122  -0.510   0.032  0.00  0.00    -0.077 A 
ATOM      3  C2  UNL d   1       0.079   0.546  -0.887  0.00  0.00    -0.001 A 
ATOM      4  C3  UNL d   1      -0.118   1.856  -0.448  0.00  0.00     0.003 A 
ATOM      5  C4  UNL d   1      -0.272   2.123   0.911  0.00  0.00    -0.005 A 
ATOM      6  C5  UNL d   1      -0.228   1.080   1.833  0.00  0.00     0.003 A 
ATOM      7  C6  UNL d   1      -0.031  -0.231   1.396  0.00  0.00    -0.001 A 
ENDROOT
TORSDOF 0
ENDMDL
