MODEL 1
REMARK minimizedAffinity -2.1470654
REMARK minimizedRMSD -1
REMARK  0 active torsions:
REMARK  status: ('A' for Active; 'I' for Inactive)
ROOT
ATOM      1  C   UNL d   1       0.895  -0.715  -0.873  0.00  0.00     0.078 C 
ATOM      2  C1  UNL d   1       0.344  -2.108  -0.957  0.00  0.00    -0.077 A 
ATOM      3  C2  UNL d   1       1.192  -3.210  -1.114  0.00  0.00    -0.001 A 
ATOM      4  C3  UNL d   1       0.665  -4.500  -1.201  0.00  0.00     0.003 A 
ATOM      5  C4  UNL d   1      -0.712  -4.699  -1.132  0.00  0.00    -0.005 A 
ATOM      6  C5  UNL d   1      -1.565  -3.607  -0.978  0.00  0.00     0.003 A 
ATOM      7  C6  UNL d   1      -1.039  -2.317  -0.891  0.00  0.00    -0.001 A 
ENDROOT
TORSDOF 0
ENDMDL
