MODEL 1
REMARK minimizedAffinity -2.00989962
REMARK minimizedRMSD -1
REMARK  0 active torsions:
REMARK  status: ('A' for Active; 'I' for Inactive)
ROOT
ATOM      1  C   UNL d   1       2.231  -4.117   0.197  0.00  0.00     0.078 C 
ATOM      2  C1  UNL d   1       0.902  -3.835  -0.439  0.00  0.00    -0.077 A 
ATOM      3  C2  UNL d   1      -0.279  -4.370   0.089  0.00  0.00    -0.001 A 
ATOM      4  C3  UNL d   1      -1.507  -4.107  -0.520  0.00  0.00     0.003 A 
ATOM      5  C4  UNL d   1      -1.566  -3.309  -1.661  0.00  0.00    -0.005 A 
ATOM      6  C5  UNL d   1      -0.395  -2.775  -2.195  0.00  0.00     0.003 A 
ATOM      7  C6  UNL d   1       0.834  -3.036  -1.588  0.00  0.00    -0.001 A 
ENDROOT
TORSDOF 0
ENDMDL
