MODEL 1
REMARK minimizedAffinity -2.56647611
REMARK minimizedRMSD -1
REMARK  0 active torsions:
REMARK  status: ('A' for Active; 'I' for Inactive)
ROOT
ATOM      1  C   UNL d   1       0.587  -0.078  -0.981  0.00  0.00     0.078 C 
ATOM      2  C1  UNL d   1       0.170  -1.515  -1.076  0.00  0.00    -0.077 A 
ATOM      3  C2  UNL d   1      -0.994  -1.885  -1.761  0.00  0.00    -0.001 A 
ATOM      4  C3  UNL d   1      -1.375  -3.225  -1.833  0.00  0.00     0.003 A 
ATOM      5  C4  UNL d   1      -0.599  -4.207  -1.220  0.00  0.00    -0.005 A 
ATOM      6  C5  UNL d   1       0.560  -3.849  -0.534  0.00  0.00     0.003 A 
ATOM      7  C6  UNL d   1       0.942  -2.508  -0.461  0.00  0.00    -0.001 A 
ENDROOT
TORSDOF 0
ENDMDL
