MODEL 1
REMARK minimizedAffinity -2.14225912
REMARK minimizedRMSD -1
REMARK  0 active torsions:
REMARK  status: ('A' for Active; 'I' for Inactive)
ROOT
ATOM      1  C   UNL d   1      -0.780  -2.679  -1.392  0.00  0.00     0.078 C 
ATOM      2  C1  UNL d   1      -0.472  -1.600  -0.398  0.00  0.00    -0.077 A 
ATOM      3  C2  UNL d   1       0.468  -0.602  -0.684  0.00  0.00    -0.001 A 
ATOM      4  C3  UNL d   1       0.751   0.391   0.256  0.00  0.00     0.003 A 
ATOM      5  C4  UNL d   1       0.100   0.395   1.488  0.00  0.00    -0.005 A 
ATOM      6  C5  UNL d   1      -0.835  -0.596   1.782  0.00  0.00     0.003 A 
ATOM      7  C6  UNL d   1      -1.120  -1.589   0.844  0.00  0.00    -0.001 A 
ENDROOT
TORSDOF 0
ENDMDL
