MODEL 1
REMARK minimizedAffinity 10.0725498
REMARK minimizedRMSD -1
REMARK  1 active torsions:
REMARK  status: ('A' for Active; 'I' for Inactive)
REMARK    1  A    between atoms: C1_2  and  C2_3 
ROOT
ATOM      1  C2  UNL d   1       3.242  -2.085   2.549  0.00  0.00    -0.076 A 
ATOM      2  C3  UNL d   1       3.976  -3.042   1.826  0.00  0.00     0.004 A 
ATOM      3  C4  UNL d   1       3.576  -3.440   0.552  0.00  0.00    -0.003 A 
ATOM      4  C5  UNL d   1       2.436  -2.887  -0.021  0.00  0.00     0.000 A 
ATOM      5  C6  UNL d   1       1.706  -1.924   0.675  0.00  0.00     0.000 A 
ATOM      6  C7  UNL d   1       2.105  -1.500   1.954  0.00  0.00    -0.073 A 
ATOM      7  C8  UNL d   1       1.276  -0.463   2.661  0.00  0.00     0.078 C 
ENDROOT
BRANCH   1   8
ATOM      8  C1  UNL d   1       3.709  -1.713   3.938  0.00  0.00     0.053 C 
ATOM      9  C   UNL d   1       5.056  -2.328   4.285  0.00  0.00     0.018 C 
ENDBRANCH   1   8
TORSDOF 1
ENDMDL
