MODEL 1
REMARK minimizedAffinity 1.63009787
REMARK minimizedRMSD -1
REMARK  1 active torsions:
REMARK  status: ('A' for Active; 'I' for Inactive)
REMARK    1  A    between atoms: C1_2  and  C2_3 
ROOT
ATOM      1  C2  UNL d   1       2.825   4.546  -5.951  0.00  0.00    -0.076 A 
ATOM      2  C3  UNL d   1       3.445   5.807  -5.972  0.00  0.00     0.004 A 
ATOM      3  C4  UNL d   1       4.834   5.923  -5.995  0.00  0.00    -0.003 A 
ATOM      4  C5  UNL d   1       5.625   4.779  -5.998  0.00  0.00     0.000 A 
ATOM      5  C6  UNL d   1       5.026   3.520  -5.995  0.00  0.00     0.000 A 
ATOM      6  C7  UNL d   1       3.627   3.385  -5.988  0.00  0.00    -0.073 A 
ATOM      7  C8  UNL d   1       3.035   2.003  -5.979  0.00  0.00     0.078 C 
ENDROOT
BRANCH   1   8
ATOM      8  C1  UNL d   1       1.315   4.482  -5.899  0.00  0.00     0.053 C 
ATOM      9  C   UNL d   1       0.676   5.861  -5.826  0.00  0.00     0.018 C 
ENDBRANCH   1   8
TORSDOF 1
ENDMDL
