MODEL 1
REMARK minimizedAffinity 10.6722984
REMARK minimizedRMSD -1
REMARK  1 active torsions:
REMARK  status: ('A' for Active; 'I' for Inactive)
REMARK    1  A    between atoms: C1_2  and  C2_3 
ROOT
ATOM      1  C2  UNL d   1      -4.315   2.201   4.561  0.00  0.00    -0.076 A 
ATOM      2  C3  UNL d   1      -5.644   2.297   4.112  0.00  0.00     0.004 A 
ATOM      3  C4  UNL d   1      -6.000   1.880   2.831  0.00  0.00    -0.003 A 
ATOM      4  C5  UNL d   1      -5.033   1.359   1.978  0.00  0.00     0.000 A 
ATOM      5  C6  UNL d   1      -3.713   1.241   2.413  0.00  0.00     0.000 A 
ATOM      6  C7  UNL d   1      -3.341   1.642   3.708  0.00  0.00    -0.073 A 
ATOM      7  C8  UNL d   1      -1.902   1.496   4.123  0.00  0.00     0.078 C 
ENDROOT
BRANCH   1   8
ATOM      8  C1  UNL d   1      -3.983   2.695   5.952  0.00  0.00     0.053 C 
ATOM      9  C   UNL d   1      -3.752   4.197   5.996  0.00  0.00     0.018 C 
ENDBRANCH   1   8
TORSDOF 1
ENDMDL
