MODEL 1
REMARK minimizedAffinity 8.96695328
REMARK minimizedRMSD -1
REMARK  0 active torsions:
REMARK  status: ('A' for Active; 'I' for Inactive)
ROOT
ATOM      1  C4' PXY d   1      -1.673  -0.502  -5.612  0.00  0.00     0.077 C 
ATOM      2  C1' PXY d   1      -0.464  -5.404  -2.797  0.00  0.00     0.077 C 
ATOM      3  C1  PXY d   1      -0.781  -4.125  -3.546  0.00  0.00    -0.082 A 
ATOM      4  C2  PXY d   1      -0.494  -2.956  -2.996  0.00  0.00     0.003 A 
ATOM      5  C3  PXY d   1      -0.803  -1.789  -3.646  0.00  0.00     0.003 A 
ATOM      6  C4  PXY d   1      -1.362  -1.819  -4.896  0.00  0.00    -0.082 A 
ATOM      7  C5  PXY d   1      -1.648  -3.008  -5.468  0.00  0.00     0.003 A 
ATOM      8  C6  PXY d   1      -1.364  -4.181  -4.774  0.00  0.00     0.003 A 
ENDROOT
TORSDOF 0
ENDMDL
