MODEL 1
REMARK minimizedAffinity -0.514957905
REMARK minimizedRMSD -1
REMARK  0 active torsions:
REMARK  status: ('A' for Active; 'I' for Inactive)
ROOT
ATOM      1  C4' PXY d   1       1.408  -0.402  -0.015  0.00  0.00     0.077 C 
ATOM      2  C1' PXY d   1      -0.207   2.803   4.517  0.00  0.00     0.077 C 
ATOM      3  C1  PXY d   1       0.224   1.972   3.324  0.00  0.00    -0.082 A 
ATOM      4  C2  PXY d   1      -0.559   1.000   2.887  0.00  0.00     0.003 A 
ATOM      5  C3  PXY d   1      -0.170   0.218   1.830  0.00  0.00     0.003 A 
ATOM      6  C4  PXY d   1       1.009   0.469   1.180  0.00  0.00    -0.082 A 
ATOM      7  C5  PXY d   1       1.809   1.466   1.613  0.00  0.00     0.003 A 
ATOM      8  C6  PXY d   1       1.414   2.222   2.714  0.00  0.00     0.003 A 
ENDROOT
TORSDOF 0
ENDMDL
