MODEL 1
REMARK minimizedAffinity 7.98377991
REMARK minimizedRMSD -1
REMARK  0 active torsions:
REMARK  status: ('A' for Active; 'I' for Inactive)
ROOT
ATOM      1  C4' PXY d   1      -3.551   1.160  -0.777  0.00  0.00     0.077 C 
ATOM      2  C1' PXY d   1      -0.027  -0.417   3.526  0.00  0.00     0.077 C 
ATOM      3  C1  PXY d   1      -0.959   0.002   2.406  0.00  0.00    -0.082 A 
ATOM      4  C2  PXY d   1      -0.959  -0.672   1.268  0.00  0.00     0.003 A 
ATOM      5  C3  PXY d   1      -1.773  -0.287   0.233  0.00  0.00     0.003 A 
ATOM      6  C4  PXY d   1      -2.634   0.766   0.384  0.00  0.00    -0.082 A 
ATOM      7  C5  PXY d   1      -2.647   1.453   1.547  0.00  0.00     0.003 A 
ATOM      8  C6  PXY d   1      -1.784   1.072   2.570  0.00  0.00     0.003 A 
ENDROOT
TORSDOF 0
ENDMDL
