MODEL 1
REMARK minimizedAffinity 4.95009804
REMARK minimizedRMSD -1
REMARK  0 active torsions:
REMARK  status: ('A' for Active; 'I' for Inactive)
ROOT
ATOM      1  C4' PXY d   1       2.103  -2.935  -5.997  0.00  0.00     0.077 C 
ATOM      2  C1' PXY d   1      -2.842  -0.346  -4.492  0.00  0.00     0.077 C 
ATOM      3  C1  PXY d   1      -1.543  -1.016  -4.897  0.00  0.00    -0.082 A 
ATOM      4  C2  PXY d   1      -1.348  -2.292  -4.606  0.00  0.00     0.003 A 
ATOM      5  C3  PXY d   1      -0.167  -2.905  -4.936  0.00  0.00     0.003 A 
ATOM      6  C4  PXY d   1       0.803  -2.219  -5.617  0.00  0.00    -0.082 A 
ATOM      7  C5  PXY d   1       0.607  -0.920  -5.926  0.00  0.00     0.003 A 
ATOM      8  C6  PXY d   1      -0.582  -0.305  -5.546  0.00  0.00     0.003 A 
ENDROOT
TORSDOF 0
ENDMDL
