MODEL 1
REMARK minimizedAffinity 4.3583312
REMARK minimizedRMSD -1
REMARK  0 active torsions:
REMARK  status: ('A' for Active; 'I' for Inactive)
ROOT
ATOM      1  C4' PXY d   1      -4.000   1.044  -0.688  0.00  0.00     0.077 C 
ATOM      2  C1' PXY d   1       0.080   0.664   3.389  0.00  0.00     0.077 C 
ATOM      3  C1  PXY d   1      -0.998   0.771   2.328  0.00  0.00    -0.082 A 
ATOM      4  C2  PXY d   1      -1.051  -0.127   1.358  0.00  0.00     0.003 A 
ATOM      5  C3  PXY d   1      -1.999  -0.027   0.372  0.00  0.00     0.003 A 
ATOM      6  C4  PXY d   1      -2.936   0.971   0.410  0.00  0.00    -0.082 A 
ATOM      7  C5  PXY d   1      -2.894   1.884   1.403  0.00  0.00     0.003 A 
ATOM      8  C6  PXY d   1      -1.899   1.789   2.371  0.00  0.00     0.003 A 
ENDROOT
TORSDOF 0
ENDMDL
