MODEL 1
REMARK minimizedAffinity 4.59597063
REMARK minimizedRMSD -1
REMARK  0 active torsions:
REMARK  status: ('A' for Active; 'I' for Inactive)
ROOT
ATOM      1  C4' PXY d   1      -1.139  -3.047  -2.459  0.00  0.00     0.077 C 
ATOM      2  C1' PXY d   1      -1.739  -0.043   2.443  0.00  0.00     0.077 C 
ATOM      3  C1  PXY d   1      -1.572  -0.823   1.154  0.00  0.00    -0.082 A 
ATOM      4  C2  PXY d   1      -2.593  -1.511   0.669  0.00  0.00     0.003 A 
ATOM      5  C3  PXY d   1      -2.450  -2.247  -0.479  0.00  0.00     0.003 A 
ATOM      6  C4  PXY d   1      -1.265  -2.237  -1.165  0.00  0.00    -0.082 A 
ATOM      7  C5  PXY d   1      -0.222  -1.530  -0.682  0.00  0.00     0.003 A 
ATOM      8  C6  PXY d   1      -0.376  -0.822   0.506  0.00  0.00     0.003 A 
ENDROOT
TORSDOF 0
ENDMDL
