MODEL 1
REMARK minimizedAffinity 4.48304462
REMARK minimizedRMSD -1
REMARK  0 active torsions:
REMARK  status: ('A' for Active; 'I' for Inactive)
ROOT
ATOM      1  C4' PXY d   1      -2.982   0.013   3.207  0.00  0.00     0.077 C 
ATOM      2  C1' PXY d   1       2.578  -0.243   1.649  0.00  0.00     0.077 C 
ATOM      3  C1  PXY d   1       1.117  -0.170   2.047  0.00  0.00    -0.082 A 
ATOM      4  C2  PXY d   1       0.782  -0.251   3.324  0.00  0.00     0.003 A 
ATOM      5  C3  PXY d   1      -0.536  -0.219   3.698  0.00  0.00     0.003 A 
ATOM      6  C4  PXY d   1      -1.519  -0.047   2.760  0.00  0.00    -0.082 A 
ATOM      7  C5  PXY d   1      -1.184   0.047   1.456  0.00  0.00     0.003 A 
ATOM      8  C6  PXY d   1       0.157  -0.029   1.093  0.00  0.00     0.003 A 
ENDROOT
TORSDOF 0
ENDMDL
