MODEL 1
REMARK minimizedAffinity 13.5086136
REMARK minimizedRMSD -1
REMARK  0 active torsions:
REMARK  status: ('A' for Active; 'I' for Inactive)
ROOT
ATOM      1  C4' PXY d   1      -4.602   1.733  -0.330  0.00  0.00     0.077 C 
ATOM      2  C1' PXY d   1      -0.320  -0.727   2.674  0.00  0.00     0.077 C 
ATOM      3  C1  PXY d   1      -1.443  -0.072   1.895  0.00  0.00    -0.082 A 
ATOM      4  C2  PXY d   1      -2.212  -0.810   1.111  0.00  0.00     0.003 A 
ATOM      5  C3  PXY d   1      -3.212  -0.229   0.374  0.00  0.00     0.003 A 
ATOM      6  C4  PXY d   1      -3.462   1.113   0.483  0.00  0.00    -0.082 A 
ATOM      7  C5  PXY d   1      -2.689   1.871   1.289  0.00  0.00     0.003 A 
ATOM      8  C6  PXY d   1      -1.653   1.269   1.997  0.00  0.00     0.003 A 
ENDROOT
TORSDOF 0
ENDMDL
