MODEL 1
REMARK minimizedAffinity 4.30315495
REMARK minimizedRMSD -1
REMARK  0 active torsions:
REMARK  status: ('A' for Active; 'I' for Inactive)
ROOT
ATOM      1  C4' PXY d   1       3.617  -0.677   2.303  0.00  0.00     0.077 C 
ATOM      2  C1' PXY d   1      -1.693   1.603   2.464  0.00  0.00     0.077 C 
ATOM      3  C1  PXY d   1      -0.302   1.002   2.410  0.00  0.00    -0.082 A 
ATOM      4  C2  PXY d   1       0.259   0.548   3.519  0.00  0.00     0.003 A 
ATOM      5  C3  PXY d   1       1.528   0.031   3.493  0.00  0.00     0.003 A 
ATOM      6  C4  PXY d   1       2.211  -0.071   2.310  0.00  0.00    -0.082 A 
ATOM      7  C5  PXY d   1       1.641   0.380   1.172  0.00  0.00     0.003 A 
ATOM      8  C6  PXY d   1       0.368   0.939   1.227  0.00  0.00     0.003 A 
ENDROOT
TORSDOF 0
ENDMDL
