MODEL 1
REMARK minimizedAffinity 9.08758259
REMARK minimizedRMSD -1
REMARK  0 active torsions:
REMARK  status: ('A' for Active; 'I' for Inactive)
ROOT
ATOM      1  C4' PXY d   1      -4.220   1.187  -0.341  0.00  0.00     0.077 C 
ATOM      2  C1' PXY d   1       0.057   0.005   3.364  0.00  0.00     0.077 C 
ATOM      3  C1  PXY d   1      -1.060   0.306   2.384  0.00  0.00    -0.082 A 
ATOM      4  C2  PXY d   1      -1.621   1.504   2.380  0.00  0.00     0.003 A 
ATOM      5  C3  PXY d   1      -2.654   1.782   1.522  0.00  0.00     0.003 A 
ATOM      6  C4  PXY d   1      -3.082   0.842   0.624  0.00  0.00    -0.082 A 
ATOM      7  C5  PXY d   1      -2.507  -0.380   0.615  0.00  0.00     0.003 A 
ATOM      8  C6  PXY d   1      -1.488  -0.656   1.522  0.00  0.00     0.003 A 
ENDROOT
TORSDOF 0
ENDMDL
