MODEL 1
REMARK minimizedAffinity -2.64935422
REMARK minimizedRMSD -1
REMARK  0 active torsions:
REMARK  status: ('A' for Active; 'I' for Inactive)
ROOT
ATOM      1  C   UNL d   1      -1.142   1.245   1.875  0.00  0.00     0.020 A 
ATOM      2  C1  UNL d   1       0.071   1.923   1.993  0.00  0.00     0.020 A 
ATOM      3  C2  UNL d   1       1.135   1.602   1.147  0.00  0.00     0.034 A 
ATOM      4  C3  UNL d   1       0.988   0.601   0.180  0.00  0.00     0.017 A 
ATOM      5  C4  UNL d   1      -0.229  -0.079   0.062  0.00  0.00     0.017 A 
ATOM      6  C5  UNL d   1      -1.291   0.246   0.912  0.00  0.00     0.034 A 
ATOM      7 Cl   UNL d   1      -0.485  -1.326  -1.107  0.00  0.00    -0.070 Cl
ATOM      8 Cl1  UNL d   1       2.346   0.257  -0.832  0.00  0.00    -0.070 Cl
ENDROOT
TORSDOF 0
ENDMDL
