MODEL 1
REMARK minimizedAffinity -4.0120225
REMARK minimizedRMSD -1
REMARK  0 active torsions:
REMARK  status: ('A' for Active; 'I' for Inactive)
ROOT
ATOM      1  C   UNL d   1       1.731   2.060   1.862  0.00  0.00     0.020 A 
ATOM      2  C1  UNL d   1       1.828   2.422   0.519  0.00  0.00     0.020 A 
ATOM      3  C2  UNL d   1       1.040   1.778  -0.437  0.00  0.00     0.034 A 
ATOM      4  C3  UNL d   1       0.151   0.768  -0.052  0.00  0.00     0.017 A 
ATOM      5  C4  UNL d   1       0.054   0.405   1.297  0.00  0.00     0.017 A 
ATOM      6  C5  UNL d   1       0.846   1.053   2.250  0.00  0.00     0.034 A 
ATOM      7 Cl   UNL d   1      -1.020  -0.831   1.849  0.00  0.00    -0.070 Cl
ATOM      8 Cl1  UNL d   1      -0.794   0.015  -1.287  0.00  0.00    -0.070 Cl
ENDROOT
TORSDOF 0
ENDMDL
