MODEL 1
REMARK minimizedAffinity -0.506967902
REMARK minimizedRMSD -1
REMARK  0 active torsions:
REMARK  status: ('A' for Active; 'I' for Inactive)
ROOT
ATOM      1  C   UNL d   1      -0.354  -0.613  -1.188  0.00  0.00     0.020 A 
ATOM      2  C1  UNL d   1       0.488   0.488  -1.334  0.00  0.00     0.020 A 
ATOM      3  C2  UNL d   1       0.841   1.251  -0.219  0.00  0.00     0.034 A 
ATOM      4  C3  UNL d   1       0.351   0.913   1.048  0.00  0.00     0.017 A 
ATOM      5  C4  UNL d   1      -0.495  -0.192   1.194  0.00  0.00     0.017 A 
ATOM      6  C5  UNL d   1      -0.845  -0.952   0.074  0.00  0.00     0.034 A 
ATOM      7 Cl   UNL d   1      -1.139  -0.670   2.725  0.00  0.00    -0.070 Cl
ATOM      8 Cl1  UNL d   1       0.829   1.900   2.383  0.00  0.00    -0.070 Cl
ENDROOT
TORSDOF 0
ENDMDL
