MODEL 1
REMARK minimizedAffinity -4.06293917
REMARK minimizedRMSD -1
REMARK  0 active torsions:
REMARK  status: ('A' for Active; 'I' for Inactive)
ROOT
ATOM      1  C   UNL d   1       0.806  -1.445  -0.648  0.00  0.00     0.020 A 
ATOM      2  C1  UNL d   1       1.960  -0.679  -0.810  0.00  0.00     0.020 A 
ATOM      3  C2  UNL d   1       2.045   0.586  -0.224  0.00  0.00     0.034 A 
ATOM      4  C3  UNL d   1       0.975   1.089   0.525  0.00  0.00     0.017 A 
ATOM      5  C4  UNL d   1      -0.182   0.319   0.686  0.00  0.00     0.017 A 
ATOM      6  C5  UNL d   1      -0.263  -0.947   0.098  0.00  0.00     0.034 A 
ATOM      7 Cl   UNL d   1      -1.544   0.872   1.596  0.00  0.00    -0.070 Cl
ATOM      8 Cl1  UNL d   1       1.150   2.661   1.220  0.00  0.00    -0.070 Cl
ENDROOT
TORSDOF 0
ENDMDL
