MODEL 1
REMARK minimizedAffinity -0.688777864
REMARK minimizedRMSD -1
REMARK  0 active torsions:
REMARK  status: ('A' for Active; 'I' for Inactive)
ROOT
ATOM      1  C   UNL d   1       1.509   3.392  -4.872  0.00  0.00     0.020 A 
ATOM      2  C1  UNL d   1       2.292   3.145  -5.999  0.00  0.00     0.020 A 
ATOM      3  C2  UNL d   1       3.637   2.797  -5.852  0.00  0.00     0.034 A 
ATOM      4  C3  UNL d   1       4.202   2.695  -4.576  0.00  0.00     0.017 A 
ATOM      5  C4  UNL d   1       3.415   2.943  -3.446  0.00  0.00     0.017 A 
ATOM      6  C5  UNL d   1       2.070   3.291  -3.598  0.00  0.00     0.034 A 
ATOM      7 Cl   UNL d   1       4.042   2.837  -1.838  0.00  0.00    -0.070 Cl
ATOM      8 Cl1  UNL d   1       5.871   2.260  -4.469  0.00  0.00    -0.070 Cl
ENDROOT
TORSDOF 0
ENDMDL
