MODEL 1
REMARK minimizedAffinity -2.13905597
REMARK minimizedRMSD -1
REMARK  0 active torsions:
REMARK  status: ('A' for Active; 'I' for Inactive)
ROOT
ATOM      1  C   UNL d   1       0.906   2.553   1.419  0.00  0.00     0.020 A 
ATOM      2  C1  UNL d   1       0.816   2.641   0.030  0.00  0.00     0.020 A 
ATOM      3  C2  UNL d   1       0.192   1.623  -0.695  0.00  0.00     0.034 A 
ATOM      4  C3  UNL d   1      -0.343   0.513  -0.032  0.00  0.00     0.017 A 
ATOM      5  C4  UNL d   1      -0.252   0.425   1.362  0.00  0.00     0.017 A 
ATOM      6  C5  UNL d   1       0.373   1.447   2.083  0.00  0.00     0.034 A 
ATOM      7 Cl   UNL d   1      -0.889  -0.913   2.250  0.00  0.00    -0.070 Cl
ATOM      8 Cl1  UNL d   1      -1.100  -0.709  -0.992  0.00  0.00    -0.070 Cl
ENDROOT
TORSDOF 0
ENDMDL
