MODEL 1
REMARK minimizedAffinity -2.13498545
REMARK minimizedRMSD -1
REMARK  0 active torsions:
REMARK  status: ('A' for Active; 'I' for Inactive)
ROOT
ATOM      1  C   UNL d   1       1.302   2.688   0.087  0.00  0.00     0.020 A 
ATOM      2  C1  UNL d   1       1.177   2.523   1.466  0.00  0.00     0.020 A 
ATOM      3  C2  UNL d   1       0.420   1.467   1.977  0.00  0.00     0.034 A 
ATOM      4  C3  UNL d   1      -0.217   0.572   1.108  0.00  0.00     0.017 A 
ATOM      5  C4  UNL d   1      -0.091   0.739  -0.276  0.00  0.00     0.017 A 
ATOM      6  C5  UNL d   1       0.669   1.798  -0.782  0.00  0.00     0.034 A 
ATOM      7 Cl   UNL d   1      -0.847  -0.324  -1.410  0.00  0.00    -0.070 Cl
ATOM      8 Cl1  UNL d   1      -1.137  -0.711   1.809  0.00  0.00    -0.070 Cl
ENDROOT
TORSDOF 0
ENDMDL
