MODEL 1
REMARK minimizedAffinity -2.75163531
REMARK minimizedRMSD -1
REMARK  0 active torsions:
REMARK  status: ('A' for Active; 'I' for Inactive)
ROOT
ATOM      1  C   UNL d   1      -1.446   5.990  -4.050  0.00  0.00     0.020 A 
ATOM      2  C1  UNL d   1      -1.872   5.990  -5.377  0.00  0.00     0.020 A 
ATOM      3  C2  UNL d   1      -3.237   5.993  -5.672  0.00  0.00     0.034 A 
ATOM      4  C3  UNL d   1      -4.181   5.996  -4.639  0.00  0.00     0.017 A 
ATOM      5  C4  UNL d   1      -3.752   5.996  -3.306  0.00  0.00     0.017 A 
ATOM      6  C5  UNL d   1      -2.384   5.993  -3.017  0.00  0.00     0.034 A 
ATOM      7 Cl   UNL d   1      -4.857   5.999  -1.977  0.00  0.00    -0.070 Cl
ATOM      8 Cl1  UNL d   1      -5.852   6.000  -5.077  0.00  0.00    -0.070 Cl
ENDROOT
TORSDOF 0
ENDMDL
