MODEL 1
REMARK minimizedAffinity -4.87070465
REMARK minimizedRMSD -1
REMARK  0 active torsions:
REMARK  status: ('A' for Active; 'I' for Inactive)
ROOT
ATOM      1  C   UNL d   1       0.291   2.826   1.163  0.00  0.00     0.020 A 
ATOM      2  C1  UNL d   1       1.349   2.830   0.255  0.00  0.00     0.020 A 
ATOM      3  C2  UNL d   1       1.830   1.625  -0.261  0.00  0.00     0.034 A 
ATOM      4  C3  UNL d   1       1.254   0.411   0.131  0.00  0.00     0.017 A 
ATOM      5  C4  UNL d   1       0.193   0.408   1.043  0.00  0.00     0.017 A 
ATOM      6  C5  UNL d   1      -0.286   1.618   1.556  0.00  0.00     0.034 A 
ATOM      7 Cl   UNL d   1      -0.569  -1.049   1.574  0.00  0.00    -0.070 Cl
ATOM      8 Cl1  UNL d   1       1.900  -1.041  -0.547  0.00  0.00    -0.070 Cl
ENDROOT
TORSDOF 0
ENDMDL
