MODEL 1
REMARK minimizedAffinity -3.96747446
REMARK minimizedRMSD -1
REMARK  0 active torsions:
REMARK  status: ('A' for Active; 'I' for Inactive)
ROOT
ATOM      1  C   UNL d   1       1.772   1.364   0.706  0.00  0.00     0.020 A 
ATOM      2  C1  UNL d   1       1.324   1.776   1.960  0.00  0.00     0.020 A 
ATOM      3  C2  UNL d   1       0.098   1.318   2.448  0.00  0.00     0.034 A 
ATOM      4  C3  UNL d   1      -0.683   0.446   1.682  0.00  0.00     0.017 A 
ATOM      5  C4  UNL d   1      -0.233   0.033   0.423  0.00  0.00     0.017 A 
ATOM      6  C5  UNL d   1       0.995   0.494  -0.061  0.00  0.00     0.034 A 
ATOM      7 Cl   UNL d   1      -1.142  -1.041  -0.580  0.00  0.00    -0.070 Cl
ATOM      8 Cl1  UNL d   1      -2.188  -0.080   2.349  0.00  0.00    -0.070 Cl
ENDROOT
TORSDOF 0
ENDMDL
