MODEL 1
REMARK minimizedAffinity -2.35400534
REMARK minimizedRMSD -1
REMARK  0 active torsions:
REMARK  status: ('A' for Active; 'I' for Inactive)
ROOT
ATOM      1  C   UNL d   1      -4.489  -2.620  -0.704  0.00  0.00     0.020 A 
ATOM      2  C1  UNL d   1      -4.852  -2.251  -1.998  0.00  0.00     0.020 A 
ATOM      3  C2  UNL d   1      -3.899  -1.710  -2.864  0.00  0.00     0.034 A 
ATOM      4  C3  UNL d   1      -2.578  -1.537  -2.436  0.00  0.00     0.017 A 
ATOM      5  C4  UNL d   1      -2.214  -1.907  -1.137  0.00  0.00     0.017 A 
ATOM      6  C5  UNL d   1      -3.172  -2.449  -0.274  0.00  0.00     0.034 A 
ATOM      7 Cl   UNL d   1      -0.603  -1.724  -0.538  0.00  0.00    -0.070 Cl
ATOM      8 Cl1  UNL d   1      -1.452  -0.862  -3.560  0.00  0.00    -0.070 Cl
ENDROOT
TORSDOF 0
ENDMDL
