MODEL 1
REMARK minimizedAffinity -2.33401155
REMARK minimizedRMSD -1
REMARK  0 active torsions:
REMARK  status: ('A' for Active; 'I' for Inactive)
ROOT
ATOM      1  C   UNL d   1       0.430   1.563   2.086  0.00  0.00     0.020 A 
ATOM      2  C1  UNL d   1      -0.565   0.664   1.704  0.00  0.00     0.020 A 
ATOM      3  C2  UNL d   1      -0.286  -0.328   0.761  0.00  0.00     0.034 A 
ATOM      4  C3  UNL d   1       0.991  -0.422   0.196  0.00  0.00     0.017 A 
ATOM      5  C4  UNL d   1       1.989   0.481   0.580  0.00  0.00     0.017 A 
ATOM      6  C5  UNL d   1       1.705   1.471   1.525  0.00  0.00     0.034 A 
ATOM      7 Cl   UNL d   1       3.589   0.427  -0.073  0.00  0.00    -0.070 Cl
ATOM      8 Cl1  UNL d   1       1.266  -1.673  -0.964  0.00  0.00    -0.070 Cl
ENDROOT
TORSDOF 0
ENDMDL
