MODEL 1
REMARK minimizedAffinity -5.24933004
REMARK minimizedRMSD -1
REMARK  0 active torsions:
REMARK  status: ('A' for Active; 'I' for Inactive)
ROOT
ATOM      1  C   UNL d   1       3.398   1.473   0.877  0.00  0.00     0.020 A 
ATOM      2  C1  UNL d   1       3.552   0.417  -0.020  0.00  0.00     0.020 A 
ATOM      3  C2  UNL d   1       2.453  -0.371  -0.368  0.00  0.00     0.034 A 
ATOM      4  C3  UNL d   1       1.194  -0.104   0.182  0.00  0.00     0.017 A 
ATOM      5  C4  UNL d   1       1.040   0.957   1.083  0.00  0.00     0.017 A 
ATOM      6  C5  UNL d   1       2.144   1.742   1.427  0.00  0.00     0.034 A 
ATOM      7 Cl   UNL d   1      -0.483   1.347   1.802  0.00  0.00    -0.070 Cl
ATOM      8 Cl1  UNL d   1      -0.122  -1.118  -0.292  0.00  0.00    -0.070 Cl
ENDROOT
TORSDOF 0
ENDMDL
