MODEL 1
REMARK minimizedAffinity -4.47515345
REMARK minimizedRMSD -1
REMARK  0 active torsions:
REMARK  status: ('A' for Active; 'I' for Inactive)
ROOT
ATOM      1  C   UNL d   1       0.170   1.739   2.382  0.00  0.00     0.020 A 
ATOM      2  C1  UNL d   1       1.477   2.195   2.220  0.00  0.00     0.020 A 
ATOM      3  C2  UNL d   1       2.292   1.641   1.230  0.00  0.00     0.034 A 
ATOM      4  C3  UNL d   1       1.800   0.629   0.398  0.00  0.00     0.017 A 
ATOM      5  C4  UNL d   1       0.487   0.172   0.561  0.00  0.00     0.017 A 
ATOM      6  C5  UNL d   1      -0.324   0.730   1.554  0.00  0.00     0.034 A 
ATOM      7 Cl   UNL d   1      -0.190  -1.074  -0.427  0.00  0.00    -0.070 Cl
ATOM      8 Cl1  UNL d   1       2.863  -0.009  -0.806  0.00  0.00    -0.070 Cl
ENDROOT
TORSDOF 0
ENDMDL
