MODEL 1
REMARK minimizedAffinity -2.60948372
REMARK minimizedRMSD -1
REMARK  0 active torsions:
REMARK  status: ('A' for Active; 'I' for Inactive)
ROOT
ATOM      1  C   UNL d   1      -0.570   1.262   1.780  0.00  0.00     0.020 A 
ATOM      2  C1  UNL d   1       0.666   1.906   1.776  0.00  0.00     0.020 A 
ATOM      3  C2  UNL d   1       1.679   1.468   0.919  0.00  0.00     0.034 A 
ATOM      4  C3  UNL d   1       1.456   0.383   0.064  0.00  0.00     0.017 A 
ATOM      5  C4  UNL d   1       0.214  -0.263   0.068  0.00  0.00     0.017 A 
ATOM      6  C5  UNL d   1      -0.796   0.181   0.928  0.00  0.00     0.034 A 
ATOM      7 Cl   UNL d   1      -0.135  -1.608  -0.959  0.00  0.00    -0.070 Cl
ATOM      8 Cl1  UNL d   1       2.753  -0.105  -0.969  0.00  0.00    -0.070 Cl
ENDROOT
TORSDOF 0
ENDMDL
