MODEL 1
REMARK minimizedAffinity -4.79903555
REMARK minimizedRMSD -1
REMARK  0 active torsions:
REMARK  status: ('A' for Active; 'I' for Inactive)
ROOT
ATOM      1  C   UNL d   1       0.956   2.485   1.619  0.00  0.00     0.020 A 
ATOM      2  C1  UNL d   1       1.328   2.346   0.282  0.00  0.00     0.020 A 
ATOM      3  C2  UNL d   1       0.875   1.253  -0.459  0.00  0.00     0.034 A 
ATOM      4  C3  UNL d   1       0.047   0.294   0.136  0.00  0.00     0.017 A 
ATOM      5  C4  UNL d   1      -0.326   0.434   1.478  0.00  0.00     0.017 A 
ATOM      6  C5  UNL d   1       0.131   1.531   2.215  0.00  0.00     0.034 A 
ATOM      7 Cl   UNL d   1      -1.344  -0.709   2.281  0.00  0.00    -0.070 Cl
ATOM      8 Cl1  UNL d   1      -0.476  -1.033  -0.840  0.00  0.00    -0.070 Cl
ENDROOT
TORSDOF 0
ENDMDL
