MODEL 1
REMARK minimizedAffinity -2.16208792
REMARK minimizedRMSD -1
REMARK  0 active torsions:
REMARK  status: ('A' for Active; 'I' for Inactive)
ROOT
ATOM      1  C   UNL d   1      -2.612  -1.554  -2.996  0.00  0.00     0.020 A 
ATOM      2  C1  UNL d   1      -2.972  -2.216  -1.823  0.00  0.00     0.020 A 
ATOM      3  C2  UNL d   1      -2.330  -1.908  -0.622  0.00  0.00     0.034 A 
ATOM      4  C3  UNL d   1      -1.324  -0.935  -0.591  0.00  0.00     0.017 A 
ATOM      5  C4  UNL d   1      -0.963  -0.271  -1.769  0.00  0.00     0.017 A 
ATOM      6  C5  UNL d   1      -1.610  -0.584  -2.969  0.00  0.00     0.034 A 
ATOM      7 Cl   UNL d   1       0.268   0.941  -1.810  0.00  0.00    -0.070 Cl
ATOM      8 Cl1  UNL d   1      -0.573  -0.604   0.929  0.00  0.00    -0.070 Cl
ENDROOT
TORSDOF 0
ENDMDL
