MODEL 1
REMARK minimizedAffinity -3.0550611
REMARK minimizedRMSD -1
REMARK  0 active torsions:
REMARK  status: ('A' for Active; 'I' for Inactive)
ROOT
ATOM      1  C   UNL d   1       1.765  -0.504  -0.371  0.00  0.00     0.020 A 
ATOM      2  C1  UNL d   1       0.843  -1.361   0.231  0.00  0.00     0.020 A 
ATOM      3  C2  UNL d   1      -0.153  -0.842   1.060  0.00  0.00     0.034 A 
ATOM      4  C3  UNL d   1      -0.230   0.536   1.291  0.00  0.00     0.017 A 
ATOM      5  C4  UNL d   1       0.695   1.395   0.687  0.00  0.00     0.017 A 
ATOM      6  C5  UNL d   1       1.691   0.870  -0.143  0.00  0.00     0.034 A 
ATOM      7 Cl   UNL d   1       0.664   3.106   0.925  0.00  0.00    -0.070 Cl
ATOM      8 Cl1  UNL d   1      -1.488   1.108   2.328  0.00  0.00    -0.070 Cl
ENDROOT
TORSDOF 0
ENDMDL
