MODEL 1
REMARK minimizedAffinity -4.04344273
REMARK minimizedRMSD -1
REMARK  0 active torsions:
REMARK  status: ('A' for Active; 'I' for Inactive)
ROOT
ATOM      1  C   UNL d   1      -0.356  -1.109   0.087  0.00  0.00     0.020 A 
ATOM      2  C1  UNL d   1      -0.944  -0.341   1.092  0.00  0.00     0.020 A 
ATOM      3  C2  UNL d   1      -0.346   0.853   1.498  0.00  0.00     0.034 A 
ATOM      4  C3  UNL d   1       0.844   1.284   0.901  0.00  0.00     0.017 A 
ATOM      5  C4  UNL d   1       1.434   0.513  -0.108  0.00  0.00     0.017 A 
ATOM      6  C5  UNL d   1       0.830  -0.682  -0.511  0.00  0.00     0.034 A 
ATOM      7 Cl   UNL d   1       2.901   0.979  -0.892  0.00  0.00    -0.070 Cl
ATOM      8 Cl1  UNL d   1       1.528   2.771   1.453  0.00  0.00    -0.070 Cl
ENDROOT
TORSDOF 0
ENDMDL
