MODEL 1
REMARK minimizedAffinity -5.65290833
REMARK minimizedRMSD -1
REMARK  0 active torsions:
REMARK  status: ('A' for Active; 'I' for Inactive)
ROOT
ATOM      1  C2' OXE d   1      -0.765   1.517  -1.511  0.00  0.00     0.078 C 
ATOM      2  C1' OXE d   1       0.002  -0.911  -0.329  0.00  0.00     0.078 C 
ATOM      3  C1  OXE d   1       0.913  -0.319  -1.375  0.00  0.00    -0.078 A 
ATOM      4  C2  OXE d   1       0.507   0.845  -1.982  0.00  0.00    -0.078 A 
ATOM      5  C3  OXE d   1       1.336   1.462  -2.914  0.00  0.00     0.003 A 
ATOM      6  C4  OXE d   1       2.506   0.828  -3.352  0.00  0.00    -0.002 A 
ATOM      7  C5  OXE d   1       2.918  -0.378  -2.775  0.00  0.00    -0.002 A 
ATOM      8  C6  OXE d   1       2.157  -0.942  -1.758  0.00  0.00     0.003 A 
ENDROOT
TORSDOF 0
ENDMDL
