MODEL 1
REMARK minimizedAffinity -2.86979485
REMARK minimizedRMSD -1
REMARK  0 active torsions:
REMARK  status: ('A' for Active; 'I' for Inactive)
ROOT
ATOM      1  C2' OXE d   1      -0.533  -2.398   0.040  0.00  0.00     0.078 C 
ATOM      2  C1' OXE d   1       1.733  -1.609  -1.417  0.00  0.00     0.078 C 
ATOM      3  C1  OXE d   1       0.734  -0.544  -1.039  0.00  0.00    -0.078 A 
ATOM      4  C2  OXE d   1      -0.395  -0.947  -0.367  0.00  0.00    -0.078 A 
ATOM      5  C3  OXE d   1      -1.322   0.003   0.054  0.00  0.00     0.003 A 
ATOM      6  C4  OXE d   1      -1.191   1.342  -0.334  0.00  0.00    -0.002 A 
ATOM      7  C5  OXE d   1      -0.069   1.766  -1.054  0.00  0.00    -0.002 A 
ATOM      8  C6  OXE d   1       0.922   0.845  -1.376  0.00  0.00     0.003 A 
ENDROOT
TORSDOF 0
ENDMDL
