MODEL 1
REMARK minimizedAffinity -5.22126389
REMARK minimizedRMSD -1
REMARK  0 active torsions:
REMARK  status: ('A' for Active; 'I' for Inactive)
ROOT
ATOM      1  C2' OXE d   1       0.270  -1.602   0.271  0.00  0.00     0.078 C 
ATOM      2  C1' OXE d   1      -1.157   0.776  -0.162  0.00  0.00     0.078 C 
ATOM      3  C1  OXE d   1       0.197   0.640  -0.813  0.00  0.00    -0.078 A 
ATOM      4  C2  OXE d   1       0.908  -0.508  -0.557  0.00  0.00    -0.078 A 
ATOM      5  C3  OXE d   1       2.138  -0.709  -1.176  0.00  0.00     0.003 A 
ATOM      6  C4  OXE d   1       2.726   0.312  -1.933  0.00  0.00    -0.002 A 
ATOM      7  C5  OXE d   1       2.036   1.505  -2.173  0.00  0.00    -0.002 A 
ATOM      8  C6  OXE d   1       0.755   1.667  -1.656  0.00  0.00     0.003 A 
ENDROOT
TORSDOF 0
ENDMDL
