MODEL 1
REMARK minimizedAffinity -3.17806292
REMARK minimizedRMSD -1
REMARK  0 active torsions:
REMARK  status: ('A' for Active; 'I' for Inactive)
ROOT
ATOM      1  C2' OXE d   1       0.822  -2.002  -0.026  0.00  0.00     0.078 C 
ATOM      2  C1' OXE d   1      -0.923   0.164   0.350  0.00  0.00     0.078 C 
ATOM      3  C1  OXE d   1       0.106   0.272  -0.747  0.00  0.00    -0.078 A 
ATOM      4  C2  OXE d   1       0.986  -0.773  -0.893  0.00  0.00    -0.078 A 
ATOM      5  C3  OXE d   1       1.920  -0.748  -1.925  0.00  0.00     0.003 A 
ATOM      6  C4  OXE d   1       2.072   0.397  -2.716  0.00  0.00    -0.002 A 
ATOM      7  C5  OXE d   1       1.212   1.489  -2.558  0.00  0.00    -0.002 A 
ATOM      8  C6  OXE d   1       0.198   1.425  -1.608  0.00  0.00     0.003 A 
ENDROOT
TORSDOF 0
ENDMDL
