MODEL 1
REMARK minimizedAffinity -0.421560168
REMARK minimizedRMSD -1
REMARK  0 active torsions:
REMARK  status: ('A' for Active; 'I' for Inactive)
ROOT
ATOM      1  C2' OXE d   1      -0.518  -0.344   0.482  0.00  0.00     0.078 C 
ATOM      2  C1' OXE d   1       0.536   2.177   1.126  0.00  0.00     0.078 C 
ATOM      3  C1  OXE d   1      -0.573   1.635   1.994  0.00  0.00    -0.078 A 
ATOM      4  C2  OXE d   1      -1.114   0.422   1.643  0.00  0.00    -0.078 A 
ATOM      5  C3  OXE d   1      -2.102  -0.149   2.441  0.00  0.00     0.003 A 
ATOM      6  C4  OXE d   1      -2.655   0.571   3.507  0.00  0.00    -0.002 A 
ATOM      7  C5  OXE d   1      -2.146   1.825   3.857  0.00  0.00    -0.002 A 
ATOM      8  C6  OXE d   1      -1.078   2.352   3.138  0.00  0.00     0.003 A 
ENDROOT
TORSDOF 0
ENDMDL
