MODEL 1
REMARK minimizedAffinity -4.97834492
REMARK minimizedRMSD -1
REMARK  0 active torsions:
REMARK  status: ('A' for Active; 'I' for Inactive)
ROOT
ATOM      1  C2' OXE d   1       2.295   1.542  -4.036  0.00  0.00     0.078 C 
ATOM      2  C1' OXE d   1       0.603   2.304  -1.929  0.00  0.00     0.078 C 
ATOM      3  C1  OXE d   1       1.416   1.045  -1.759  0.00  0.00    -0.078 A 
ATOM      4  C2  OXE d   1       2.206   0.654  -2.813  0.00  0.00    -0.078 A 
ATOM      5  C3  OXE d   1       3.017  -0.470  -2.688  0.00  0.00     0.003 A 
ATOM      6  C4  OXE d   1       2.921  -1.291  -1.558  0.00  0.00    -0.002 A 
ATOM      7  C5  OXE d   1       2.093  -0.933  -0.489  0.00  0.00    -0.002 A 
ATOM      8  C6  OXE d   1       1.367   0.251  -0.555  0.00  0.00     0.003 A 
ENDROOT
TORSDOF 0
ENDMDL
