MODEL 1
REMARK minimizedAffinity -5.53397417
REMARK minimizedRMSD -1
REMARK  0 active torsions:
REMARK  status: ('A' for Active; 'I' for Inactive)
ROOT
ATOM      1  C2' OXE d   1       0.406  -1.144   0.779  0.00  0.00     0.078 C 
ATOM      2  C1' OXE d   1      -1.120   0.849  -0.479  0.00  0.00     0.078 C 
ATOM      3  C1  OXE d   1       0.319   0.692  -0.903  0.00  0.00    -0.078 A 
ATOM      4  C2  OXE d   1       1.071  -0.255  -0.249  0.00  0.00    -0.078 A 
ATOM      5  C3  OXE d   1       2.389  -0.478  -0.639  0.00  0.00     0.003 A 
ATOM      6  C4  OXE d   1       2.999   0.355  -1.583  0.00  0.00    -0.002 A 
ATOM      7  C5  OXE d   1       2.263   1.351  -2.233  0.00  0.00    -0.002 A 
ATOM      8  C6  OXE d   1       0.913   1.504  -1.936  0.00  0.00     0.003 A 
ENDROOT
TORSDOF 0
ENDMDL
