MODEL 1
REMARK minimizedAffinity -1.74149847
REMARK minimizedRMSD -1
REMARK  0 active torsions:
REMARK  status: ('A' for Active; 'I' for Inactive)
ROOT
ATOM      1  C2' OXE d   1       0.342  -0.657  -0.737  0.00  0.00     0.078 C 
ATOM      2  C1' OXE d   1       1.613  -0.447   1.757  0.00  0.00     0.078 C 
ATOM      3  C1  OXE d   1       0.166  -0.030   1.668  0.00  0.00    -0.078 A 
ATOM      4  C2  OXE d   1      -0.434  -0.092   0.433  0.00  0.00    -0.078 A 
ATOM      5  C3  OXE d   1      -1.783   0.229   0.305  0.00  0.00     0.003 A 
ATOM      6  C4  OXE d   1      -2.491   0.760   1.390  0.00  0.00    -0.002 A 
ATOM      7  C5  OXE d   1      -1.887   0.869   2.647  0.00  0.00    -0.002 A 
ATOM      8  C6  OXE d   1      -0.575   0.439   2.813  0.00  0.00     0.003 A 
ENDROOT
TORSDOF 0
ENDMDL
