MODEL 1
REMARK minimizedAffinity -6.20626831
REMARK minimizedRMSD -1
REMARK  0 active torsions:
REMARK  status: ('A' for Active; 'I' for Inactive)
ROOT
ATOM      1  C2' OXE d   1       0.579  -1.683   0.093  0.00  0.00     0.078 C 
ATOM      2  C1' OXE d   1      -1.070   0.566  -0.235  0.00  0.00     0.078 C 
ATOM      3  C1  OXE d   1       0.268   0.567  -0.932  0.00  0.00    -0.078 A 
ATOM      4  C2  OXE d   1       1.088  -0.517  -0.728  0.00  0.00    -0.078 A 
ATOM      5  C3  OXE d   1       2.309  -0.591  -1.391  0.00  0.00     0.003 A 
ATOM      6  C4  OXE d   1       2.777   0.495  -2.140  0.00  0.00    -0.002 A 
ATOM      7  C5  OXE d   1       1.974   1.626  -2.328  0.00  0.00    -0.002 A 
ATOM      8  C6  OXE d   1       0.703   1.659  -1.767  0.00  0.00     0.003 A 
ENDROOT
TORSDOF 0
ENDMDL
