MODEL 1
REMARK minimizedAffinity -4.9671731
REMARK minimizedRMSD -1
REMARK  0 active torsions:
REMARK  status: ('A' for Active; 'I' for Inactive)
ROOT
ATOM      1  C2' OXE d   1       0.624  -2.058  -0.146  0.00  0.00     0.078 C 
ATOM      2  C1' OXE d   1      -0.990   0.199   0.279  0.00  0.00     0.078 C 
ATOM      3  C1  OXE d   1      -0.010   0.241  -0.866  0.00  0.00    -0.078 A 
ATOM      4  C2  OXE d   1       0.809  -0.849  -1.038  0.00  0.00    -0.078 A 
ATOM      5  C3  OXE d   1       1.693  -0.885  -2.112  0.00  0.00     0.003 A 
ATOM      6  C4  OXE d   1       1.865   0.241  -2.927  0.00  0.00    -0.002 A 
ATOM      7  C5  OXE d   1       1.069   1.377  -2.745  0.00  0.00    -0.002 A 
ATOM      8  C6  OXE d   1       0.100   1.377  -1.748  0.00  0.00     0.003 A 
ENDROOT
TORSDOF 0
ENDMDL
