MODEL 1
REMARK minimizedAffinity -4.6476512
REMARK minimizedRMSD -1
REMARK  0 active torsions:
REMARK  status: ('A' for Active; 'I' for Inactive)
ROOT
ATOM      1  C2' OXE d   1      -1.424   0.673  -0.135  0.00  0.00     0.078 C 
ATOM      2  C1' OXE d   1      -0.202  -1.797   0.397  0.00  0.00     0.078 C 
ATOM      3  C1  OXE d   1       0.451  -0.894  -0.619  0.00  0.00    -0.078 A 
ATOM      4  C2  OXE d   1      -0.179   0.293  -0.907  0.00  0.00    -0.078 A 
ATOM      5  C3  OXE d   1       0.409   1.188  -1.796  0.00  0.00     0.003 A 
ATOM      6  C4  OXE d   1       1.555   0.824  -2.513  0.00  0.00    -0.002 A 
ATOM      7  C5  OXE d   1       2.191  -0.397  -2.264  0.00  0.00    -0.002 A 
ATOM      8  C6  OXE d   1       1.677  -1.247  -1.291  0.00  0.00     0.003 A 
ENDROOT
TORSDOF 0
ENDMDL
