MODEL 1
REMARK minimizedAffinity -3.57242894
REMARK minimizedRMSD -1
REMARK  0 active torsions:
REMARK  status: ('A' for Active; 'I' for Inactive)
ROOT
ATOM      1  C2' OXE d   1      -1.662   2.333   2.171  0.00  0.00     0.078 C 
ATOM      2  C1' OXE d   1      -3.125  -0.062   2.155  0.00  0.00     0.078 C 
ATOM      3  C1  OXE d   1      -1.876   0.005   1.312  0.00  0.00    -0.078 A 
ATOM      4  C2  OXE d   1      -1.192   1.196   1.289  0.00  0.00    -0.078 A 
ATOM      5  C3  OXE d   1      -0.004   1.295   0.571  0.00  0.00     0.003 A 
ATOM      6  C4  OXE d   1       0.419   0.242  -0.249  0.00  0.00    -0.002 A 
ATOM      7  C5  OXE d   1      -0.285  -0.966  -0.272  0.00  0.00    -0.002 A 
ATOM      8  C6  OXE d   1      -1.408  -1.116   0.534  0.00  0.00     0.003 A 
ENDROOT
TORSDOF 0
ENDMDL
