MODEL 1
REMARK minimizedAffinity -2.02951431
REMARK minimizedRMSD -1
REMARK  0 active torsions:
REMARK  status: ('A' for Active; 'I' for Inactive)
ROOT
ATOM      1  C2' OXE d   1       0.227  -1.729   0.309  0.00  0.00     0.078 C 
ATOM      2  C1' OXE d   1      -1.011   0.787   0.429  0.00  0.00     0.078 C 
ATOM      3  C1  OXE d   1       0.095   0.594  -0.579  0.00  0.00    -0.078 A 
ATOM      4  C2  OXE d   1       0.726  -0.626  -0.599  0.00  0.00    -0.078 A 
ATOM      5  C3  OXE d   1       1.716  -0.875  -1.546  0.00  0.00     0.003 A 
ATOM      6  C4  OXE d   1       2.178   0.155  -2.375  0.00  0.00    -0.002 A 
ATOM      7  C5  OXE d   1       1.575   1.416  -2.344  0.00  0.00    -0.002 A 
ATOM      8  C6  OXE d   1       0.506   1.640  -1.483  0.00  0.00     0.003 A 
ENDROOT
TORSDOF 0
ENDMDL
