MODEL 1
REMARK minimizedAffinity -4.77146196
REMARK minimizedRMSD -1
REMARK  0 active torsions:
REMARK  status: ('A' for Active; 'I' for Inactive)
ROOT
ATOM      1  C2' OXE d   1      -0.032  -2.450   0.098  0.00  0.00     0.078 C 
ATOM      2  C1' OXE d   1      -1.575  -0.164   0.624  0.00  0.00     0.078 C 
ATOM      3  C1  OXE d   1      -0.494  -0.058  -0.422  0.00  0.00    -0.078 A 
ATOM      4  C2  OXE d   1       0.287  -1.168  -0.640  0.00  0.00    -0.078 A 
ATOM      5  C3  OXE d   1       1.262  -1.140  -1.633  0.00  0.00     0.003 A 
ATOM      6  C4  OXE d   1       1.557   0.053  -2.304  0.00  0.00    -0.002 A 
ATOM      7  C5  OXE d   1       0.800   1.205  -2.069  0.00  0.00    -0.002 A 
ATOM      8  C6  OXE d   1      -0.254   1.155  -1.164  0.00  0.00     0.003 A 
ENDROOT
TORSDOF 0
ENDMDL
