MODEL 1
REMARK minimizedAffinity -1.28834879
REMARK minimizedRMSD -1
REMARK  0 active torsions:
REMARK  status: ('A' for Active; 'I' for Inactive)
ROOT
ATOM      1  C2' OXE d   1       0.018  -2.037   0.790  0.00  0.00     0.078 C 
ATOM      2  C1' OXE d   1      -1.151   0.514   0.719  0.00  0.00     0.078 C 
ATOM      3  C1  OXE d   1      -0.072   0.207  -0.289  0.00  0.00    -0.078 A 
ATOM      4  C2  OXE d   1       0.527  -1.028  -0.217  0.00  0.00    -0.078 A 
ATOM      5  C3  OXE d   1       1.490  -1.383  -1.157  0.00  0.00     0.003 A 
ATOM      6  C4  OXE d   1       1.962  -0.441  -2.079  0.00  0.00    -0.002 A 
ATOM      7  C5  OXE d   1       1.394   0.836  -2.143  0.00  0.00    -0.002 A 
ATOM      8  C6  OXE d   1       0.349   1.160  -1.285  0.00  0.00     0.003 A 
ENDROOT
TORSDOF 0
ENDMDL
