MODEL 1
REMARK minimizedAffinity -3.87895775
REMARK minimizedRMSD -1
REMARK  0 active torsions:
REMARK  status: ('A' for Active; 'I' for Inactive)
ROOT
ATOM      1  C2' OXE d   1       0.499  -1.730  -0.016  0.00  0.00     0.078 C 
ATOM      2  C1' OXE d   1      -0.259   0.956  -0.320  0.00  0.00     0.078 C 
ATOM      3  C1  OXE d   1       0.997   0.496  -1.018  0.00  0.00    -0.078 A 
ATOM      4  C2  OXE d   1       1.386  -0.808  -0.825  0.00  0.00    -0.078 A 
ATOM      5  C3  OXE d   1       2.507  -1.298  -1.490  0.00  0.00     0.003 A 
ATOM      6  C4  OXE d   1       3.326  -0.436  -2.228  0.00  0.00    -0.002 A 
ATOM      7  C5  OXE d   1       2.970   0.906  -2.404  0.00  0.00    -0.002 A 
ATOM      8  C6  OXE d   1       1.788   1.376  -1.842  0.00  0.00     0.003 A 
ENDROOT
TORSDOF 0
ENDMDL
