MODEL 1
REMARK minimizedAffinity -5.3909421
REMARK minimizedRMSD -1
REMARK  0 active torsions:
REMARK  status: ('A' for Active; 'I' for Inactive)
ROOT
ATOM      1  C2' OXE d   1       3.933   0.384  -2.668  0.00  0.00     0.078 C 
ATOM      2  C1' OXE d   1       2.077   2.476  -2.421  0.00  0.00     0.078 C 
ATOM      3  C1  OXE d   1       1.825   1.215  -1.633  0.00  0.00    -0.078 A 
ATOM      4  C2  OXE d   1       2.713   0.179  -1.796  0.00  0.00    -0.078 A 
ATOM      5  C3  OXE d   1       2.557  -0.986  -1.050  0.00  0.00     0.003 A 
ATOM      6  C4  OXE d   1       1.420  -1.171  -0.254  0.00  0.00    -0.002 A 
ATOM      7  C5  OXE d   1       0.483  -0.144  -0.105  0.00  0.00    -0.002 A 
ATOM      8  C6  OXE d   1       0.692   1.068  -0.753  0.00  0.00     0.003 A 
ENDROOT
TORSDOF 0
ENDMDL
