MODEL 1
REMARK minimizedAffinity -5.83388662
REMARK minimizedRMSD -1
REMARK  0 active torsions:
REMARK  status: ('A' for Active; 'I' for Inactive)
ROOT
ATOM      1  C2' OXE d   1      -0.283  -0.621   0.003  0.00  0.00     0.078 C 
ATOM      2  C1' OXE d   1      -0.796   1.691  -1.504  0.00  0.00     0.078 C 
ATOM      3  C1  OXE d   1       0.590   1.099  -1.573  0.00  0.00    -0.078 A 
ATOM      4  C2  OXE d   1       0.845  -0.005  -0.796  0.00  0.00    -0.078 A 
ATOM      5  C3  OXE d   1       2.090  -0.623  -0.865  0.00  0.00     0.003 A 
ATOM      6  C4  OXE d   1       3.131  -0.041  -1.598  0.00  0.00    -0.002 A 
ATOM      7  C5  OXE d   1       2.904   1.107  -2.366  0.00  0.00    -0.002 A 
ATOM      8  C6  OXE d   1       1.630   1.664  -2.397  0.00  0.00     0.003 A 
ENDROOT
TORSDOF 0
ENDMDL
