MODEL 1
REMARK minimizedAffinity -6.32449675
REMARK minimizedRMSD -1
REMARK  0 active torsions:
REMARK  status: ('A' for Active; 'I' for Inactive)
ROOT
ATOM      1  C2' OXE d   1       0.526  -1.368   0.507  0.00  0.00     0.078 C 
ATOM      2  C1' OXE d   1      -0.731   0.831  -0.703  0.00  0.00     0.078 C 
ATOM      3  C1  OXE d   1       0.691   0.527  -1.102  0.00  0.00    -0.078 A 
ATOM      4  C2  OXE d   1       1.314  -0.523  -0.470  0.00  0.00    -0.078 A 
ATOM      5  C3  OXE d   1       2.607  -0.881  -0.841  0.00  0.00     0.003 A 
ATOM      6  C4  OXE d   1       3.333  -0.088  -1.738  0.00  0.00    -0.002 A 
ATOM      7  C5  OXE d   1       2.731   1.009  -2.363  0.00  0.00    -0.002 A 
ATOM      8  C6  OXE d   1       1.400   1.304  -2.088  0.00  0.00     0.003 A 
ENDROOT
TORSDOF 0
ENDMDL
