MODEL 1
REMARK minimizedAffinity -3.27278876
REMARK minimizedRMSD -1
REMARK  0 active torsions:
REMARK  status: ('A' for Active; 'I' for Inactive)
ROOT
ATOM      1  O1  BZF d   1       0.893   0.230  -0.200  0.00  0.00    -0.204 OA
ATOM      2  C2  BZF d   1       0.721  -1.131  -0.035  0.00  0.00     0.174 A 
ATOM      3  C3  BZF d   1      -0.444  -1.393   0.592  0.00  0.00    -0.012 A 
ATOM      4  C3A BZF d   1      -1.080  -0.122   0.751  0.00  0.00    -0.107 A 
ATOM      5  C4  BZF d   1      -2.272   0.271   1.290  0.00  0.00     0.055 A 
ATOM      6  C5  BZF d   1      -2.562   1.597   1.356  0.00  0.00    -0.016 A 
ATOM      7  C6  BZF d   1      -1.683   2.556   0.898  0.00  0.00     0.022 A 
ATOM      8  C7  BZF d   1      -0.491   2.215   0.350  0.00  0.00     0.029 A 
ATOM      9  C7A BZF d   1      -0.209   0.874   0.252  0.00  0.00     0.058 A 
ENDROOT
TORSDOF 0
ENDMDL
