MODEL 1
REMARK minimizedAffinity -1.69929028
REMARK minimizedRMSD -1
REMARK  0 active torsions:
REMARK  status: ('A' for Active; 'I' for Inactive)
ROOT
ATOM      1  O1  BZF d   1       0.953   0.266  -0.769  0.00  0.00    -0.204 OA
ATOM      2  C2  BZF d   1       0.500  -1.035  -0.879  0.00  0.00     0.174 A 
ATOM      3  C3  BZF d   1      -0.619  -1.215  -0.148  0.00  0.00    -0.012 A 
ATOM      4  C3A BZF d   1      -0.935   0.076   0.382  0.00  0.00    -0.107 A 
ATOM      5  C4  BZF d   1      -1.943   0.545   1.174  0.00  0.00     0.055 A 
ATOM      6  C5  BZF d   1      -1.921   1.844   1.571  0.00  0.00    -0.016 A 
ATOM      7  C6  BZF d   1      -0.905   2.700   1.199  0.00  0.00     0.022 A 
ATOM      8  C7  BZF d   1       0.114   2.282   0.410  0.00  0.00     0.029 A 
ATOM      9  C7A BZF d   1       0.078   0.978  -0.020  0.00  0.00     0.058 A 
ENDROOT
TORSDOF 0
ENDMDL
