MODEL 1
REMARK minimizedAffinity -5.04395819
REMARK minimizedRMSD -1
REMARK  0 active torsions:
REMARK  status: ('A' for Active; 'I' for Inactive)
ROOT
ATOM      1  O1  BZF d   1       0.284  -0.619   0.176  0.00  0.00    -0.204 OA
ATOM      2  C2  BZF d   1      -1.068  -0.894   0.240  0.00  0.00     0.174 A 
ATOM      3  C3  BZF d   1      -1.783   0.245   0.348  0.00  0.00    -0.012 A 
ATOM      4  C3A BZF d   1      -0.823   1.302   0.258  0.00  0.00    -0.107 A 
ATOM      5  C4  BZF d   1      -0.920   2.664   0.284  0.00  0.00     0.055 A 
ATOM      6  C5  BZF d   1       0.216   3.408   0.248  0.00  0.00    -0.016 A 
ATOM      7  C6  BZF d   1       1.465   2.825   0.191  0.00  0.00     0.022 A 
ATOM      8  C7  BZF d   1       1.612   1.478   0.158  0.00  0.00     0.029 A 
ATOM      9  C7A BZF d   1       0.464   0.723   0.162  0.00  0.00     0.058 A 
ENDROOT
TORSDOF 0
ENDMDL
