MODEL 1
REMARK minimizedAffinity -0.942062318
REMARK minimizedRMSD -1
REMARK  0 active torsions:
REMARK  status: ('A' for Active; 'I' for Inactive)
ROOT
ATOM      1  O1  BZF d   1      -1.366  -1.142  -0.090  0.00  0.00    -0.204 OA
ATOM      2  C2  BZF d   1      -0.054  -1.557  -0.216  0.00  0.00     0.174 A 
ATOM      3  C3  BZF d   1       0.796  -0.555   0.086  0.00  0.00    -0.012 A 
ATOM      4  C3A BZF d   1      -0.035   0.529   0.510  0.00  0.00    -0.107 A 
ATOM      5  C4  BZF d   1       0.225   1.795   0.952  0.00  0.00     0.055 A 
ATOM      6  C5  BZF d   1      -0.815   2.629   1.217  0.00  0.00    -0.016 A 
ATOM      7  C6  BZF d   1      -2.125   2.233   1.046  0.00  0.00     0.022 A 
ATOM      8  C7  BZF d   1      -2.433   0.986   0.614  0.00  0.00     0.029 A 
ATOM      9  C7A BZF d   1      -1.385   0.130   0.378  0.00  0.00     0.058 A 
ENDROOT
TORSDOF 0
ENDMDL
