MODEL 1
REMARK minimizedAffinity -3.38917708
REMARK minimizedRMSD -1
REMARK  0 active torsions:
REMARK  status: ('A' for Active; 'I' for Inactive)
ROOT
ATOM      1  O1  BZF d   1       2.341   0.393   0.620  0.00  0.00    -0.204 OA
ATOM      2  C2  BZF d   1       3.018   1.453   1.192  0.00  0.00     0.174 A 
ATOM      3  C3  BZF d   1       2.208   2.524   1.319  0.00  0.00    -0.012 A 
ATOM      4  C3A BZF d   1       0.922   2.078   0.879  0.00  0.00    -0.107 A 
ATOM      5  C4  BZF d   1      -0.300   2.681   0.785  0.00  0.00     0.055 A 
ATOM      6  C5  BZF d   1      -1.338   1.990   0.245  0.00  0.00    -0.016 A 
ATOM      7  C6  BZF d   1      -1.189   0.697  -0.214  0.00  0.00     0.022 A 
ATOM      8  C7  BZF d   1       0.002   0.055  -0.136  0.00  0.00     0.029 A 
ATOM      9  C7A BZF d   1       1.045   0.740   0.439  0.00  0.00     0.058 A 
ENDROOT
TORSDOF 0
ENDMDL
