MODEL 1
REMARK minimizedAffinity -4.79547739
REMARK minimizedRMSD -1
REMARK  0 active torsions:
REMARK  status: ('A' for Active; 'I' for Inactive)
ROOT
ATOM      1  O1  BZF d   1       1.950   0.544   0.393  0.00  0.00    -0.204 OA
ATOM      2  C2  BZF d   1       2.955   1.474   0.577  0.00  0.00     0.174 A 
ATOM      3  C3  BZF d   1       2.449   2.723   0.625  0.00  0.00    -0.012 A 
ATOM      4  C3A BZF d   1       1.030   2.557   0.553  0.00  0.00    -0.107 A 
ATOM      5  C4  BZF d   1      -0.020   3.430   0.571  0.00  0.00     0.055 A 
ATOM      6  C5  BZF d   1      -1.281   2.951   0.409  0.00  0.00    -0.016 A 
ATOM      7  C6  BZF d   1      -1.528   1.607   0.221  0.00  0.00     0.022 A 
ATOM      8  C7  BZF d   1      -0.520   0.701   0.202  0.00  0.00     0.029 A 
ATOM      9  C7A BZF d   1       0.753   1.179   0.398  0.00  0.00     0.058 A 
ENDROOT
TORSDOF 0
ENDMDL
