MODEL 1
REMARK minimizedAffinity -3.91074824
REMARK minimizedRMSD -1
REMARK  0 active torsions:
REMARK  status: ('A' for Active; 'I' for Inactive)
ROOT
ATOM      1  O1  BZF d   1      -0.854  -1.220   0.286  0.00  0.00    -0.204 OA
ATOM      2  C2  BZF d   1       0.306  -1.758  -0.238  0.00  0.00     0.174 A 
ATOM      3  C3  BZF d   1       1.161  -0.783  -0.608  0.00  0.00    -0.012 A 
ATOM      4  C3A BZF d   1       0.532   0.440  -0.211  0.00  0.00    -0.107 A 
ATOM      5  C4  BZF d   1       0.897   1.753  -0.294  0.00  0.00     0.055 A 
ATOM      6  C5  BZF d   1       0.024   2.708   0.121  0.00  0.00    -0.016 A 
ATOM      7  C6  BZF d   1      -1.222   2.386   0.619  0.00  0.00     0.022 A 
ATOM      8  C7  BZF d   1      -1.626   1.097   0.725  0.00  0.00     0.029 A 
ATOM      9  C7A BZF d   1      -0.734   0.128   0.337  0.00  0.00     0.058 A 
ENDROOT
TORSDOF 0
ENDMDL
