MODEL 1
REMARK minimizedAffinity -0.56444025
REMARK minimizedRMSD -1
REMARK  0 active torsions:
REMARK  status: ('A' for Active; 'I' for Inactive)
ROOT
ATOM      1  O1  BZF d   1       1.398   0.142  -0.123  0.00  0.00    -0.204 OA
ATOM      2  C2  BZF d   1       1.054  -1.196  -0.117  0.00  0.00     0.174 A 
ATOM      3  C3  BZF d   1      -0.185  -1.370   0.385  0.00  0.00    -0.012 A 
ATOM      4  C3A BZF d   1      -0.681  -0.050   0.629  0.00  0.00    -0.107 A 
ATOM      5  C4  BZF d   1      -1.863   0.435   1.112  0.00  0.00     0.055 A 
ATOM      6  C5  BZF d   1      -2.001   1.774   1.295  0.00  0.00    -0.016 A 
ATOM      7  C6  BZF d   1      -0.978   2.656   1.012  0.00  0.00     0.022 A 
ATOM      8  C7  BZF d   1       0.210   2.222   0.526  0.00  0.00     0.029 A 
ATOM      9  C7A BZF d   1       0.342   0.872   0.308  0.00  0.00     0.058 A 
ENDROOT
TORSDOF 0
ENDMDL
