MODEL 1
REMARK minimizedAffinity -2.65579796
REMARK minimizedRMSD -1
REMARK  0 active torsions:
REMARK  status: ('A' for Active; 'I' for Inactive)
ROOT
ATOM      1  O1  BZF d   1       1.755  -0.554   0.658  0.00  0.00    -0.204 OA
ATOM      2  C2  BZF d   1       0.672  -1.401   0.528  0.00  0.00     0.174 A 
ATOM      3  C3  BZF d   1      -0.484  -0.708   0.562  0.00  0.00    -0.012 A 
ATOM      4  C3A BZF d   1      -0.096   0.668   0.631  0.00  0.00    -0.107 A 
ATOM      5  C4  BZF d   1      -0.796   1.840   0.675  0.00  0.00     0.055 A 
ATOM      6  C5  BZF d   1      -0.118   3.009   0.814  0.00  0.00    -0.016 A 
ATOM      7  C6  BZF d   1       1.257   3.043   0.917  0.00  0.00     0.022 A 
ATOM      8  C7  BZF d   1       1.995   1.907   0.874  0.00  0.00     0.029 A 
ATOM      9  C7A BZF d   1       1.315   0.726   0.700  0.00  0.00     0.058 A 
ENDROOT
TORSDOF 0
ENDMDL
