MODEL 1
REMARK minimizedAffinity -4.63459969
REMARK minimizedRMSD -1
REMARK  0 active torsions:
REMARK  status: ('A' for Active; 'I' for Inactive)
ROOT
ATOM      1  O1  BZF d   1       0.575   2.612  -0.524  0.00  0.00    -0.204 OA
ATOM      2  C2  BZF d   1      -0.125   3.585   0.164  0.00  0.00     0.174 A 
ATOM      3  C3  BZF d   1      -1.042   3.027   0.981  0.00  0.00    -0.012 A 
ATOM      4  C3A BZF d   1      -0.844   1.615   0.860  0.00  0.00    -0.107 A 
ATOM      5  C4  BZF d   1      -1.440   0.531   1.438  0.00  0.00     0.055 A 
ATOM      6  C5  BZF d   1      -1.062  -0.716   1.049  0.00  0.00    -0.016 A 
ATOM      7  C6  BZF d   1      -0.096  -0.914   0.085  0.00  0.00     0.022 A 
ATOM      8  C7  BZF d   1       0.527   0.131  -0.513  0.00  0.00     0.029 A 
ATOM      9  C7A BZF d   1       0.171   1.391  -0.099  0.00  0.00     0.058 A 
ENDROOT
TORSDOF 0
ENDMDL
