MODEL 1
REMARK minimizedAffinity 4.2516036
REMARK minimizedRMSD -1
REMARK  0 active torsions:
REMARK  status: ('A' for Active; 'I' for Inactive)
ROOT
ATOM      1  O1  BZF d   1       1.997   1.347   1.113  0.00  0.00    -0.204 OA
ATOM      2  C2  BZF d   1       2.556   0.188   0.610  0.00  0.00     0.174 A 
ATOM      3  C3  BZF d   1       1.603  -0.730   0.353  0.00  0.00    -0.012 A 
ATOM      4  C3A BZF d   1       0.363  -0.073   0.632  0.00  0.00    -0.107 A 
ATOM      5  C4  BZF d   1      -0.944  -0.462   0.552  0.00  0.00     0.055 A 
ATOM      6  C5  BZF d   1      -1.914   0.394   0.967  0.00  0.00    -0.016 A 
ATOM      7  C6  BZF d   1      -1.614   1.643   1.471  0.00  0.00     0.022 A 
ATOM      8  C7  BZF d   1      -0.332   2.074   1.565  0.00  0.00     0.029 A 
ATOM      9  C7A BZF d   1       0.648   1.224   1.116  0.00  0.00     0.058 A 
ENDROOT
TORSDOF 0
ENDMDL
