MODEL 1
REMARK minimizedAffinity 5.21026897
REMARK minimizedRMSD -1
REMARK  0 active torsions:
REMARK  status: ('A' for Active; 'I' for Inactive)
ROOT
ATOM      1  O1  BZF d   1       0.357   0.080   1.231  0.00  0.00    -0.204 OA
ATOM      2  C2  BZF d   1      -0.180  -0.956   0.492  0.00  0.00     0.174 A 
ATOM      3  C3  BZF d   1      -1.504  -0.778   0.310  0.00  0.00    -0.012 A 
ATOM      4  C3A BZF d   1      -1.797   0.493   0.900  0.00  0.00    -0.107 A 
ATOM      5  C4  BZF d   1      -2.941   1.229   1.024  0.00  0.00     0.055 A 
ATOM      6  C5  BZF d   1      -2.903   2.396   1.720  0.00  0.00    -0.016 A 
ATOM      7  C6  BZF d   1      -1.742   2.853   2.307  0.00  0.00     0.022 A 
ATOM      8  C7  BZF d   1      -0.581   2.160   2.207  0.00  0.00     0.029 A 
ATOM      9  C7A BZF d   1      -0.609   0.997   1.477  0.00  0.00     0.058 A 
ENDROOT
TORSDOF 0
ENDMDL
