MODEL 1
REMARK minimizedAffinity -5.93648911
REMARK minimizedRMSD -1
REMARK  0 active torsions:
REMARK  status: ('A' for Active; 'I' for Inactive)
ROOT
ATOM      1  O1  BZF d   1       0.010  -0.488   1.112  0.00  0.00    -0.204 OA
ATOM      2  C2  BZF d   1      -1.357  -0.684   1.111  0.00  0.00     0.174 A 
ATOM      3  C3  BZF d   1      -2.004   0.458   0.803  0.00  0.00    -0.012 A 
ATOM      4  C3A BZF d   1      -0.973   1.406   0.509  0.00  0.00    -0.107 A 
ATOM      5  C4  BZF d   1      -0.985   2.716   0.122  0.00  0.00     0.055 A 
ATOM      6  C5  BZF d   1       0.195   3.376  -0.012  0.00  0.00    -0.016 A 
ATOM      7  C6  BZF d   1       1.404   2.759   0.238  0.00  0.00     0.022 A 
ATOM      8  C7  BZF d   1       1.466   1.460   0.618  0.00  0.00     0.029 A 
ATOM      9  C7A BZF d   1       0.277   0.781   0.723  0.00  0.00     0.058 A 
ENDROOT
TORSDOF 0
ENDMDL
