MODEL 1
REMARK minimizedAffinity -3.94418716
REMARK minimizedRMSD -1
REMARK  0 active torsions:
REMARK  status: ('A' for Active; 'I' for Inactive)
ROOT
ATOM      1  O1  BZF d   1       1.211  -0.156   0.263  0.00  0.00    -0.204 OA
ATOM      2  C2  BZF d   1      -0.083  -0.603   0.443  0.00  0.00     0.174 A 
ATOM      3  C3  BZF d   1      -0.926   0.433   0.627  0.00  0.00    -0.012 A 
ATOM      4  C3A BZF d   1      -0.122   1.606   0.465  0.00  0.00    -0.107 A 
ATOM      5  C4  BZF d   1      -0.392   2.943   0.515  0.00  0.00     0.055 A 
ATOM      6  C5  BZF d   1       0.631   3.829   0.386  0.00  0.00    -0.016 A 
ATOM      7  C6  BZF d   1       1.935   3.412   0.212  0.00  0.00     0.022 A 
ATOM      8  C7  BZF d   1       2.251   2.095   0.151  0.00  0.00     0.029 A 
ATOM      9  C7A BZF d   1       1.215   1.199   0.248  0.00  0.00     0.058 A 
ENDROOT
TORSDOF 0
ENDMDL
