MODEL 1
REMARK minimizedAffinity -2.65333152
REMARK minimizedRMSD -1
REMARK  0 active torsions:
REMARK  status: ('A' for Active; 'I' for Inactive)
ROOT
ATOM      1  O1  BZF d   1      -2.006  -2.201  -2.213  0.00  0.00    -0.204 OA
ATOM      2  C2  BZF d   1      -1.134  -3.230  -2.512  0.00  0.00     0.174 A 
ATOM      3  C3  BZF d   1      -0.001  -3.122  -1.788  0.00  0.00    -0.012 A 
ATOM      4  C3A BZF d   1      -0.214  -2.005  -0.920  0.00  0.00    -0.107 A 
ATOM      5  C4  BZF d   1       0.544  -1.409   0.047  0.00  0.00     0.055 A 
ATOM      6  C5  BZF d   1       0.075  -0.290   0.659  0.00  0.00    -0.016 A 
ATOM      7  C6  BZF d   1      -1.144   0.262   0.325  0.00  0.00     0.022 A 
ATOM      8  C7  BZF d   1      -1.934  -0.295  -0.624  0.00  0.00     0.029 A 
ATOM      9  C7A BZF d   1      -1.477  -1.445  -1.221  0.00  0.00     0.058 A 
ENDROOT
TORSDOF 0
ENDMDL
