MODEL 1
REMARK minimizedAffinity -4.86234379
REMARK minimizedRMSD -1
REMARK  0 active torsions:
REMARK  status: ('A' for Active; 'I' for Inactive)
ROOT
ATOM      1  O1  BZF d   1       0.034  -1.119  -0.556  0.00  0.00    -0.204 OA
ATOM      2  C2  BZF d   1      -0.675  -1.480   0.573  0.00  0.00     0.174 A 
ATOM      3  C3  BZF d   1      -0.862  -0.416   1.381  0.00  0.00    -0.012 A 
ATOM      4  C3A BZF d   1      -0.311   0.697   0.671  0.00  0.00    -0.107 A 
ATOM      5  C4  BZF d   1      -0.210   2.030   0.948  0.00  0.00     0.055 A 
ATOM      6  C5  BZF d   1       0.451   2.838   0.077  0.00  0.00    -0.016 A 
ATOM      7  C6  BZF d   1       1.025   2.346  -1.076  0.00  0.00     0.022 A 
ATOM      8  C7  BZF d   1       0.946   1.031  -1.397  0.00  0.00     0.029 A 
ATOM      9  C7A BZF d   1       0.251   0.218  -0.535  0.00  0.00     0.058 A 
ENDROOT
TORSDOF 0
ENDMDL
