MODEL 1
REMARK minimizedAffinity -4.17830181
REMARK minimizedRMSD -1
REMARK  0 active torsions:
REMARK  status: ('A' for Active; 'I' for Inactive)
ROOT
ATOM      1  O1  BZF d   1      -0.849   3.225   0.462  0.00  0.00    -0.204 OA
ATOM      2  C2  BZF d   1       0.434   3.727   0.363  0.00  0.00     0.174 A 
ATOM      3  C3  BZF d   1       1.299   2.760  -0.008  0.00  0.00    -0.012 A 
ATOM      4  C3A BZF d   1       0.491   1.602  -0.239  0.00  0.00    -0.107 A 
ATOM      5  C4  BZF d   1       0.772   0.328  -0.644  0.00  0.00     0.055 A 
ATOM      6  C5  BZF d   1      -0.235  -0.584  -0.699  0.00  0.00    -0.016 A 
ATOM      7  C6  BZF d   1      -1.530  -0.258  -0.353  0.00  0.00     0.022 A 
ATOM      8  C7  BZF d   1      -1.857   0.994   0.050  0.00  0.00     0.029 A 
ATOM      9  C7A BZF d   1      -0.848   1.926   0.075  0.00  0.00     0.058 A 
ENDROOT
TORSDOF 0
ENDMDL
