MODEL 1
REMARK minimizedAffinity -5.24568987
REMARK minimizedRMSD -1
REMARK  0 active torsions:
REMARK  status: ('A' for Active; 'I' for Inactive)
ROOT
ATOM      1  N1  IND d   1       0.959  -0.166  -0.754  0.00  0.00    -0.196 N 
ATOM      2  C2  IND d   1      -0.123  -0.737  -1.364  0.00  0.00     0.054 A 
ATOM      3  C3  IND d   1      -1.169  -0.795  -0.509  0.00  0.00    -0.031 A 
ATOM      4  C4  IND d   1      -1.358   0.082   1.904  0.00  0.00     0.051 A 
ATOM      5  C5  IND d   1      -0.620   0.648   2.906  0.00  0.00    -0.031 A 
ATOM      6  C6  IND d   1       0.708   0.981   2.734  0.00  0.00     0.015 A 
ATOM      7  C7  IND d   1       1.347   0.770   1.545  0.00  0.00    -0.016 A 
ATOM      8  C8  IND d   1       0.603   0.189   0.528  0.00  0.00    -0.047 A 
ATOM      9  C9  IND d   1      -0.733  -0.190   0.710  0.00  0.00    -0.096 A 
ATOM     10  HN1 IND d   1       1.732  -0.048  -1.112  0.00  0.00     0.298 HD
ENDROOT
TORSDOF 0
ENDMDL
