MODEL 1
REMARK minimizedAffinity 0.219799742
REMARK minimizedRMSD -1
REMARK  0 active torsions:
REMARK  status: ('A' for Active; 'I' for Inactive)
ROOT
ATOM      1  N1  IND d   1      -1.992  -0.867   2.767  0.00  0.00    -0.196 N 
ATOM      2  C2  IND d   1      -2.182   0.403   2.300  0.00  0.00     0.054 A 
ATOM      3  C3  IND d   1      -1.042   1.121   2.413  0.00  0.00    -0.031 A 
ATOM      4  C4  IND d   1       1.281   0.384   3.242  0.00  0.00     0.051 A 
ATOM      5  C5  IND d   1       1.937  -0.673   3.806  0.00  0.00    -0.031 A 
ATOM      6  C6  IND d   1       1.306  -1.875   4.055  0.00  0.00     0.015 A 
ATOM      7  C7  IND d   1      -0.009  -2.068   3.738  0.00  0.00    -0.016 A 
ATOM      8  C8  IND d   1      -0.681  -0.994   3.171  0.00  0.00    -0.047 A 
ATOM      9  C9  IND d   1      -0.056   0.241   2.955  0.00  0.00    -0.096 A 
ATOM     10  HN1 IND d   1      -2.590  -1.484   2.803  0.00  0.00     0.298 HD
ENDROOT
TORSDOF 0
ENDMDL
