MODEL 1
REMARK minimizedAffinity 3.3549633
REMARK minimizedRMSD -1
REMARK  0 active torsions:
REMARK  status: ('A' for Active; 'I' for Inactive)
ROOT
ATOM      1  N1  IND d   1       1.057  -0.820   1.538  0.00  0.00    -0.196 N 
ATOM      2  C2  IND d   1       1.101  -0.958   2.897  0.00  0.00     0.054 A 
ATOM      3  C3  IND d   1      -0.053  -0.525   3.452  0.00  0.00    -0.031 A 
ATOM      4  C4  IND d   1      -2.188   0.352   2.311  0.00  0.00     0.051 A 
ATOM      5  C5  IND d   1      -2.693   0.694   1.088  0.00  0.00    -0.031 A 
ATOM      6  C6  IND d   1      -1.960   0.543  -0.071  0.00  0.00     0.015 A 
ATOM      7  C7  IND d   1      -0.693   0.031  -0.052  0.00  0.00    -0.016 A 
ATOM      8  C8  IND d   1      -0.175  -0.310   1.189  0.00  0.00    -0.047 A 
ATOM      9  C9  IND d   1      -0.898  -0.119   2.374  0.00  0.00    -0.096 A 
ATOM     10  HN1 IND d   1       1.691  -1.019   0.992  0.00  0.00     0.298 HD
ENDROOT
TORSDOF 0
ENDMDL
