MODEL 1
REMARK minimizedAffinity 3.07001472
REMARK minimizedRMSD -1
REMARK  0 active torsions:
REMARK  status: ('A' for Active; 'I' for Inactive)
ROOT
ATOM      1  N1  IND d   1      -1.849   0.002   1.085  0.00  0.00    -0.196 N 
ATOM      2  C2  IND d   1      -1.175   0.217  -0.085  0.00  0.00     0.054 A 
ATOM      3  C3  IND d   1       0.154   0.294   0.146  0.00  0.00    -0.031 A 
ATOM      4  C4  IND d   1       1.452  -0.006   2.349  0.00  0.00     0.051 A 
ATOM      5  C5  IND d   1       1.269  -0.182   3.692  0.00  0.00    -0.031 A 
ATOM      6  C6  IND d   1       0.011  -0.311   4.245  0.00  0.00     0.015 A 
ATOM      7  C7  IND d   1      -1.114  -0.281   3.471  0.00  0.00    -0.016 A 
ATOM      8  C8  IND d   1      -0.932  -0.095   2.108  0.00  0.00    -0.047 A 
ATOM      9  C9  IND d   1       0.339   0.080   1.546  0.00  0.00    -0.096 A 
ATOM     10  HN1 IND d   1      -2.703  -0.062   1.167  0.00  0.00     0.298 HD
ENDROOT
TORSDOF 0
ENDMDL
