MODEL 1
REMARK minimizedAffinity 12.6800632
REMARK minimizedRMSD -1
REMARK  1 active torsions:
REMARK  status: ('A' for Active; 'I' for Inactive)
REMARK    1  A    between atoms: C1_2  and  C2_3 
ROOT
ATOM      1  C2  UNL d   1      -1.121  -2.428  -3.239  0.00  0.00    -0.081 A 
ATOM      2  C3  UNL d   1      -1.852  -1.645  -4.141  0.00  0.00     0.006 A 
ATOM      3  C4  UNL d   1      -2.776  -2.237  -5.006  0.00  0.00     0.002 A 
ATOM      4  C5  UNL d   1      -2.990  -3.620  -4.978  0.00  0.00    -0.080 A 
ATOM      5  C6  UNL d   1      -4.001  -4.264  -5.879  0.00  0.00     0.076 C 
ATOM      6  C7  UNL d   1      -2.247  -4.404  -4.089  0.00  0.00     0.002 A 
ATOM      7  C8  UNL d   1      -1.323  -3.813  -3.224  0.00  0.00     0.006 A 
ENDROOT
BRANCH   1   8
ATOM      8  C1  UNL d   1      -0.172  -1.785  -2.261  0.00  0.00     0.054 C 
ATOM      9  C   UNL d   1      -0.623  -2.007  -0.824  0.00  0.00     0.018 C 
ENDBRANCH   1   8
TORSDOF 1
ENDMDL
