MODEL 1
REMARK minimizedAffinity 18.520792
REMARK minimizedRMSD -1
REMARK  1 active torsions:
REMARK  status: ('A' for Active; 'I' for Inactive)
REMARK    1  A    between atoms: C1_2  and  C2_3 
ROOT
ATOM      1  C2  UNL d   1       5.335   2.955  -1.817  0.00  0.00    -0.081 A 
ATOM      2  C3  UNL d   1       4.046   2.413  -1.888  0.00  0.00     0.006 A 
ATOM      3  C4  UNL d   1       3.409   1.949  -0.735  0.00  0.00     0.002 A 
ATOM      4  C5  UNL d   1       4.046   2.026   0.508  0.00  0.00    -0.080 A 
ATOM      5  C6  UNL d   1       3.361   1.560   1.758  0.00  0.00     0.076 C 
ATOM      6  C7  UNL d   1       5.341   2.552   0.577  0.00  0.00     0.002 A 
ATOM      7  C8  UNL d   1       5.979   3.015  -0.576  0.00  0.00     0.006 A 
ENDROOT
BRANCH   1   8
ATOM      8  C1  UNL d   1       6.000   3.516  -3.049  0.00  0.00     0.054 C 
ATOM      9  C   UNL d   1       5.998   5.038  -3.034  0.00  0.00     0.018 C 
ENDBRANCH   1   8
TORSDOF 1
ENDMDL
