MODEL 1
REMARK minimizedAffinity 8.39288139
REMARK minimizedRMSD -1
REMARK  1 active torsions:
REMARK  status: ('A' for Active; 'I' for Inactive)
REMARK    1  A    between atoms: C1_2  and  C2_3 
ROOT
ATOM      1  C2  UNL d   1       5.021  -1.313   2.541  0.00  0.00    -0.081 A 
ATOM      2  C3  UNL d   1       3.769  -1.862   2.237  0.00  0.00     0.006 A 
ATOM      3  C4  UNL d   1       2.887  -1.186   1.390  0.00  0.00     0.002 A 
ATOM      4  C5  UNL d   1       3.245   0.043   0.827  0.00  0.00    -0.080 A 
ATOM      5  C6  UNL d   1       2.320   0.764  -0.108  0.00  0.00     0.076 C 
ATOM      6  C7  UNL d   1       4.489   0.600   1.145  0.00  0.00     0.002 A 
ATOM      7  C8  UNL d   1       5.371  -0.075   1.993  0.00  0.00     0.006 A 
ENDROOT
BRANCH   1   8
ATOM      8  C1  UNL d   1       6.000  -2.069   3.403  0.00  0.00     0.054 C 
ATOM      9  C   UNL d   1       5.977  -1.566   4.839  0.00  0.00     0.018 C 
ENDBRANCH   1   8
TORSDOF 1
ENDMDL
