MODEL 1
REMARK minimizedAffinity -3.24233484
REMARK minimizedRMSD -1
REMARK  1 active torsions:
REMARK  status: ('A' for Active; 'I' for Inactive)
REMARK    1  A    between atoms: C1_2  and  C2_3 
ROOT
ATOM      1  C2  UNL d   1       3.753   0.296   1.458  0.00  0.00    -0.081 A 
ATOM      2  C3  UNL d   1       5.052   0.682   1.812  0.00  0.00     0.006 A 
ATOM      3  C4  UNL d   1       5.777  -0.052   2.753  0.00  0.00     0.002 A 
ATOM      4  C5  UNL d   1       5.220  -1.188   3.349  0.00  0.00    -0.080 A 
ATOM      5  C6  UNL d   1       5.999  -2.003   4.338  0.00  0.00     0.076 C 
ATOM      6  C7  UNL d   1       3.916  -1.564   3.009  0.00  0.00     0.002 A 
ATOM      7  C8  UNL d   1       3.190  -0.830   2.068  0.00  0.00     0.006 A 
ENDROOT
BRANCH   1   8
ATOM      8  C1  UNL d   1       2.992   1.049   0.396  0.00  0.00     0.054 C 
ATOM      9  C   UNL d   1       2.257   0.097  -0.537  0.00  0.00     0.018 C 
ENDBRANCH   1   8
TORSDOF 1
ENDMDL
