MODEL 1
REMARK minimizedAffinity 3.38275695
REMARK minimizedRMSD -1
REMARK  1 active torsions:
REMARK  status: ('A' for Active; 'I' for Inactive)
REMARK    1  A    between atoms: C1_2  and  C2_3 
ROOT
ATOM      1  C2  UNL d   1       5.167   2.480  -1.792  0.00  0.00    -0.081 A 
ATOM      2  C3  UNL d   1       3.932   1.856  -2.005  0.00  0.00     0.006 A 
ATOM      3  C4  UNL d   1       3.138   1.470  -0.922  0.00  0.00     0.002 A 
ATOM      4  C5  UNL d   1       3.562   1.710   0.390  0.00  0.00    -0.080 A 
ATOM      5  C6  UNL d   1       2.705   1.329   1.561  0.00  0.00     0.076 C 
ATOM      6  C7  UNL d   1       4.804   2.318   0.602  0.00  0.00     0.002 A 
ATOM      7  C8  UNL d   1       5.598   2.703  -0.480  0.00  0.00     0.006 A 
ENDROOT
BRANCH   1   8
ATOM      8  C1  UNL d   1       5.996   2.955  -2.958  0.00  0.00     0.054 C 
ATOM      9  C   UNL d   1       5.970   4.472  -3.074  0.00  0.00     0.018 C 
ENDBRANCH   1   8
TORSDOF 1
ENDMDL
