MODEL 1
REMARK minimizedAffinity 6.21950483
REMARK minimizedRMSD -1
REMARK  1 active torsions:
REMARK  status: ('A' for Active; 'I' for Inactive)
REMARK    1  A    between atoms: C1_2  and  C2_3 
ROOT
ATOM      1  C2  UNL d   1       3.260   0.745   0.245  0.00  0.00    -0.081 A 
ATOM      2  C3  UNL d   1       3.105   0.988  -1.125  0.00  0.00     0.006 A 
ATOM      3  C4  UNL d   1       3.897   1.942  -1.768  0.00  0.00     0.002 A 
ATOM      4  C5  UNL d   1       4.862   2.662  -1.055  0.00  0.00    -0.080 A 
ATOM      5  C6  UNL d   1       5.739   3.667  -1.740  0.00  0.00     0.076 C 
ATOM      6  C7  UNL d   1       5.005   2.431   0.317  0.00  0.00     0.002 A 
ATOM      7  C8  UNL d   1       4.213   1.478   0.961  0.00  0.00     0.006 A 
ENDROOT
BRANCH   1   8
ATOM      8  C1  UNL d   1       2.453  -0.329   0.929  0.00  0.00     0.054 C 
ATOM      9  C   UNL d   1       3.108  -0.771   2.230  0.00  0.00     0.018 C 
ENDBRANCH   1   8
TORSDOF 1
ENDMDL
