MODEL 1
REMARK minimizedAffinity 7.24527979
REMARK minimizedRMSD -1
REMARK  1 active torsions:
REMARK  status: ('A' for Active; 'I' for Inactive)
REMARK    1  A    between atoms: C1_2  and  C2_3 
ROOT
ATOM      1  C2  UNL d   1       1.910   2.913   2.238  0.00  0.00    -0.081 A 
ATOM      2  C3  UNL d   1       3.255   2.546   2.114  0.00  0.00     0.006 A 
ATOM      3  C4  UNL d   1       3.744   2.046   0.904  0.00  0.00     0.002 A 
ATOM      4  C5  UNL d   1       2.898   1.913  -0.202  0.00  0.00    -0.080 A 
ATOM      5  C6  UNL d   1       3.417   1.407  -1.515  0.00  0.00     0.076 C 
ATOM      6  C7  UNL d   1       1.550   2.263  -0.073  0.00  0.00     0.002 A 
ATOM      7  C8  UNL d   1       1.061   2.762   1.137  0.00  0.00     0.006 A 
ENDROOT
BRANCH   1   8
ATOM      8  C1  UNL d   1       1.395   3.512   3.522  0.00  0.00     0.054 C 
ATOM      9  C   UNL d   1       1.139   2.439   4.570  0.00  0.00     0.018 C 
ENDBRANCH   1   8
TORSDOF 1
ENDMDL
