MODEL 1
REMARK minimizedAffinity 2.66096449
REMARK minimizedRMSD -1
REMARK  1 active torsions:
REMARK  status: ('A' for Active; 'I' for Inactive)
REMARK    1  A    between atoms: C1_2  and  C2_3 
ROOT
ATOM      1  C2  UNL d   1       5.215   2.321  -1.836  0.00  0.00    -0.081 A 
ATOM      2  C3  UNL d   1       5.853   2.456  -0.596  0.00  0.00     0.006 A 
ATOM      3  C4  UNL d   1       5.135   2.293   0.591  0.00  0.00     0.002 A 
ATOM      4  C5  UNL d   1       3.771   1.985   0.559  0.00  0.00    -0.080 A 
ATOM      5  C6  UNL d   1       2.995   1.778   1.826  0.00  0.00     0.076 C 
ATOM      6  C7  UNL d   1       3.130   1.867  -0.679  0.00  0.00     0.002 A 
ATOM      7  C8  UNL d   1       3.847   2.031  -1.866  0.00  0.00     0.006 A 
ENDROOT
BRANCH   1   8
ATOM      8  C1  UNL d   1       6.000   2.432  -3.118  0.00  0.00     0.054 C 
ATOM      9  C   UNL d   1       5.999   1.117  -3.883  0.00  0.00     0.018 C 
ENDBRANCH   1   8
TORSDOF 1
ENDMDL
