MODEL 1
REMARK minimizedAffinity 3.19854641
REMARK minimizedRMSD -1
REMARK  1 active torsions:
REMARK  status: ('A' for Active; 'I' for Inactive)
REMARK    1  A    between atoms: C1_2  and  C2_3 
ROOT
ATOM      1  C2  UNL d   1       0.965   3.507   2.340  0.00  0.00    -0.081 A 
ATOM      2  C3  UNL d   1       2.322   3.300   2.614  0.00  0.00     0.006 A 
ATOM      3  C4  UNL d   1       2.718   2.682   3.803  0.00  0.00     0.002 A 
ATOM      4  C5  UNL d   1       1.764   2.254   4.732  0.00  0.00    -0.080 A 
ATOM      5  C6  UNL d   1       2.174   1.562   5.998  0.00  0.00     0.076 C 
ATOM      6  C7  UNL d   1       0.409   2.476   4.466  0.00  0.00     0.002 A 
ATOM      7  C8  UNL d   1       0.012   3.095   3.278  0.00  0.00     0.006 A 
ENDROOT
BRANCH   1   8
ATOM      8  C1  UNL d   1       0.532   4.115   1.030  0.00  0.00     0.054 C 
ATOM      9  C   UNL d   1       0.110   3.043   0.035  0.00  0.00     0.018 C 
ENDBRANCH   1   8
TORSDOF 1
ENDMDL
