MODEL 1
REMARK minimizedAffinity 10.1325722
REMARK minimizedRMSD -1
REMARK  1 active torsions:
REMARK  status: ('A' for Active; 'I' for Inactive)
REMARK    1  A    between atoms: C1_2  and  C2_3 
ROOT
ATOM      1  C2  UNL d   1       4.832   2.259  -1.276  0.00  0.00    -0.081 A 
ATOM      2  C3  UNL d   1       4.166   2.015  -0.069  0.00  0.00     0.006 A 
ATOM      3  C4  UNL d   1       3.123   1.087  -0.011  0.00  0.00     0.002 A 
ATOM      4  C5  UNL d   1       2.734   0.384  -1.156  0.00  0.00    -0.080 A 
ATOM      5  C6  UNL d   1       1.637  -0.637  -1.101  0.00  0.00     0.076 C 
ATOM      6  C7  UNL d   1       3.389   0.640  -2.366  0.00  0.00     0.002 A 
ATOM      7  C8  UNL d   1       4.431   1.568  -2.424  0.00  0.00     0.006 A 
ENDROOT
BRANCH   1   8
ATOM      8  C1  UNL d   1       6.000   3.211  -1.327  0.00  0.00     0.054 C 
ATOM      9  C   UNL d   1       5.999   4.018  -2.618  0.00  0.00     0.018 C 
ENDBRANCH   1   8
TORSDOF 1
ENDMDL
