MODEL 1
REMARK minimizedAffinity 0.229139552
REMARK minimizedRMSD -1
REMARK  0 active torsions:
REMARK  status: ('A' for Active; 'I' for Inactive)
ROOT
ATOM      1  C1  BNZ d   1      -1.575   0.837  -2.910  0.00  0.00     0.000 A 
ATOM      2  C2  BNZ d   1      -0.489   1.606  -3.234  0.00  0.00     0.000 A 
ATOM      3  C3  BNZ d   1      -0.628   2.720  -4.013  0.00  0.00     0.000 A 
ATOM      4  C4  BNZ d   1      -1.844   3.042  -4.500  0.00  0.00     0.000 A 
ATOM      5  C5  BNZ d   1      -2.947   2.271  -4.189  0.00  0.00     0.000 A 
ATOM      6  C6  BNZ d   1      -2.810   1.172  -3.373  0.00  0.00     0.000 A 
ENDROOT
TORSDOF 0
ENDMDL
