MODEL 1
REMARK minimizedAffinity -3.48147774
REMARK minimizedRMSD -1
REMARK  0 active torsions:
REMARK  status: ('A' for Active; 'I' for Inactive)
ROOT
ATOM      1  C1  BNZ d   1      -0.022  -5.720  -3.269  0.00  0.00     0.000 A 
ATOM      2  C2  BNZ d   1       1.125  -5.429  -3.959  0.00  0.00     0.000 A 
ATOM      3  C3  BNZ d   1       1.130  -5.397  -5.325  0.00  0.00     0.000 A 
ATOM      4  C4  BNZ d   1       0.001  -5.695  -6.000  0.00  0.00     0.000 A 
ATOM      5  C5  BNZ d   1      -1.161  -6.000  -5.319  0.00  0.00     0.000 A 
ATOM      6  C6  BNZ d   1      -1.172  -5.993  -3.943  0.00  0.00     0.000 A 
ENDROOT
TORSDOF 0
ENDMDL
