MODEL 1
REMARK minimizedAffinity -3.82754898
REMARK minimizedRMSD -1
REMARK  0 active torsions:
REMARK  status: ('A' for Active; 'I' for Inactive)
ROOT
ATOM      1  C1  BNZ d   1       2.320  -1.655   1.877  0.00  0.00     0.000 A 
ATOM      2  C2  BNZ d   1       3.009  -1.244   0.767  0.00  0.00     0.000 A 
ATOM      3  C3  BNZ d   1       2.473  -0.323  -0.089  0.00  0.00     0.000 A 
ATOM      4  C4  BNZ d   1       1.234   0.155   0.143  0.00  0.00     0.000 A 
ATOM      5  C5  BNZ d   1       0.522  -0.256   1.253  0.00  0.00     0.000 A 
ATOM      6  C6  BNZ d   1       1.081  -1.154   2.133  0.00  0.00     0.000 A 
ENDROOT
TORSDOF 0
ENDMDL
