MODEL 1
REMARK minimizedAffinity -2.02968812
REMARK minimizedRMSD -1
REMARK  0 active torsions:
REMARK  status: ('A' for Active; 'I' for Inactive)
ROOT
ATOM      1  C1  BNZ d   1       4.215  -0.819   3.017  0.00  0.00     0.000 A 
ATOM      2  C2  BNZ d   1       3.710  -0.693   4.284  0.00  0.00     0.000 A 
ATOM      3  C3  BNZ d   1       2.362  -0.719   4.506  0.00  0.00     0.000 A 
ATOM      4  C4  BNZ d   1       1.520  -0.831   3.458  0.00  0.00     0.000 A 
ATOM      5  C5  BNZ d   1       2.013  -0.949   2.174  0.00  0.00     0.000 A 
ATOM      6  C6  BNZ d   1       3.372  -0.961   1.959  0.00  0.00     0.000 A 
ENDROOT
TORSDOF 0
ENDMDL
