MODEL 1
REMARK minimizedAffinity -1.38031626
REMARK minimizedRMSD -1
REMARK  0 active torsions:
REMARK  status: ('A' for Active; 'I' for Inactive)
ROOT
ATOM      1  C1  BNZ d   1       2.078  -0.723   0.112  0.00  0.00     0.000 A 
ATOM      2  C2  BNZ d   1       0.970  -1.028   0.857  0.00  0.00     0.000 A 
ATOM      3  C3  BNZ d   1      -0.090  -0.167   0.919  0.00  0.00     0.000 A 
ATOM      4  C4  BNZ d   1      -0.025   1.013   0.270  0.00  0.00     0.000 A 
ATOM      5  C5  BNZ d   1       1.090   1.340  -0.477  0.00  0.00     0.000 A 
ATOM      6  C6  BNZ d   1       2.139   0.454  -0.569  0.00  0.00     0.000 A 
ENDROOT
TORSDOF 0
ENDMDL
