MODEL 1
REMARK minimizedAffinity 3.33162355
REMARK minimizedRMSD -1
REMARK  0 active torsions:
REMARK  status: ('A' for Active; 'I' for Inactive)
ROOT
ATOM      1  C1  BNZ d   1      -0.106  -2.460  -0.286  0.00  0.00     0.000 A 
ATOM      2  C2  BNZ d   1       1.021  -1.682  -0.323  0.00  0.00     0.000 A 
ATOM      3  C3  BNZ d   1       1.026  -0.430   0.224  0.00  0.00     0.000 A 
ATOM      4  C4  BNZ d   1      -0.106   0.059   0.772  0.00  0.00     0.000 A 
ATOM      5  C5  BNZ d   1      -1.253  -0.709   0.809  0.00  0.00     0.000 A 
ATOM      6  C6  BNZ d   1      -1.243  -1.984   0.291  0.00  0.00     0.000 A 
ENDROOT
TORSDOF 0
ENDMDL
