MODEL 1
REMARK minimizedAffinity -2.76691389
REMARK minimizedRMSD -1
REMARK  0 active torsions:
REMARK  status: ('A' for Active; 'I' for Inactive)
ROOT
ATOM      1  C1  BNZ d   1      -0.915  -5.606  -4.113  0.00  0.00     0.000 A 
ATOM      2  C2  BNZ d   1      -0.729  -5.599  -2.756  0.00  0.00     0.000 A 
ATOM      3  C3  BNZ d   1      -1.776  -5.816  -1.905  0.00  0.00     0.000 A 
ATOM      4  C4  BNZ d   1      -3.014  -5.999  -2.410  0.00  0.00     0.000 A 
ATOM      5  C5  BNZ d   1      -3.219  -5.999  -3.775  0.00  0.00     0.000 A 
ATOM      6  C6  BNZ d   1      -2.155  -5.820  -4.630  0.00  0.00     0.000 A 
ENDROOT
TORSDOF 0
ENDMDL
