MODEL 1
REMARK minimizedAffinity -2.91931152
REMARK minimizedRMSD -1
REMARK  0 active torsions:
REMARK  status: ('A' for Active; 'I' for Inactive)
ROOT
ATOM      1  C1  BNZ d   1      -2.402  -6.000  -4.876  0.00  0.00     0.000 A 
ATOM      2  C2  BNZ d   1      -1.737  -5.588  -6.000  0.00  0.00     0.000 A 
ATOM      3  C3  BNZ d   1      -0.475  -5.068  -5.915  0.00  0.00     0.000 A 
ATOM      4  C4  BNZ d   1       0.102  -4.923  -4.705  0.00  0.00     0.000 A 
ATOM      5  C5  BNZ d   1      -0.559  -5.325  -3.562  0.00  0.00     0.000 A 
ATOM      6  C6  BNZ d   1      -1.813  -5.884  -3.655  0.00  0.00     0.000 A 
ENDROOT
TORSDOF 0
ENDMDL
