MODEL 1
REMARK minimizedAffinity -3.76993823
REMARK minimizedRMSD -1
REMARK  0 active torsions:
REMARK  status: ('A' for Active; 'I' for Inactive)
ROOT
ATOM      1  C1  BNZ d   1      -2.631  -5.262   0.373  0.00  0.00     0.000 A 
ATOM      2  C2  BNZ d   1      -3.068  -4.879   1.614  0.00  0.00     0.000 A 
ATOM      3  C3  BNZ d   1      -4.367  -5.075   1.990  0.00  0.00     0.000 A 
ATOM      4  C4  BNZ d   1      -5.237  -5.617   1.114  0.00  0.00     0.000 A 
ATOM      5  C5  BNZ d   1      -4.815  -6.000  -0.144  0.00  0.00     0.000 A 
ATOM      6  C6  BNZ d   1      -3.497  -5.837  -0.506  0.00  0.00     0.000 A 
ENDROOT
TORSDOF 0
ENDMDL
