MODEL 1
REMARK minimizedAffinity -2.45999718
REMARK minimizedRMSD -1
REMARK  0 active torsions:
REMARK  status: ('A' for Active; 'I' for Inactive)
ROOT
ATOM      1  C1  BNZ d   1      -3.065  -5.996  -4.782  0.00  0.00     0.000 A 
ATOM      2  C2  BNZ d   1      -2.373  -5.997  -5.963  0.00  0.00     0.000 A 
ATOM      3  C3  BNZ d   1      -1.050  -5.656  -6.000  0.00  0.00     0.000 A 
ATOM      4  C4  BNZ d   1      -0.432  -5.275  -4.863  0.00  0.00     0.000 A 
ATOM      5  C5  BNZ d   1      -1.119  -5.260  -3.666  0.00  0.00     0.000 A 
ATOM      6  C6  BNZ d   1      -2.440  -5.642  -3.626  0.00  0.00     0.000 A 
ENDROOT
TORSDOF 0
ENDMDL
