MODEL 1
REMARK minimizedAffinity 0.484386355
REMARK minimizedRMSD -1
REMARK  0 active torsions:
REMARK  status: ('A' for Active; 'I' for Inactive)
ROOT
ATOM      1  C1  BNZ d   1      -0.250  -4.860  -3.696  0.00  0.00     0.000 A 
ATOM      2  C2  BNZ d   1       0.521  -4.881  -4.828  0.00  0.00     0.000 A 
ATOM      3  C3  BNZ d   1       0.049  -5.434  -5.985  0.00  0.00     0.000 A 
ATOM      4  C4  BNZ d   1      -1.175  -5.999  -6.000  0.00  0.00     0.000 A 
ATOM      5  C5  BNZ d   1      -1.961  -5.994  -4.864  0.00  0.00     0.000 A 
ATOM      6  C6  BNZ d   1      -1.498  -5.402  -3.711  0.00  0.00     0.000 A 
ENDROOT
TORSDOF 0
ENDMDL
