MODEL 1
REMARK minimizedAffinity -0.830164015
REMARK minimizedRMSD -1
REMARK  0 active torsions:
REMARK  status: ('A' for Active; 'I' for Inactive)
ROOT
ATOM      1  C1  BNZ d   1      -1.562  -5.971  -3.625  0.00  0.00     0.000 A 
ATOM      2  C2  BNZ d   1      -0.201  -5.816  -3.649  0.00  0.00     0.000 A 
ATOM      3  C3  BNZ d   1       0.466  -5.674  -4.833  0.00  0.00     0.000 A 
ATOM      4  C4  BNZ d   1      -0.221  -5.728  -5.992  0.00  0.00     0.000 A 
ATOM      5  C5  BNZ d   1      -1.591  -5.893  -5.986  0.00  0.00     0.000 A 
ATOM      6  C6  BNZ d   1      -2.265  -5.997  -4.790  0.00  0.00     0.000 A 
ENDROOT
TORSDOF 0
ENDMDL
