MODEL 1
REMARK minimizedAffinity -0.726184249
REMARK minimizedRMSD -1
REMARK  0 active torsions:
REMARK  status: ('A' for Active; 'I' for Inactive)
ROOT
ATOM      1  C1  BNZ d   1       0.766  -0.138   0.421  0.00  0.00     0.000 A 
ATOM      2  C2  BNZ d   1       1.919  -0.358  -0.284  0.00  0.00     0.000 A 
ATOM      3  C3  BNZ d   1       2.987  -0.981   0.298  0.00  0.00     0.000 A 
ATOM      4  C4  BNZ d   1       2.916  -1.348   1.594  0.00  0.00     0.000 A 
ATOM      5  C5  BNZ d   1       1.763  -1.124   2.321  0.00  0.00     0.000 A 
ATOM      6  C6  BNZ d   1       0.676  -0.531   1.720  0.00  0.00     0.000 A 
ENDROOT
TORSDOF 0
ENDMDL
