MODEL 1
REMARK minimizedAffinity 2.18822026
REMARK minimizedRMSD -1
REMARK  0 active torsions:
REMARK  status: ('A' for Active; 'I' for Inactive)
ROOT
ATOM      1  C1  BNZ d   1       0.340   2.933  -0.156  0.00  0.00     0.000 A 
ATOM      2  C2  BNZ d   1      -0.238   3.662  -1.162  0.00  0.00     0.000 A 
ATOM      3  C3  BNZ d   1      -0.760   3.043  -2.263  0.00  0.00     0.000 A 
ATOM      4  C4  BNZ d   1      -0.668   1.702  -2.377  0.00  0.00     0.000 A 
ATOM      5  C5  BNZ d   1      -0.081   0.955  -1.375  0.00  0.00     0.000 A 
ATOM      6  C6  BNZ d   1       0.409   1.577  -0.250  0.00  0.00     0.000 A 
ENDROOT
TORSDOF 0
ENDMDL
