MODEL 1
REMARK minimizedAffinity 1.44878709
REMARK minimizedRMSD -1
REMARK  0 active torsions:
REMARK  status: ('A' for Active; 'I' for Inactive)
ROOT
ATOM      1  C1  BNZ d   1      -1.107   1.992  -2.860  0.00  0.00     0.000 A 
ATOM      2  C2  BNZ d   1      -0.032   2.721  -3.297  0.00  0.00     0.000 A 
ATOM      3  C3  BNZ d   1      -0.206   3.799  -4.118  0.00  0.00     0.000 A 
ATOM      4  C4  BNZ d   1      -1.447   4.124  -4.534  0.00  0.00     0.000 A 
ATOM      5  C5  BNZ d   1      -2.539   3.394  -4.110  0.00  0.00     0.000 A 
ATOM      6  C6  BNZ d   1      -2.365   2.332  -3.251  0.00  0.00     0.000 A 
ENDROOT
TORSDOF 0
ENDMDL
