MODEL 1
REMARK minimizedAffinity -0.197083533
REMARK minimizedRMSD -1
REMARK  0 active torsions:
REMARK  status: ('A' for Active; 'I' for Inactive)
ROOT
ATOM      1  C1  BNZ d   1       0.860  -5.684  -3.646  0.00  0.00     0.000 A 
ATOM      2  C2  BNZ d   1      -0.472  -6.000  -3.683  0.00  0.00     0.000 A 
ATOM      3  C3  BNZ d   1      -1.159  -5.996  -4.864  0.00  0.00     0.000 A 
ATOM      4  C4  BNZ d   1      -0.525  -5.638  -5.999  0.00  0.00     0.000 A 
ATOM      5  C5  BNZ d   1       0.815  -5.308  -5.977  0.00  0.00     0.000 A 
ATOM      6  C6  BNZ d   1       1.513  -5.350  -4.792  0.00  0.00     0.000 A 
ENDROOT
TORSDOF 0
ENDMDL
