MODEL 1
REMARK minimizedAffinity 5.01738167
REMARK minimizedRMSD -1
REMARK  0 active torsions:
REMARK  status: ('A' for Active; 'I' for Inactive)
ROOT
ATOM      1  C1  BNZ d   1       0.024   4.294  -3.718  0.00  0.00     0.000 A 
ATOM      2  C2  BNZ d   1      -1.062   4.507  -4.524  0.00  0.00     0.000 A 
ATOM      3  C3  BNZ d   1      -0.950   5.244  -5.670  0.00  0.00     0.000 A 
ATOM      4  C4  BNZ d   1       0.237   5.800  -5.987  0.00  0.00     0.000 A 
ATOM      5  C5  BNZ d   1       1.340   5.602  -5.180  0.00  0.00     0.000 A 
ATOM      6  C6  BNZ d   1       1.232   4.828  -4.048  0.00  0.00     0.000 A 
ENDROOT
TORSDOF 0
ENDMDL
