MODEL 1
REMARK minimizedAffinity -0.545523405
REMARK minimizedRMSD -1
REMARK  0 active torsions:
REMARK  status: ('A' for Active; 'I' for Inactive)
ROOT
ATOM      1  C1  BNZ d   1       1.501   4.451  -4.887  0.00  0.00     0.000 A 
ATOM      2  C2  BNZ d   1       1.142   5.165  -6.000  0.00  0.00     0.000 A 
ATOM      3  C3  BNZ d   1       0.021   5.946  -5.998  0.00  0.00     0.000 A 
ATOM      4  C4  BNZ d   1      -0.761   5.981  -4.900  0.00  0.00     0.000 A 
ATOM      5  C5  BNZ d   1      -0.418   5.260  -3.774  0.00  0.00     0.000 A 
ATOM      6  C6  BNZ d   1       0.733   4.505  -3.766  0.00  0.00     0.000 A 
ENDROOT
TORSDOF 0
ENDMDL
