MODEL 1
REMARK minimizedAffinity 0.109970115
REMARK minimizedRMSD -1
REMARK  0 active torsions:
REMARK  status: ('A' for Active; 'I' for Inactive)
ROOT
ATOM      1  C1  BNZ d   1       0.794   5.826  -5.642  0.00  0.00     0.000 A 
ATOM      2  C2  BNZ d   1      -0.517   6.000  -5.998  0.00  0.00     0.000 A 
ATOM      3  C3  BNZ d   1      -1.507   5.266  -5.406  0.00  0.00     0.000 A 
ATOM      4  C4  BNZ d   1      -1.181   4.332  -4.489  0.00  0.00     0.000 A 
ATOM      5  C5  BNZ d   1       0.136   4.138  -4.126  0.00  0.00     0.000 A 
ATOM      6  C6  BNZ d   1       1.126   4.906  -4.696  0.00  0.00     0.000 A 
ENDROOT
TORSDOF 0
ENDMDL
