MODEL 1
REMARK minimizedAffinity 0.24960646
REMARK minimizedRMSD -1
REMARK  0 active torsions:
REMARK  status: ('A' for Active; 'I' for Inactive)
ROOT
ATOM      1  C1  BNZ d   1      -5.968   1.330  -3.087  0.00  0.00     0.000 A 
ATOM      2  C2  BNZ d   1      -5.962   2.181  -4.159  0.00  0.00     0.000 A 
ATOM      3  C3  BNZ d   1      -5.998   1.697  -5.437  0.00  0.00     0.000 A 
ATOM      4  C4  BNZ d   1      -6.000   0.364  -5.641  0.00  0.00     0.000 A 
ATOM      5  C5  BNZ d   1      -5.997  -0.507  -4.570  0.00  0.00     0.000 A 
ATOM      6  C6  BNZ d   1      -6.000  -0.016  -3.285  0.00  0.00     0.000 A 
ENDROOT
TORSDOF 0
ENDMDL
