MODEL 1
REMARK minimizedAffinity -0.995264769
REMARK minimizedRMSD -1
REMARK  0 active torsions:
REMARK  status: ('A' for Active; 'I' for Inactive)
ROOT
ATOM      1  C1  BNZ d   1      -5.997   1.274  -3.851  0.00  0.00     0.000 A 
ATOM      2  C2  BNZ d   1      -6.000   0.590  -2.665  0.00  0.00     0.000 A 
ATOM      3  C3  BNZ d   1      -5.977  -0.777  -2.646  0.00  0.00     0.000 A 
ATOM      4  C4  BNZ d   1      -5.993  -1.457  -3.810  0.00  0.00     0.000 A 
ATOM      5  C5  BNZ d   1      -5.999  -0.781  -5.014  0.00  0.00     0.000 A 
ATOM      6  C6  BNZ d   1      -5.983   0.595  -5.030  0.00  0.00     0.000 A 
ENDROOT
TORSDOF 0
ENDMDL
