MODEL 1
REMARK minimizedAffinity -0.933290064
REMARK minimizedRMSD -1
REMARK  0 active torsions:
REMARK  status: ('A' for Active; 'I' for Inactive)
ROOT
ATOM      1  C1  BNZ d   1       0.625   5.150  -5.998  0.00  0.00     0.000 A 
ATOM      2  C2  BNZ d   1       1.248   4.562  -4.930  0.00  0.00     0.000 A 
ATOM      3  C3  BNZ d   1       0.527   4.111  -3.860  0.00  0.00     0.000 A 
ATOM      4  C4  BNZ d   1      -0.810   4.283  -3.841  0.00  0.00     0.000 A 
ATOM      5  C5  BNZ d   1      -1.453   4.883  -4.907  0.00  0.00     0.000 A 
ATOM      6  C6  BNZ d   1      -0.728   5.301  -5.999  0.00  0.00     0.000 A 
ENDROOT
TORSDOF 0
ENDMDL
