MODEL 1
REMARK minimizedAffinity -2.33839393
REMARK minimizedRMSD -1
REMARK  0 active torsions:
REMARK  status: ('A' for Active; 'I' for Inactive)
ROOT
ATOM      1  C1  BNZ d   1      -3.490  -0.465   2.222  0.00  0.00     0.000 A 
ATOM      2  C2  BNZ d   1      -2.382  -0.090   2.933  0.00  0.00     0.000 A 
ATOM      3  C3  BNZ d   1      -1.265  -0.878   2.956  0.00  0.00     0.000 A 
ATOM      4  C4  BNZ d   1      -1.273  -2.057   2.301  0.00  0.00     0.000 A 
ATOM      5  C5  BNZ d   1      -2.387  -2.453   1.587  0.00  0.00     0.000 A 
ATOM      6  C6  BNZ d   1      -3.494  -1.639   1.535  0.00  0.00     0.000 A 
ENDROOT
TORSDOF 0
ENDMDL
