MODEL 1
REMARK minimizedAffinity 1.5334599
REMARK minimizedRMSD -1
REMARK  0 active torsions:
REMARK  status: ('A' for Active; 'I' for Inactive)
ROOT
ATOM      1  C1  BNZ d   1       1.889   4.115  -5.030  0.00  0.00     0.000 A 
ATOM      2  C2  BNZ d   1       0.907   4.070  -5.983  0.00  0.00     0.000 A 
ATOM      3  C3  BNZ d   1      -0.097   4.998  -5.998  0.00  0.00     0.000 A 
ATOM      4  C4  BNZ d   1      -0.140   5.944  -5.039  0.00  0.00     0.000 A 
ATOM      5  C5  BNZ d   1       0.838   5.998  -4.066  0.00  0.00     0.000 A 
ATOM      6  C6  BNZ d   1       1.868   5.086  -4.076  0.00  0.00     0.000 A 
ENDROOT
TORSDOF 0
ENDMDL
