MODEL 1
REMARK minimizedAffinity -0.334851235
REMARK minimizedRMSD -1
REMARK  0 active torsions:
REMARK  status: ('A' for Active; 'I' for Inactive)
ROOT
ATOM      1  C1  BNZ d   1       0.707   5.292  -5.984  0.00  0.00     0.000 A 
ATOM      2  C2  BNZ d   1      -0.616   5.642  -5.993  0.00  0.00     0.000 A 
ATOM      3  C3  BNZ d   1      -1.441   5.290  -4.961  0.00  0.00     0.000 A 
ATOM      4  C4  BNZ d   1      -0.951   4.555  -3.943  0.00  0.00     0.000 A 
ATOM      5  C5  BNZ d   1       0.379   4.186  -3.923  0.00  0.00     0.000 A 
ATOM      6  C6  BNZ d   1       1.215   4.575  -4.945  0.00  0.00     0.000 A 
ENDROOT
TORSDOF 0
ENDMDL
