MODEL 1
REMARK minimizedAffinity 1.16736996
REMARK minimizedRMSD -1
REMARK  0 active torsions:
REMARK  status: ('A' for Active; 'I' for Inactive)
ROOT
ATOM      1  C1  BNZ d   1      -2.971  -1.066   2.753  0.00  0.00     0.000 A 
ATOM      2  C2  BNZ d   1      -4.011  -0.176   2.715  0.00  0.00     0.000 A 
ATOM      3  C3  BNZ d   1      -4.920  -0.205   1.694  0.00  0.00     0.000 A 
ATOM      4  C4  BNZ d   1      -4.765  -1.096   0.694  0.00  0.00     0.000 A 
ATOM      5  C5  BNZ d   1      -3.716  -1.994   0.714  0.00  0.00     0.000 A 
ATOM      6  C6  BNZ d   1      -2.826  -1.988   1.763  0.00  0.00     0.000 A 
ENDROOT
TORSDOF 0
ENDMDL
