MODEL 1
REMARK minimizedAffinity -0.0775159895
REMARK minimizedRMSD -1
REMARK  0 active torsions:
REMARK  status: ('A' for Active; 'I' for Inactive)
ROOT
ATOM      1  C1  BNZ d   1       1.895   4.508  -4.903  0.00  0.00     0.000 A 
ATOM      2  C2  BNZ d   1       1.544   5.256  -5.995  0.00  0.00     0.000 A 
ATOM      3  C3  BNZ d   1       0.396   5.998  -5.995  0.00  0.00     0.000 A 
ATOM      4  C4  BNZ d   1      -0.418   5.960  -4.920  0.00  0.00     0.000 A 
ATOM      5  C5  BNZ d   1      -0.082   5.204  -3.815  0.00  0.00     0.000 A 
ATOM      6  C6  BNZ d   1       1.093   4.488  -3.804  0.00  0.00     0.000 A 
ENDROOT
TORSDOF 0
ENDMDL
