MODEL 1
REMARK minimizedAffinity 1.68764508
REMARK minimizedRMSD -1
REMARK  0 active torsions:
REMARK  status: ('A' for Active; 'I' for Inactive)
ROOT
ATOM      1  C1  BNZ d   1      -5.996   0.560  -2.911  0.00  0.00     0.000 A 
ATOM      2  C2  BNZ d   1      -5.998   0.387  -4.269  0.00  0.00     0.000 A 
ATOM      3  C3  BNZ d   1      -5.975   1.464  -5.111  0.00  0.00     0.000 A 
ATOM      4  C4  BNZ d   1      -5.991   2.710  -4.595  0.00  0.00     0.000 A 
ATOM      5  C5  BNZ d   1      -5.999   2.900  -3.228  0.00  0.00     0.000 A 
ATOM      6  C6  BNZ d   1      -5.982   1.814  -2.383  0.00  0.00     0.000 A 
ENDROOT
TORSDOF 0
ENDMDL
