MODEL 1
REMARK minimizedAffinity 2.07569599
REMARK minimizedRMSD -1
REMARK  0 active torsions:
REMARK  status: ('A' for Active; 'I' for Inactive)
ROOT
ATOM      1  C1  BNZ d   1      -5.975   0.186  -3.411  0.00  0.00     0.000 A 
ATOM      2  C2  BNZ d   1      -5.999  -0.700  -4.455  0.00  0.00     0.000 A 
ATOM      3  C3  BNZ d   1      -5.991  -0.258  -5.748  0.00  0.00     0.000 A 
ATOM      4  C4  BNZ d   1      -5.999   1.068  -5.996  0.00  0.00     0.000 A 
ATOM      5  C5  BNZ d   1      -5.985   1.974  -4.954  0.00  0.00     0.000 A 
ATOM      6  C6  BNZ d   1      -5.954   1.525  -3.654  0.00  0.00     0.000 A 
ENDROOT
TORSDOF 0
ENDMDL
