MODEL 1
REMARK minimizedAffinity 5.82570648
REMARK minimizedRMSD -1
REMARK  1 active torsions:
REMARK  status: ('A' for Active; 'I' for Inactive)
REMARK    1  A    between atoms: C1_2  and  C2_3 
ROOT
ATOM      1  C2  UNL d   1       3.025  -3.408   3.175  0.00  0.00    -0.081 A 
ATOM      2  C3  UNL d   1       2.668  -4.013   1.964  0.00  0.00     0.006 A 
ATOM      3  C4  UNL d   1       1.748  -3.400   1.110  0.00  0.00     0.002 A 
ATOM      4  C5  UNL d   1       1.177  -2.169   1.449  0.00  0.00    -0.080 A 
ATOM      5  C6  UNL d   1       0.211  -1.485   0.527  0.00  0.00     0.076 C 
ATOM      6  C7  UNL d   1       1.520  -1.573   2.667  0.00  0.00     0.002 A 
ATOM      7  C8  UNL d   1       2.440  -2.186   3.521  0.00  0.00     0.006 A 
ENDROOT
BRANCH   1   8
ATOM      8  C1  UNL d   1       4.066  -4.036   4.067  0.00  0.00     0.054 C 
ATOM      9  C   UNL d   1       4.382  -3.144   5.260  0.00  0.00     0.018 C 
ENDBRANCH   1   8
TORSDOF 1
ENDMDL
