MODEL 1
REMARK minimizedAffinity 2.82035851
REMARK minimizedRMSD -1
REMARK  1 active torsions:
REMARK  status: ('A' for Active; 'I' for Inactive)
REMARK    1  A    between atoms: C1_2  and  C2_3 
ROOT
ATOM      1  C2  UNL d   1       0.068   3.934  -2.919  0.00  0.00    -0.081 A 
ATOM      2  C3  UNL d   1       0.334   2.662  -2.398  0.00  0.00     0.006 A 
ATOM      3  C4  UNL d   1      -0.707   1.762  -2.160  0.00  0.00     0.002 A 
ATOM      4  C5  UNL d   1      -2.030   2.116  -2.445  0.00  0.00    -0.080 A 
ATOM      5  C6  UNL d   1      -3.154   1.148  -2.222  0.00  0.00     0.076 C 
ATOM      6  C7  UNL d   1      -2.298   3.393  -2.949  0.00  0.00     0.002 A 
ATOM      7  C8  UNL d   1      -1.257   4.293  -3.187  0.00  0.00     0.006 A 
ENDROOT
BRANCH   1   8
ATOM      8  C1  UNL d   1       1.195   4.883  -3.238  0.00  0.00     0.054 C 
ATOM      9  C   UNL d   1       1.796   4.589  -4.605  0.00  0.00     0.018 C 
ENDBRANCH   1   8
TORSDOF 1
ENDMDL
