MODEL 1
REMARK minimizedAffinity 14.0414314
REMARK minimizedRMSD -1
REMARK  1 active torsions:
REMARK  status: ('A' for Active; 'I' for Inactive)
REMARK    1  A    between atoms: C1_2  and  C2_3 
ROOT
ATOM      1  C2  UNL d   1      -0.313   4.595  -3.281  0.00  0.00    -0.081 A 
ATOM      2  C3  UNL d   1       0.189   3.363  -2.844  0.00  0.00     0.006 A 
ATOM      3  C4  UNL d   1      -0.681   2.352  -2.427  0.00  0.00     0.002 A 
ATOM      4  C5  UNL d   1      -2.065   2.553  -2.447  0.00  0.00    -0.080 A 
ATOM      5  C6  UNL d   1      -3.010   1.466  -2.031  0.00  0.00     0.076 C 
ATOM      6  C7  UNL d   1      -2.565   3.790  -2.868  0.00  0.00     0.002 A 
ATOM      7  C8  UNL d   1      -1.696   4.801  -3.284  0.00  0.00     0.006 A 
ENDROOT
BRANCH   1   8
ATOM      8  C1  UNL d   1       0.619   5.664  -3.793  0.00  0.00     0.054 C 
ATOM      9  C   UNL d   1       1.865   5.056  -4.423  0.00  0.00     0.018 C 
ENDBRANCH   1   8
TORSDOF 1
ENDMDL
