MODEL 1
REMARK minimizedAffinity 5.75447893
REMARK minimizedRMSD -1
REMARK  1 active torsions:
REMARK  status: ('A' for Active; 'I' for Inactive)
REMARK    1  A    between atoms: C1_2  and  C2_3 
ROOT
ATOM      1  C2  UNL d   1      -1.714   2.204  -2.402  0.00  0.00    -0.081 A 
ATOM      2  C3  UNL d   1      -0.386   2.632  -2.522  0.00  0.00     0.006 A 
ATOM      3  C4  UNL d   1      -0.070   3.752  -3.294  0.00  0.00     0.002 A 
ATOM      4  C5  UNL d   1      -1.076   4.467  -3.953  0.00  0.00    -0.080 A 
ATOM      5  C6  UNL d   1      -0.754   5.689  -4.760  0.00  0.00     0.076 C 
ATOM      6  C7  UNL d   1      -2.401   4.029  -3.847  0.00  0.00     0.002 A 
ATOM      7  C8  UNL d   1      -2.717   2.909  -3.075  0.00  0.00     0.006 A 
ENDROOT
BRANCH   1   8
ATOM      8  C1  UNL d   1      -2.066   1.035  -1.517  0.00  0.00     0.054 C 
ATOM      9  C   UNL d   1      -0.969  -0.020  -1.533  0.00  0.00     0.018 C 
ENDBRANCH   1   8
TORSDOF 1
ENDMDL
