MODEL 1
REMARK minimizedAffinity 8.41255188
REMARK minimizedRMSD -1
REMARK  1 active torsions:
REMARK  status: ('A' for Active; 'I' for Inactive)
REMARK    1  A    between atoms: C1_2  and  C2_3 
ROOT
ATOM      1  C2  UNL d   1       3.553  -2.316   1.199  0.00  0.00    -0.081 A 
ATOM      2  C3  UNL d   1       3.213  -2.334   2.558  0.00  0.00     0.006 A 
ATOM      3  C4  UNL d   1       1.873  -2.339   2.952  0.00  0.00     0.002 A 
ATOM      4  C5  UNL d   1       0.852  -2.333   1.996  0.00  0.00    -0.080 A 
ATOM      5  C6  UNL d   1      -0.591  -2.368   2.406  0.00  0.00     0.076 C 
ATOM      6  C7  UNL d   1       1.191  -2.297   0.639  0.00  0.00     0.002 A 
ATOM      7  C8  UNL d   1       2.531  -2.292   0.244  0.00  0.00     0.006 A 
ENDROOT
BRANCH   1   8
ATOM      8  C1  UNL d   1       4.997  -2.376   0.770  0.00  0.00     0.054 C 
ATOM      9  C   UNL d   1       5.647  -1.001   0.819  0.00  0.00     0.018 C 
ENDBRANCH   1   8
TORSDOF 1
ENDMDL
