MODEL 1
REMARK minimizedAffinity 7.11447716
REMARK minimizedRMSD -1
REMARK  1 active torsions:
REMARK  status: ('A' for Active; 'I' for Inactive)
REMARK    1  A    between atoms: C1_2  and  C2_3 
ROOT
ATOM      1  C2  UNL d   1       2.519   0.636  -2.940  0.00  0.00    -0.081 A 
ATOM      2  C3  UNL d   1       1.496   0.282  -2.052  0.00  0.00     0.006 A 
ATOM      3  C4  UNL d   1       0.326   1.042  -1.980  0.00  0.00     0.002 A 
ATOM      4  C5  UNL d   1       0.157   2.164  -2.799  0.00  0.00    -0.080 A 
ATOM      5  C6  UNL d   1      -1.106   2.972  -2.752  0.00  0.00     0.076 C 
ATOM      6  C7  UNL d   1       1.187   2.528  -3.673  0.00  0.00     0.002 A 
ATOM      7  C8  UNL d   1       2.357   1.768  -3.746  0.00  0.00     0.006 A 
ENDROOT
BRANCH   1   8
ATOM      8  C1  UNL d   1       3.754  -0.219  -3.067  0.00  0.00     0.054 C 
ATOM      9  C   UNL d   1       4.554   0.145  -4.309  0.00  0.00     0.018 C 
ENDBRANCH   1   8
TORSDOF 1
ENDMDL
