MODEL 1
REMARK minimizedAffinity 6.66115618
REMARK minimizedRMSD -1
REMARK  1 active torsions:
REMARK  status: ('A' for Active; 'I' for Inactive)
REMARK    1  A    between atoms: C1_2  and  C2_3 
ROOT
ATOM      1  C2  UNL d   1       0.774   1.477  -1.684  0.00  0.00    -0.081 A 
ATOM      2  C3  UNL d   1       0.780   2.665  -2.427  0.00  0.00     0.006 A 
ATOM      3  C4  UNL d   1      -0.416   3.209  -2.902  0.00  0.00     0.002 A 
ATOM      4  C5  UNL d   1      -1.637   2.580  -2.637  0.00  0.00    -0.080 A 
ATOM      5  C6  UNL d   1      -2.930   3.170  -3.116  0.00  0.00     0.076 C 
ATOM      6  C7  UNL d   1      -1.641   1.385  -1.910  0.00  0.00     0.002 A 
ATOM      7  C8  UNL d   1      -0.447   0.840  -1.435  0.00  0.00     0.006 A 
ENDROOT
BRANCH   1   8
ATOM      8  C1  UNL d   1       2.054   0.923  -1.115  0.00  0.00     0.054 C 
ATOM      9  C   UNL d   1       2.258   1.369   0.326  0.00  0.00     0.018 C 
ENDBRANCH   1   8
TORSDOF 1
ENDMDL
