MODEL 1
REMARK minimizedAffinity -2.21164203
REMARK minimizedRMSD -1
REMARK  1 active torsions:
REMARK  status: ('A' for Active; 'I' for Inactive)
REMARK    1  A    between atoms: C1_2  and  C2_3 
ROOT
ATOM      1  C2  UNL d   1       1.326   0.874  -1.980  0.00  0.00    -0.081 A 
ATOM      2  C3  UNL d   1       0.583  -0.280  -2.255  0.00  0.00     0.006 A 
ATOM      3  C4  UNL d   1       0.497  -1.309  -1.314  0.00  0.00     0.002 A 
ATOM      4  C5  UNL d   1       1.147  -1.197  -0.080  0.00  0.00    -0.080 A 
ATOM      5  C6  UNL d   1       1.038  -2.281   0.952  0.00  0.00     0.076 C 
ATOM      6  C7  UNL d   1       1.904  -0.052   0.188  0.00  0.00     0.002 A 
ATOM      7  C8  UNL d   1       1.990   0.977  -0.753  0.00  0.00     0.006 A 
ENDROOT
BRANCH   1   8
ATOM      8  C1  UNL d   1       1.367   2.013  -2.967  0.00  0.00     0.054 C 
ATOM      9  C   UNL d   1       0.072   2.812  -2.944  0.00  0.00     0.018 C 
ENDBRANCH   1   8
TORSDOF 1
ENDMDL
