MODEL 1
REMARK minimizedAffinity -0.886614919
REMARK minimizedRMSD -1
REMARK  2 active torsions:
REMARK  status: ('A' for Active; 'I' for Inactive)
REMARK    1  A    between atoms: C1_2  and  C2_3 
REMARK    2  A    between atoms: C2_3  and  C3_4 
ROOT
ATOM      1  C3  UNL d   1       0.067  -0.393   2.106  0.00  0.00    -0.075 A 
ATOM      2  C4  UNL d   1      -1.097   0.182   2.637  0.00  0.00     0.002 A 
ATOM      3  C5  UNL d   1      -2.213   0.396   1.828  0.00  0.00     0.002 A 
ATOM      4  C6  UNL d   1      -2.177   0.049   0.479  0.00  0.00    -0.004 A 
ATOM      5  C7  UNL d   1      -1.020  -0.507  -0.062  0.00  0.00     0.002 A 
ATOM      6  C8  UNL d   1       0.097  -0.726   0.746  0.00  0.00     0.002 A 
ENDROOT
BRANCH   1   7
ATOM      7  C2  UNL d   1       1.268  -0.654   2.983  0.00  0.00     0.056 C 
BRANCH   7   8
ATOM      8  C1  UNL d   1       0.917  -1.142   4.393  0.00  0.00     0.007 C 
ATOM      9  C   UNL d   1       2.036  -1.940   5.048  0.00  0.00     0.009 C 
ENDBRANCH   7   8
ENDBRANCH   1   7
TORSDOF 2
ENDMDL
