MODEL 1
REMARK minimizedAffinity 1.90104067
REMARK minimizedRMSD -1
REMARK  2 active torsions:
REMARK  status: ('A' for Active; 'I' for Inactive)
REMARK    1  A    between atoms: C1_2  and  C2_3 
REMARK    2  A    between atoms: C2_3  and  C3_4 
ROOT
ATOM      1  C3  UNL d   1       0.521  -0.164   0.804  0.00  0.00    -0.075 A 
ATOM      2  C4  UNL d   1       0.112  -0.896  -0.320  0.00  0.00     0.002 A 
ATOM      3  C5  UNL d   1      -1.241  -1.002  -0.643  0.00  0.00     0.002 A 
ATOM      4  C6  UNL d   1      -2.201  -0.387   0.158  0.00  0.00    -0.004 A 
ATOM      5  C7  UNL d   1      -1.807   0.329   1.286  0.00  0.00     0.002 A 
ATOM      6  C8  UNL d   1      -0.454   0.440   1.609  0.00  0.00     0.002 A 
ENDROOT
BRANCH   1   7
ATOM      7  C2  UNL d   1       1.986  -0.021   1.142  0.00  0.00     0.056 C 
BRANCH   7   8
ATOM      8  C1  UNL d   1       2.537   1.395   0.942  0.00  0.00     0.007 C 
ATOM      9  C   UNL d   1       3.270   1.572  -0.381  0.00  0.00     0.009 C 
ENDBRANCH   7   8
ENDBRANCH   1   7
TORSDOF 2
ENDMDL
