MODEL 1
REMARK minimizedAffinity -2.63804531
REMARK minimizedRMSD -1
REMARK  2 active torsions:
REMARK  status: ('A' for Active; 'I' for Inactive)
REMARK    1  A    between atoms: C1_2  and  C2_3 
REMARK    2  A    between atoms: C2_3  and  C3_4 
ROOT
ATOM      1  C3  UNL d   1       0.439  -0.735   2.636  0.00  0.00    -0.075 A 
ATOM      2  C4  UNL d   1      -0.758  -0.306   3.228  0.00  0.00     0.002 A 
ATOM      3  C5  UNL d   1      -1.822   0.131   2.439  0.00  0.00     0.002 A 
ATOM      4  C6  UNL d   1      -1.700   0.156   1.051  0.00  0.00    -0.004 A 
ATOM      5  C7  UNL d   1      -0.510  -0.251   0.453  0.00  0.00     0.002 A 
ATOM      6  C8  UNL d   1       0.555  -0.694   1.240  0.00  0.00     0.002 A 
ENDROOT
BRANCH   1   7
ATOM      7  C2  UNL d   1       1.583  -1.237   3.483  0.00  0.00     0.056 C 
BRANCH   7   8
ATOM      8  C1  UNL d   1       1.143  -1.985   4.746  0.00  0.00     0.007 C 
ATOM      9  C   UNL d   1       1.173  -1.118   5.997  0.00  0.00     0.009 C 
ENDBRANCH   7   8
ENDBRANCH   1   7
TORSDOF 2
ENDMDL
