MODEL 1
REMARK minimizedAffinity 6.94270754
REMARK minimizedRMSD -1
REMARK  2 active torsions:
REMARK  status: ('A' for Active; 'I' for Inactive)
REMARK    1  A    between atoms: C1_2  and  C2_3 
REMARK    2  A    between atoms: C2_3  and  C3_4 
ROOT
ATOM      1  C3  UNL d   1      -0.725  -0.398   1.114  0.00  0.00    -0.075 A 
ATOM      2  C4  UNL d   1      -0.892  -1.023  -0.131  0.00  0.00     0.002 A 
ATOM      3  C5  UNL d   1      -2.028  -0.777  -0.901  0.00  0.00     0.002 A 
ATOM      4  C6  UNL d   1      -3.016   0.088  -0.434  0.00  0.00    -0.004 A 
ATOM      5  C7  UNL d   1      -2.869   0.702   0.808  0.00  0.00     0.002 A 
ATOM      6  C8  UNL d   1      -1.730   0.461   1.579  0.00  0.00     0.002 A 
ENDROOT
BRANCH   1   7
ATOM      7  C2  UNL d   1       0.517  -0.638   1.939  0.00  0.00     0.056 C 
BRANCH   7   8
ATOM      8  C1  UNL d   1       1.816  -0.636   1.126  0.00  0.00     0.007 C 
ATOM      9  C   UNL d   1       2.487   0.730   1.068  0.00  0.00     0.009 C 
ENDBRANCH   7   8
ENDBRANCH   1   7
TORSDOF 2
ENDMDL
