MODEL 1
REMARK minimizedAffinity -3.5051322
REMARK minimizedRMSD -1
REMARK  2 active torsions:
REMARK  status: ('A' for Active; 'I' for Inactive)
REMARK    1  A    between atoms: C1_2  and  C2_3 
REMARK    2  A    between atoms: C2_3  and  C3_4 
ROOT
ATOM      1  C3  UNL d   1       1.342  -0.043   2.275  0.00  0.00    -0.075 A 
ATOM      2  C4  UNL d   1       0.774  -0.498   3.474  0.00  0.00     0.002 A 
ATOM      3  C5  UNL d   1       1.580  -1.014   4.489  0.00  0.00     0.002 A 
ATOM      4  C6  UNL d   1       2.960  -1.091   4.315  0.00  0.00    -0.004 A 
ATOM      5  C7  UNL d   1       3.534  -0.658   3.122  0.00  0.00     0.002 A 
ATOM      6  C8  UNL d   1       2.730  -0.138   2.106  0.00  0.00     0.002 A 
ENDROOT
BRANCH   1   7
ATOM      7  C2  UNL d   1       0.478   0.543   1.184  0.00  0.00     0.056 C 
BRANCH   7   8
ATOM      8  C1  UNL d   1      -1.025   0.470   1.472  0.00  0.00     0.007 C 
ATOM      9  C   UNL d   1      -1.838  -0.043   0.291  0.00  0.00     0.009 C 
ENDBRANCH   7   8
ENDBRANCH   1   7
TORSDOF 2
ENDMDL
