MODEL 1
REMARK minimizedAffinity -0.0509658754
REMARK minimizedRMSD -1
REMARK  1 active torsions:
REMARK  status: ('A' for Active; 'I' for Inactive)
REMARK    1  A    between atoms: C1_2  and  C2_3 
ROOT
ATOM      1  C2  UNL d   1       2.286   3.350   0.851  0.00  0.00    -0.073 A 
ATOM      2  C3  UNL d   1       1.515   2.628   1.769  0.00  0.00    -0.002 A 
ATOM      3  C4  UNL d   1       0.425   1.873   1.334  0.00  0.00     0.004 A 
ATOM      4  C5  UNL d   1       0.100   1.826  -0.022  0.00  0.00    -0.004 A 
ATOM      5  C6  UNL d   1       0.865   2.531  -0.956  0.00  0.00    -0.075 A 
ATOM      6  C7  UNL d   1       0.527   2.493  -2.417  0.00  0.00     0.076 C 
ATOM      7  C8  UNL d   1       1.957   3.290  -0.511  0.00  0.00     0.001 A 
ENDROOT
BRANCH   1   8
ATOM      8  C1  UNL d   1       3.468   4.162   1.315  0.00  0.00     0.053 C 
ATOM      9  C   UNL d   1       3.897   3.789   2.725  0.00  0.00     0.018 C 
ENDBRANCH   1   8
TORSDOF 1
ENDMDL
