MODEL 1
REMARK minimizedAffinity 13.7724848
REMARK minimizedRMSD -1
REMARK  1 active torsions:
REMARK  status: ('A' for Active; 'I' for Inactive)
REMARK    1  A    between atoms: C1_2  and  C2_3 
ROOT
ATOM      1  C2  UNL d   1       2.524   2.617  -5.973  0.00  0.00    -0.073 A 
ATOM      2  C3  UNL d   1       1.779   1.432  -5.970  0.00  0.00    -0.002 A 
ATOM      3  C4  UNL d   1       0.385   1.476  -5.951  0.00  0.00     0.004 A 
ATOM      4  C5  UNL d   1      -0.279   2.703  -5.943  0.00  0.00    -0.004 A 
ATOM      5  C6  UNL d   1       0.448   3.898  -5.958  0.00  0.00    -0.075 A 
ATOM      6  C7  UNL d   1      -0.251   5.226  -5.947  0.00  0.00     0.076 C 
ATOM      7  C8  UNL d   1       1.848   3.846  -5.974  0.00  0.00     0.001 A 
ENDROOT
BRANCH   1   8
ATOM      8  C1  UNL d   1       4.030   2.574  -5.999  0.00  0.00     0.053 C 
ATOM      9  C   UNL d   1       4.641   3.966  -5.958  0.00  0.00     0.018 C 
ENDBRANCH   1   8
TORSDOF 1
ENDMDL
