MODEL 1
REMARK minimizedAffinity 1.46723986
REMARK minimizedRMSD -1
REMARK  1 active torsions:
REMARK  status: ('A' for Active; 'I' for Inactive)
REMARK    1  A    between atoms: C1_2  and  C2_3 
ROOT
ATOM      1  C2  UNL d   1       0.306   0.850  -0.342  0.00  0.00    -0.073 A 
ATOM      2  C3  UNL d   1       1.212  -0.128  -0.766  0.00  0.00    -0.002 A 
ATOM      3  C4  UNL d   1       1.974   0.069  -1.919  0.00  0.00     0.004 A 
ATOM      4  C5  UNL d   1       1.844   1.247  -2.653  0.00  0.00    -0.004 A 
ATOM      5  C6  UNL d   1       0.953   2.242  -2.239  0.00  0.00    -0.075 A 
ATOM      6  C7  UNL d   1       0.799   3.514  -3.020  0.00  0.00     0.076 C 
ATOM      7  C8  UNL d   1       0.188   2.036  -1.083  0.00  0.00     0.001 A 
ENDROOT
BRANCH   1   8
ATOM      8  C1  UNL d   1      -0.515   0.645   0.904  0.00  0.00     0.053 C 
ATOM      9  C   UNL d   1      -0.330  -0.748   1.486  0.00  0.00     0.018 C 
ENDBRANCH   1   8
TORSDOF 1
ENDMDL
