MODEL 1
REMARK minimizedAffinity 5.55950451
REMARK minimizedRMSD -1
REMARK  1 active torsions:
REMARK  status: ('A' for Active; 'I' for Inactive)
REMARK    1  A    between atoms: C1_2  and  C2_3 
ROOT
ATOM      1  C2  UNL d   1      -2.354  -4.286  -1.277  0.00  0.00    -0.073 A 
ATOM      2  C3  UNL d   1      -1.365  -4.866  -2.079  0.00  0.00    -0.002 A 
ATOM      3  C4  UNL d   1      -0.301  -4.097  -2.552  0.00  0.00     0.004 A 
ATOM      4  C5  UNL d   1      -0.211  -2.744  -2.224  0.00  0.00    -0.004 A 
ATOM      5  C6  UNL d   1      -1.183  -2.149  -1.413  0.00  0.00    -0.075 A 
ATOM      6  C7  UNL d   1      -1.102  -0.695  -1.052  0.00  0.00     0.076 C 
ATOM      7  C8  UNL d   1      -2.250  -2.927  -0.944  0.00  0.00     0.001 A 
ENDROOT
BRANCH   1   8
ATOM      8  C1  UNL d   1      -3.502  -5.113  -0.759  0.00  0.00     0.053 C 
ATOM      9  C   UNL d   1      -4.101  -5.998  -1.840  0.00  0.00     0.018 C 
ENDBRANCH   1   8
TORSDOF 1
ENDMDL
