MODEL 1
REMARK minimizedAffinity 7.33054686
REMARK minimizedRMSD -1
REMARK  1 active torsions:
REMARK  status: ('A' for Active; 'I' for Inactive)
REMARK    1  A    between atoms: C1_2  and  C2_3 
ROOT
ATOM      1  C2  UNL d   1       4.608   3.272  -5.633  0.00  0.00    -0.073 A 
ATOM      2  C3  UNL d   1       5.174   4.549  -5.721  0.00  0.00    -0.002 A 
ATOM      3  C4  UNL d   1       4.362   5.669  -5.905  0.00  0.00     0.004 A 
ATOM      4  C5  UNL d   1       2.978   5.525  -5.997  0.00  0.00    -0.004 A 
ATOM      5  C6  UNL d   1       2.392   4.259  -5.900  0.00  0.00    -0.075 A 
ATOM      6  C7  UNL d   1       0.905   4.086  -5.999  0.00  0.00     0.076 C 
ATOM      7  C8  UNL d   1       3.214   3.139  -5.717  0.00  0.00     0.001 A 
ENDROOT
BRANCH   1   8
ATOM      8  C1  UNL d   1       5.480   2.061  -5.427  0.00  0.00     0.053 C 
ATOM      9  C   UNL d   1       5.495   1.609  -3.976  0.00  0.00     0.018 C 
ENDBRANCH   1   8
TORSDOF 1
ENDMDL
