MODEL 1
REMARK minimizedAffinity -1.90564334
REMARK minimizedRMSD -1
REMARK  1 active torsions:
REMARK  status: ('A' for Active; 'I' for Inactive)
REMARK    1  A    between atoms: C1_2  and  C2_3 
ROOT
ATOM      1  C2  UNL d   1      -0.117   4.146  -5.989  0.00  0.00    -0.073 A 
ATOM      2  C3  UNL d   1      -0.550   2.815  -5.992  0.00  0.00    -0.002 A 
ATOM      3  C4  UNL d   1      -1.914   2.518  -5.988  0.00  0.00     0.004 A 
ATOM      4  C5  UNL d   1      -2.856   3.546  -5.989  0.00  0.00    -0.004 A 
ATOM      5  C6  UNL d   1      -2.443   4.882  -5.998  0.00  0.00    -0.075 A 
ATOM      6  C7  UNL d   1      -3.444   6.000  -5.997  0.00  0.00     0.076 C 
ATOM      7  C8  UNL d   1      -1.072   5.173  -5.999  0.00  0.00     0.001 A 
ENDROOT
BRANCH   1   8
ATOM      8  C1  UNL d   1       1.355   4.472  -6.000  0.00  0.00     0.053 C 
ATOM      9  C   UNL d   1       2.216   3.219  -5.989  0.00  0.00     0.018 C 
ENDBRANCH   1   8
TORSDOF 1
ENDMDL
