MODEL 1
REMARK minimizedAffinity 8.3440485
REMARK minimizedRMSD -1
REMARK  1 active torsions:
REMARK  status: ('A' for Active; 'I' for Inactive)
REMARK    1  A    between atoms: C1_2  and  C2_3 
ROOT
ATOM      1  C2  UNL d   1      -0.910  -2.041  -0.547  0.00  0.00    -0.073 A 
ATOM      2  C3  UNL d   1      -1.965  -2.757  -1.124  0.00  0.00    -0.002 A 
ATOM      3  C4  UNL d   1      -1.761  -3.494  -2.291  0.00  0.00     0.004 A 
ATOM      4  C5  UNL d   1      -0.501  -3.530  -2.888  0.00  0.00    -0.004 A 
ATOM      5  C6  UNL d   1       0.569  -2.830  -2.320  0.00  0.00    -0.075 A 
ATOM      6  C7  UNL d   1       1.930  -2.856  -2.951  0.00  0.00     0.076 C 
ATOM      7  C8  UNL d   1       0.356  -2.090  -1.150  0.00  0.00     0.001 A 
ENDROOT
BRANCH   1   8
ATOM      8  C1  UNL d   1      -1.124  -1.248   0.716  0.00  0.00     0.053 C 
ATOM      9  C   UNL d   1      -0.478   0.127   0.642  0.00  0.00     0.018 C 
ENDBRANCH   1   8
TORSDOF 1
ENDMDL
