MODEL 1
REMARK minimizedAffinity -2.0284574
REMARK minimizedRMSD -1
REMARK  1 active torsions:
REMARK  status: ('A' for Active; 'I' for Inactive)
REMARK    1  A    between atoms: C1_2  and  C2_3 
ROOT
ATOM      1  C2  UNL d   1       0.379   3.109  -5.058  0.00  0.00    -0.073 A 
ATOM      2  C3  UNL d   1       0.567   4.475  -5.299  0.00  0.00    -0.002 A 
ATOM      3  C4  UNL d   1      -0.486   5.259  -5.771  0.00  0.00     0.004 A 
ATOM      4  C5  UNL d   1      -1.738   4.688  -6.000  0.00  0.00    -0.004 A 
ATOM      5  C6  UNL d   1      -1.949   3.328  -5.753  0.00  0.00    -0.075 A 
ATOM      6  C7  UNL d   1      -3.290   2.699  -5.996  0.00  0.00     0.076 C 
ATOM      7  C8  UNL d   1      -0.886   2.547  -5.282  0.00  0.00     0.001 A 
ENDROOT
BRANCH   1   8
ATOM      8  C1  UNL d   1       1.512   2.260  -4.542  0.00  0.00     0.053 C 
ATOM      9  C   UNL d   1       1.892   2.623  -3.115  0.00  0.00     0.018 C 
ENDBRANCH   1   8
TORSDOF 1
ENDMDL
