MODEL 1
REMARK minimizedAffinity 1.52402639
REMARK minimizedRMSD -1
REMARK  1 active torsions:
REMARK  status: ('A' for Active; 'I' for Inactive)
REMARK    1  A    between atoms: C1_2  and  C2_3 
ROOT
ATOM      1  C2  UNL d   1      -0.010   3.691  -5.936  0.00  0.00    -0.073 A 
ATOM      2  C3  UNL d   1       0.155   5.075  -5.813  0.00  0.00    -0.002 A 
ATOM      3  C4  UNL d   1      -0.958   5.916  -5.757  0.00  0.00     0.004 A 
ATOM      4  C5  UNL d   1      -2.245   5.382  -5.817  0.00  0.00    -0.004 A 
ATOM      5  C6  UNL d   1      -2.431   4.000  -5.929  0.00  0.00    -0.075 A 
ATOM      6  C7  UNL d   1      -3.808   3.410  -5.997  0.00  0.00     0.076 C 
ATOM      7  C8  UNL d   1      -1.308   3.163  -5.987  0.00  0.00     0.001 A 
ENDROOT
BRANCH   1   8
ATOM      8  C1  UNL d   1       1.188   2.779  -5.990  0.00  0.00     0.053 C 
ATOM      9  C   UNL d   1       2.496   3.551  -5.916  0.00  0.00     0.018 C 
ENDBRANCH   1   8
TORSDOF 1
ENDMDL
