MODEL 1
REMARK minimizedAffinity 5.97315931
REMARK minimizedRMSD -1
REMARK  1 active torsions:
REMARK  status: ('A' for Active; 'I' for Inactive)
REMARK    1  A    between atoms: C1_2  and  C2_3 
ROOT
ATOM      1  C2  UNL d   1       2.054   2.787   1.979  0.00  0.00    -0.073 A 
ATOM      2  C3  UNL d   1       1.987   2.713   0.583  0.00  0.00    -0.002 A 
ATOM      3  C4  UNL d   1       0.771   2.456  -0.052  0.00  0.00     0.004 A 
ATOM      4  C5  UNL d   1      -0.390   2.277   0.701  0.00  0.00    -0.004 A 
ATOM      5  C6  UNL d   1      -0.345   2.359   2.096  0.00  0.00    -0.075 A 
ATOM      6  C7  UNL d   1      -1.584   2.167   2.920  0.00  0.00     0.076 C 
ATOM      7  C8  UNL d   1       0.880   2.615   2.727  0.00  0.00     0.001 A 
ENDROOT
BRANCH   1   8
ATOM      8  C1  UNL d   1       3.363   3.071   2.669  0.00  0.00     0.053 C 
ATOM      9  C   UNL d   1       4.307   3.878   1.790  0.00  0.00     0.018 C 
ENDBRANCH   1   8
TORSDOF 1
ENDMDL
