MODEL 1
REMARK minimizedAffinity 4.20786238
REMARK minimizedRMSD -1
REMARK  0 active torsions:
REMARK  status: ('A' for Active; 'I' for Inactive)
ROOT
ATOM      1  C4' PXY d   1       4.723   1.954  -1.722  0.00  0.00     0.077 C 
ATOM      2  C1' PXY d   1       0.323   1.866   2.026  0.00  0.00     0.077 C 
ATOM      3  C1  PXY d   1       1.469   1.891   1.034  0.00  0.00    -0.082 A 
ATOM      4  C2  PXY d   1       2.609   1.291   1.335  0.00  0.00     0.003 A 
ATOM      5  C3  PXY d   1       3.666   1.331   0.462  0.00  0.00     0.003 A 
ATOM      6  C4  PXY d   1       3.536   1.946  -0.754  0.00  0.00    -0.082 A 
ATOM      7  C5  PXY d   1       2.373   2.551  -1.074  0.00  0.00     0.003 A 
ATOM      8  C6  PXY d   1       1.326   2.534  -0.157  0.00  0.00     0.003 A 
ENDROOT
TORSDOF 0
ENDMDL
