MODEL 1
REMARK minimizedAffinity 10.9656458
REMARK minimizedRMSD -1
REMARK  0 active torsions:
REMARK  status: ('A' for Active; 'I' for Inactive)
ROOT
ATOM      1  C4' PXY d   1       5.980  -5.409  -5.746  0.00  0.00     0.077 C 
ATOM      2  C1' PXY d   1       0.541  -5.424  -3.791  0.00  0.00     0.077 C 
ATOM      3  C1  PXY d   1       1.964  -5.431  -4.311  0.00  0.00    -0.082 A 
ATOM      4  C2  PXY d   1       2.929  -4.891  -3.584  0.00  0.00     0.003 A 
ATOM      5  C3  PXY d   1       4.217  -4.859  -4.054  0.00  0.00     0.003 A 
ATOM      6  C4  PXY d   1       4.530  -5.434  -5.257  0.00  0.00    -0.082 A 
ATOM      7  C5  PXY d   1       3.553  -5.996  -6.000  0.00  0.00     0.003 A 
ATOM      8  C6  PXY d   1       2.245  -5.981  -5.524  0.00  0.00     0.003 A 
ENDROOT
TORSDOF 0
ENDMDL
