MODEL 1
REMARK minimizedAffinity 10.9818411
REMARK minimizedRMSD -1
REMARK  0 active torsions:
REMARK  status: ('A' for Active; 'I' for Inactive)
ROOT
ATOM      1  C4' PXY d   1      -0.353   3.533  -0.836  0.00  0.00     0.077 C 
ATOM      2  C1' PXY d   1       3.440   1.644   3.096  0.00  0.00     0.077 C 
ATOM      3  C1  PXY d   1       2.438   2.130   2.068  0.00  0.00    -0.082 A 
ATOM      4  C2  PXY d   1       2.850   2.863   1.047  0.00  0.00     0.003 A 
ATOM      5  C3  PXY d   1       1.952   3.337   0.126  0.00  0.00     0.003 A 
ATOM      6  C4  PXY d   1       0.625   3.013   0.221  0.00  0.00    -0.082 A 
ATOM      7  C5  PXY d   1       0.198   2.256   1.254  0.00  0.00     0.003 A 
ATOM      8  C6  PXY d   1       1.120   1.819   2.201  0.00  0.00     0.003 A 
ENDROOT
TORSDOF 0
ENDMDL
