MODEL 1
REMARK minimizedAffinity 7.82143164
REMARK minimizedRMSD -1
REMARK  0 active torsions:
REMARK  status: ('A' for Active; 'I' for Inactive)
ROOT
ATOM      1  C4' PXY d   1       1.536   2.571   0.209  0.00  0.00     0.077 C 
ATOM      2  C1' PXY d   1       5.996   1.503   3.728  0.00  0.00     0.077 C 
ATOM      3  C1  PXY d   1       4.834   1.791   2.798  0.00  0.00    -0.082 A 
ATOM      4  C2  PXY d   1       3.594   1.626   3.230  0.00  0.00     0.003 A 
ATOM      5  C3  PXY d   1       2.532   1.851   2.392  0.00  0.00     0.003 A 
ATOM      6  C4  PXY d   1       2.739   2.301   1.116  0.00  0.00    -0.082 A 
ATOM      7  C5  PXY d   1       4.001   2.483   0.672  0.00  0.00     0.003 A 
ATOM      8  C6  PXY d   1       5.066   2.210   1.524  0.00  0.00     0.003 A 
ENDROOT
TORSDOF 0
ENDMDL
