MODEL 1
REMARK minimizedAffinity 4.72945976
REMARK minimizedRMSD -1
REMARK  0 active torsions:
REMARK  status: ('A' for Active; 'I' for Inactive)
ROOT
ATOM      1  C4' PXY d   1      -1.866   2.889   1.122  0.00  0.00     0.077 C 
ATOM      2  C1' PXY d   1       3.535   1.240   2.355  0.00  0.00     0.077 C 
ATOM      3  C1  PXY d   1       2.114   1.666   2.042  0.00  0.00    -0.082 A 
ATOM      4  C2  PXY d   1       1.771   1.930   0.792  0.00  0.00     0.003 A 
ATOM      5  C3  PXY d   1       0.499   2.348   0.496  0.00  0.00     0.003 A 
ATOM      6  C4  PXY d   1      -0.446   2.446   1.483  0.00  0.00    -0.082 A 
ATOM      7  C5  PXY d   1      -0.106   2.168   2.759  0.00  0.00     0.003 A 
ATOM      8  C6  PXY d   1       1.202   1.785   3.044  0.00  0.00     0.003 A 
ENDROOT
TORSDOF 0
ENDMDL
