MODEL 1
REMARK minimizedAffinity 8.33269882
REMARK minimizedRMSD -1
REMARK  0 active torsions:
REMARK  status: ('A' for Active; 'I' for Inactive)
ROOT
ATOM      1  C4' PXY d   1       3.559   2.583  -0.325  0.00  0.00     0.077 C 
ATOM      2  C1' PXY d   1      -0.699   2.079   3.551  0.00  0.00     0.077 C 
ATOM      3  C1  PXY d   1       0.426   2.213   2.544  0.00  0.00    -0.082 A 
ATOM      4  C2  PXY d   1       0.150   2.554   1.296  0.00  0.00     0.003 A 
ATOM      5  C3  PXY d   1       1.152   2.649   0.365  0.00  0.00     0.003 A 
ATOM      6  C4  PXY d   1       2.456   2.445   0.727  0.00  0.00    -0.082 A 
ATOM      7  C5  PXY d   1       2.747   2.107   2.002  0.00  0.00     0.003 A 
ATOM      8  C6  PXY d   1       1.711   1.976   2.922  0.00  0.00     0.003 A 
ENDROOT
TORSDOF 0
ENDMDL
