MODEL 1
REMARK minimizedAffinity 4.19207859
REMARK minimizedRMSD -1
REMARK  0 active torsions:
REMARK  status: ('A' for Active; 'I' for Inactive)
ROOT
ATOM      1  C4' PXY d   1      -2.528   2.145   1.049  0.00  0.00     0.077 C 
ATOM      2  C1' PXY d   1       3.233   2.573   1.246  0.00  0.00     0.077 C 
ATOM      3  C1  PXY d   1       1.721   2.473   1.190  0.00  0.00    -0.082 A 
ATOM      4  C2  PXY d   1       1.095   1.596   1.957  0.00  0.00     0.003 A 
ATOM      5  C3  PXY d   1      -0.269   1.470   1.895  0.00  0.00     0.003 A 
ATOM      6  C4  PXY d   1      -1.004   2.287   1.079  0.00  0.00    -0.082 A 
ATOM      7  C5  PXY d   1      -0.373   3.193   0.302  0.00  0.00     0.003 A 
ATOM      8  C6  PXY d   1       1.015   3.276   0.348  0.00  0.00     0.003 A 
ENDROOT
TORSDOF 0
ENDMDL
