MODEL 1
REMARK minimizedAffinity 2.48283219
REMARK minimizedRMSD -1
REMARK  0 active torsions:
REMARK  status: ('A' for Active; 'I' for Inactive)
ROOT
ATOM      1  C4' PXY d   1      -1.271   2.412   1.733  0.00  0.00     0.077 C 
ATOM      2  C1' PXY d   1       4.014   2.631  -0.599  0.00  0.00     0.077 C 
ATOM      3  C1  PXY d   1       2.626   2.586   0.009  0.00  0.00    -0.082 A 
ATOM      4  C2  PXY d   1       2.375   1.754   1.007  0.00  0.00     0.003 A 
ATOM      5  C3  PXY d   1       1.117   1.677   1.547  0.00  0.00     0.003 A 
ATOM      6  C4  PXY d   1       0.118   2.498   1.096  0.00  0.00    -0.082 A 
ATOM      7  C5  PXY d   1       0.369   3.357   0.085  0.00  0.00     0.003 A 
ATOM      8  C6  PXY d   1       1.642   3.391  -0.477  0.00  0.00     0.003 A 
ENDROOT
TORSDOF 0
ENDMDL
