MODEL 1
REMARK minimizedAffinity 9.21601486
REMARK minimizedRMSD -1
REMARK  0 active torsions:
REMARK  status: ('A' for Active; 'I' for Inactive)
ROOT
ATOM      1  C4' PXY d   1      -1.547  -0.830   1.062  0.00  0.00     0.077 C 
ATOM      2  C1' PXY d   1       2.934   2.819   0.923  0.00  0.00     0.077 C 
ATOM      3  C1  PXY d   1       1.751   1.872   0.961  0.00  0.00    -0.082 A 
ATOM      4  C2  PXY d   1       1.929   0.617   1.341  0.00  0.00     0.003 A 
ATOM      5  C3  PXY d   1       0.875  -0.261   1.350  0.00  0.00     0.003 A 
ATOM      6  C4  PXY d   1      -0.383   0.164   1.018  0.00  0.00    -0.082 A 
ATOM      7  C5  PXY d   1      -0.575   1.445   0.639  0.00  0.00     0.003 A 
ATOM      8  C6  PXY d   1       0.515   2.310   0.597  0.00  0.00     0.003 A 
ENDROOT
TORSDOF 0
ENDMDL
