MODEL 1
REMARK minimizedAffinity 14.965848
REMARK minimizedRMSD -1
REMARK  0 active torsions:
REMARK  status: ('A' for Active; 'I' for Inactive)
ROOT
ATOM      1  C4' PXY d   1      -1.122   2.608   1.518  0.00  0.00     0.077 C 
ATOM      2  C1' PXY d   1       4.577   2.465   0.564  0.00  0.00     0.077 C 
ATOM      3  C1  PXY d   1       3.083   2.516   0.814  0.00  0.00    -0.082 A 
ATOM      4  C2  PXY d   1       2.474   1.472   1.355  0.00  0.00     0.003 A 
ATOM      5  C3  PXY d   1       1.119   1.489   1.559  0.00  0.00     0.003 A 
ATOM      6  C4  PXY d   1       0.386   2.605   1.256  0.00  0.00    -0.082 A 
ATOM      7  C5  PXY d   1       1.001   3.678   0.714  0.00  0.00     0.003 A 
ATOM      8  C6  PXY d   1       2.372   3.625   0.477  0.00  0.00     0.003 A 
ENDROOT
TORSDOF 0
ENDMDL
