MODEL 1
REMARK minimizedAffinity 10.6999397
REMARK minimizedRMSD -1
REMARK  0 active torsions:
REMARK  status: ('A' for Active; 'I' for Inactive)
ROOT
ATOM      1  C4' PXY d   1       1.685   1.238   0.933  0.00  0.00     0.077 C 
ATOM      2  C1' PXY d   1       4.863   1.905   5.715  0.00  0.00     0.077 C 
ATOM      3  C1  PXY d   1       4.024   1.719   4.466  0.00  0.00    -0.082 A 
ATOM      4  C2  PXY d   1       4.416   2.269   3.328  0.00  0.00     0.003 A 
ATOM      5  C3  PXY d   1       3.653   2.137   2.196  0.00  0.00     0.003 A 
ATOM      6  C4  PXY d   1       2.505   1.391   2.217  0.00  0.00    -0.082 A 
ATOM      7  C5  PXY d   1       2.105   0.818   3.372  0.00  0.00     0.003 A 
ATOM      8  C6  PXY d   1       2.872   0.998   4.519  0.00  0.00     0.003 A 
ENDROOT
TORSDOF 0
ENDMDL
