MODEL 1
REMARK minimizedAffinity 2.87644124
REMARK minimizedRMSD -1
REMARK  0 active torsions:
REMARK  status: ('A' for Active; 'I' for Inactive)
ROOT
ATOM      1  C4' PXY d   1       5.968   5.990   5.503  0.00  0.00     0.077 C 
ATOM      2  C1' PXY d   1       3.619   1.043   3.652  0.00  0.00     0.077 C 
ATOM      3  C1  PXY d   1       4.232   2.337   4.150  0.00  0.00    -0.082 A 
ATOM      4  C2  PXY d   1       4.312   3.378   3.337  0.00  0.00     0.003 A 
ATOM      5  C3  PXY d   1       4.893   4.546   3.761  0.00  0.00     0.003 A 
ATOM      6  C4  PXY d   1       5.348   4.666   5.046  0.00  0.00    -0.082 A 
ATOM      7  C5  PXY d   1       5.260   3.612   5.885  0.00  0.00     0.003 A 
ATOM      8  C6  PXY d   1       4.705   2.422   5.423  0.00  0.00     0.003 A 
ENDROOT
TORSDOF 0
ENDMDL
