MODEL 1
REMARK minimizedAffinity -4.10651588
REMARK minimizedRMSD -1
REMARK  0 active torsions:
REMARK  status: ('A' for Active; 'I' for Inactive)
ROOT
ATOM      1  C4' PXY d   1      -0.852   1.259  -4.518  0.00  0.00     0.077 C 
ATOM      2  C1' PXY d   1       4.386   3.647  -5.040  0.00  0.00     0.077 C 
ATOM      3  C1  PXY d   1       3.008   3.029  -4.913  0.00  0.00    -0.082 A 
ATOM      4  C2  PXY d   1       2.673   2.402  -3.797  0.00  0.00     0.003 A 
ATOM      5  C3  PXY d   1       1.442   1.810  -3.676  0.00  0.00     0.003 A 
ATOM      6  C4  PXY d   1       0.525   1.906  -4.688  0.00  0.00    -0.082 A 
ATOM      7  C5  PXY d   1       0.855   2.554  -5.826  0.00  0.00     0.003 A 
ATOM      8  C6  PXY d   1       2.124   3.112  -5.944  0.00  0.00     0.003 A 
ENDROOT
TORSDOF 0
ENDMDL
