MODEL 1
REMARK minimizedAffinity 8.72722244
REMARK minimizedRMSD -1
REMARK  0 active torsions:
REMARK  status: ('A' for Active; 'I' for Inactive)
ROOT
ATOM      1  C4' PXY d   1      -1.786   3.416   3.349  0.00  0.00     0.077 C 
ATOM      2  C1' PXY d   1       2.626   1.455   0.171  0.00  0.00     0.077 C 
ATOM      3  C1  PXY d   1       1.463   1.974   0.994  0.00  0.00    -0.082 A 
ATOM      4  C2  PXY d   1       1.624   2.190   2.289  0.00  0.00     0.003 A 
ATOM      5  C3  PXY d   1       0.574   2.630   3.054  0.00  0.00     0.003 A 
ATOM      6  C4  PXY d   1      -0.637   2.901   2.478  0.00  0.00    -0.082 A 
ATOM      7  C5  PXY d   1      -0.806   2.694   1.155  0.00  0.00     0.003 A 
ATOM      8  C6  PXY d   1       0.260   2.208   0.403  0.00  0.00     0.003 A 
ENDROOT
TORSDOF 0
ENDMDL
