MODEL 1
REMARK minimizedAffinity 3.4968257
REMARK minimizedRMSD -1
REMARK  0 active torsions:
REMARK  status: ('A' for Active; 'I' for Inactive)
ROOT
ATOM      1  C4' PXY d   1       4.869   5.922   0.194  0.00  0.00     0.077 C 
ATOM      2  C1' PXY d   1       4.598   5.995   5.967  0.00  0.00     0.077 C 
ATOM      3  C1  PXY d   1       4.681   5.981   4.454  0.00  0.00    -0.082 A 
ATOM      4  C2  PXY d   1       3.569   5.974   3.738  0.00  0.00     0.003 A 
ATOM      5  C3  PXY d   1       3.625   5.929   2.368  0.00  0.00     0.003 A 
ATOM      6  C4  PXY d   1       4.833   5.945   1.724  0.00  0.00    -0.082 A 
ATOM      7  C5  PXY d   1       5.973   5.963   2.448  0.00  0.00     0.003 A 
ATOM      8  C6  PXY d   1       5.894   5.966   3.837  0.00  0.00     0.003 A 
ENDROOT
TORSDOF 0
ENDMDL
