MODEL 1
REMARK minimizedAffinity 9.77853012
REMARK minimizedRMSD -1
REMARK  0 active torsions:
REMARK  status: ('A' for Active; 'I' for Inactive)
ROOT
ATOM      1  C4' PXY d   1       2.927   1.411   1.170  0.00  0.00     0.077 C 
ATOM      2  C1' PXY d   1      -2.607   2.937   1.850  0.00  0.00     0.077 C 
ATOM      3  C1  PXY d   1      -1.154   2.540   1.684  0.00  0.00    -0.082 A 
ATOM      4  C2  PXY d   1      -0.614   2.526   0.476  0.00  0.00     0.003 A 
ATOM      5  C3  PXY d   1       0.691   2.139   0.305  0.00  0.00     0.003 A 
ATOM      6  C4  PXY d   1       1.465   1.814   1.386  0.00  0.00    -0.082 A 
ATOM      7  C5  PXY d   1       0.924   1.837   2.622  0.00  0.00     0.003 A 
ATOM      8  C6  PXY d   1      -0.413   2.192   2.771  0.00  0.00     0.003 A 
ENDROOT
TORSDOF 0
ENDMDL
