MODEL 1
REMARK minimizedAffinity 8.42439079
REMARK minimizedRMSD -1
REMARK  0 active torsions:
REMARK  status: ('A' for Active; 'I' for Inactive)
ROOT
ATOM      1  C4' PXY d   1       4.807   5.998   2.303  0.00  0.00     0.077 C 
ATOM      2  C1' PXY d   1       0.086   3.028   0.784  0.00  0.00     0.077 C 
ATOM      3  C1  PXY d   1       1.322   3.815   1.173  0.00  0.00    -0.082 A 
ATOM      4  C2  PXY d   1       2.298   3.216   1.836  0.00  0.00     0.003 A 
ATOM      5  C3  PXY d   1       3.408   3.921   2.223  0.00  0.00     0.003 A 
ATOM      6  C4  PXY d   1       3.545   5.240   1.882  0.00  0.00    -0.082 A 
ATOM      7  C5  PXY d   1       2.559   5.856   1.196  0.00  0.00     0.003 A 
ATOM      8  C6  PXY d   1       1.421   5.133   0.849  0.00  0.00     0.003 A 
ENDROOT
TORSDOF 0
ENDMDL
