MODEL 1
REMARK minimizedAffinity 0.792673767
REMARK minimizedRMSD -1
REMARK  0 active torsions:
REMARK  status: ('A' for Active; 'I' for Inactive)
ROOT
ATOM      1  C4' PXY d   1       5.243   3.746  -1.883  0.00  0.00     0.077 C 
ATOM      2  C1' PXY d   1       4.084   6.000   3.312  0.00  0.00     0.077 C 
ATOM      3  C1  PXY d   1       4.384   5.397   1.954  0.00  0.00    -0.082 A 
ATOM      4  C2  PXY d   1       5.241   6.000   1.146  0.00  0.00     0.003 A 
ATOM      5  C3  PXY d   1       5.500   5.486  -0.098  0.00  0.00     0.003 A 
ATOM      6  C4  PXY d   1       4.917   4.314  -0.499  0.00  0.00    -0.082 A 
ATOM      7  C5  PXY d   1       4.049   3.687   0.324  0.00  0.00     0.003 A 
ATOM      8  C6  PXY d   1       3.768   4.247   1.567  0.00  0.00     0.003 A 
ENDROOT
TORSDOF 0
ENDMDL
