MODEL 1
REMARK minimizedAffinity 8.92878151
REMARK minimizedRMSD -1
REMARK  0 active torsions:
REMARK  status: ('A' for Active; 'I' for Inactive)
ROOT
ATOM      1  C   UNL d   1       5.559  -6.000   0.140  0.00  0.00     0.077 C 
ATOM      2  C1  UNL d   1       5.346  -5.209  -1.116  0.00  0.00    -0.074 A 
ATOM      3  C2  UNL d   1       5.613  -3.837  -1.157  0.00  0.00    -0.005 A 
ATOM      4  C3  UNL d   1       5.419  -3.117  -2.336  0.00  0.00     0.006 A 
ATOM      5  C4  UNL d   1       4.955  -3.761  -3.484  0.00  0.00    -0.005 A 
ATOM      6  C5  UNL d   1       4.683  -5.133  -3.462  0.00  0.00    -0.074 A 
ATOM      7  C6  UNL d   1       4.194  -5.842  -4.690  0.00  0.00     0.077 C 
ATOM      8  C7  UNL d   1       4.888  -5.851  -2.276  0.00  0.00    -0.001 A 
ENDROOT
TORSDOF 0
ENDMDL
