MODEL 1
REMARK minimizedAffinity 10.2055111
REMARK minimizedRMSD -1
REMARK  0 active torsions:
REMARK  status: ('A' for Active; 'I' for Inactive)
ROOT
ATOM      1  C   UNL d   1      -1.965   5.037  -2.371  0.00  0.00     0.077 C 
ATOM      2  C1  UNL d   1      -0.755   4.752  -1.532  0.00  0.00    -0.074 A 
ATOM      3  C2  UNL d   1       0.447   5.433  -1.749  0.00  0.00    -0.005 A 
ATOM      4  C3  UNL d   1       1.561   5.164  -0.954  0.00  0.00     0.006 A 
ATOM      5  C4  UNL d   1       1.485   4.212   0.063  0.00  0.00    -0.005 A 
ATOM      6  C5  UNL d   1       0.292   3.521   0.295  0.00  0.00    -0.074 A 
ATOM      7  C6  UNL d   1       0.191   2.502   1.391  0.00  0.00     0.077 C 
ATOM      8  C7  UNL d   1      -0.825   3.802  -0.503  0.00  0.00    -0.001 A 
ENDROOT
TORSDOF 0
ENDMDL
