MODEL 1
REMARK minimizedAffinity 8.85554314
REMARK minimizedRMSD -1
REMARK  0 active torsions:
REMARK  status: ('A' for Active; 'I' for Inactive)
ROOT
ATOM      1  C   UNL d   1       0.641   1.963   3.943  0.00  0.00     0.077 C 
ATOM      2  C1  UNL d   1       1.179   2.608   2.701  0.00  0.00    -0.074 A 
ATOM      3  C2  UNL d   1       2.447   3.198   2.688  0.00  0.00    -0.005 A 
ATOM      4  C3  UNL d   1       2.938   3.786   1.523  0.00  0.00     0.006 A 
ATOM      5  C4  UNL d   1       2.167   3.789   0.359  0.00  0.00    -0.005 A 
ATOM      6  C5  UNL d   1       0.898   3.203   0.352  0.00  0.00    -0.074 A 
ATOM      7  C6  UNL d   1       0.060   3.189  -0.892  0.00  0.00     0.077 C 
ATOM      8  C7  UNL d   1       0.414   2.608   1.526  0.00  0.00    -0.001 A 
ENDROOT
TORSDOF 0
ENDMDL
