MODEL 1
REMARK minimizedAffinity 3.94759488
REMARK minimizedRMSD -1
REMARK  0 active torsions:
REMARK  status: ('A' for Active; 'I' for Inactive)
ROOT
ATOM      1  C   UNL d   1       0.756   3.058   0.770  0.00  0.00     0.077 C 
ATOM      2  C1  UNL d   1       0.028   3.826  -0.293  0.00  0.00    -0.074 A 
ATOM      3  C2  UNL d   1      -1.369   3.869  -0.320  0.00  0.00    -0.005 A 
ATOM      4  C3  UNL d   1      -2.032   4.595  -1.309  0.00  0.00     0.006 A 
ATOM      5  C4  UNL d   1      -1.305   5.285  -2.281  0.00  0.00    -0.005 A 
ATOM      6  C5  UNL d   1       0.094   5.254  -2.269  0.00  0.00    -0.074 A 
ATOM      7  C6  UNL d   1       0.890   5.997  -3.300  0.00  0.00     0.077 C 
ATOM      8  C7  UNL d   1       0.752   4.528  -1.267  0.00  0.00    -0.001 A 
ENDROOT
TORSDOF 0
ENDMDL
