MODEL 1
REMARK minimizedAffinity 6.79178667
REMARK minimizedRMSD -1
REMARK  0 active torsions:
REMARK  status: ('A' for Active; 'I' for Inactive)
ROOT
ATOM      1  C   UNL d   1      -2.100   4.500  -3.375  0.00  0.00     0.077 C 
ATOM      2  C1  UNL d   1      -1.028   4.645  -2.337  0.00  0.00    -0.074 A 
ATOM      3  C2  UNL d   1      -0.238   5.797  -2.276  0.00  0.00    -0.005 A 
ATOM      4  C3  UNL d   1       0.750   5.922  -1.299  0.00  0.00     0.006 A 
ATOM      5  C4  UNL d   1       0.958   4.897  -0.375  0.00  0.00    -0.005 A 
ATOM      6  C5  UNL d   1       0.177   3.737  -0.420  0.00  0.00    -0.074 A 
ATOM      7  C6  UNL d   1       0.380   2.631   0.571  0.00  0.00     0.077 C 
ATOM      8  C7  UNL d   1      -0.818   3.623  -1.401  0.00  0.00    -0.001 A 
ENDROOT
TORSDOF 0
ENDMDL
