MODEL 1
REMARK minimizedAffinity 3.67977786
REMARK minimizedRMSD -1
REMARK  0 active torsions:
REMARK  status: ('A' for Active; 'I' for Inactive)
ROOT
ATOM      1  C   UNL d   1      -5.987   1.400  -5.996  0.00  0.00     0.077 C 
ATOM      2  C1  UNL d   1      -5.380   1.922  -4.727  0.00  0.00    -0.074 A 
ATOM      3  C2  UNL d   1      -4.273   2.776  -4.758  0.00  0.00    -0.005 A 
ATOM      4  C3  UNL d   1      -3.725   3.261  -3.571  0.00  0.00     0.006 A 
ATOM      5  C4  UNL d   1      -4.279   2.898  -2.342  0.00  0.00    -0.005 A 
ATOM      6  C5  UNL d   1      -5.387   2.046  -2.291  0.00  0.00    -0.074 A 
ATOM      7  C6  UNL d   1      -6.000   1.654  -0.980  0.00  0.00     0.077 C 
ATOM      8  C7  UNL d   1      -5.935   1.569  -3.489  0.00  0.00    -0.001 A 
ENDROOT
TORSDOF 0
ENDMDL
