MODEL 1
REMARK minimizedAffinity 6.27929878
REMARK minimizedRMSD -1
REMARK  0 active torsions:
REMARK  status: ('A' for Active; 'I' for Inactive)
ROOT
ATOM      1  C   UNL d   1      -0.178   1.745   3.572  0.00  0.00     0.077 C 
ATOM      2  C1  UNL d   1       0.512   2.606   2.556  0.00  0.00    -0.074 A 
ATOM      3  C2  UNL d   1       1.711   3.258   2.861  0.00  0.00    -0.005 A 
ATOM      4  C3  UNL d   1       2.345   4.047   1.902  0.00  0.00     0.006 A 
ATOM      5  C4  UNL d   1       1.789   4.193   0.631  0.00  0.00    -0.005 A 
ATOM      6  C5  UNL d   1       0.591   3.547   0.307  0.00  0.00    -0.074 A 
ATOM      7  C6  UNL d   1      -0.015   3.685  -1.058  0.00  0.00     0.077 C 
ATOM      8  C7  UNL d   1      -0.037   2.750   1.274  0.00  0.00    -0.001 A 
ENDROOT
TORSDOF 0
ENDMDL
