MODEL 1
REMARK minimizedAffinity 8.04534435
REMARK minimizedRMSD -1
REMARK  0 active torsions:
REMARK  status: ('A' for Active; 'I' for Inactive)
ROOT
ATOM      1  C   UNL d   1       0.800  -6.000  -1.153  0.00  0.00     0.077 C 
ATOM      2  C1  UNL d   1       0.725  -4.515  -0.956  0.00  0.00    -0.074 A 
ATOM      3  C2  UNL d   1      -0.317  -3.767  -1.514  0.00  0.00    -0.005 A 
ATOM      4  C3  UNL d   1      -0.378  -2.388  -1.314  0.00  0.00     0.006 A 
ATOM      5  C4  UNL d   1       0.599  -1.744  -0.554  0.00  0.00    -0.005 A 
ATOM      6  C5  UNL d   1       1.647  -2.475   0.013  0.00  0.00    -0.074 A 
ATOM      7  C6  UNL d   1       2.700  -1.800   0.841  0.00  0.00     0.077 C 
ATOM      8  C7  UNL d   1       1.698  -3.862  -0.187  0.00  0.00    -0.001 A 
ENDROOT
TORSDOF 0
ENDMDL
