MODEL 1
REMARK minimizedAffinity 3.34865737
REMARK minimizedRMSD -1
REMARK  0 active torsions:
REMARK  status: ('A' for Active; 'I' for Inactive)
ROOT
ATOM      1  C   UNL d   1       1.878   3.268   1.131  0.00  0.00     0.077 C 
ATOM      2  C1  UNL d   1       0.831   3.735   0.165  0.00  0.00    -0.074 A 
ATOM      3  C2  UNL d   1      -0.485   3.959   0.584  0.00  0.00    -0.005 A 
ATOM      4  C3  UNL d   1      -1.446   4.402  -0.324  0.00  0.00     0.006 A 
ATOM      5  C4  UNL d   1      -1.103   4.626  -1.658  0.00  0.00    -0.005 A 
ATOM      6  C5  UNL d   1       0.208   4.409  -2.095  0.00  0.00    -0.074 A 
ATOM      7  C6  UNL d   1       0.596   4.654  -3.523  0.00  0.00     0.077 C 
ATOM      8  C7  UNL d   1       1.170   3.970  -1.175  0.00  0.00    -0.001 A 
ENDROOT
TORSDOF 0
ENDMDL
