MODEL 1
REMARK minimizedAffinity 9.934412
REMARK minimizedRMSD -1
REMARK  0 active torsions:
REMARK  status: ('A' for Active; 'I' for Inactive)
ROOT
ATOM      1  C1  DEN d   1      -1.067   3.436   1.298  0.00  0.00     0.130 A 
ATOM      2  C2  DEN d   1      -0.036   2.404   1.379  0.00  0.00    -0.031 A 
ATOM      3  C3  DEN d   1       0.695   2.388   0.096  0.00  0.00     0.027 A 
ATOM      4  C4  DEN d   1       0.336   3.855  -1.995  0.00  0.00     0.027 A 
ATOM      5  C5  DEN d   1      -0.427   4.863  -2.542  0.00  0.00    -0.003 A 
ATOM      6  C6  DEN d   1      -1.471   5.438  -1.865  0.00  0.00     0.001 A 
ATOM      7  C7  DEN d   1      -1.751   5.039  -0.585  0.00  0.00     0.017 A 
ATOM      8  C8  DEN d   1      -0.990   4.019  -0.030  0.00  0.00    -0.094 A 
ATOM      9  C9  DEN d   1       0.068   3.459  -0.725  0.00  0.00    -0.072 A 
ENDROOT
TORSDOF 0
ENDMDL
