MODEL 1
REMARK minimizedAffinity 14.6721115
REMARK minimizedRMSD -1
REMARK  0 active torsions:
REMARK  status: ('A' for Active; 'I' for Inactive)
ROOT
ATOM      1  C1  DEN d   1      -2.152   4.263  -2.227  0.00  0.00     0.130 A 
ATOM      2  C2  DEN d   1      -1.722   5.211  -3.252  0.00  0.00    -0.031 A 
ATOM      3  C3  DEN d   1      -0.319   5.578  -2.975  0.00  0.00     0.027 A 
ATOM      4  C4  DEN d   1       1.224   4.771  -1.072  0.00  0.00     0.027 A 
ATOM      5  C5  DEN d   1       1.302   3.973   0.048  0.00  0.00    -0.003 A 
ATOM      6  C6  DEN d   1       0.232   3.249   0.505  0.00  0.00     0.001 A 
ATOM      7  C7  DEN d   1      -0.949   3.272  -0.189  0.00  0.00     0.017 A 
ATOM      8  C8  DEN d   1      -1.037   4.080  -1.315  0.00  0.00    -0.094 A 
ATOM      9  C9  DEN d   1       0.059   4.795  -1.768  0.00  0.00    -0.072 A 
ENDROOT
TORSDOF 0
ENDMDL
