MODEL 1
REMARK minimizedAffinity 15.8244934
REMARK minimizedRMSD -1
REMARK  0 active torsions:
REMARK  status: ('A' for Active; 'I' for Inactive)
ROOT
ATOM      1  C1  DEN d   1       4.501  -4.152  -0.750  0.00  0.00     0.130 A 
ATOM      2  C2  DEN d   1       4.662  -5.499  -1.290  0.00  0.00    -0.031 A 
ATOM      3  C3  DEN d   1       3.327  -5.999  -1.675  0.00  0.00     0.027 A 
ATOM      4  C4  DEN d   1       1.039  -4.822  -1.494  0.00  0.00     0.027 A 
ATOM      5  C5  DEN d   1       0.397  -3.672  -1.089  0.00  0.00    -0.003 A 
ATOM      6  C6  DEN d   1       1.068  -2.624  -0.516  0.00  0.00     0.001 A 
ATOM      7  C7  DEN d   1       2.429  -2.686  -0.374  0.00  0.00     0.017 A 
ATOM      8  C8  DEN d   1       3.082  -3.845  -0.773  0.00  0.00    -0.094 A 
ATOM      9  C9  DEN d   1       2.388  -4.889  -1.361  0.00  0.00    -0.072 A 
ENDROOT
TORSDOF 0
ENDMDL
