MODEL 1
REMARK minimizedAffinity 11.7960644
REMARK minimizedRMSD -1
REMARK  0 active torsions:
REMARK  status: ('A' for Active; 'I' for Inactive)
ROOT
ATOM      1  C1  DEN d   1       1.952  -3.433  -0.284  0.00  0.00     0.130 A 
ATOM      2  C2  DEN d   1       1.903  -2.000  -0.005  0.00  0.00    -0.031 A 
ATOM      3  C3  DEN d   1       3.273  -1.464  -0.127  0.00  0.00     0.027 A 
ATOM      4  C4  DEN d   1       5.454  -2.704  -0.724  0.00  0.00     0.027 A 
ATOM      5  C5  DEN d   1       5.999  -3.931  -1.033  0.00  0.00    -0.003 A 
ATOM      6  C6  DEN d   1       5.246  -5.074  -1.081  0.00  0.00     0.001 A 
ATOM      7  C7  DEN d   1       3.896  -5.006  -0.859  0.00  0.00     0.017 A 
ATOM      8  C8  DEN d   1       3.340  -3.774  -0.539  0.00  0.00    -0.094 A 
ATOM      9  C9  DEN d   1       4.117  -2.629  -0.508  0.00  0.00    -0.072 A 
ENDROOT
TORSDOF 0
ENDMDL
