MODEL 1
REMARK minimizedAffinity 7.13210726
REMARK minimizedRMSD -1
REMARK  0 active torsions:
REMARK  status: ('A' for Active; 'I' for Inactive)
ROOT
ATOM      1  C1  DEN d   1      -5.958   1.093  -4.743  0.00  0.00     0.130 A 
ATOM      2  C2  DEN d   1      -5.952   2.169  -5.730  0.00  0.00    -0.031 A 
ATOM      3  C3  DEN d   1      -5.943   3.455  -5.004  0.00  0.00     0.027 A 
ATOM      4  C4  DEN d   1      -5.933   3.881  -2.461  0.00  0.00     0.027 A 
ATOM      5  C5  DEN d   1      -5.947   3.280  -1.221  0.00  0.00    -0.003 A 
ATOM      6  C6  DEN d   1      -6.000   1.920  -1.070  0.00  0.00     0.001 A 
ATOM      7  C7  DEN d   1      -5.995   1.113  -2.178  0.00  0.00     0.017 A 
ATOM      8  C8  DEN d   1      -5.988   1.712  -3.431  0.00  0.00    -0.094 A 
ATOM      9  C9  DEN d   1      -5.922   3.089  -3.562  0.00  0.00    -0.072 A 
ENDROOT
TORSDOF 0
ENDMDL
