MODEL 1
REMARK minimizedAffinity 11.5037594
REMARK minimizedRMSD -1
REMARK  0 active torsions:
REMARK  status: ('A' for Active; 'I' for Inactive)
ROOT
ATOM      1  C1  DEN d   1      -5.922   3.728  -2.740  0.00  0.00     0.130 A 
ATOM      2  C2  DEN d   1      -5.966   3.002  -1.474  0.00  0.00    -0.031 A 
ATOM      3  C3  DEN d   1      -5.998   1.557  -1.777  0.00  0.00     0.027 A 
ATOM      4  C4  DEN d   1      -5.979   0.380  -4.071  0.00  0.00     0.027 A 
ATOM      5  C5  DEN d   1      -5.958   0.578  -5.434  0.00  0.00    -0.003 A 
ATOM      6  C6  DEN d   1      -5.958   1.830  -5.991  0.00  0.00     0.001 A 
ATOM      7  C7  DEN d   1      -5.933   2.933  -5.179  0.00  0.00     0.017 A 
ATOM      8  C8  DEN d   1      -5.962   2.742  -3.804  0.00  0.00    -0.094 A 
ATOM      9  C9  DEN d   1      -5.950   1.468  -3.261  0.00  0.00    -0.072 A 
ENDROOT
TORSDOF 0
ENDMDL
