MODEL 1
REMARK minimizedAffinity 6.77296972
REMARK minimizedRMSD -1
REMARK  0 active torsions:
REMARK  status: ('A' for Active; 'I' for Inactive)
ROOT
ATOM      1  C1  DEN d   1       0.310   2.746   2.362  0.00  0.00     0.130 A 
ATOM      2  C2  DEN d   1       1.634   2.678   2.975  0.00  0.00    -0.031 A 
ATOM      3  C3  DEN d   1       2.567   3.456   2.136  0.00  0.00     0.027 A 
ATOM      4  C4  DEN d   1       2.092   4.756  -0.040  0.00  0.00     0.027 A 
ATOM      5  C5  DEN d   1       1.121   5.095  -0.957  0.00  0.00    -0.003 A 
ATOM      6  C6  DEN d   1      -0.170   4.650  -0.850  0.00  0.00     0.001 A 
ATOM      7  C7  DEN d   1      -0.536   3.878   0.220  0.00  0.00     0.017 A 
ATOM      8  C8  DEN d   1       0.439   3.526   1.144  0.00  0.00    -0.094 A 
ATOM      9  C9  DEN d   1       1.736   3.995   1.026  0.00  0.00    -0.072 A 
ENDROOT
TORSDOF 0
ENDMDL
