MODEL 1
REMARK minimizedAffinity 14.704361
REMARK minimizedRMSD -1
REMARK  0 active torsions:
REMARK  status: ('A' for Active; 'I' for Inactive)
ROOT
ATOM      1  C1  DEN d   1       0.400  -5.090  -1.208  0.00  0.00     0.130 A 
ATOM      2  C2  DEN d   1      -0.927  -4.535  -1.458  0.00  0.00    -0.031 A 
ATOM      3  C3  DEN d   1      -0.879  -3.088  -1.163  0.00  0.00     0.027 A 
ATOM      4  C4  DEN d   1       1.111  -1.663  -0.351  0.00  0.00     0.027 A 
ATOM      5  C5  DEN d   1       2.439  -1.693   0.013  0.00  0.00    -0.003 A 
ATOM      6  C6  DEN d   1       3.165  -2.854   0.029  0.00  0.00     0.001 A 
ATOM      7  C7  DEN d   1       2.580  -4.027  -0.370  0.00  0.00     0.017 A 
ATOM      8  C8  DEN d   1       1.239  -4.005  -0.732  0.00  0.00    -0.094 A 
ATOM      9  C9  DEN d   1       0.526  -2.819  -0.753  0.00  0.00    -0.072 A 
ENDROOT
TORSDOF 0
ENDMDL
