MODEL 1
REMARK minimizedAffinity -3.42711759
REMARK minimizedRMSD -1
REMARK  1 active torsions:
REMARK  status: ('A' for Active; 'I' for Inactive)
REMARK    1  A    between atoms: C3_4  and  O_7 
ROOT
ATOM      1  C   UNL d   1      -1.068  -0.091   0.459  0.00  0.00    -0.033 A 
ATOM      2  C1  UNL d   1       0.036  -0.431   1.244  0.00  0.00     0.039 A 
ATOM      3  C2  UNL d   1       1.217  -0.865   0.639  0.00  0.00    -0.080 A 
ATOM      4  C3  UNL d   1       1.282  -0.954  -0.749  0.00  0.00     0.150 A 
ATOM      5  C4  UNL d   1       0.187  -0.614  -1.536  0.00  0.00    -0.007 A 
ATOM      6  C5  UNL d   1      -0.992  -0.182  -0.931  0.00  0.00     0.039 A 
ENDROOT
BRANCH   4   7
ATOM      7  O   UNL d   1       2.411  -1.377  -1.384  0.00  0.00    -0.526 OA
ATOM      8  H5  UNL d   1       3.075  -1.605  -0.712  0.00  0.00     0.418 HD
ENDBRANCH   4   7
TORSDOF 1
ENDMDL
