MODEL 1
REMARK minimizedAffinity -3.06474423
REMARK minimizedRMSD -1
REMARK  1 active torsions:
REMARK  status: ('A' for Active; 'I' for Inactive)
REMARK    1  A    between atoms: C3_4  and  O_7 
ROOT
ATOM      1  C   UNL d   1       0.315  -0.445  -0.950  0.00  0.00    -0.033 A 
ATOM      2  C1  UNL d   1       1.534  -1.090  -0.736  0.00  0.00     0.039 A 
ATOM      3  C2  UNL d   1       1.942  -1.404   0.562  0.00  0.00    -0.080 A 
ATOM      4  C3  UNL d   1       1.123  -1.067   1.635  0.00  0.00     0.150 A 
ATOM      5  C4  UNL d   1      -0.095  -0.428   1.429  0.00  0.00    -0.007 A 
ATOM      6  C5  UNL d   1      -0.501  -0.115   0.133  0.00  0.00     0.039 A 
ENDROOT
BRANCH   4   7
ATOM      7  O   UNL d   1       1.481  -1.348   2.920  0.00  0.00    -0.526 OA
ATOM      8  H5  UNL d   1       2.359  -1.765   2.911  0.00  0.00     0.418 HD
ENDBRANCH   4   7
TORSDOF 1
ENDMDL
