MODEL 1
REMARK minimizedAffinity -5.02972746
REMARK minimizedRMSD -1
REMARK  1 active torsions:
REMARK  status: ('A' for Active; 'I' for Inactive)
REMARK    1  A    between atoms: C3_4  and  O_7 
ROOT
ATOM      1  C   UNL d   1       0.831  -0.848   2.977  0.00  0.00    -0.033 A 
ATOM      2  C1  UNL d   1      -0.411  -1.220   2.459  0.00  0.00     0.039 A 
ATOM      3  C2  UNL d   1      -0.734  -0.920   1.134  0.00  0.00    -0.080 A 
ATOM      4  C3  UNL d   1       0.193  -0.251   0.339  0.00  0.00     0.150 A 
ATOM      5  C4  UNL d   1       1.434   0.119   0.848  0.00  0.00    -0.007 A 
ATOM      6  C5  UNL d   1       1.754  -0.181   2.172  0.00  0.00     0.039 A 
ENDROOT
BRANCH   4   7
ATOM      7  O   UNL d   1      -0.079   0.068  -0.958  0.00  0.00    -0.526 OA
ATOM      8  H5  UNL d   1      -0.983  -0.224  -1.164  0.00  0.00     0.418 HD
ENDBRANCH   4   7
TORSDOF 1
ENDMDL
