MODEL 1
REMARK minimizedAffinity -4.74593401
REMARK minimizedRMSD -1
REMARK  1 active torsions:
REMARK  status: ('A' for Active; 'I' for Inactive)
REMARK    1  A    between atoms: C3_4  and  O_7 
ROOT
ATOM      1  C   UNL d   1      -0.681  -0.252  -0.016  0.00  0.00    -0.033 A 
ATOM      2  C1  UNL d   1      -1.456  -0.392   1.137  0.00  0.00     0.039 A 
ATOM      3  C2  UNL d   1      -0.840  -0.568   2.377  0.00  0.00    -0.080 A 
ATOM      4  C3  UNL d   1       0.550  -0.601   2.451  0.00  0.00     0.150 A 
ATOM      5  C4  UNL d   1       1.328  -0.458   1.307  0.00  0.00    -0.007 A 
ATOM      6  C5  UNL d   1       0.711  -0.284   0.069  0.00  0.00     0.039 A 
ENDROOT
BRANCH   4   7
ATOM      7  O   UNL d   1       1.197  -0.776   3.638  0.00  0.00    -0.526 OA
ATOM      8  H5  UNL d   1       0.531  -0.889   4.337  0.00  0.00     0.418 HD
ENDBRANCH   4   7
TORSDOF 1
ENDMDL
