MODEL 1
REMARK minimizedAffinity -3.61793685
REMARK minimizedRMSD -1
REMARK  1 active torsions:
REMARK  status: ('A' for Active; 'I' for Inactive)
REMARK    1  A    between atoms: C3_4  and  O_7 
ROOT
ATOM      1  C   UNL d   1      -0.025  -0.423  -0.439  0.00  0.00    -0.033 A 
ATOM      2  C1  UNL d   1      -0.985  -0.411   0.575  0.00  0.00     0.039 A 
ATOM      3  C2  UNL d   1      -0.589  -0.439   1.913  0.00  0.00    -0.080 A 
ATOM      4  C3  UNL d   1       0.767  -0.478   2.224  0.00  0.00     0.150 A 
ATOM      5  C4  UNL d   1       1.729  -0.487   1.220  0.00  0.00    -0.007 A 
ATOM      6  C5  UNL d   1       1.332  -0.460  -0.117  0.00  0.00     0.039 A 
ENDROOT
BRANCH   4   7
ATOM      7  O   UNL d   1       1.201  -0.512   3.516  0.00  0.00    -0.526 OA
ATOM      8  H5  UNL d   1       0.425  -0.530   4.101  0.00  0.00     0.418 HD
ENDBRANCH   4   7
TORSDOF 1
ENDMDL
