MODEL 1
REMARK minimizedAffinity -3.50491619
REMARK minimizedRMSD -1
REMARK  1 active torsions:
REMARK  status: ('A' for Active; 'I' for Inactive)
REMARK    1  A    between atoms: C3_4  and  O_7 
ROOT
ATOM      1  C   UNL d   1      -1.195  -0.256   0.043  0.00  0.00    -0.033 A 
ATOM      2  C1  UNL d   1      -1.792  -0.423   1.294  0.00  0.00     0.039 A 
ATOM      3  C2  UNL d   1      -1.005  -0.444   2.447  0.00  0.00    -0.080 A 
ATOM      4  C3  UNL d   1       0.375  -0.296   2.336  0.00  0.00     0.150 A 
ATOM      5  C4  UNL d   1       0.975  -0.125   1.092  0.00  0.00    -0.007 A 
ATOM      6  C5  UNL d   1       0.188  -0.106  -0.058  0.00  0.00     0.039 A 
ENDROOT
BRANCH   4   7
ATOM      7  O   UNL d   1       1.185  -0.314   3.432  0.00  0.00    -0.526 OA
ATOM      8  H5  UNL d   1       0.635  -0.469   4.218  0.00  0.00     0.418 HD
ENDBRANCH   4   7
TORSDOF 1
ENDMDL
