MODEL 1
REMARK minimizedAffinity -3.56624746
REMARK minimizedRMSD -1
REMARK  1 active torsions:
REMARK  status: ('A' for Active; 'I' for Inactive)
REMARK    1  A    between atoms: C3_4  and  O_7 
ROOT
ATOM      1  C   UNL d   1      -1.313   3.033  -3.262  0.00  0.00    -0.033 A 
ATOM      2  C1  UNL d   1      -0.029   2.837  -2.750  0.00  0.00     0.039 A 
ATOM      3  C2  UNL d   1       0.215   1.795  -1.853  0.00  0.00    -0.080 A 
ATOM      4  C3  UNL d   1      -0.832   0.958  -1.476  0.00  0.00     0.150 A 
ATOM      5  C4  UNL d   1      -2.113   1.145  -1.985  0.00  0.00    -0.007 A 
ATOM      6  C5  UNL d   1      -2.355   2.186  -2.880  0.00  0.00     0.039 A 
ENDROOT
BRANCH   4   7
ATOM      7  O   UNL d   1      -0.643  -0.069  -0.600  0.00  0.00    -0.526 OA
ATOM      8  H5  UNL d   1       0.285  -0.059  -0.310  0.00  0.00     0.418 HD
ENDBRANCH   4   7
TORSDOF 1
ENDMDL
