MODEL 1
REMARK minimizedAffinity -5.19548655
REMARK minimizedRMSD -1
REMARK  1 active torsions:
REMARK  status: ('A' for Active; 'I' for Inactive)
REMARK    1  A    between atoms: C3_4  and  O_7 
ROOT
ATOM      1  C   UNL d   1       1.065  -0.643   3.156  0.00  0.00    -0.033 A 
ATOM      2  C1  UNL d   1       2.011  -0.238   2.212  0.00  0.00     0.039 A 
ATOM      3  C2  UNL d   1       1.663  -0.160   0.862  0.00  0.00    -0.080 A 
ATOM      4  C3  UNL d   1       0.369  -0.489   0.470  0.00  0.00     0.150 A 
ATOM      5  C4  UNL d   1      -0.579  -0.890   1.405  0.00  0.00    -0.007 A 
ATOM      6  C5  UNL d   1      -0.231  -0.968   2.753  0.00  0.00     0.039 A 
ENDROOT
BRANCH   4   7
ATOM      7  O   UNL d   1      -0.015  -0.433  -0.837  0.00  0.00    -0.526 OA
ATOM      8  H5  UNL d   1       0.751  -0.168  -1.372  0.00  0.00     0.418 HD
ENDBRANCH   4   7
TORSDOF 1
ENDMDL
