MODEL 1
REMARK minimizedAffinity 6.1940155
REMARK minimizedRMSD -1
REMARK  1 active torsions:
REMARK  status: ('A' for Active; 'I' for Inactive)
REMARK    1  A    between atoms: C1_2  and  C2_3 
ROOT
ATOM      1  C2  UNL d   1      -4.676  -3.905  -4.773  0.00  0.00    -0.073 A 
ATOM      2  C3  UNL d   1      -5.432  -3.555  -5.898  0.00  0.00    -0.002 A 
ATOM      3  C4  UNL d   1      -5.998  -2.283  -6.000  0.00  0.00     0.004 A 
ATOM      4  C5  UNL d   1      -5.809  -1.348  -4.983  0.00  0.00    -0.004 A 
ATOM      5  C6  UNL d   1      -5.048  -1.675  -3.856  0.00  0.00    -0.075 A 
ATOM      6  C7  UNL d   1      -4.837  -0.680  -2.752  0.00  0.00     0.076 C 
ATOM      7  C8  UNL d   1      -4.485  -2.954  -3.760  0.00  0.00     0.001 A 
ENDROOT
BRANCH   1   8
ATOM      8  C1  UNL d   1      -4.058  -5.274  -4.662  0.00  0.00     0.053 C 
ATOM      9  C   UNL d   1      -4.033  -5.998  -5.999  0.00  0.00     0.018 C 
ENDBRANCH   1   8
TORSDOF 1
ENDMDL
