MODEL 1
REMARK minimizedAffinity 11.6203012
REMARK minimizedRMSD -1
REMARK  1 active torsions:
REMARK  status: ('A' for Active; 'I' for Inactive)
REMARK    1  A    between atoms: C1_2  and  C2_3 
ROOT
ATOM      1  C2  UNL d   1       3.698   4.558  -2.664  0.00  0.00    -0.073 A 
ATOM      2  C3  UNL d   1       4.743   4.951  -1.821  0.00  0.00    -0.002 A 
ATOM      3  C4  UNL d   1       5.829   5.665  -2.331  0.00  0.00     0.004 A 
ATOM      4  C5  UNL d   1       5.877   5.999  -3.684  0.00  0.00    -0.004 A 
ATOM      5  C6  UNL d   1       4.836   5.625  -4.540  0.00  0.00    -0.075 A 
ATOM      6  C7  UNL d   1       4.873   5.974  -5.999  0.00  0.00     0.076 C 
ATOM      7  C8  UNL d   1       3.750   4.906  -4.022  0.00  0.00     0.001 A 
ENDROOT
BRANCH   1   8
ATOM      8  C1  UNL d   1       2.520   3.793  -2.118  0.00  0.00     0.053 C 
ATOM      9  C   UNL d   1       2.952   2.671  -1.186  0.00  0.00     0.018 C 
ENDBRANCH   1   8
TORSDOF 1
ENDMDL
