MODEL 1
REMARK minimizedAffinity 9.4078207
REMARK minimizedRMSD -1
REMARK  1 active torsions:
REMARK  status: ('A' for Active; 'I' for Inactive)
REMARK    1  A    between atoms: C1_2  and  C2_3 
ROOT
ATOM      1  C2  UNL d   1      -4.374  -2.794  -3.791  0.00  0.00    -0.073 A 
ATOM      2  C3  UNL d   1      -5.470  -2.265  -4.483  0.00  0.00    -0.002 A 
ATOM      3  C4  UNL d   1      -6.000  -2.940  -5.584  0.00  0.00     0.004 A 
ATOM      4  C5  UNL d   1      -5.445  -4.150  -6.000  0.00  0.00    -0.004 A 
ATOM      5  C6  UNL d   1      -4.357  -4.700  -5.314  0.00  0.00    -0.075 A 
ATOM      6  C7  UNL d   1      -3.748  -6.000  -5.750  0.00  0.00     0.076 C 
ATOM      7  C8  UNL d   1      -3.829  -4.015  -4.211  0.00  0.00     0.001 A 
ENDROOT
BRANCH   1   8
ATOM      8  C1  UNL d   1      -3.802  -2.072  -2.598  0.00  0.00     0.053 C 
ATOM      9  C   UNL d   1      -3.442  -0.631  -2.922  0.00  0.00     0.018 C 
ENDBRANCH   1   8
TORSDOF 1
ENDMDL
