MODEL 1
REMARK minimizedAffinity 12.1189013
REMARK minimizedRMSD -1
REMARK  1 active torsions:
REMARK  status: ('A' for Active; 'I' for Inactive)
REMARK    1  A    between atoms: C1_2  and  C2_3 
ROOT
ATOM      1  C2  UNL d   1      -3.830   2.112  -2.663  0.00  0.00    -0.073 A 
ATOM      2  C3  UNL d   1      -4.391   2.197  -3.942  0.00  0.00    -0.002 A 
ATOM      3  C4  UNL d   1      -5.472   3.045  -4.183  0.00  0.00     0.004 A 
ATOM      4  C5  UNL d   1      -5.998   3.822  -3.151  0.00  0.00    -0.004 A 
ATOM      5  C6  UNL d   1      -5.444   3.760  -1.869  0.00  0.00    -0.075 A 
ATOM      6  C7  UNL d   1      -6.000   4.587  -0.747  0.00  0.00     0.076 C 
ATOM      7  C8  UNL d   1      -4.360   2.904  -1.634  0.00  0.00     0.001 A 
ENDROOT
BRANCH   1   8
ATOM      8  C1  UNL d   1      -2.658   1.202  -2.400  0.00  0.00     0.053 C 
ATOM      9  C   UNL d   1      -2.619   0.028  -3.366  0.00  0.00     0.018 C 
ENDBRANCH   1   8
TORSDOF 1
ENDMDL
