MODEL 1
REMARK minimizedAffinity 14.9072466
REMARK minimizedRMSD -1
REMARK  1 active torsions:
REMARK  status: ('A' for Active; 'I' for Inactive)
REMARK    1  A    between atoms: C1_2  and  C2_3 
ROOT
ATOM      1  C2  UNL d   1       2.709  -0.831  -1.218  0.00  0.00    -0.073 A 
ATOM      2  C3  UNL d   1       3.646   0.146  -0.862  0.00  0.00    -0.002 A 
ATOM      3  C4  UNL d   1       3.706   0.622   0.448  0.00  0.00     0.004 A 
ATOM      4  C5  UNL d   1       2.836   0.122   1.417  0.00  0.00    -0.004 A 
ATOM      5  C6  UNL d   1       1.900  -0.863   1.084  0.00  0.00    -0.075 A 
ATOM      6  C7  UNL d   1       0.956  -1.410   2.114  0.00  0.00     0.076 C 
ATOM      7  C8  UNL d   1       1.845  -1.334  -0.235  0.00  0.00     0.001 A 
ENDROOT
BRANCH   1   8
ATOM      8  C1  UNL d   1       2.645  -1.352  -2.630  0.00  0.00     0.053 C 
ATOM      9  C   UNL d   1       3.611  -0.624  -3.551  0.00  0.00     0.018 C 
ENDBRANCH   1   8
TORSDOF 1
ENDMDL
