MODEL 1
REMARK minimizedAffinity 13.9892263
REMARK minimizedRMSD -1
REMARK  1 active torsions:
REMARK  status: ('A' for Active; 'I' for Inactive)
REMARK    1  A    between atoms: C1_2  and  C2_3 
ROOT
ATOM      1  C2  UNL d   1       4.435   5.689  -3.797  0.00  0.00    -0.073 A 
ATOM      2  C3  UNL d   1       5.545   5.987  -2.998  0.00  0.00    -0.002 A 
ATOM      3  C4  UNL d   1       5.430   5.999  -1.607  0.00  0.00     0.004 A 
ATOM      4  C5  UNL d   1       4.208   5.706  -1.002  0.00  0.00    -0.004 A 
ATOM      5  C6  UNL d   1       3.090   5.395  -1.782  0.00  0.00    -0.075 A 
ATOM      6  C7  UNL d   1       1.768   5.080  -1.146  0.00  0.00     0.076 C 
ATOM      7  C8  UNL d   1       3.213   5.387  -3.178  0.00  0.00     0.001 A 
ENDROOT
BRANCH   1   8
ATOM      8  C1  UNL d   1       4.556   5.669  -5.299  0.00  0.00     0.053 C 
ATOM      9  C   UNL d   1       5.999   5.817  -5.756  0.00  0.00     0.018 C 
ENDBRANCH   1   8
TORSDOF 1
ENDMDL
