MODEL 1
REMARK minimizedAffinity 7.41982269
REMARK minimizedRMSD -1
REMARK  1 active torsions:
REMARK  status: ('A' for Active; 'I' for Inactive)
REMARK    1  A    between atoms: C1_2  and  C2_3 
ROOT
ATOM      1  C2  UNL d   1      -5.585  -2.474  -4.622  0.00  0.00    -0.073 A 
ATOM      2  C3  UNL d   1      -4.874  -3.204  -3.662  0.00  0.00    -0.002 A 
ATOM      3  C4  UNL d   1      -4.523  -2.616  -2.447  0.00  0.00     0.004 A 
ATOM      4  C5  UNL d   1      -4.884  -1.296  -2.175  0.00  0.00    -0.004 A 
ATOM      5  C6  UNL d   1      -5.604  -0.554  -3.116  0.00  0.00    -0.075 A 
ATOM      6  C7  UNL d   1      -5.998   0.867  -2.840  0.00  0.00     0.076 C 
ATOM      7  C8  UNL d   1      -5.951  -1.151  -4.336  0.00  0.00     0.001 A 
ENDROOT
BRANCH   1   8
ATOM      8  C1  UNL d   1      -5.972  -3.107  -5.933  0.00  0.00     0.053 C 
ATOM      9  C   UNL d   1      -5.571  -4.572  -5.999  0.00  0.00     0.018 C 
ENDBRANCH   1   8
TORSDOF 1
ENDMDL
