MODEL 1
REMARK minimizedAffinity 0.530782163
REMARK minimizedRMSD -1
REMARK  0 active torsions:
REMARK  status: ('A' for Active; 'I' for Inactive)
ROOT
ATOM      1  C1  BNZ d   1      -4.668   3.033  -5.997  0.00  0.00     0.000 A 
ATOM      2  C2  BNZ d   1      -3.309   3.206  -6.000  0.00  0.00     0.000 A 
ATOM      3  C3  BNZ d   1      -2.560   2.884  -4.903  0.00  0.00     0.000 A 
ATOM      4  C4  BNZ d   1      -3.173   2.427  -3.792  0.00  0.00     0.000 A 
ATOM      5  C5  BNZ d   1      -4.543   2.255  -3.770  0.00  0.00     0.000 A 
ATOM      6  C6  BNZ d   1      -5.290   2.544  -4.889  0.00  0.00     0.000 A 
ENDROOT
TORSDOF 0
ENDMDL
