MODEL 1
REMARK minimizedAffinity -1.16849244
REMARK minimizedRMSD -1
REMARK  0 active torsions:
REMARK  status: ('A' for Active; 'I' for Inactive)
ROOT
ATOM      1  C1  BNZ d   1      -4.934   1.080  -3.997  0.00  0.00     0.000 A 
ATOM      2  C2  BNZ d   1      -4.366  -0.012  -4.596  0.00  0.00     0.000 A 
ATOM      3  C3  BNZ d   1      -3.022  -0.243  -4.500  0.00  0.00     0.000 A 
ATOM      4  C4  BNZ d   1      -2.243   0.639  -3.841  0.00  0.00     0.000 A 
ATOM      5  C5  BNZ d   1      -2.800   1.751  -3.240  0.00  0.00     0.000 A 
ATOM      6  C6  BNZ d   1      -4.159   1.958  -3.306  0.00  0.00     0.000 A 
ENDROOT
TORSDOF 0
ENDMDL
