MODEL 1
REMARK minimizedAffinity -1.62339175
REMARK minimizedRMSD -1
REMARK  0 active torsions:
REMARK  status: ('A' for Active; 'I' for Inactive)
ROOT
ATOM      1  C1  BNZ d   1      -4.939   0.645  -4.802  0.00  0.00     0.000 A 
ATOM      2  C2  BNZ d   1      -3.573   0.614  -4.714  0.00  0.00     0.000 A 
ATOM      3  C3  BNZ d   1      -2.905   1.478  -3.892  0.00  0.00     0.000 A 
ATOM      4  C4  BNZ d   1      -3.599   2.397  -3.191  0.00  0.00     0.000 A 
ATOM      5  C5  BNZ d   1      -4.976   2.447  -3.276  0.00  0.00     0.000 A 
ATOM      6  C6  BNZ d   1      -5.649   1.551  -4.075  0.00  0.00     0.000 A 
ENDROOT
TORSDOF 0
ENDMDL
