MODEL 1
REMARK minimizedAffinity -1.13937926
REMARK minimizedRMSD -1
REMARK  0 active torsions:
REMARK  status: ('A' for Active; 'I' for Inactive)
ROOT
ATOM      1  C1  BNZ d   1      -4.179   0.848  -2.382  0.00  0.00     0.000 A 
ATOM      2  C2  BNZ d   1      -5.208   0.819  -3.285  0.00  0.00     0.000 A 
ATOM      3  C3  BNZ d   1      -5.136   1.529  -4.452  0.00  0.00     0.000 A 
ATOM      4  C4  BNZ d   1      -4.054   2.296  -4.695  0.00  0.00     0.000 A 
ATOM      5  C5  BNZ d   1      -3.012   2.343  -3.791  0.00  0.00     0.000 A 
ATOM      6  C6  BNZ d   1      -3.071   1.597  -2.636  0.00  0.00     0.000 A 
ENDROOT
TORSDOF 0
ENDMDL
