MODEL 1
REMARK minimizedAffinity 0.662438631
REMARK minimizedRMSD -1
REMARK  0 active torsions:
REMARK  status: ('A' for Active; 'I' for Inactive)
ROOT
ATOM      1  C1  BNZ d   1      -4.078  -0.016  -3.066  0.00  0.00     0.000 A 
ATOM      2  C2  BNZ d   1      -3.600   0.953  -3.908  0.00  0.00     0.000 A 
ATOM      3  C3  BNZ d   1      -4.060   2.237  -3.829  0.00  0.00     0.000 A 
ATOM      4  C4  BNZ d   1      -5.025   2.543  -2.938  0.00  0.00     0.000 A 
ATOM      5  C5  BNZ d   1      -5.525   1.575  -2.089  0.00  0.00     0.000 A 
ATOM      6  C6  BNZ d   1      -5.031   0.292  -2.145  0.00  0.00     0.000 A 
ENDROOT
TORSDOF 0
ENDMDL
