MODEL 1
REMARK minimizedAffinity 13.419096
REMARK minimizedRMSD -1
REMARK  2 active torsions:
REMARK  status: ('A' for Active; 'I' for Inactive)
REMARK    1  A    between atoms: C1_2  and  C2_3 
REMARK    2  A    between atoms: C2_3  and  C3_4 
ROOT
ATOM      1  C3  UNL d   1       0.132   2.949   0.040  0.00  0.00    -0.075 A 
ATOM      2  C4  UNL d   1      -0.663   2.141  -0.787  0.00  0.00     0.002 A 
ATOM      3  C5  UNL d   1      -0.807   2.439  -2.142  0.00  0.00     0.002 A 
ATOM      4  C6  UNL d   1      -0.169   3.553  -2.685  0.00  0.00    -0.004 A 
ATOM      5  C7  UNL d   1       0.609   4.372  -1.870  0.00  0.00     0.002 A 
ATOM      6  C8  UNL d   1       0.759   4.073  -0.514  0.00  0.00     0.002 A 
ENDROOT
BRANCH   1   7
ATOM      7  C2  UNL d   1       0.316   2.614   1.501  0.00  0.00     0.056 C 
BRANCH   7   8
ATOM      8  C1  UNL d   1       1.771   2.352   1.902  0.00  0.00     0.007 C 
ATOM      9  C   UNL d   1       2.136   2.942   3.258  0.00  0.00     0.009 C 
ENDBRANCH   7   8
ENDBRANCH   1   7
TORSDOF 2
ENDMDL
