MODEL 1
REMARK minimizedAffinity 4.09310341
REMARK minimizedRMSD -1
REMARK  2 active torsions:
REMARK  status: ('A' for Active; 'I' for Inactive)
REMARK    1  A    between atoms: C1_2  and  C2_3 
REMARK    2  A    between atoms: C2_3  and  C3_4 
ROOT
ATOM      1  C3  UNL d   1      -0.128   1.107   2.653  0.00  0.00    -0.075 A 
ATOM      2  C4  UNL d   1      -1.517   1.188   2.834  0.00  0.00     0.002 A 
ATOM      3  C5  UNL d   1      -2.287   2.030   2.032  0.00  0.00     0.002 A 
ATOM      4  C6  UNL d   1      -1.680   2.807   1.048  0.00  0.00    -0.004 A 
ATOM      5  C7  UNL d   1      -0.300   2.747   0.870  0.00  0.00     0.002 A 
ATOM      6  C8  UNL d   1       0.473   1.902   1.668  0.00  0.00     0.002 A 
ENDROOT
BRANCH   1   7
ATOM      7  C2  UNL d   1       0.708   0.175   3.498  0.00  0.00     0.056 C 
BRANCH   7   8
ATOM      8  C1  UNL d   1       1.404  -0.934   2.702  0.00  0.00     0.007 C 
ATOM      9  C   UNL d   1       2.235  -1.866   3.572  0.00  0.00     0.009 C 
ENDBRANCH   7   8
ENDBRANCH   1   7
TORSDOF 2
ENDMDL
