MODEL 1
REMARK minimizedAffinity -1.97894883
REMARK minimizedRMSD -1
REMARK  2 active torsions:
REMARK  status: ('A' for Active; 'I' for Inactive)
REMARK    1  A    between atoms: C1_2  and  C2_3 
REMARK    2  A    between atoms: C2_3  and  C3_4 
ROOT
ATOM      1  C3  UNL d   1       4.020  -3.197  -1.985  0.00  0.00    -0.075 A 
ATOM      2  C4  UNL d   1       3.723  -4.057  -3.053  0.00  0.00     0.002 A 
ATOM      3  C5  UNL d   1       4.548  -5.146  -3.336  0.00  0.00     0.002 A 
ATOM      4  C6  UNL d   1       5.683  -5.382  -2.564  0.00  0.00    -0.004 A 
ATOM      5  C7  UNL d   1       5.997  -4.525  -1.511  0.00  0.00     0.002 A 
ATOM      6  C8  UNL d   1       5.170  -3.438  -1.223  0.00  0.00     0.002 A 
ENDROOT
BRANCH   1   7
ATOM      7  C2  UNL d   1       3.114  -2.034  -1.655  0.00  0.00     0.056 C 
BRANCH   7   8
ATOM      8  C1  UNL d   1       1.721  -2.447  -1.170  0.00  0.00     0.007 C 
ATOM      9  C   UNL d   1       1.595  -3.941  -0.904  0.00  0.00     0.009 C 
ENDBRANCH   7   8
ENDBRANCH   1   7
TORSDOF 2
ENDMDL
