MODEL 1
REMARK minimizedAffinity 4.59237719
REMARK minimizedRMSD -1
REMARK  2 active torsions:
REMARK  status: ('A' for Active; 'I' for Inactive)
REMARK    1  A    between atoms: C1_2  and  C2_3 
REMARK    2  A    between atoms: C2_3  and  C3_4 
ROOT
ATOM      1  C3  UNL d   1      -1.142   3.251  -1.563  0.00  0.00    -0.075 A 
ATOM      2  C4  UNL d   1      -1.023   2.739  -0.263  0.00  0.00     0.002 A 
ATOM      3  C5  UNL d   1       0.143   2.945   0.475  0.00  0.00     0.002 A 
ATOM      4  C6  UNL d   1       1.206   3.655  -0.079  0.00  0.00    -0.004 A 
ATOM      5  C7  UNL d   1       1.105   4.154  -1.376  0.00  0.00     0.002 A 
ATOM      6  C8  UNL d   1      -0.062   3.953  -2.115  0.00  0.00     0.002 A 
ENDROOT
BRANCH   1   7
ATOM      7  C2  UNL d   1      -2.412   3.057  -2.357  0.00  0.00     0.056 C 
BRANCH   7   8
ATOM      8  C1  UNL d   1      -3.207   1.807  -1.965  0.00  0.00     0.007 C 
ATOM      9  C   UNL d   1      -4.522   1.671  -2.721  0.00  0.00     0.009 C 
ENDBRANCH   7   8
ENDBRANCH   1   7
TORSDOF 2
ENDMDL
