MODEL 1
REMARK minimizedAffinity 16.5685902
REMARK minimizedRMSD -1
REMARK  2 active torsions:
REMARK  status: ('A' for Active; 'I' for Inactive)
REMARK    1  A    between atoms: C1_2  and  C2_3 
REMARK    2  A    between atoms: C2_3  and  C3_4 
ROOT
ATOM      1  C3  UNL d   1      -1.172  -4.380  -4.179  0.00  0.00    -0.075 A 
ATOM      2  C4  UNL d   1       0.117  -4.015  -4.596  0.00  0.00     0.002 A 
ATOM      3  C5  UNL d   1       1.156  -3.905  -3.671  0.00  0.00     0.002 A 
ATOM      4  C6  UNL d   1       0.918  -4.149  -2.320  0.00  0.00    -0.004 A 
ATOM      5  C7  UNL d   1      -0.362  -4.496  -1.893  0.00  0.00     0.002 A 
ATOM      6  C8  UNL d   1      -1.402  -4.610  -2.817  0.00  0.00     0.002 A 
ENDROOT
BRANCH   1   7
ATOM      7  C2  UNL d   1      -2.294  -4.529  -5.179  0.00  0.00     0.056 C 
BRANCH   7   8
ATOM      8  C1  UNL d   1      -2.889  -5.939  -5.243  0.00  0.00     0.007 C 
ATOM      9  C   UNL d   1      -4.209  -6.000  -6.000  0.00  0.00     0.009 C 
ENDBRANCH   7   8
ENDBRANCH   1   7
TORSDOF 2
ENDMDL
