MODEL 1
REMARK minimizedAffinity 14.5969934
REMARK minimizedRMSD -1
REMARK  2 active torsions:
REMARK  status: ('A' for Active; 'I' for Inactive)
REMARK    1  A    between atoms: C1_2  and  C2_3 
REMARK    2  A    between atoms: C2_3  and  C3_4 
ROOT
ATOM      1  C3  UNL d   1      -3.116  -5.273  -5.394  0.00  0.00    -0.075 A 
ATOM      2  C4  UNL d   1      -2.826  -3.936  -5.700  0.00  0.00     0.002 A 
ATOM      3  C5  UNL d   1      -1.694  -3.317  -5.168  0.00  0.00     0.002 A 
ATOM      4  C6  UNL d   1      -0.846  -4.023  -4.317  0.00  0.00    -0.004 A 
ATOM      5  C7  UNL d   1      -1.134  -5.347  -3.993  0.00  0.00     0.002 A 
ATOM      6  C8  UNL d   1      -2.263  -5.970  -4.528  0.00  0.00     0.002 A 
ENDROOT
BRANCH   1   7
ATOM      7  C2  UNL d   1      -4.323  -5.958  -5.990  0.00  0.00     0.056 C 
BRANCH   7   8
ATOM      8  C1  UNL d   1      -5.645  -5.601  -5.302  0.00  0.00     0.007 C 
ATOM      9  C   UNL d   1      -5.685  -6.000  -3.833  0.00  0.00     0.009 C 
ENDBRANCH   7   8
ENDBRANCH   1   7
TORSDOF 2
ENDMDL
