MODEL 1
REMARK minimizedAffinity 13.7316685
REMARK minimizedRMSD -1
REMARK  0 active torsions:
REMARK  status: ('A' for Active; 'I' for Inactive)
ROOT
ATOM      1  C1  DEN d   1       4.830  -0.316  -2.059  0.00  0.00     0.130 A 
ATOM      2  C2  DEN d   1       4.577   0.306  -0.762  0.00  0.00    -0.031 A 
ATOM      3  C3  DEN d   1       3.603  -0.532  -0.036  0.00  0.00     0.027 A 
ATOM      4  C4  DEN d   1       2.469  -2.724  -0.786  0.00  0.00     0.027 A 
ATOM      5  C5  DEN d   1       2.359  -3.637  -1.812  0.00  0.00    -0.003 A 
ATOM      6  C6  DEN d   1       3.033  -3.490  -2.996  0.00  0.00     0.001 A 
ATOM      7  C7  DEN d   1       3.883  -2.429  -3.165  0.00  0.00     0.017 A 
ATOM      8  C8  DEN d   1       3.994  -1.501  -2.139  0.00  0.00    -0.094 A 
ATOM      9  C9  DEN d   1       3.314  -1.673  -0.945  0.00  0.00    -0.072 A 
ENDROOT
TORSDOF 0
ENDMDL
