MODEL 1
REMARK minimizedAffinity 10.6338043
REMARK minimizedRMSD -1
REMARK  0 active torsions:
REMARK  status: ('A' for Active; 'I' for Inactive)
ROOT
ATOM      1  C1  DEN d   1       3.514  -1.315  -2.380  0.00  0.00     0.130 A 
ATOM      2  C2  DEN d   1       2.941  -2.141  -1.321  0.00  0.00    -0.031 A 
ATOM      3  C3  DEN d   1       3.277  -1.519  -0.025  0.00  0.00     0.027 A 
ATOM      4  C4  DEN d   1       4.618   0.634   0.443  0.00  0.00     0.027 A 
ATOM      5  C5  DEN d   1       5.317   1.670  -0.138  0.00  0.00    -0.003 A 
ATOM      6  C6  DEN d   1       5.491   1.764  -1.493  0.00  0.00     0.001 A 
ATOM      7  C7  DEN d   1       4.921   0.830  -2.317  0.00  0.00     0.017 A 
ATOM      8  C8  DEN d   1       4.222  -0.222  -1.739  0.00  0.00    -0.094 A 
ATOM      9  C9  DEN d   1       4.047  -0.293  -0.367  0.00  0.00    -0.072 A 
ENDROOT
TORSDOF 0
ENDMDL
