MODEL 1
REMARK minimizedAffinity 1.73673868
REMARK minimizedRMSD -1
REMARK  0 active torsions:
REMARK  status: ('A' for Active; 'I' for Inactive)
ROOT
ATOM      1  C1  DEN d   1       5.045   0.128  -1.420  0.00  0.00     0.130 A 
ATOM      2  C2  DEN d   1       5.994   0.274  -2.520  0.00  0.00    -0.031 A 
ATOM      3  C3  DEN d   1       5.854  -0.900  -3.404  0.00  0.00     0.027 A 
ATOM      4  C4  DEN d   1       4.264  -2.919  -3.179  0.00  0.00     0.027 A 
ATOM      5  C5  DEN d   1       3.281  -3.493  -2.403  0.00  0.00    -0.003 A 
ATOM      6  C6  DEN d   1       2.845  -2.922  -1.237  0.00  0.00     0.001 A 
ATOM      7  C7  DEN d   1       3.362  -1.718  -0.836  0.00  0.00     0.017 A 
ATOM      8  C8  DEN d   1       4.358  -1.137  -1.609  0.00  0.00    -0.094 A 
ATOM      9  C9  DEN d   1       4.776  -1.724  -2.792  0.00  0.00    -0.072 A 
ENDROOT
TORSDOF 0
ENDMDL
