MODEL 1
REMARK minimizedAffinity 2.13549304
REMARK minimizedRMSD -1
REMARK  0 active torsions:
REMARK  status: ('A' for Active; 'I' for Inactive)
ROOT
ATOM      1  C1  DEN d   1      -1.856  -2.383  -4.784  0.00  0.00     0.130 A 
ATOM      2  C2  DEN d   1      -2.170  -3.768  -5.126  0.00  0.00    -0.031 A 
ATOM      3  C3  DEN d   1      -1.826  -4.614  -3.966  0.00  0.00     0.027 A 
ATOM      4  C4  DEN d   1      -0.847  -3.918  -1.683  0.00  0.00     0.027 A 
ATOM      5  C5  DEN d   1      -0.402  -2.853  -0.930  0.00  0.00    -0.003 A 
ATOM      6  C6  DEN d   1      -0.379  -1.573  -1.417  0.00  0.00     0.001 A 
ATOM      7  C7  DEN d   1      -0.851  -1.318  -2.677  0.00  0.00     0.017 A 
ATOM      8  C8  DEN d   1      -1.295  -2.387  -3.445  0.00  0.00    -0.094 A 
ATOM      9  C9  DEN d   1      -1.321  -3.672  -2.931  0.00  0.00    -0.072 A 
ENDROOT
TORSDOF 0
ENDMDL
