MODEL 1
REMARK minimizedAffinity 9.43392944
REMARK minimizedRMSD -1
REMARK  0 active torsions:
REMARK  status: ('A' for Active; 'I' for Inactive)
ROOT
ATOM      1  C1  DEN d   1       3.066   0.224  -0.249  0.00  0.00     0.130 A 
ATOM      2  C2  DEN d   1       4.139   0.718  -1.107  0.00  0.00    -0.031 A 
ATOM      3  C3  DEN d   1       4.414  -0.309  -2.132  0.00  0.00     0.027 A 
ATOM      4  C4  DEN d   1       3.285  -2.603  -2.474  0.00  0.00     0.027 A 
ATOM      5  C5  DEN d   1       2.329  -3.467  -1.987  0.00  0.00    -0.003 A 
ATOM      6  C6  DEN d   1       1.581  -3.179  -0.876  0.00  0.00     0.001 A 
ATOM      7  C7  DEN d   1       1.746  -1.977  -0.241  0.00  0.00     0.017 A 
ATOM      8  C8  DEN d   1       2.713  -1.103  -0.721  0.00  0.00    -0.094 A 
ATOM      9  C9  DEN d   1       3.450  -1.408  -1.853  0.00  0.00    -0.072 A 
ENDROOT
TORSDOF 0
ENDMDL
