MODEL 1
REMARK minimizedAffinity -4.93536997
REMARK minimizedRMSD -1
REMARK  1 active torsions:
REMARK  status: ('A' for Active; 'I' for Inactive)
REMARK    1  A    between atoms: C1_2  and  C2_3 
ROOT
ATOM      1  C2  UNL d   1      -1.287  -0.669   1.064  0.00  0.00    -0.073 A 
ATOM      2  C3  UNL d   1      -0.732  -0.119  -0.097  0.00  0.00    -0.002 A 
ATOM      3  C4  UNL d   1       0.642   0.110  -0.181  0.00  0.00     0.004 A 
ATOM      4  C5  UNL d   1       1.474  -0.214   0.890  0.00  0.00    -0.004 A 
ATOM      5  C6  UNL d   1       0.940  -0.776   2.054  0.00  0.00    -0.075 A 
ATOM      6  C7  UNL d   1       1.822  -1.128   3.215  0.00  0.00     0.076 C 
ATOM      7  C8  UNL d   1      -0.441  -1.001   2.131  0.00  0.00     0.001 A 
ENDROOT
BRANCH   1   8
ATOM      8  C1  UNL d   1      -2.769  -0.925   1.157  0.00  0.00     0.053 C 
ATOM      9  C   UNL d   1      -3.390  -1.183  -0.207  0.00  0.00     0.018 C 
ENDBRANCH   1   8
TORSDOF 1
ENDMDL
