MODEL 1
REMARK minimizedAffinity -4.32749939
REMARK minimizedRMSD -1
REMARK  1 active torsions:
REMARK  status: ('A' for Active; 'I' for Inactive)
REMARK    1  A    between atoms: C1_2  and  C2_3 
ROOT
ATOM      1  C2  UNL d   1      -1.412  -0.797   0.227  0.00  0.00    -0.073 A 
ATOM      2  C3  UNL d   1      -0.694  -0.617  -0.961  0.00  0.00    -0.002 A 
ATOM      3  C4  UNL d   1       0.682  -0.389  -0.925  0.00  0.00     0.004 A 
ATOM      4  C5  UNL d   1       1.355  -0.346   0.296  0.00  0.00    -0.004 A 
ATOM      5  C6  UNL d   1       0.657  -0.536   1.493  0.00  0.00    -0.075 A 
ATOM      6  C7  UNL d   1       1.366  -0.491   2.815  0.00  0.00     0.076 C 
ATOM      7  C8  UNL d   1      -0.725  -0.762   1.449  0.00  0.00     0.001 A 
ENDROOT
BRANCH   1   8
ATOM      8  C1  UNL d   1      -2.897  -1.050   0.193  0.00  0.00     0.053 C 
ATOM      9  C   UNL d   1      -3.307  -1.879  -1.014  0.00  0.00     0.018 C 
ENDBRANCH   1   8
TORSDOF 1
ENDMDL
