MODEL 1
REMARK minimizedAffinity -1.35990238
REMARK minimizedRMSD -1
REMARK  1 active torsions:
REMARK  status: ('A' for Active; 'I' for Inactive)
REMARK    1  A    between atoms: C1_2  and  C2_3 
ROOT
ATOM      1  C2  UNL d   1      -1.264  -0.603   0.759  0.00  0.00    -0.073 A 
ATOM      2  C3  UNL d   1      -0.580  -0.164  -0.380  0.00  0.00    -0.002 A 
ATOM      3  C4  UNL d   1       0.814  -0.092  -0.382  0.00  0.00     0.004 A 
ATOM      4  C5  UNL d   1       1.537  -0.465   0.751  0.00  0.00    -0.004 A 
ATOM      5  C6  UNL d   1       0.872  -0.917   1.895  0.00  0.00    -0.075 A 
ATOM      6  C7  UNL d   1       1.635  -1.320   3.123  0.00  0.00     0.076 C 
ATOM      7  C8  UNL d   1      -0.528  -0.984   1.890  0.00  0.00     0.001 A 
ENDROOT
BRANCH   1   8
ATOM      8  C1  UNL d   1      -2.769  -0.687   0.763  0.00  0.00     0.053 C 
ATOM      9  C   UNL d   1      -3.284  -1.724  -0.223  0.00  0.00     0.018 C 
ENDBRANCH   1   8
TORSDOF 1
ENDMDL
