MODEL 1
REMARK minimizedAffinity 0.214484379
REMARK minimizedRMSD -1
REMARK  1 active torsions:
REMARK  status: ('A' for Active; 'I' for Inactive)
REMARK    1  A    between atoms: C1_2  and  C2_3 
ROOT
ATOM      1  C2  UNL d   1       0.701  -1.894   1.383  0.00  0.00    -0.073 A 
ATOM      2  C3  UNL d   1       1.933  -2.549   1.501  0.00  0.00    -0.002 A 
ATOM      3  C4  UNL d   1       2.034  -3.736   2.228  0.00  0.00     0.004 A 
ATOM      4  C5  UNL d   1       0.905  -4.284   2.838  0.00  0.00    -0.004 A 
ATOM      5  C6  UNL d   1      -0.337  -3.651   2.721  0.00  0.00    -0.075 A 
ATOM      6  C7  UNL d   1      -1.560  -4.226   3.373  0.00  0.00     0.076 C 
ATOM      7  C8  UNL d   1      -0.430  -2.458   1.992  0.00  0.00     0.001 A 
ENDROOT
BRANCH   1   8
ATOM      8  C1  UNL d   1       0.586  -0.616   0.594  0.00  0.00     0.053 C 
ATOM      9  C   UNL d   1      -0.830  -0.383   0.091  0.00  0.00     0.018 C 
ENDBRANCH   1   8
TORSDOF 1
ENDMDL
