MODEL 1
REMARK minimizedAffinity -3.33569384
REMARK minimizedRMSD -1
REMARK  1 active torsions:
REMARK  status: ('A' for Active; 'I' for Inactive)
REMARK    1  A    between atoms: C1_2  and  C2_3 
ROOT
ATOM      1  C2  UNL d   1      -0.768   1.447  -1.651  0.00  0.00    -0.073 A 
ATOM      2  C3  UNL d   1       0.206   2.319  -2.151  0.00  0.00    -0.002 A 
ATOM      3  C4  UNL d   1      -0.167   3.526  -2.743  0.00  0.00     0.004 A 
ATOM      4  C5  UNL d   1      -1.513   3.877  -2.835  0.00  0.00    -0.004 A 
ATOM      5  C6  UNL d   1      -2.501   3.025  -2.331  0.00  0.00    -0.075 A 
ATOM      6  C7  UNL d   1      -3.954   3.387  -2.424  0.00  0.00     0.076 C 
ATOM      7  C8  UNL d   1      -2.119   1.813  -1.740  0.00  0.00     0.001 A 
ENDROOT
BRANCH   1   8
ATOM      8  C1  UNL d   1      -0.371   0.145  -1.005  0.00  0.00     0.053 C 
ATOM      9  C   UNL d   1      -0.094   0.307   0.481  0.00  0.00     0.018 C 
ENDBRANCH   1   8
TORSDOF 1
ENDMDL
