MODEL 1
REMARK minimizedAffinity -2.84776449
REMARK minimizedRMSD -1
REMARK  1 active torsions:
REMARK  status: ('A' for Active; 'I' for Inactive)
REMARK    1  A    between atoms: C1_2  and  C2_3 
ROOT
ATOM      1  C2  UNL d   1      -0.892  -0.640   1.284  0.00  0.00    -0.073 A 
ATOM      2  C3  UNL d   1      -0.460  -0.461   2.604  0.00  0.00    -0.002 A 
ATOM      3  C4  UNL d   1       0.902  -0.480   2.908  0.00  0.00     0.004 A 
ATOM      4  C5  UNL d   1       1.845  -0.671   1.898  0.00  0.00    -0.004 A 
ATOM      5  C6  UNL d   1       1.433  -0.839   0.572  0.00  0.00    -0.075 A 
ATOM      6  C7  UNL d   1       2.434  -1.047  -0.526  0.00  0.00     0.076 C 
ATOM      7  C8  UNL d   1       0.064  -0.821   0.274  0.00  0.00     0.001 A 
ENDROOT
BRANCH   1   8
ATOM      8  C1  UNL d   1      -2.361  -0.613   0.950  0.00  0.00     0.053 C 
ATOM      9  C   UNL d   1      -2.677  -1.428  -0.295  0.00  0.00     0.018 C 
ENDBRANCH   1   8
TORSDOF 1
ENDMDL
