MODEL 1
REMARK minimizedAffinity -1.46038342
REMARK minimizedRMSD -1
REMARK  1 active torsions:
REMARK  status: ('A' for Active; 'I' for Inactive)
REMARK    1  A    between atoms: C1_2  and  C2_3 
ROOT
ATOM      1  C2  UNL d   1       0.014  -1.055   1.983  0.00  0.00    -0.073 A 
ATOM      2  C3  UNL d   1      -1.102  -0.217   1.873  0.00  0.00    -0.002 A 
ATOM      3  C4  UNL d   1      -1.379   0.432   0.669  0.00  0.00     0.004 A 
ATOM      4  C5  UNL d   1      -0.550   0.245  -0.437  0.00  0.00    -0.004 A 
ATOM      5  C6  UNL d   1       0.563  -0.598  -0.349  0.00  0.00    -0.075 A 
ATOM      6  C7  UNL d   1       1.466  -0.808  -1.529  0.00  0.00     0.076 C 
ATOM      7  C8  UNL d   1       0.836  -1.244   0.864  0.00  0.00     0.001 A 
ENDROOT
BRANCH   1   8
ATOM      8  C1  UNL d   1       0.314  -1.763   3.279  0.00  0.00     0.053 C 
ATOM      9  C   UNL d   1      -0.428  -3.085   3.391  0.00  0.00     0.018 C 
ENDBRANCH   1   8
TORSDOF 1
ENDMDL
