MODEL 1
REMARK minimizedAffinity 6.39474678
REMARK minimizedRMSD -1
REMARK  1 active torsions:
REMARK  status: ('A' for Active; 'I' for Inactive)
REMARK    1  A    between atoms: C3_4  and  O_7 
ROOT
ATOM      1  C   UNL d   1      -1.510  -5.997   1.023  0.00  0.00    -0.033 A 
ATOM      2  C1  UNL d   1      -0.536  -6.000   0.023  0.00  0.00     0.039 A 
ATOM      3  C2  UNL d   1       0.818  -6.000   0.364  0.00  0.00    -0.080 A 
ATOM      4  C3  UNL d   1       1.184  -5.998   1.707  0.00  0.00     0.150 A 
ATOM      5  C4  UNL d   1       0.219  -6.000   2.709  0.00  0.00    -0.007 A 
ATOM      6  C5  UNL d   1      -1.132  -5.999   2.366  0.00  0.00     0.039 A 
ENDROOT
BRANCH   4   7
ATOM      7  O   UNL d   1       2.493  -5.993   2.089  0.00  0.00    -0.526 OA
ATOM      8  H5  UNL d   1       3.046  -5.964   1.290  0.00  0.00     0.418 HD
ENDBRANCH   4   7
TORSDOF 1
ENDMDL
