MODEL 1
REMARK minimizedAffinity 4.29137754
REMARK minimizedRMSD -1
REMARK  1 active torsions:
REMARK  status: ('A' for Active; 'I' for Inactive)
REMARK    1  A    between atoms: C3_4  and  O_7 
ROOT
ATOM      1  C   UNL d   1       2.731   0.888  -2.099  0.00  0.00    -0.033 A 
ATOM      2  C1  UNL d   1       2.342  -0.323  -2.676  0.00  0.00     0.039 A 
ATOM      3  C2  UNL d   1       1.018  -0.514  -3.075  0.00  0.00    -0.080 A 
ATOM      4  C3  UNL d   1       0.094   0.512  -2.891  0.00  0.00     0.150 A 
ATOM      5  C4  UNL d   1       0.476   1.721  -2.320  0.00  0.00    -0.007 A 
ATOM      6  C5  UNL d   1       1.799   1.910  -1.922  0.00  0.00     0.039 A 
ENDROOT
BRANCH   4   7
ATOM      7  O   UNL d   1      -1.211   0.370  -3.260  0.00  0.00    -0.526 OA
ATOM      8  H5  UNL d   1      -1.335  -0.527  -3.613  0.00  0.00     0.418 HD
ENDBRANCH   4   7
TORSDOF 1
ENDMDL
