MODEL 1
REMARK minimizedAffinity 6.77669907
REMARK minimizedRMSD -1
REMARK  1 active torsions:
REMARK  status: ('A' for Active; 'I' for Inactive)
REMARK    1  A    between atoms: C3_4  and  O_7 
ROOT
ATOM      1  C   UNL d   1      -5.137   2.722   4.878  0.00  0.00    -0.033 A 
ATOM      2  C1  UNL d   1      -4.837   1.948   3.755  0.00  0.00     0.039 A 
ATOM      3  C2  UNL d   1      -5.114   0.580   3.754  0.00  0.00    -0.080 A 
ATOM      4  C3  UNL d   1      -5.691  -0.001   4.880  0.00  0.00     0.150 A 
ATOM      5  C4  UNL d   1      -5.997   0.765   6.000  0.00  0.00    -0.007 A 
ATOM      6  C5  UNL d   1      -5.719   2.131   6.000  0.00  0.00     0.039 A 
ENDROOT
BRANCH   4   7
ATOM      7  O   UNL d   1      -5.976  -1.334   4.927  0.00  0.00    -0.526 OA
ATOM      8  H5  UNL d   1      -5.684  -1.740   4.094  0.00  0.00     0.418 HD
ENDBRANCH   4   7
TORSDOF 1
ENDMDL
