MODEL 1
REMARK minimizedAffinity 3.34120345
REMARK minimizedRMSD -1
REMARK  1 active torsions:
REMARK  status: ('A' for Active; 'I' for Inactive)
REMARK    1  A    between atoms: C3_4  and  O_7 
ROOT
ATOM      1  C   UNL d   1      -2.890   0.200  -3.295  0.00  0.00    -0.033 A 
ATOM      2  C1  UNL d   1      -3.041  -0.826  -2.360  0.00  0.00     0.039 A 
ATOM      3  C2  UNL d   1      -2.546  -0.670  -1.064  0.00  0.00    -0.080 A 
ATOM      4  C3  UNL d   1      -1.905   0.515  -0.715  0.00  0.00     0.150 A 
ATOM      5  C4  UNL d   1      -1.755   1.543  -1.640  0.00  0.00    -0.007 A 
ATOM      6  C5  UNL d   1      -2.249   1.385  -2.935  0.00  0.00     0.039 A 
ENDROOT
BRANCH   4   7
ATOM      7  O   UNL d   1      -1.402   0.712   0.536  0.00  0.00    -0.526 OA
ATOM      8  H5  UNL d   1      -1.553  -0.093   1.059  0.00  0.00     0.418 HD
ENDBRANCH   4   7
TORSDOF 1
ENDMDL
