MODEL 1
REMARK minimizedAffinity -1.54829085
REMARK minimizedRMSD -1
REMARK  1 active torsions:
REMARK  status: ('A' for Active; 'I' for Inactive)
REMARK    1  A    between atoms: C3_4  and  O_7 
ROOT
ATOM      1  C   UNL d   1       2.578   1.331  -3.509  0.00  0.00    -0.033 A 
ATOM      2  C1  UNL d   1       1.795   1.037  -2.391  0.00  0.00     0.039 A 
ATOM      3  C2  UNL d   1       1.810  -0.247  -1.844  0.00  0.00    -0.080 A 
ATOM      4  C3  UNL d   1       2.612  -1.227  -2.423  0.00  0.00     0.150 A 
ATOM      5  C4  UNL d   1       3.397  -0.940  -3.535  0.00  0.00    -0.007 A 
ATOM      6  C5  UNL d   1       3.380   0.343  -4.080  0.00  0.00     0.039 A 
ENDROOT
BRANCH   4   7
ATOM      7  O   UNL d   1       2.656  -2.496  -1.927  0.00  0.00    -0.526 OA
ATOM      8  H5  UNL d   1       2.041  -2.555  -1.177  0.00  0.00     0.418 HD
ENDBRANCH   4   7
TORSDOF 1
ENDMDL
