MODEL 1
REMARK minimizedAffinity 8.77127171
REMARK minimizedRMSD -1
REMARK  1 active torsions:
REMARK  status: ('A' for Active; 'I' for Inactive)
REMARK    1  A    between atoms: C3_4  and  O_7 
ROOT
ATOM      1  C   UNL d   1       1.440  -5.999   2.564  0.00  0.00    -0.033 A 
ATOM      2  C1  UNL d   1       0.232  -5.999   3.265  0.00  0.00     0.039 A 
ATOM      3  C2  UNL d   1      -0.975  -5.841   2.581  0.00  0.00    -0.080 A 
ATOM      4  C3  UNL d   1      -0.960  -5.686   1.198  0.00  0.00     0.150 A 
ATOM      5  C4  UNL d   1       0.238  -5.689   0.492  0.00  0.00    -0.007 A 
ATOM      6  C5  UNL d   1       1.443  -5.846   1.177  0.00  0.00     0.039 A 
ENDROOT
BRANCH   4   7
ATOM      7  O   UNL d   1      -2.112  -5.524   0.487  0.00  0.00    -0.526 OA
ATOM      8  H5  UNL d   1      -2.859  -5.513   1.109  0.00  0.00     0.418 HD
ENDBRANCH   4   7
TORSDOF 1
ENDMDL
