MODEL 1
REMARK minimizedAffinity -3.34652853
REMARK minimizedRMSD -1
REMARK  1 active torsions:
REMARK  status: ('A' for Active; 'I' for Inactive)
REMARK    1  A    between atoms: C3_4  and  O_7 
ROOT
ATOM      1  C   UNL d   1       2.166  -0.603  -2.976  0.00  0.00    -0.033 A 
ATOM      2  C1  UNL d   1       1.015  -0.997  -3.662  0.00  0.00     0.039 A 
ATOM      3  C2  UNL d   1      -0.073  -0.128  -3.759  0.00  0.00    -0.080 A 
ATOM      4  C3  UNL d   1       0.002   1.130  -3.168  0.00  0.00     0.150 A 
ATOM      5  C4  UNL d   1       1.147   1.530  -2.487  0.00  0.00    -0.007 A 
ATOM      6  C5  UNL d   1       2.233   0.661  -2.390  0.00  0.00     0.039 A 
ENDROOT
BRANCH   4   7
ATOM      7  O   UNL d   1      -1.036   2.011  -3.232  0.00  0.00    -0.526 OA
ATOM      8  H5  UNL d   1      -1.770   1.588  -3.708  0.00  0.00     0.418 HD
ENDBRANCH   4   7
TORSDOF 1
ENDMDL
