MODEL 1
REMARK minimizedAffinity 4.85339451
REMARK minimizedRMSD -1
REMARK  1 active torsions:
REMARK  status: ('A' for Active; 'I' for Inactive)
REMARK    1  A    between atoms: C3_4  and  O_7 
ROOT
ATOM      1  C   UNL d   1       1.404  -4.673   2.381  0.00  0.00    -0.033 A 
ATOM      2  C1  UNL d   1       0.787  -5.914   2.208  0.00  0.00     0.039 A 
ATOM      3  C2  UNL d   1      -0.438  -6.000   1.543  0.00  0.00    -0.080 A 
ATOM      4  C3  UNL d   1      -1.034  -4.840   1.057  0.00  0.00     0.150 A 
ATOM      5  C4  UNL d   1      -0.424  -3.601   1.223  0.00  0.00    -0.007 A 
ATOM      6  C5  UNL d   1       0.799  -3.517   1.887  0.00  0.00     0.039 A 
ENDROOT
BRANCH   4   7
ATOM      7  O   UNL d   1      -2.232  -4.873   0.407  0.00  0.00    -0.526 OA
ATOM      8  H5  UNL d   1      -2.548  -5.792   0.392  0.00  0.00     0.418 HD
ENDBRANCH   4   7
TORSDOF 1
ENDMDL
