MODEL 1
REMARK minimizedAffinity -4.2084465
REMARK minimizedRMSD -1
REMARK  1 active torsions:
REMARK  status: ('A' for Active; 'I' for Inactive)
REMARK    1  A    between atoms: C3_4  and  O_7 
ROOT
ATOM      1  C   UNL d   1       2.210   1.011  -2.766  0.00  0.00    -0.033 A 
ATOM      2  C1  UNL d   1       1.026   1.731  -2.601  0.00  0.00     0.039 A 
ATOM      3  C2  UNL d   1      -0.184   1.202  -3.053  0.00  0.00    -0.080 A 
ATOM      4  C3  UNL d   1      -0.196  -0.048  -3.666  0.00  0.00     0.150 A 
ATOM      5  C4  UNL d   1       0.979  -0.773  -3.831  0.00  0.00    -0.007 A 
ATOM      6  C5  UNL d   1       2.187  -0.242  -3.380  0.00  0.00     0.039 A 
ENDROOT
BRANCH   4   7
ATOM      7  O   UNL d   1      -1.352  -0.604  -4.128  0.00  0.00    -0.526 OA
ATOM      8  H5  UNL d   1      -2.079   0.022  -3.971  0.00  0.00     0.418 HD
ENDBRANCH   4   7
TORSDOF 1
ENDMDL
