MODEL 1
REMARK minimizedAffinity 0.854496777
REMARK minimizedRMSD -1
REMARK  1 active torsions:
REMARK  status: ('A' for Active; 'I' for Inactive)
REMARK    1  A    between atoms: C3_4  and  O_7 
ROOT
ATOM      1  C   UNL d   1      -5.951   0.906   6.000  0.00  0.00    -0.033 A 
ATOM      2  C1  UNL d   1      -5.615  -0.448   5.955  0.00  0.00     0.039 A 
ATOM      3  C2  UNL d   1      -4.583  -0.887   5.124  0.00  0.00    -0.080 A 
ATOM      4  C3  UNL d   1      -3.894   0.038   4.344  0.00  0.00     0.150 A 
ATOM      5  C4  UNL d   1      -4.220   1.390   4.387  0.00  0.00    -0.007 A 
ATOM      6  C5  UNL d   1      -5.252   1.825   5.217  0.00  0.00     0.039 A 
ENDROOT
BRANCH   4   7
ATOM      7  O   UNL d   1      -2.882  -0.343   3.514  0.00  0.00    -0.526 OA
ATOM      8  H5  UNL d   1      -2.787  -1.308   3.568  0.00  0.00     0.418 HD
ENDBRANCH   4   7
TORSDOF 1
ENDMDL
