MODEL 1
REMARK minimizedAffinity -2.66087413
REMARK minimizedRMSD -1
REMARK  1 active torsions:
REMARK  status: ('A' for Active; 'I' for Inactive)
REMARK    1  A    between atoms: C3_4  and  O_7 
ROOT
ATOM      1  C   UNL d   1       0.072   1.704  -2.379  0.00  0.00    -0.033 A 
ATOM      2  C1  UNL d   1      -0.697   0.740  -3.032  0.00  0.00     0.039 A 
ATOM      3  C2  UNL d   1      -0.092  -0.412  -3.539  0.00  0.00    -0.080 A 
ATOM      4  C3  UNL d   1       1.280  -0.588  -3.384  0.00  0.00     0.150 A 
ATOM      5  C4  UNL d   1       2.052   0.367  -2.731  0.00  0.00    -0.007 A 
ATOM      6  C5  UNL d   1       1.447   1.517  -2.227  0.00  0.00     0.039 A 
ENDROOT
BRANCH   4   7
ATOM      7  O   UNL d   1       1.916  -1.694  -3.866  0.00  0.00    -0.526 OA
ATOM      8  H5  UNL d   1       1.261  -2.252  -4.318  0.00  0.00     0.418 HD
ENDBRANCH   4   7
TORSDOF 1
ENDMDL
