MODEL 1
REMARK minimizedAffinity 1.09740198
REMARK minimizedRMSD -1
REMARK  1 active torsions:
REMARK  status: ('A' for Active; 'I' for Inactive)
REMARK    1  A    between atoms: C3_4  and  O_7 
ROOT
ATOM      1  C   UNL d   1      -0.238   1.340  -2.677  0.00  0.00    -0.033 A 
ATOM      2  C1  UNL d   1      -0.567   0.073  -3.163  0.00  0.00     0.039 A 
ATOM      3  C2  UNL d   1      -1.737  -0.110  -3.903  0.00  0.00    -0.080 A 
ATOM      4  C3  UNL d   1      -2.566   0.980  -4.151  0.00  0.00     0.150 A 
ATOM      5  C4  UNL d   1      -2.242   2.246  -3.674  0.00  0.00    -0.007 A 
ATOM      6  C5  UNL d   1      -1.074   2.427  -2.934  0.00  0.00     0.039 A 
ENDROOT
BRANCH   4   7
ATOM      7  O   UNL d   1      -3.720   0.850  -4.865  0.00  0.00    -0.526 OA
ATOM      8  H5  UNL d   1      -3.829  -0.086  -5.105  0.00  0.00     0.418 HD
ENDBRANCH   4   7
TORSDOF 1
ENDMDL
