MODEL 1
REMARK minimizedAffinity 5.01938057
REMARK minimizedRMSD -1
REMARK  1 active torsions:
REMARK  status: ('A' for Active; 'I' for Inactive)
REMARK    1  A    between atoms: C3_4  and  O_7 
ROOT
ATOM      1  C   UNL d   1       2.776   3.383  -4.636  0.00  0.00    -0.033 A 
ATOM      2  C1  UNL d   1       3.790   2.440  -4.452  0.00  0.00     0.039 A 
ATOM      3  C2  UNL d   1       3.853   1.702  -3.269  0.00  0.00    -0.080 A 
ATOM      4  C3  UNL d   1       2.897   1.915  -2.279  0.00  0.00     0.150 A 
ATOM      5  C4  UNL d   1       1.883   2.850  -2.456  0.00  0.00    -0.007 A 
ATOM      6  C5  UNL d   1       1.822   3.587  -3.638  0.00  0.00     0.039 A 
ENDROOT
BRANCH   4   7
ATOM      7  O   UNL d   1       2.921   1.223  -1.105  0.00  0.00    -0.526 OA
ATOM      8  H5  UNL d   1       3.693   0.633  -1.111  0.00  0.00     0.418 HD
ENDBRANCH   4   7
TORSDOF 1
ENDMDL
