MODEL 1
REMARK minimizedAffinity 0.498045564
REMARK minimizedRMSD -1
REMARK  1 active torsions:
REMARK  status: ('A' for Active; 'I' for Inactive)
REMARK    1  A    between atoms: C3_4  and  O_7 
ROOT
ATOM      1  C   UNL d   1      -2.240   0.373  -3.917  0.00  0.00    -0.033 A 
ATOM      2  C1  UNL d   1      -1.821   1.671  -3.617  0.00  0.00     0.039 A 
ATOM      3  C2  UNL d   1      -1.435   1.999  -2.316  0.00  0.00    -0.080 A 
ATOM      4  C3  UNL d   1      -1.472   1.021  -1.326  0.00  0.00     0.150 A 
ATOM      5  C4  UNL d   1      -1.886  -0.274  -1.618  0.00  0.00    -0.007 A 
ATOM      6  C5  UNL d   1      -2.271  -0.600  -2.918  0.00  0.00     0.039 A 
ENDROOT
BRANCH   4   7
ATOM      7  O   UNL d   1      -1.110   1.295  -0.040  0.00  0.00    -0.526 OA
ATOM      8  H5  UNL d   1      -0.875   2.236   0.019  0.00  0.00     0.418 HD
ENDBRANCH   4   7
TORSDOF 1
ENDMDL
