MODEL 1
REMARK minimizedAffinity 8.39896107
REMARK minimizedRMSD -1
REMARK  1 active torsions:
REMARK  status: ('A' for Active; 'I' for Inactive)
REMARK    1  A    between atoms: C3_4  and  O_7 
ROOT
ATOM      1  C   UNL d   1       0.602  -5.907   0.193  0.00  0.00    -0.033 A 
ATOM      2  C1  UNL d   1      -0.708  -5.968   0.674  0.00  0.00     0.039 A 
ATOM      3  C2  UNL d   1      -0.947  -5.998   2.049  0.00  0.00    -0.080 A 
ATOM      4  C3  UNL d   1       0.129  -5.966   2.931  0.00  0.00     0.150 A 
ATOM      5  C4  UNL d   1       1.436  -5.901   2.459  0.00  0.00    -0.007 A 
ATOM      6  C5  UNL d   1       1.674  -5.872   1.085  0.00  0.00     0.039 A 
ENDROOT
BRANCH   4   7
ATOM      7  O   UNL d   1      -0.055  -5.998   4.281  0.00  0.00    -0.526 OA
ATOM      8  H5  UNL d   1      -1.007  -6.072   4.461  0.00  0.00     0.418 HD
ENDBRANCH   4   7
TORSDOF 1
ENDMDL
