MODEL 1
REMARK minimizedAffinity 6.35373068
REMARK minimizedRMSD -1
REMARK  1 active torsions:
REMARK  status: ('A' for Active; 'I' for Inactive)
REMARK    1  A    between atoms: C3_4  and  O_7 
ROOT
ATOM      1  C   UNL d   1      -2.502   0.342  -4.723  0.00  0.00    -0.033 A 
ATOM      2  C1  UNL d   1      -1.742  -0.296  -3.741  0.00  0.00     0.039 A 
ATOM      3  C2  UNL d   1      -0.853   0.441  -2.956  0.00  0.00    -0.080 A 
ATOM      4  C3  UNL d   1      -0.735   1.813  -3.162  0.00  0.00     0.150 A 
ATOM      5  C4  UNL d   1      -1.492   2.455  -4.136  0.00  0.00    -0.007 A 
ATOM      6  C5  UNL d   1      -2.378   1.718  -4.919  0.00  0.00     0.039 A 
ENDROOT
BRANCH   4   7
ATOM      7  O   UNL d   1       0.123   2.573  -2.423  0.00  0.00    -0.526 OA
ATOM      8  H5  UNL d   1       0.600   1.990  -1.809  0.00  0.00     0.418 HD
ENDBRANCH   4   7
TORSDOF 1
ENDMDL
