MODEL 1
REMARK minimizedAffinity 0.641952038
REMARK minimizedRMSD -1
REMARK  0 active torsions:
REMARK  status: ('A' for Active; 'I' for Inactive)
ROOT
ATOM      1  C1  DEN d   1       4.184  -5.319  -3.282  0.00  0.00     0.130 A 
ATOM      2  C2  DEN d   1       3.161  -4.752  -4.157  0.00  0.00    -0.031 A 
ATOM      3  C3  DEN d   1       2.841  -3.396  -3.667  0.00  0.00     0.027 A 
ATOM      4  C4  DEN d   1       3.827  -2.125  -1.651  0.00  0.00     0.027 A 
ATOM      5  C5  DEN d   1       4.716  -2.201  -0.602  0.00  0.00    -0.003 A 
ATOM      6  C6  DEN d   1       5.459  -3.325  -0.354  0.00  0.00     0.001 A 
ATOM      7  C7  DEN d   1       5.360  -4.403  -1.194  0.00  0.00     0.017 A 
ATOM      8  C8  DEN d   1       4.460  -4.337  -2.249  0.00  0.00    -0.094 A 
ATOM      9  C9  DEN d   1       3.727  -3.187  -2.490  0.00  0.00    -0.072 A 
ENDROOT
TORSDOF 0
ENDMDL
