MODEL 1
REMARK minimizedAffinity -0.264162123
REMARK minimizedRMSD -1
REMARK  0 active torsions:
REMARK  status: ('A' for Active; 'I' for Inactive)
ROOT
ATOM      1  C1  DEN d   1       4.812  -5.957  -2.133  0.00  0.00     0.130 A 
ATOM      2  C2  DEN d   1       5.251  -6.000  -0.741  0.00  0.00    -0.031 A 
ATOM      3  C3  DEN d   1       5.222  -4.622  -0.211  0.00  0.00     0.027 A 
ATOM      4  C4  DEN d   1       4.539  -2.439  -1.402  0.00  0.00     0.027 A 
ATOM      5  C5  DEN d   1       4.104  -1.898  -2.592  0.00  0.00    -0.003 A 
ATOM      6  C6  DEN d   1       3.909  -2.661  -3.713  0.00  0.00     0.001 A 
ATOM      7  C7  DEN d   1       4.106  -4.016  -3.654  0.00  0.00     0.017 A 
ATOM      8  C8  DEN d   1       4.551  -4.567  -2.460  0.00  0.00    -0.094 A 
ATOM      9  C9  DEN d   1       4.731  -3.780  -1.335  0.00  0.00    -0.072 A 
ENDROOT
TORSDOF 0
ENDMDL
