MODEL 1
REMARK minimizedAffinity 8.66123295
REMARK minimizedRMSD -1
REMARK  0 active torsions:
REMARK  status: ('A' for Active; 'I' for Inactive)
ROOT
ATOM      1  C1  DEN d   1       2.100  -5.311  -1.893  0.00  0.00     0.130 A 
ATOM      2  C2  DEN d   1       1.535  -5.239  -0.549  0.00  0.00    -0.031 A 
ATOM      3  C3  DEN d   1       2.128  -4.072   0.134  0.00  0.00     0.027 A 
ATOM      4  C4  DEN d   1       3.854  -2.376  -0.757  0.00  0.00     0.027 A 
ATOM      5  C5  DEN d   1       4.636  -2.032  -1.838  0.00  0.00    -0.003 A 
ATOM      6  C6  DEN d   1       4.653  -2.771  -2.991  0.00  0.00     0.001 A 
ATOM      7  C7  DEN d   1       3.838  -3.866  -3.107  0.00  0.00     0.017 A 
ATOM      8  C8  DEN d   1       3.053  -4.223  -2.019  0.00  0.00    -0.094 A 
ATOM      9  C9  DEN d   1       3.041  -3.456  -0.866  0.00  0.00    -0.072 A 
ENDROOT
TORSDOF 0
ENDMDL
