MODEL 1
REMARK minimizedAffinity 5.31472969
REMARK minimizedRMSD -1
REMARK  0 active torsions:
REMARK  status: ('A' for Active; 'I' for Inactive)
ROOT
ATOM      1  C1  DEN d   1       4.384  -5.943  -3.201  0.00  0.00     0.130 A 
ATOM      2  C2  DEN d   1       5.600  -5.938  -4.010  0.00  0.00    -0.031 A 
ATOM      3  C3  DEN d   1       5.972  -4.532  -4.266  0.00  0.00     0.027 A 
ATOM      4  C4  DEN d   1       4.793  -2.374  -3.489  0.00  0.00     0.027 A 
ATOM      5  C5  DEN d   1       3.718  -1.872  -2.789  0.00  0.00    -0.003 A 
ATOM      6  C6  DEN d   1       2.779  -2.684  -2.212  0.00  0.00     0.001 A 
ATOM      7  C7  DEN d   1       2.921  -4.045  -2.285  0.00  0.00     0.017 A 
ATOM      8  C8  DEN d   1       3.998  -4.558  -2.994  0.00  0.00    -0.094 A 
ATOM      9  C9  DEN d   1       4.944  -3.721  -3.561  0.00  0.00    -0.072 A 
ENDROOT
TORSDOF 0
ENDMDL
