MODEL 1
REMARK minimizedAffinity -3.98790598
REMARK minimizedRMSD -1
REMARK  2 active torsions:
REMARK  status: ('A' for Active; 'I' for Inactive)
REMARK    1  A    between atoms: C2'_3  and  C1'_4 
REMARK    2  A    between atoms: C1'_4  and  C1_5 
ROOT
ATOM      1  C1  I4B d   1       0.533  -0.393  -1.083  0.00  0.00    -0.075 A 
ATOM      2  C2  I4B d   1       0.669  -1.741  -0.865  0.00  0.00     0.003 A 
ATOM      3  C3  I4B d   1       1.148  -2.585  -1.896  0.00  0.00     0.002 A 
ATOM      4  C4  I4B d   1       1.429  -2.049  -3.137  0.00  0.00    -0.004 A 
ATOM      5  C5  I4B d   1       1.312  -0.679  -3.349  0.00  0.00     0.002 A 
ATOM      6  C6  I4B d   1       0.873   0.157  -2.312  0.00  0.00     0.003 A 
ENDROOT
BRANCH   1   7
ATOM      7  C1' I4B d   1      -0.007   0.464   0.018  0.00  0.00     0.060 C 
BRANCH   7   8
ATOM      8  C2' I4B d   1       0.677   0.054   1.307  0.00  0.00    -0.013 C 
ATOM      9  C4' I4B d   1       1.987   0.776   1.483  0.00  0.00     0.013 C 
ATOM     10  C3' I4B d   1      -0.260   0.348   2.441  0.00  0.00     0.013 C 
ENDBRANCH   7   8
ENDBRANCH   1   7
TORSDOF 2
ENDMDL
