MODEL 1
REMARK minimizedAffinity -2.91895461
REMARK minimizedRMSD -1
REMARK  2 active torsions:
REMARK  status: ('A' for Active; 'I' for Inactive)
REMARK    1  A    between atoms: C2'_3  and  C1'_4 
REMARK    2  A    between atoms: C1'_4  and  C1_5 
ROOT
ATOM      1  C1  I4B d   1       0.182   0.364  -0.650  0.00  0.00    -0.075 A 
ATOM      2  C2  I4B d   1       1.269   0.065   0.132  0.00  0.00     0.003 A 
ATOM      3  C3  I4B d   1       1.168   0.118   1.543  0.00  0.00     0.002 A 
ATOM      4  C4  I4B d   1      -0.016   0.520   2.126  0.00  0.00    -0.004 A 
ATOM      5  C5  I4B d   1      -1.125   0.801   1.332  0.00  0.00     0.002 A 
ATOM      6  C6  I4B d   1      -1.029   0.710  -0.064  0.00  0.00     0.003 A 
ENDROOT
BRANCH   1   7
ATOM      7  C1' I4B d   1       0.333   0.330  -2.138  0.00  0.00     0.060 C 
BRANCH   7   8
ATOM      8  C2' I4B d   1       1.261  -0.815  -2.487  0.00  0.00    -0.013 C 
ATOM      9  C4' I4B d   1       0.506  -1.958  -3.111  0.00  0.00     0.013 C 
ATOM     10  C3' I4B d   1       2.314  -0.290  -3.417  0.00  0.00     0.013 C 
ENDBRANCH   7   8
ENDBRANCH   1   7
TORSDOF 2
ENDMDL
