MODEL 1
REMARK minimizedAffinity -4.22818041
REMARK minimizedRMSD -1
REMARK  2 active torsions:
REMARK  status: ('A' for Active; 'I' for Inactive)
REMARK    1  A    between atoms: C2'_3  and  C1'_4 
REMARK    2  A    between atoms: C1'_4  and  C1_5 
ROOT
ATOM      1  C1  I4B d   1       0.673  -0.136  -0.434  0.00  0.00    -0.075 A 
ATOM      2  C2  I4B d   1      -0.509   0.360   0.057  0.00  0.00     0.003 A 
ATOM      3  C3  I4B d   1      -0.720   0.444   1.455  0.00  0.00     0.002 A 
ATOM      4  C4  I4B d   1       0.251  -0.022   2.318  0.00  0.00    -0.004 A 
ATOM      5  C5  I4B d   1       1.458  -0.503   1.818  0.00  0.00     0.002 A 
ATOM      6  C6  I4B d   1       1.676  -0.549   0.434  0.00  0.00     0.003 A 
ENDROOT
BRANCH   1   7
ATOM      7  C1' I4B d   1       0.850  -0.241  -1.916  0.00  0.00     0.060 C 
BRANCH   7   8
ATOM      8  C2' I4B d   1       0.741  -1.704  -2.296  0.00  0.00    -0.013 C 
ATOM      9  C4' I4B d   1      -0.602  -2.011  -2.905  0.00  0.00     0.013 C 
ATOM     10  C3' I4B d   1       1.853  -2.018  -3.252  0.00  0.00     0.013 C 
ENDBRANCH   7   8
ENDBRANCH   1   7
TORSDOF 2
ENDMDL
