MODEL 1
REMARK minimizedAffinity -3.74477506
REMARK minimizedRMSD -1
REMARK  2 active torsions:
REMARK  status: ('A' for Active; 'I' for Inactive)
REMARK    1  A    between atoms: C2'_3  and  C1'_4 
REMARK    2  A    between atoms: C1'_4  and  C1_5 
ROOT
ATOM      1  C1  I4B d   1       0.575   0.040  -0.630  0.00  0.00    -0.075 A 
ATOM      2  C2  I4B d   1      -0.431   0.358   0.249  0.00  0.00     0.003 A 
ATOM      3  C3  I4B d   1      -0.189   0.345   1.644  0.00  0.00     0.002 A 
ATOM      4  C4  I4B d   1       1.050  -0.038   2.115  0.00  0.00    -0.004 A 
ATOM      5  C5  I4B d   1       2.075  -0.338   1.223  0.00  0.00     0.002 A 
ATOM      6  C6  I4B d   1       1.840  -0.286  -0.159  0.00  0.00     0.003 A 
ENDROOT
BRANCH   1   7
ATOM      7  C1' I4B d   1       0.276   0.032  -2.095  0.00  0.00     0.060 C 
BRANCH   7   8
ATOM      8  C2' I4B d   1       1.327  -0.817  -2.782  0.00  0.00    -0.013 C 
ATOM      9  C4' I4B d   1       0.712  -1.699  -3.836  0.00  0.00     0.013 C 
ATOM     10  C3' I4B d   1       2.350   0.104  -3.376  0.00  0.00     0.013 C 
ENDBRANCH   7   8
ENDBRANCH   1   7
TORSDOF 2
ENDMDL
