MODEL 1
REMARK minimizedAffinity -3.12781906
REMARK minimizedRMSD -1
REMARK  2 active torsions:
REMARK  status: ('A' for Active; 'I' for Inactive)
REMARK    1  A    between atoms: C2'_3  and  C1'_4 
REMARK    2  A    between atoms: C1'_4  and  C1_5 
ROOT
ATOM      1  C1  I4B d   1      -0.145   0.211  -0.324  0.00  0.00    -0.075 A 
ATOM      2  C2  I4B d   1       0.983  -0.142   0.374  0.00  0.00     0.003 A 
ATOM      3  C3  I4B d   1       0.930  -0.306   1.779  0.00  0.00     0.002 A 
ATOM      4  C4  I4B d   1      -0.251  -0.059   2.448  0.00  0.00    -0.004 A 
ATOM      5  C5  I4B d   1      -1.400   0.277   1.737  0.00  0.00     0.002 A 
ATOM      6  C6  I4B d   1      -1.350   0.401   0.341  0.00  0.00     0.003 A 
ENDROOT
BRANCH   1   7
ATOM      7  C1' I4B d   1      -0.046   0.407  -1.804  0.00  0.00     0.060 C 
BRANCH   7   8
ATOM      8  C2' I4B d   1       0.599  -0.829  -2.396  0.00  0.00    -0.013 C 
ATOM      9  C4' I4B d   1      -0.368  -1.582  -3.272  0.00  0.00     0.013 C 
ATOM     10  C3' I4B d   1       1.807  -0.395  -3.172  0.00  0.00     0.013 C 
ENDBRANCH   7   8
ENDBRANCH   1   7
TORSDOF 2
ENDMDL
