MODEL 1
REMARK minimizedAffinity -5.85655069
REMARK minimizedRMSD -1
REMARK  2 active torsions:
REMARK  status: ('A' for Active; 'I' for Inactive)
REMARK    1  A    between atoms: C2'_3  and  C1'_4 
REMARK    2  A    between atoms: C1'_4  and  C1_5 
ROOT
ATOM      1  C1  I4B d   1       0.485  -0.044   0.788  0.00  0.00    -0.075 A 
ATOM      2  C2  I4B d   1       0.216   0.749   1.876  0.00  0.00     0.003 A 
ATOM      3  C3  I4B d   1      -0.364   0.190   3.040  0.00  0.00     0.002 A 
ATOM      4  C4  I4B d   1      -0.704  -1.147   3.054  0.00  0.00    -0.004 A 
ATOM      5  C5  I4B d   1      -0.411  -1.954   1.959  0.00  0.00     0.002 A 
ATOM      6  C6  I4B d   1       0.199  -1.402   0.823  0.00  0.00     0.003 A 
ENDROOT
BRANCH   1   7
ATOM      7  C1' I4B d   1       1.068   0.587  -0.437  0.00  0.00     0.060 C 
BRANCH   7   8
ATOM      8  C2' I4B d   1       0.193   0.212  -1.616  0.00  0.00    -0.013 C 
ATOM      9  C4' I4B d   1      -1.005   1.119  -1.715  0.00  0.00     0.013 C 
ATOM     10  C3' I4B d   1       1.032   0.286  -2.857  0.00  0.00     0.013 C 
ENDBRANCH   7   8
ENDBRANCH   1   7
TORSDOF 2
ENDMDL
