MODEL 1
REMARK minimizedAffinity -4.88319254
REMARK minimizedRMSD -1
REMARK  2 active torsions:
REMARK  status: ('A' for Active; 'I' for Inactive)
REMARK    1  A    between atoms: C2'_3  and  C1'_4 
REMARK    2  A    between atoms: C1'_4  and  C1_5 
ROOT
ATOM      1  C1  I4B d   1       0.676   0.308  -0.878  0.00  0.00    -0.075 A 
ATOM      2  C2  I4B d   1      -0.597   0.562  -0.433  0.00  0.00     0.003 A 
ATOM      3  C3  I4B d   1      -0.854   0.696   0.953  0.00  0.00     0.002 A 
ATOM      4  C4  I4B d   1       0.175   0.519   1.855  0.00  0.00    -0.004 A 
ATOM      5  C5  I4B d   1       1.469   0.284   1.401  0.00  0.00     0.002 A 
ATOM      6  C6  I4B d   1       1.724   0.189   0.025  0.00  0.00     0.003 A 
ENDROOT
BRANCH   1   7
ATOM      7  C1' I4B d   1       0.905   0.139  -2.347  0.00  0.00     0.060 C 
BRANCH   7   8
ATOM      8  C2' I4B d   1       0.952  -1.346  -2.645  0.00  0.00    -0.013 C 
ATOM      9  C4' I4B d   1      -0.036  -1.717  -3.720  0.00  0.00     0.013 C 
ATOM     10  C3' I4B d   1       2.352  -1.693  -3.053  0.00  0.00     0.013 C 
ENDBRANCH   7   8
ENDBRANCH   1   7
TORSDOF 2
ENDMDL
