MODEL 1
REMARK minimizedAffinity -3.10825443
REMARK minimizedRMSD -1
REMARK  2 active torsions:
REMARK  status: ('A' for Active; 'I' for Inactive)
REMARK    1  A    between atoms: C2'_3  and  C1'_4 
REMARK    2  A    between atoms: C1'_4  and  C1_5 
ROOT
ATOM      1  C1  I4B d   1       0.157   0.000  -0.497  0.00  0.00    -0.075 A 
ATOM      2  C2  I4B d   1       1.263  -0.551   0.101  0.00  0.00     0.003 A 
ATOM      3  C3  I4B d   1       1.472  -0.398   1.493  0.00  0.00     0.002 A 
ATOM      4  C4  I4B d   1       0.582   0.352   2.235  0.00  0.00    -0.004 A 
ATOM      5  C5  I4B d   1      -0.551   0.890   1.632  0.00  0.00     0.002 A 
ATOM      6  C6  I4B d   1      -0.771   0.703   0.259  0.00  0.00     0.003 A 
ENDROOT
BRANCH   1   7
ATOM      7  C1' I4B d   1      -0.014  -0.153  -1.975  0.00  0.00     0.060 C 
BRANCH   7   8
ATOM      8  C2' I4B d   1       1.270  -0.726  -2.537  0.00  0.00    -0.013 C 
ATOM      9  C4' I4B d   1       0.989  -1.811  -3.543  0.00  0.00     0.013 C 
ATOM     10  C3' I4B d   1       2.047   0.397  -3.156  0.00  0.00     0.013 C 
ENDBRANCH   7   8
ENDBRANCH   1   7
TORSDOF 2
ENDMDL
