MODEL 1
REMARK minimizedAffinity -4.63559198
REMARK minimizedRMSD -1
REMARK  2 active torsions:
REMARK  status: ('A' for Active; 'I' for Inactive)
REMARK    1  A    between atoms: C2'_3  and  C1'_4 
REMARK    2  A    between atoms: C1'_4  and  C1_5 
ROOT
ATOM      1  C1  I4B d   1       0.182  -0.402   0.458  0.00  0.00    -0.075 A 
ATOM      2  C2  I4B d   1      -1.184  -0.294   0.544  0.00  0.00     0.003 A 
ATOM      3  C3  I4B d   1      -1.792   0.102   1.760  0.00  0.00     0.002 A 
ATOM      4  C4  I4B d   1      -1.007   0.329   2.871  0.00  0.00    -0.004 A 
ATOM      5  C5  I4B d   1       0.379   0.241   2.776  0.00  0.00     0.002 A 
ATOM      6  C6  I4B d   1       0.979  -0.115   1.559  0.00  0.00     0.003 A 
ENDROOT
BRANCH   1   7
ATOM      7  C1' I4B d   1       0.790  -0.855  -0.831  0.00  0.00     0.060 C 
BRANCH   7   8
ATOM      8  C2' I4B d   1      -0.024  -0.262  -1.964  0.00  0.00    -0.013 C 
ATOM      9  C4' I4B d   1       0.168   1.229  -2.052  0.00  0.00     0.013 C 
ATOM     10  C3' I4B d   1       0.393  -0.938  -3.236  0.00  0.00     0.013 C 
ENDBRANCH   7   8
ENDBRANCH   1   7
TORSDOF 2
ENDMDL
