MODEL 1
REMARK minimizedAffinity -3.7197392
REMARK minimizedRMSD -1
REMARK  0 active torsions:
REMARK  status: ('A' for Active; 'I' for Inactive)
ROOT
ATOM      1  C   UNL d   1      -2.577  -3.203   1.056  0.00  0.00     0.023 A 
ATOM      2  C1  UNL d   1      -2.814  -2.230   0.086  0.00  0.00     0.003 A 
ATOM      3  C2  UNL d   1      -1.844  -1.263  -0.186  0.00  0.00     0.048 A 
ATOM      4  C3  UNL d   1      -0.638  -1.276   0.515  0.00  0.00     0.023 A 
ATOM      5  C4  UNL d   1      -0.396  -2.249   1.486  0.00  0.00     0.048 A 
ATOM      6  C5  UNL d   1      -1.369  -3.213   1.755  0.00  0.00     0.003 A 
ATOM      7  I   UNL d   1       0.807   0.161   0.111  0.00  0.00    -0.146 I 
ENDROOT
TORSDOF 0
ENDMDL
