MODEL 1
REMARK minimizedAffinity -5.50232172
REMARK minimizedRMSD -1
REMARK  0 active torsions:
REMARK  status: ('A' for Active; 'I' for Inactive)
ROOT
ATOM      1  C   UNL d   1      -3.183  -1.560  -0.010  0.00  0.00     0.023 A 
ATOM      2  C1  UNL d   1      -2.368  -1.959   1.049  0.00  0.00     0.003 A 
ATOM      3  C2  UNL d   1      -1.021  -1.589   1.074  0.00  0.00     0.048 A 
ATOM      4  C3  UNL d   1      -0.496  -0.821   0.035  0.00  0.00     0.023 A 
ATOM      5  C4  UNL d   1      -1.308  -0.419  -1.027  0.00  0.00     0.048 A 
ATOM      6  C5  UNL d   1      -2.654  -0.791  -1.047  0.00  0.00     0.003 A 
ATOM      7  I   UNL d   1       1.507  -0.270   0.069  0.00  0.00    -0.146 I 
ENDROOT
TORSDOF 0
ENDMDL
