MODEL 1
REMARK minimizedAffinity -3.89267921
REMARK minimizedRMSD -1
REMARK  0 active torsions:
REMARK  status: ('A' for Active; 'I' for Inactive)
ROOT
ATOM      1  C   UNL d   1       1.450   0.381  -0.716  0.00  0.00     0.023 A 
ATOM      2  C1  UNL d   1       1.038  -0.234   0.466  0.00  0.00     0.003 A 
ATOM      3  C2  UNL d   1      -0.293  -0.624   0.625  0.00  0.00     0.048 A 
ATOM      4  C3  UNL d   1      -1.207  -0.397  -0.404  0.00  0.00     0.023 A 
ATOM      5  C4  UNL d   1      -0.799   0.216  -1.589  0.00  0.00     0.048 A 
ATOM      6  C5  UNL d   1       0.533   0.606  -1.743  0.00  0.00     0.003 A 
ATOM      7  I   UNL d   1      -3.189  -0.977  -0.171  0.00  0.00    -0.146 I 
ENDROOT
TORSDOF 0
ENDMDL
