MODEL 1
REMARK minimizedAffinity -4.13903379
REMARK minimizedRMSD -1
REMARK  0 active torsions:
REMARK  status: ('A' for Active; 'I' for Inactive)
ROOT
ATOM      1  C   UNL d   1      -2.658  -1.924   1.136  0.00  0.00     0.023 A 
ATOM      2  C1  UNL d   1      -1.523  -2.296   1.856  0.00  0.00     0.003 A 
ATOM      3  C2  UNL d   1      -0.310  -1.639   1.637  0.00  0.00     0.048 A 
ATOM      4  C3  UNL d   1      -0.240  -0.611   0.698  0.00  0.00     0.023 A 
ATOM      5  C4  UNL d   1      -1.374  -0.235  -0.024  0.00  0.00     0.048 A 
ATOM      6  C5  UNL d   1      -2.584  -0.895   0.197  0.00  0.00     0.003 A 
ATOM      7  I   UNL d   1       1.564   0.368   0.371  0.00  0.00    -0.146 I 
ENDROOT
TORSDOF 0
ENDMDL
