MODEL 1
REMARK minimizedAffinity -4.3598237
REMARK minimizedRMSD -1
REMARK  0 active torsions:
REMARK  status: ('A' for Active; 'I' for Inactive)
ROOT
ATOM      1  C   UNL d   1      -2.246  -2.543   1.614  0.00  0.00     0.023 A 
ATOM      2  C1  UNL d   1      -0.857  -2.432   1.537  0.00  0.00     0.003 A 
ATOM      3  C2  UNL d   1      -0.275  -1.578   0.599  0.00  0.00     0.048 A 
ATOM      4  C3  UNL d   1      -1.086  -0.836  -0.259  0.00  0.00     0.023 A 
ATOM      5  C4  UNL d   1      -2.476  -0.942  -0.185  0.00  0.00     0.048 A 
ATOM      6  C5  UNL d   1      -3.054  -1.799   0.754  0.00  0.00     0.003 A 
ATOM      7  I   UNL d   1      -0.221   0.437  -1.656  0.00  0.00    -0.146 I 
ENDROOT
TORSDOF 0
ENDMDL
