MODEL 1
REMARK minimizedAffinity -4.93014812
REMARK minimizedRMSD -1
REMARK  0 active torsions:
REMARK  status: ('A' for Active; 'I' for Inactive)
ROOT
ATOM      1  C   UNL d   1      -3.115  -2.034   0.503  0.00  0.00     0.023 A 
ATOM      2  C1  UNL d   1      -2.985  -0.855  -0.232  0.00  0.00     0.003 A 
ATOM      3  C2  UNL d   1      -1.753  -0.202  -0.295  0.00  0.00     0.048 A 
ATOM      4  C3  UNL d   1      -0.653  -0.734   0.379  0.00  0.00     0.023 A 
ATOM      5  C4  UNL d   1      -0.778  -1.913   1.115  0.00  0.00     0.048 A 
ATOM      6  C5  UNL d   1      -2.013  -2.562   1.176  0.00  0.00     0.003 A 
ATOM      7  I   UNL d   1       1.182   0.236   0.287  0.00  0.00    -0.146 I 
ENDROOT
TORSDOF 0
ENDMDL
