MODEL 1
REMARK minimizedAffinity -3.47761917
REMARK minimizedRMSD -1
REMARK  0 active torsions:
REMARK  status: ('A' for Active; 'I' for Inactive)
ROOT
ATOM      1  C   UNL d   1      -3.059  -1.599  -0.070  0.00  0.00     0.023 A 
ATOM      2  C1  UNL d   1      -2.229  -2.149   0.907  0.00  0.00     0.003 A 
ATOM      3  C2  UNL d   1      -0.957  -1.616   1.124  0.00  0.00     0.048 A 
ATOM      4  C3  UNL d   1      -0.521  -0.533   0.362  0.00  0.00     0.023 A 
ATOM      5  C4  UNL d   1      -1.349   0.021  -0.616  0.00  0.00     0.048 A 
ATOM      6  C5  UNL d   1      -2.620  -0.515  -0.830  0.00  0.00     0.003 A 
ATOM      7  I   UNL d   1       1.372   0.262   0.683  0.00  0.00    -0.146 I 
ENDROOT
TORSDOF 0
ENDMDL
