MODEL 1
REMARK minimizedAffinity -5.4434433
REMARK minimizedRMSD -1
REMARK  0 active torsions:
REMARK  status: ('A' for Active; 'I' for Inactive)
ROOT
ATOM      1  C   UNL d   1      -3.322  -1.701   0.711  0.00  0.00     0.023 A 
ATOM      2  C1  UNL d   1      -3.147  -0.603  -0.132  0.00  0.00     0.003 A 
ATOM      3  C2  UNL d   1      -1.898   0.015  -0.223  0.00  0.00     0.048 A 
ATOM      4  C3  UNL d   1      -0.829  -0.470   0.530  0.00  0.00     0.023 A 
ATOM      5  C4  UNL d   1      -1.000  -1.569   1.373  0.00  0.00     0.048 A 
ATOM      6  C5  UNL d   1      -2.251  -2.183   1.462  0.00  0.00     0.003 A 
ATOM      7  I   UNL d   1       1.030   0.449   0.395  0.00  0.00    -0.146 I 
ENDROOT
TORSDOF 0
ENDMDL
