MODEL 1
REMARK minimizedAffinity -5.54799223
REMARK minimizedRMSD -1
REMARK  0 active torsions:
REMARK  status: ('A' for Active; 'I' for Inactive)
ROOT
ATOM      1  C   UNL d   1      -3.263  -1.733   0.306  0.00  0.00     0.023 A 
ATOM      2  C1  UNL d   1      -2.194  -2.351   0.956  0.00  0.00     0.003 A 
ATOM      3  C2  UNL d   1      -0.933  -1.749   0.956  0.00  0.00     0.048 A 
ATOM      4  C3  UNL d   1      -0.749  -0.530   0.305  0.00  0.00     0.023 A 
ATOM      5  C4  UNL d   1      -1.816   0.092  -0.346  0.00  0.00     0.048 A 
ATOM      6  C5  UNL d   1      -3.074  -0.514  -0.345  0.00  0.00     0.003 A 
ATOM      7  I   UNL d   1       1.126   0.367   0.303  0.00  0.00    -0.146 I 
ENDROOT
TORSDOF 0
ENDMDL
