MODEL 1
REMARK minimizedAffinity -5.32333326
REMARK minimizedRMSD -1
REMARK  0 active torsions:
REMARK  status: ('A' for Active; 'I' for Inactive)
ROOT
ATOM      1  C   UNL d   1      -3.181  -1.976   0.952  0.00  0.00     0.023 A 
ATOM      2  C1  UNL d   1      -2.021  -2.350   1.632  0.00  0.00     0.003 A 
ATOM      3  C2  UNL d   1      -0.831  -1.650   1.423  0.00  0.00     0.048 A 
ATOM      4  C3  UNL d   1      -0.808  -0.576   0.533  0.00  0.00     0.023 A 
ATOM      5  C4  UNL d   1      -1.965  -0.198  -0.149  0.00  0.00     0.048 A 
ATOM      6  C5  UNL d   1      -3.153  -0.902   0.063  0.00  0.00     0.003 A 
ATOM      7  I   UNL d   1       0.962   0.467   0.220  0.00  0.00    -0.146 I 
ENDROOT
TORSDOF 0
ENDMDL
