MODEL 1
REMARK minimizedAffinity -3.18528724
REMARK minimizedRMSD -1
REMARK  0 active torsions:
REMARK  status: ('A' for Active; 'I' for Inactive)
ROOT
ATOM      1  C   UNL d   1      -2.624  -0.412  -0.770  0.00  0.00     0.023 A 
ATOM      2  C1  UNL d   1      -1.870   0.440  -1.576  0.00  0.00     0.003 A 
ATOM      3  C2  UNL d   1      -0.549   0.738  -1.236  0.00  0.00     0.048 A 
ATOM      4  C3  UNL d   1       0.012   0.180  -0.088  0.00  0.00     0.023 A 
ATOM      5  C4  UNL d   1      -0.739  -0.675   0.722  0.00  0.00     0.048 A 
ATOM      6  C5  UNL d   1      -2.059  -0.969   0.378  0.00  0.00     0.003 A 
ATOM      7  I   UNL d   1       1.978   0.621   0.422  0.00  0.00    -0.146 I 
ENDROOT
TORSDOF 0
ENDMDL
