MODEL 1
REMARK minimizedAffinity -5.51864052
REMARK minimizedRMSD -1
REMARK  0 active torsions:
REMARK  status: ('A' for Active; 'I' for Inactive)
ROOT
ATOM      1  C   UNL d   1      -3.338  -1.434   0.121  0.00  0.00     0.023 A 
ATOM      2  C1  UNL d   1      -2.923  -0.400  -0.718  0.00  0.00     0.003 A 
ATOM      3  C2  UNL d   1      -1.589   0.014  -0.711  0.00  0.00     0.048 A 
ATOM      4  C3  UNL d   1      -0.675  -0.612   0.136  0.00  0.00     0.023 A 
ATOM      5  C4  UNL d   1      -1.086  -1.648   0.977  0.00  0.00     0.048 A 
ATOM      6  C5  UNL d   1      -2.421  -2.058   0.967  0.00  0.00     0.003 A 
ATOM      7  I   UNL d   1       1.310   0.002   0.148  0.00  0.00    -0.146 I 
ENDROOT
TORSDOF 0
ENDMDL
