MODEL 1
REMARK minimizedAffinity -4.58390045
REMARK minimizedRMSD -1
REMARK  0 active torsions:
REMARK  status: ('A' for Active; 'I' for Inactive)
ROOT
ATOM      1  C   UNL d   1      -3.169  -1.437  -0.390  0.00  0.00     0.023 A 
ATOM      2  C1  UNL d   1      -2.474  -0.876  -1.462  0.00  0.00     0.003 A 
ATOM      3  C2  UNL d   1      -1.215  -0.309  -1.259  0.00  0.00     0.048 A 
ATOM      4  C3  UNL d   1      -0.655  -0.308   0.018  0.00  0.00     0.023 A 
ATOM      5  C4  UNL d   1      -1.345  -0.869   1.094  0.00  0.00     0.048 A 
ATOM      6  C5  UNL d   1      -2.605  -1.434   0.886  0.00  0.00     0.003 A 
ATOM      7  I   UNL d   1       1.221   0.535   0.323  0.00  0.00    -0.146 I 
ENDROOT
TORSDOF 0
ENDMDL
