MODEL 1
REMARK minimizedAffinity 6.55693007
REMARK minimizedRMSD -1
REMARK  3 active torsions:
REMARK  status: ('A' for Active; 'I' for Inactive)
REMARK    1  A    between atoms: C3'_2  and  C2'_3 
REMARK    2  A    between atoms: C2'_3  and  C1'_4 
REMARK    3  A    between atoms: C1'_4  and  C1_5 
ROOT
ATOM      1  C1  N4B d   1       5.690   3.462   4.066  0.00  0.00    -0.075 A 
ATOM      2  C2  N4B d   1       5.781   3.532   2.659  0.00  0.00     0.002 A 
ATOM      3  C3  N4B d   1       5.933   4.748   2.040  0.00  0.00     0.002 A 
ATOM      4  C4  N4B d   1       5.977   5.905   2.803  0.00  0.00    -0.004 A 
ATOM      5  C5  N4B d   1       5.914   5.827   4.164  0.00  0.00     0.002 A 
ATOM      6  C6  N4B d   1       5.765   4.611   4.799  0.00  0.00     0.002 A 
ENDROOT
BRANCH   1   7
ATOM      7  C1' N4B d   1       5.437   2.163   4.782  0.00  0.00     0.057 C 
BRANCH   7   8
ATOM      8  C2' N4B d   1       4.009   2.158   5.321  0.00  0.00     0.009 C 
BRANCH   8   9
ATOM      9  C3' N4B d   1       3.023   2.742   4.323  0.00  0.00     0.004 C 
ATOM     10  C4' N4B d   1       2.233   1.689   3.604  0.00  0.00     0.003 C 
ENDBRANCH   8   9
ENDBRANCH   7   8
ENDBRANCH   1   7
TORSDOF 3
ENDMDL
