MODEL 1
REMARK minimizedAffinity 14.3575687
REMARK minimizedRMSD -1
REMARK  3 active torsions:
REMARK  status: ('A' for Active; 'I' for Inactive)
REMARK    1  A    between atoms: C3'_2  and  C2'_3 
REMARK    2  A    between atoms: C2'_3  and  C1'_4 
REMARK    3  A    between atoms: C1'_4  and  C1_5 
ROOT
ATOM      1  C1  N4B d   1       3.286   2.719   2.081  0.00  0.00    -0.075 A 
ATOM      2  C2  N4B d   1       2.714   2.651   0.791  0.00  0.00     0.002 A 
ATOM      3  C3  N4B d   1       1.350   2.705   0.641  0.00  0.00     0.002 A 
ATOM      4  C4  N4B d   1       0.541   2.809   1.762  0.00  0.00    -0.004 A 
ATOM      5  C5  N4B d   1       1.102   2.901   3.002  0.00  0.00     0.002 A 
ATOM      6  C6  N4B d   1       2.471   2.851   3.168  0.00  0.00     0.002 A 
ENDROOT
BRANCH   1   7
ATOM      7  C1' N4B d   1       4.767   2.577   2.301  0.00  0.00     0.057 C 
BRANCH   7   8
ATOM      8  C2' N4B d   1       5.398   3.965   2.378  0.00  0.00     0.009 C 
BRANCH   8   9
ATOM      9  C3' N4B d   1       5.980   4.249   3.752  0.00  0.00     0.004 C 
ATOM     10  C4' N4B d   1       5.995   5.711   4.085  0.00  0.00     0.003 C 
ENDBRANCH   8   9
ENDBRANCH   7   8
ENDBRANCH   1   7
TORSDOF 3
ENDMDL
