MODEL 1
REMARK minimizedAffinity 4.66151762
REMARK minimizedRMSD -1
REMARK  3 active torsions:
REMARK  status: ('A' for Active; 'I' for Inactive)
REMARK    1  A    between atoms: C3'_2  and  C2'_3 
REMARK    2  A    between atoms: C2'_3  and  C1'_4 
REMARK    3  A    between atoms: C1'_4  and  C1_5 
ROOT
ATOM      1  C1  N4B d   1       0.831   0.479   0.284  0.00  0.00    -0.075 A 
ATOM      2  C2  N4B d   1      -0.060  -0.310  -0.476  0.00  0.00     0.002 A 
ATOM      3  C3  N4B d   1       0.417  -1.090  -1.500  0.00  0.00     0.002 A 
ATOM      4  C4  N4B d   1       1.772  -1.084  -1.794  0.00  0.00    -0.004 A 
ATOM      5  C5  N4B d   1       2.630  -0.338  -1.038  0.00  0.00     0.002 A 
ATOM      6  C6  N4B d   1       2.165   0.448  -0.003  0.00  0.00     0.002 A 
ENDROOT
BRANCH   1   7
ATOM      7  C1' N4B d   1       0.346   1.415   1.358  0.00  0.00     0.057 C 
BRANCH   7   8
ATOM      8  C2' N4B d   1       1.188   2.686   1.333  0.00  0.00     0.009 C 
BRANCH   8   9
ATOM      9  C3' N4B d   1       0.836   3.624   2.475  0.00  0.00     0.004 C 
ATOM     10  C4' N4B d   1       1.903   3.686   3.526  0.00  0.00     0.003 C 
ENDBRANCH   8   9
ENDBRANCH   7   8
ENDBRANCH   1   7
TORSDOF 3
ENDMDL
