MODEL 1
REMARK minimizedAffinity 6.21335363
REMARK minimizedRMSD -1
REMARK  3 active torsions:
REMARK  status: ('A' for Active; 'I' for Inactive)
REMARK    1  A    between atoms: C3'_2  and  C2'_3 
REMARK    2  A    between atoms: C2'_3  and  C1'_4 
REMARK    3  A    between atoms: C1'_4  and  C1_5 
ROOT
ATOM      1  C1  N4B d   1       5.262   3.972   3.677  0.00  0.00    -0.075 A 
ATOM      2  C2  N4B d   1       3.898   3.791   3.996  0.00  0.00     0.002 A 
ATOM      3  C3  N4B d   1       3.286   4.629   4.895  0.00  0.00     0.002 A 
ATOM      4  C4  N4B d   1       4.018   5.640   5.499  0.00  0.00    -0.004 A 
ATOM      5  C5  N4B d   1       5.328   5.824   5.166  0.00  0.00     0.002 A 
ATOM      6  C6  N4B d   1       5.956   4.992   4.262  0.00  0.00     0.002 A 
ENDROOT
BRANCH   1   7
ATOM      7  C1' N4B d   1       5.996   3.027   2.766  0.00  0.00     0.057 C 
BRANCH   7   8
ATOM      8  C2' N4B d   1       5.952   1.623   3.359  0.00  0.00     0.009 C 
BRANCH   8   9
ATOM      9  C3' N4B d   1       6.000   1.646   4.878  0.00  0.00     0.004 C 
ATOM     10  C4' N4B d   1       5.940   0.274   5.481  0.00  0.00     0.003 C 
ENDBRANCH   8   9
ENDBRANCH   7   8
ENDBRANCH   1   7
TORSDOF 3
ENDMDL
