MODEL 1
REMARK minimizedAffinity -0.183290109
REMARK minimizedRMSD -1
REMARK  3 active torsions:
REMARK  status: ('A' for Active; 'I' for Inactive)
REMARK    1  A    between atoms: C3'_2  and  C2'_3 
REMARK    2  A    between atoms: C2'_3  and  C1'_4 
REMARK    3  A    between atoms: C1'_4  and  C1_5 
ROOT
ATOM      1  C1  N4B d   1       1.209   0.662   0.679  0.00  0.00    -0.075 A 
ATOM      2  C2  N4B d   1       0.568  -0.430   0.055  0.00  0.00     0.002 A 
ATOM      3  C3  N4B d   1       1.218  -1.139  -0.926  0.00  0.00     0.002 A 
ATOM      4  C4  N4B d   1       2.496  -0.763  -1.310  0.00  0.00    -0.004 A 
ATOM      5  C5  N4B d   1       3.118   0.277  -0.684  0.00  0.00     0.002 A 
ATOM      6  C6  N4B d   1       2.479   0.995   0.306  0.00  0.00     0.002 A 
ENDROOT
BRANCH   1   7
ATOM      7  C1' N4B d   1       0.507   1.520   1.696  0.00  0.00     0.057 C 
BRANCH   7   8
ATOM      8  C2' N4B d   1       0.699   2.989   1.330  0.00  0.00     0.009 C 
BRANCH   8   9
ATOM      9  C3' N4B d   1      -0.239   3.895   2.110  0.00  0.00     0.004 C 
ATOM     10  C4' N4B d   1      -1.546   4.117   1.410  0.00  0.00     0.003 C 
ENDBRANCH   8   9
ENDBRANCH   7   8
ENDBRANCH   1   7
TORSDOF 3
ENDMDL
