MODEL 1
REMARK minimizedAffinity 2.35258794
REMARK minimizedRMSD -1
REMARK  3 active torsions:
REMARK  status: ('A' for Active; 'I' for Inactive)
REMARK    1  A    between atoms: C3'_2  and  C2'_3 
REMARK    2  A    between atoms: C2'_3  and  C1'_4 
REMARK    3  A    between atoms: C1'_4  and  C1_5 
ROOT
ATOM      1  C1  N4B d   1      -1.471  -2.538   0.016  0.00  0.00    -0.075 A 
ATOM      2  C2  N4B d   1      -2.844  -2.835  -0.131  0.00  0.00     0.002 A 
ATOM      3  C3  N4B d   1      -3.313  -4.087   0.181  0.00  0.00     0.002 A 
ATOM      4  C4  N4B d   1      -2.429  -5.060   0.622  0.00  0.00    -0.004 A 
ATOM      5  C5  N4B d   1      -1.109  -4.758   0.786  0.00  0.00     0.002 A 
ATOM      6  C6  N4B d   1      -0.624  -3.502   0.480  0.00  0.00     0.002 A 
ENDROOT
BRANCH   1   7
ATOM      7  C1' N4B d   1      -0.898  -1.209  -0.394  0.00  0.00     0.057 C 
BRANCH   7   8
ATOM      8  C2' N4B d   1      -0.554  -0.405   0.856  0.00  0.00     0.009 C 
BRANCH   8   9
ATOM      9  C3' N4B d   1      -0.350   1.068   0.545  0.00  0.00     0.004 C 
ATOM     10  C4' N4B d   1       0.745   1.688   1.362  0.00  0.00     0.003 C 
ENDBRANCH   8   9
ENDBRANCH   7   8
ENDBRANCH   1   7
TORSDOF 3
ENDMDL
