MODEL 1
REMARK minimizedAffinity 9.70942688
REMARK minimizedRMSD -1
REMARK  3 active torsions:
REMARK  status: ('A' for Active; 'I' for Inactive)
REMARK    1  A    between atoms: C3'_2  and  C2'_3 
REMARK    2  A    between atoms: C2'_3  and  C1'_4 
REMARK    3  A    between atoms: C1'_4  and  C1_5 
ROOT
ATOM      1  C1  N4B d   1       3.419   4.093   3.270  0.00  0.00    -0.075 A 
ATOM      2  C2  N4B d   1       4.424   4.048   2.279  0.00  0.00     0.002 A 
ATOM      3  C3  N4B d   1       5.705   4.440   2.582  0.00  0.00     0.002 A 
ATOM      4  C4  N4B d   1       5.999   4.896   3.858  0.00  0.00    -0.004 A 
ATOM      5  C5  N4B d   1       5.028   4.913   4.817  0.00  0.00     0.002 A 
ATOM      6  C6  N4B d   1       3.737   4.518   4.527  0.00  0.00     0.002 A 
ENDROOT
BRANCH   1   7
ATOM      7  C1' N4B d   1       1.985   3.756   2.963  0.00  0.00     0.057 C 
BRANCH   7   8
ATOM      8  C2' N4B d   1       1.873   3.329   1.502  0.00  0.00     0.009 C 
BRANCH   8   9
ATOM      9  C3' N4B d   1       0.456   2.924   1.136  0.00  0.00     0.004 C 
ATOM     10  C4' N4B d   1       0.248   1.439   1.175  0.00  0.00     0.003 C 
ENDBRANCH   8   9
ENDBRANCH   7   8
ENDBRANCH   1   7
TORSDOF 3
ENDMDL
