MODEL 1
REMARK minimizedAffinity 7.45039845
REMARK minimizedRMSD -1
REMARK  3 active torsions:
REMARK  status: ('A' for Active; 'I' for Inactive)
REMARK    1  A    between atoms: C3'_2  and  C2'_3 
REMARK    2  A    between atoms: C2'_3  and  C1'_4 
REMARK    3  A    between atoms: C1'_4  and  C1_5 
ROOT
ATOM      1  C1  N4B d   1       2.532  -5.491   2.728  0.00  0.00    -0.075 A 
ATOM      2  C2  N4B d   1       2.644  -4.560   3.784  0.00  0.00     0.002 A 
ATOM      3  C3  N4B d   1       3.884  -4.182   4.237  0.00  0.00     0.002 A 
ATOM      4  C4  N4B d   1       5.021  -4.734   3.665  0.00  0.00    -0.004 A 
ATOM      5  C5  N4B d   1       4.904  -5.614   2.628  0.00  0.00     0.002 A 
ATOM      6  C6  N4B d   1       3.664  -5.999   2.160  0.00  0.00     0.002 A 
ENDROOT
BRANCH   1   7
ATOM      7  C1' N4B d   1       1.197  -6.000   2.256  0.00  0.00     0.057 C 
BRANCH   7   8
ATOM      8  C2' N4B d   1       0.454  -4.872   1.546  0.00  0.00     0.009 C 
BRANCH   8   9
ATOM      9  C3' N4B d   1      -0.968  -5.267   1.186  0.00  0.00     0.004 C 
ATOM     10  C4' N4B d   1      -1.804  -4.098   0.758  0.00  0.00     0.003 C 
ENDBRANCH   8   9
ENDBRANCH   7   8
ENDBRANCH   1   7
TORSDOF 3
ENDMDL
