MODEL 1
REMARK minimizedAffinity 5.84850597
REMARK minimizedRMSD -1
REMARK  3 active torsions:
REMARK  status: ('A' for Active; 'I' for Inactive)
REMARK    1  A    between atoms: C3'_2  and  C2'_3 
REMARK    2  A    between atoms: C2'_3  and  C1'_4 
REMARK    3  A    between atoms: C1'_4  and  C1_5 
ROOT
ATOM      1  C1  N4B d   1       3.885   3.398  -1.081  0.00  0.00    -0.075 A 
ATOM      2  C2  N4B d   1       3.563   4.758  -1.283  0.00  0.00     0.002 A 
ATOM      3  C3  N4B d   1       4.394   5.557  -2.030  0.00  0.00     0.002 A 
ATOM      4  C4  N4B d   1       5.556   5.025  -2.567  0.00  0.00    -0.004 A 
ATOM      5  C5  N4B d   1       5.847   3.704  -2.389  0.00  0.00     0.002 A 
ATOM      6  C6  N4B d   1       5.020   2.889  -1.643  0.00  0.00     0.002 A 
ENDROOT
BRANCH   1   7
ATOM      7  C1' N4B d   1       3.053   2.507  -0.200  0.00  0.00     0.057 C 
BRANCH   7   8
ATOM      8  C2' N4B d   1       2.737   1.216  -0.949  0.00  0.00     0.009 C 
BRANCH   8   9
ATOM      9  C3' N4B d   1       3.198  -0.012  -0.184  0.00  0.00     0.004 C 
ATOM     10  C4' N4B d   1       3.323   0.235   1.290  0.00  0.00     0.003 C 
ENDBRANCH   8   9
ENDBRANCH   7   8
ENDBRANCH   1   7
TORSDOF 3
ENDMDL
