MODEL 1
REMARK minimizedAffinity 10.9400625
REMARK minimizedRMSD -1
REMARK  3 active torsions:
REMARK  status: ('A' for Active; 'I' for Inactive)
REMARK    1  A    between atoms: C3'_2  and  C2'_3 
REMARK    2  A    between atoms: C2'_3  and  C1'_4 
REMARK    3  A    between atoms: C1'_4  and  C1_5 
ROOT
ATOM      1  C1  N4B d   1      -0.161  -5.159   1.682  0.00  0.00    -0.075 A 
ATOM      2  C2  N4B d   1      -1.527  -5.452   1.890  0.00  0.00     0.002 A 
ATOM      3  C3  N4B d   1      -2.493  -4.623   1.376  0.00  0.00     0.002 A 
ATOM      4  C4  N4B d   1      -2.119  -3.489   0.670  0.00  0.00    -0.004 A 
ATOM      5  C5  N4B d   1      -0.798  -3.226   0.453  0.00  0.00     0.002 A 
ATOM      6  C6  N4B d   1       0.183  -4.054   0.960  0.00  0.00     0.002 A 
ENDROOT
BRANCH   1   7
ATOM      7  C1' N4B d   1       0.932  -5.989   2.298  0.00  0.00     0.057 C 
BRANCH   7   8
ATOM      8  C2' N4B d   1       2.235  -5.737   1.547  0.00  0.00     0.009 C 
BRANCH   8   9
ATOM      9  C3' N4B d   1       3.447  -5.862   2.454  0.00  0.00     0.004 C 
ATOM     10  C4' N4B d   1       3.078  -5.995   3.902  0.00  0.00     0.003 C 
ENDBRANCH   8   9
ENDBRANCH   7   8
ENDBRANCH   1   7
TORSDOF 3
ENDMDL
