MODEL 1
REMARK minimizedAffinity -2.61256886
REMARK minimizedRMSD -1
REMARK  1 active torsions:
REMARK  status: ('A' for Active; 'I' for Inactive)
REMARK    1  A    between atoms: N_2  and  C1_3 
ROOT
ATOM      1  C1  UNL d   1       0.390   3.799  -5.924  0.00  0.00     0.143 A 
ATOM      2  C2  UNL d   1      -0.092   5.111  -5.977  0.00  0.00    -0.057 A 
ATOM      3  C3  UNL d   1      -1.466   5.380  -5.999  0.00  0.00     0.033 A 
ATOM      4  C4  UNL d   1      -2.385   4.336  -5.999  0.00  0.00    -0.042 A 
ATOM      5  C5  UNL d   1      -1.928   3.023  -5.973  0.00  0.00     0.033 A 
ATOM      6  C6  UNL d   1      -0.555   2.761  -5.944  0.00  0.00    -0.057 A 
ENDROOT
BRANCH   1   7
ATOM      7  N   UNL d   1       1.744   3.464  -6.000  0.00  0.00    -0.732 N 
ATOM      8  C   UNL d   1       2.760   4.495  -5.996  0.00  0.00     0.284 C 
ATOM      9  H3  UNL d   1       1.975   2.651  -5.433  0.00  0.00     0.395 HD
ENDBRANCH   1   7
TORSDOF 1
ENDMDL
