MODEL 1
REMARK minimizedAffinity -1.99590683
REMARK minimizedRMSD -1
REMARK  1 active torsions:
REMARK  status: ('A' for Active; 'I' for Inactive)
REMARK    1  A    between atoms: N_2  and  C1_3 
ROOT
ATOM      1  C1  UNL d   1      -1.389   4.777  -5.657  0.00  0.00     0.143 A 
ATOM      2  C2  UNL d   1       0.001   4.941  -5.641  0.00  0.00    -0.057 A 
ATOM      3  C3  UNL d   1       0.863   3.853  -5.825  0.00  0.00     0.033 A 
ATOM      4  C4  UNL d   1       0.348   2.572  -5.999  0.00  0.00    -0.042 A 
ATOM      5  C5  UNL d   1      -1.029   2.382  -5.993  0.00  0.00     0.033 A 
ATOM      6  C6  UNL d   1      -1.884   3.473  -5.816  0.00  0.00    -0.057 A 
ENDROOT
BRANCH   1   7
ATOM      7  N   UNL d   1      -2.296   5.802  -5.382  0.00  0.00    -0.732 N 
ATOM      8  C   UNL d   1      -2.801   6.000  -4.040  0.00  0.00     0.284 C 
ATOM      9  H3  UNL d   1      -2.068   6.665  -5.871  0.00  0.00     0.395 HD
ENDBRANCH   1   7
TORSDOF 1
ENDMDL
