MODEL 1
REMARK minimizedAffinity -0.686772466
REMARK minimizedRMSD -1
REMARK  1 active torsions:
REMARK  status: ('A' for Active; 'I' for Inactive)
REMARK    1  A    between atoms: N_2  and  C1_3 
ROOT
ATOM      1  C1  UNL d   1      -0.445   3.190  -5.996  0.00  0.00     0.143 A 
ATOM      2  C2  UNL d   1      -1.838   3.063  -5.981  0.00  0.00    -0.057 A 
ATOM      3  C3  UNL d   1      -2.671   4.188  -5.997  0.00  0.00     0.033 A 
ATOM      4  C4  UNL d   1      -2.123   5.466  -6.000  0.00  0.00    -0.042 A 
ATOM      5  C5  UNL d   1      -0.741   5.618  -5.990  0.00  0.00     0.033 A 
ATOM      6  C6  UNL d   1       0.086   4.490  -5.980  0.00  0.00    -0.057 A 
ENDROOT
BRANCH   1   7
ATOM      7  N   UNL d   1       0.436   2.113  -5.882  0.00  0.00    -0.732 N 
ATOM      8  C   UNL d   1       1.865   2.316  -5.979  0.00  0.00     0.284 C 
ATOM      9  H3  UNL d   1       0.158   1.459  -5.153  0.00  0.00     0.395 HD
ENDBRANCH   1   7
TORSDOF 1
ENDMDL
