MODEL 1
REMARK minimizedAffinity 2.21471262
REMARK minimizedRMSD -1
REMARK  1 active torsions:
REMARK  status: ('A' for Active; 'I' for Inactive)
REMARK    1  A    between atoms: N_2  and  C1_3 
ROOT
ATOM      1  C1  UNL d   1       0.529   3.564  -5.930  0.00  0.00     0.143 A 
ATOM      2  C2  UNL d   1      -0.586   2.721  -5.980  0.00  0.00    -0.057 A 
ATOM      3  C3  UNL d   1      -1.887   3.232  -5.896  0.00  0.00     0.033 A 
ATOM      4  C4  UNL d   1      -2.095   4.598  -5.731  0.00  0.00    -0.042 A 
ATOM      5  C5  UNL d   1      -1.001   5.452  -5.653  0.00  0.00     0.033 A 
ATOM      6  C6  UNL d   1       0.296   4.936  -5.744  0.00  0.00    -0.057 A 
ENDROOT
BRANCH   1   7
ATOM      7  N   UNL d   1       1.849   3.107  -5.909  0.00  0.00    -0.732 N 
ATOM      8  C   UNL d   1       2.953   4.039  -5.995  0.00  0.00     0.284 C 
ATOM      9  H3  UNL d   1       1.990   2.357  -5.236  0.00  0.00     0.395 HD
ENDBRANCH   1   7
TORSDOF 1
ENDMDL
