MODEL 1
REMARK minimizedAffinity -2.85990405
REMARK minimizedRMSD -1
REMARK  1 active torsions:
REMARK  status: ('A' for Active; 'I' for Inactive)
REMARK    1  A    between atoms: N_2  and  C1_3 
ROOT
ATOM      1  C1  UNL d   1      -0.975   4.616  -5.985  0.00  0.00     0.143 A 
ATOM      2  C2  UNL d   1      -1.497   3.318  -5.968  0.00  0.00    -0.057 A 
ATOM      3  C3  UNL d   1      -2.878   3.090  -5.989  0.00  0.00     0.033 A 
ATOM      4  C4  UNL d   1      -3.766   4.161  -6.000  0.00  0.00    -0.042 A 
ATOM      5  C5  UNL d   1      -3.270   5.460  -5.992  0.00  0.00     0.033 A 
ATOM      6  C6  UNL d   1      -1.890   5.681  -5.977  0.00  0.00    -0.057 A 
ENDROOT
BRANCH   1   7
ATOM      7  N   UNL d   1       0.385   4.910  -5.866  0.00  0.00    -0.732 N 
ATOM      8  C   UNL d   1       1.378   3.863  -5.982  0.00  0.00     0.284 C 
ATOM      9  H3  UNL d   1       0.638   5.777  -6.334  0.00  0.00     0.395 HD
ENDBRANCH   1   7
TORSDOF 1
ENDMDL
