MODEL 1
REMARK minimizedAffinity -1.21185517
REMARK minimizedRMSD -1
REMARK  1 active torsions:
REMARK  status: ('A' for Active; 'I' for Inactive)
REMARK    1  A    between atoms: N_2  and  C1_3 
ROOT
ATOM      1  C1  UNL d   1       0.026   4.350  -5.919  0.00  0.00     0.143 A 
ATOM      2  C2  UNL d   1      -1.143   5.118  -5.932  0.00  0.00    -0.057 A 
ATOM      3  C3  UNL d   1      -2.407   4.516  -5.951  0.00  0.00     0.033 A 
ATOM      4  C4  UNL d   1      -2.524   3.130  -5.987  0.00  0.00    -0.042 A 
ATOM      5  C5  UNL d   1      -1.375   2.347  -6.000  0.00  0.00     0.033 A 
ATOM      6  C6  UNL d   1      -0.115   2.954  -5.974  0.00  0.00    -0.057 A 
ENDROOT
BRANCH   1   7
ATOM      7  N   UNL d   1       1.312   4.889  -6.000  0.00  0.00    -0.732 N 
ATOM      8  C   UNL d   1       2.475   4.027  -6.000  0.00  0.00     0.284 C 
ATOM      9  H3  UNL d   1       1.368   5.663  -6.659  0.00  0.00     0.395 HD
ENDBRANCH   1   7
TORSDOF 1
ENDMDL
