MODEL 1
REMARK minimizedAffinity 5.50786257
REMARK minimizedRMSD -1
REMARK  1 active torsions:
REMARK  status: ('A' for Active; 'I' for Inactive)
REMARK    1  A    between atoms: N_2  and  C1_3 
ROOT
ATOM      1  C1  UNL d   1      -1.460  -3.980  -2.454  0.00  0.00     0.143 A 
ATOM      2  C2  UNL d   1      -2.476  -4.938  -2.552  0.00  0.00    -0.057 A 
ATOM      3  C3  UNL d   1      -3.333  -5.199  -1.476  0.00  0.00     0.033 A 
ATOM      4  C4  UNL d   1      -3.171  -4.525  -0.270  0.00  0.00    -0.042 A 
ATOM      5  C5  UNL d   1      -2.152  -3.588  -0.142  0.00  0.00     0.033 A 
ATOM      6  C6  UNL d   1      -1.303  -3.327  -1.222  0.00  0.00    -0.057 A 
ENDROOT
BRANCH   1   7
ATOM      7  N   UNL d   1      -0.514  -3.746  -3.455  0.00  0.00    -0.732 N 
ATOM      8  C   UNL d   1       0.897  -3.703  -3.139  0.00  0.00     0.284 C 
ATOM      9  H3  UNL d   1      -0.732  -4.238  -4.319  0.00  0.00     0.395 HD
ENDBRANCH   1   7
TORSDOF 1
ENDMDL
