MODEL 1
REMARK minimizedAffinity -1.27494216
REMARK minimizedRMSD -1
REMARK  1 active torsions:
REMARK  status: ('A' for Active; 'I' for Inactive)
REMARK    1  A    between atoms: N_2  and  C1_3 
ROOT
ATOM      1  C1  UNL d   1      -0.796   4.545  -6.000  0.00  0.00     0.143 A 
ATOM      2  C2  UNL d   1      -1.227   3.214  -5.985  0.00  0.00    -0.057 A 
ATOM      3  C3  UNL d   1      -2.590   2.892  -5.994  0.00  0.00     0.033 A 
ATOM      4  C4  UNL d   1      -3.549   3.899  -5.989  0.00  0.00    -0.042 A 
ATOM      5  C5  UNL d   1      -3.143   5.229  -5.979  0.00  0.00     0.033 A 
ATOM      6  C6  UNL d   1      -1.781   5.544  -5.976  0.00  0.00    -0.057 A 
ENDROOT
BRANCH   1   7
ATOM      7  N   UNL d   1       0.543   4.930  -5.892  0.00  0.00    -0.732 N 
ATOM      8  C   UNL d   1       1.602   3.947  -5.976  0.00  0.00     0.284 C 
ATOM      9  H3  UNL d   1       0.739   5.796  -6.388  0.00  0.00     0.395 HD
ENDBRANCH   1   7
TORSDOF 1
ENDMDL
