MODEL 1
REMARK minimizedAffinity -2.41991854
REMARK minimizedRMSD -1
REMARK  1 active torsions:
REMARK  status: ('A' for Active; 'I' for Inactive)
REMARK    1  A    between atoms: N_2  and  C1_3 
ROOT
ATOM      1  C1  UNL d   1      -1.843   4.153  -5.957  0.00  0.00     0.143 A 
ATOM      2  C2  UNL d   1      -2.911   3.272  -5.759  0.00  0.00    -0.057 A 
ATOM      3  C3  UNL d   1      -4.227   3.739  -5.655  0.00  0.00     0.033 A 
ATOM      4  C4  UNL d   1      -4.495   5.102  -5.718  0.00  0.00    -0.042 A 
ATOM      5  C5  UNL d   1      -3.446   5.998  -5.889  0.00  0.00     0.033 A 
ATOM      6  C6  UNL d   1      -2.135   5.525  -5.999  0.00  0.00    -0.057 A 
ENDROOT
BRANCH   1   7
ATOM      7  N   UNL d   1      -0.502   3.760  -5.970  0.00  0.00    -0.732 N 
ATOM      8  C   UNL d   1       0.556   4.747  -5.998  0.00  0.00     0.284 C 
ATOM      9  H3  UNL d   1      -0.322   2.975  -5.348  0.00  0.00     0.395 HD
ENDBRANCH   1   7
TORSDOF 1
ENDMDL
