MODEL 1
REMARK minimizedAffinity -2.39071512
REMARK minimizedRMSD -1
REMARK  1 active torsions:
REMARK  status: ('A' for Active; 'I' for Inactive)
REMARK    1  A    between atoms: N_2  and  C1_3 
ROOT
ATOM      1  C1  UNL d   1      -0.781   3.383  -5.978  0.00  0.00     0.143 A 
ATOM      2  C2  UNL d   1      -2.177   3.294  -5.950  0.00  0.00    -0.057 A 
ATOM      3  C3  UNL d   1      -2.977   4.443  -5.966  0.00  0.00     0.033 A 
ATOM      4  C4  UNL d   1      -2.393   5.705  -5.980  0.00  0.00    -0.042 A 
ATOM      5  C5  UNL d   1      -1.007   5.817  -5.982  0.00  0.00     0.033 A 
ATOM      6  C6  UNL d   1      -0.213   4.667  -5.974  0.00  0.00    -0.057 A 
ENDROOT
BRANCH   1   7
ATOM      7  N   UNL d   1       0.071   2.281  -5.866  0.00  0.00    -0.732 N 
ATOM      8  C   UNL d   1       1.503   2.440  -5.996  0.00  0.00     0.284 C 
ATOM      9  H3  UNL d   1      -0.211   1.647  -5.122  0.00  0.00     0.395 HD
ENDBRANCH   1   7
TORSDOF 1
ENDMDL
