MODEL 1
REMARK minimizedAffinity -1.62523413
REMARK minimizedRMSD -1
REMARK  1 active torsions:
REMARK  status: ('A' for Active; 'I' for Inactive)
REMARK    1  A    between atoms: N_2  and  C1_3 
ROOT
ATOM      1  C1  UNL d   1       0.040   3.702  -5.923  0.00  0.00     0.143 A 
ATOM      2  C2  UNL d   1      -0.483   4.999  -5.948  0.00  0.00    -0.057 A 
ATOM      3  C3  UNL d   1      -1.865   5.225  -5.971  0.00  0.00     0.033 A 
ATOM      4  C4  UNL d   1      -2.750   4.153  -5.999  0.00  0.00    -0.042 A 
ATOM      5  C5  UNL d   1      -2.252   2.855  -6.000  0.00  0.00     0.033 A 
ATOM      6  C6  UNL d   1      -0.872   2.636  -5.970  0.00  0.00    -0.057 A 
ENDROOT
BRANCH   1   7
ATOM      7  N   UNL d   1       1.405   3.412  -5.999  0.00  0.00    -0.732 N 
ATOM      8  C   UNL d   1       2.386   4.476  -6.000  0.00  0.00     0.284 C 
ATOM      9  H3  UNL d   1       1.663   2.608  -5.431  0.00  0.00     0.395 HD
ENDBRANCH   1   7
TORSDOF 1
ENDMDL
