MODEL 1
REMARK minimizedAffinity -2.96000743
REMARK minimizedRMSD -1
REMARK  1 active torsions:
REMARK  status: ('A' for Active; 'I' for Inactive)
REMARK    1  A    between atoms: N_2  and  C1_3 
ROOT
ATOM      1  C1  UNL d   1      -0.560   5.008  -6.000  0.00  0.00     0.143 A 
ATOM      2  C2  UNL d   1      -0.778   3.626  -6.000  0.00  0.00    -0.057 A 
ATOM      3  C3  UNL d   1      -2.074   3.095  -5.979  0.00  0.00     0.033 A 
ATOM      4  C4  UNL d   1      -3.177   3.941  -5.929  0.00  0.00    -0.042 A 
ATOM      5  C5  UNL d   1      -2.983   5.317  -5.903  0.00  0.00     0.033 A 
ATOM      6  C6  UNL d   1      -1.687   5.841  -5.931  0.00  0.00    -0.057 A 
ENDROOT
BRANCH   1   7
ATOM      7  N   UNL d   1       0.705   5.595  -5.920  0.00  0.00    -0.732 N 
ATOM      8  C   UNL d   1       1.901   4.784  -6.000  0.00  0.00     0.284 C 
ATOM      9  H3  UNL d   1       0.761   6.470  -6.437  0.00  0.00     0.395 HD
ENDBRANCH   1   7
TORSDOF 1
ENDMDL
