MODEL 1
REMARK minimizedAffinity 1.24509001
REMARK minimizedRMSD -1
REMARK  1 active torsions:
REMARK  status: ('A' for Active; 'I' for Inactive)
REMARK    1  A    between atoms: N_2  and  C1_3 
ROOT
ATOM      1  C1  UNL d   1       1.579   4.123  -5.999  0.00  0.00     0.143 A 
ATOM      2  C2  UNL d   1       1.858   2.752  -5.958  0.00  0.00    -0.057 A 
ATOM      3  C3  UNL d   1       0.830   1.802  -5.964  0.00  0.00     0.033 A 
ATOM      4  C4  UNL d   1      -0.501   2.208  -5.981  0.00  0.00    -0.042 A 
ATOM      5  C5  UNL d   1      -0.801   3.565  -5.997  0.00  0.00     0.033 A 
ATOM      6  C6  UNL d   1       0.230   4.509  -5.998  0.00  0.00    -0.057 A 
ENDROOT
BRANCH   1   7
ATOM      7  N   UNL d   1       2.554   5.118  -5.897  0.00  0.00    -0.732 N 
ATOM      8  C   UNL d   1       3.960   4.786  -5.988  0.00  0.00     0.284 C 
ATOM      9  H3  UNL d   1       2.295   5.968  -6.392  0.00  0.00     0.395 HD
ENDBRANCH   1   7
TORSDOF 1
ENDMDL
