MODEL 1
REMARK minimizedAffinity 10.53269
REMARK minimizedRMSD -1
REMARK  2 active torsions:
REMARK  status: ('A' for Active; 'I' for Inactive)
REMARK    1  A    between atoms: C1_2  and  C2_3 
REMARK    2  A    between atoms: C2_3  and  C3_4 
ROOT
ATOM      1  C3  UNL d   1       2.921   0.554  -0.940  0.00  0.00    -0.075 A 
ATOM      2  C4  UNL d   1       3.790   0.107   0.066  0.00  0.00     0.002 A 
ATOM      3  C5  UNL d   1       5.111   0.554   0.111  0.00  0.00     0.002 A 
ATOM      4  C6  UNL d   1       5.582   1.443  -0.852  0.00  0.00    -0.004 A 
ATOM      5  C7  UNL d   1       4.732   1.881  -1.865  0.00  0.00     0.002 A 
ATOM      6  C8  UNL d   1       3.409   1.439  -1.910  0.00  0.00     0.002 A 
ENDROOT
BRANCH   1   7
ATOM      7  C2  UNL d   1       1.482   0.097  -0.977  0.00  0.00     0.056 C 
BRANCH   7   8
ATOM      8  C1  UNL d   1       0.469   1.201  -0.654  0.00  0.00     0.007 C 
ATOM      9  C   UNL d   1      -0.858   1.029  -1.380  0.00  0.00     0.009 C 
ENDBRANCH   7   8
ENDBRANCH   1   7
TORSDOF 2
ENDMDL
