MODEL 1
REMARK minimizedAffinity 1.21182084
REMARK minimizedRMSD -1
REMARK  2 active torsions:
REMARK  status: ('A' for Active; 'I' for Inactive)
REMARK    1  A    between atoms: C1_2  and  C2_3 
REMARK    2  A    between atoms: C2_3  and  C3_4 
ROOT
ATOM      1  C3  UNL d   1       0.346  -3.973   5.042  0.00  0.00    -0.075 A 
ATOM      2  C4  UNL d   1       0.343  -5.004   5.993  0.00  0.00     0.002 A 
ATOM      3  C5  UNL d   1      -0.673  -5.960   5.999  0.00  0.00     0.002 A 
ATOM      4  C6  UNL d   1      -1.703  -5.892   5.063  0.00  0.00    -0.004 A 
ATOM      5  C7  UNL d   1      -1.720  -4.862   4.124  0.00  0.00     0.002 A 
ATOM      6  C8  UNL d   1      -0.702  -3.907   4.113  0.00  0.00     0.002 A 
ENDROOT
BRANCH   1   7
ATOM      7  C2  UNL d   1       1.458  -2.953   5.012  0.00  0.00     0.056 C 
BRANCH   7   8
ATOM      8  C1  UNL d   1       1.592  -2.216   3.675  0.00  0.00     0.007 C 
ATOM      9  C   UNL d   1       0.884  -0.868   3.660  0.00  0.00     0.009 C 
ENDBRANCH   7   8
ENDBRANCH   1   7
TORSDOF 2
ENDMDL
