MODEL 1
REMARK minimizedAffinity 4.71133232
REMARK minimizedRMSD -1
REMARK  2 active torsions:
REMARK  status: ('A' for Active; 'I' for Inactive)
REMARK    1  A    between atoms: C1_2  and  C2_3 
REMARK    2  A    between atoms: C2_3  and  C3_4 
ROOT
ATOM      1  C3  UNL d   1       0.367  -3.028   5.358  0.00  0.00    -0.075 A 
ATOM      2  C4  UNL d   1      -0.871  -3.209   4.725  0.00  0.00     0.002 A 
ATOM      3  C5  UNL d   1      -1.501  -4.454   4.742  0.00  0.00     0.002 A 
ATOM      4  C6  UNL d   1      -0.897  -5.534   5.382  0.00  0.00    -0.004 A 
ATOM      5  C7  UNL d   1       0.341  -5.370   6.000  0.00  0.00     0.002 A 
ATOM      6  C8  UNL d   1       0.971  -4.125   5.988  0.00  0.00     0.002 A 
ENDROOT
BRANCH   1   7
ATOM      7  C2  UNL d   1       1.039  -1.676   5.369  0.00  0.00     0.056 C 
BRANCH   7   8
ATOM      8  C1  UNL d   1       0.166  -0.541   4.825  0.00  0.00     0.007 C 
ATOM      9  C   UNL d   1       0.658   0.842   5.229  0.00  0.00     0.009 C 
ENDBRANCH   7   8
ENDBRANCH   1   7
TORSDOF 2
ENDMDL
