MODEL 1
REMARK minimizedAffinity 3.76210308
REMARK minimizedRMSD -1
REMARK  2 active torsions:
REMARK  status: ('A' for Active; 'I' for Inactive)
REMARK    1  A    between atoms: C1_2  and  C2_3 
REMARK    2  A    between atoms: C2_3  and  C3_4 
ROOT
ATOM      1  C3  UNL d   1      -4.985   5.969   3.682  0.00  0.00    -0.075 A 
ATOM      2  C4  UNL d   1      -3.608   5.928   3.946  0.00  0.00     0.002 A 
ATOM      3  C5  UNL d   1      -2.686   5.932   2.899  0.00  0.00     0.002 A 
ATOM      4  C6  UNL d   1      -3.127   5.968   1.579  0.00  0.00    -0.004 A 
ATOM      5  C7  UNL d   1      -4.492   5.992   1.304  0.00  0.00     0.002 A 
ATOM      6  C8  UNL d   1      -5.418   5.992   2.350  0.00  0.00     0.002 A 
ENDROOT
BRANCH   1   7
ATOM      7  C2  UNL d   1      -5.988   5.994   4.811  0.00  0.00     0.056 C 
BRANCH   7   8
ATOM      8  C1  UNL d   1      -5.996   4.723   5.666  0.00  0.00     0.007 C 
ATOM      9  C   UNL d   1      -5.890   3.445   4.844  0.00  0.00     0.009 C 
ENDBRANCH   7   8
ENDBRANCH   1   7
TORSDOF 2
ENDMDL
