MODEL 1
REMARK minimizedAffinity 4.34901762
REMARK minimizedRMSD -1
REMARK  2 active torsions:
REMARK  status: ('A' for Active; 'I' for Inactive)
REMARK    1  A    between atoms: C1_2  and  C2_3 
REMARK    2  A    between atoms: C2_3  and  C3_4 
ROOT
ATOM      1  C3  UNL d   1       1.032  -1.618   5.223  0.00  0.00    -0.075 A 
ATOM      2  C4  UNL d   1       1.691  -0.654   5.999  0.00  0.00     0.002 A 
ATOM      3  C5  UNL d   1       1.554   0.704   5.709  0.00  0.00     0.002 A 
ATOM      4  C6  UNL d   1       0.765   1.114   4.637  0.00  0.00    -0.004 A 
ATOM      5  C7  UNL d   1       0.119   0.164   3.849  0.00  0.00     0.002 A 
ATOM      6  C8  UNL d   1       0.251  -1.195   4.139  0.00  0.00     0.002 A 
ENDROOT
BRANCH   1   7
ATOM      7  C2  UNL d   1       1.153  -3.088   5.549  0.00  0.00     0.056 C 
BRANCH   7   8
ATOM      8  C1  UNL d   1       0.713  -4.017   4.413  0.00  0.00     0.007 C 
ATOM      9  C   UNL d   1      -0.789  -4.263   4.387  0.00  0.00     0.009 C 
ENDBRANCH   7   8
ENDBRANCH   1   7
TORSDOF 2
ENDMDL
