MODEL 1
REMARK minimizedAffinity -0.306946844
REMARK minimizedRMSD -1
REMARK  2 active torsions:
REMARK  status: ('A' for Active; 'I' for Inactive)
REMARK    1  A    between atoms: C1_2  and  C2_3 
REMARK    2  A    between atoms: C2_3  and  C3_4 
ROOT
ATOM      1  C3  UNL d   1      -0.421  -3.247   5.621  0.00  0.00    -0.075 A 
ATOM      2  C4  UNL d   1       0.842  -3.724   6.000  0.00  0.00     0.002 A 
ATOM      3  C5  UNL d   1       1.115  -5.092   5.992  0.00  0.00     0.002 A 
ATOM      4  C6  UNL d   1       0.128  -6.000   5.616  0.00  0.00    -0.004 A 
ATOM      5  C7  UNL d   1      -1.136  -5.539   5.254  0.00  0.00     0.002 A 
ATOM      6  C8  UNL d   1      -1.410  -4.170   5.256  0.00  0.00     0.002 A 
ENDROOT
BRANCH   1   7
ATOM      7  C2  UNL d   1      -0.714  -1.766   5.599  0.00  0.00     0.056 C 
BRANCH   7   8
ATOM      8  C1  UNL d   1       0.379  -0.924   4.931  0.00  0.00     0.007 C 
ATOM      9  C   UNL d   1       0.666   0.379   5.666  0.00  0.00     0.009 C 
ENDBRANCH   7   8
ENDBRANCH   1   7
TORSDOF 2
ENDMDL
