MODEL 1
REMARK minimizedAffinity 3.03238511
REMARK minimizedRMSD -1
REMARK  2 active torsions:
REMARK  status: ('A' for Active; 'I' for Inactive)
REMARK    1  A    between atoms: C1_2  and  C2_3 
REMARK    2  A    between atoms: C2_3  and  C3_4 
ROOT
ATOM      1  C3  UNL d   1      -4.902   1.615  -3.028  0.00  0.00    -0.075 A 
ATOM      2  C4  UNL d   1      -5.349   0.807  -4.083  0.00  0.00     0.002 A 
ATOM      3  C5  UNL d   1      -4.450   0.321  -5.033  0.00  0.00     0.002 A 
ATOM      4  C6  UNL d   1      -3.098   0.646  -4.947  0.00  0.00    -0.004 A 
ATOM      5  C7  UNL d   1      -2.645   1.462  -3.913  0.00  0.00     0.002 A 
ATOM      6  C8  UNL d   1      -3.542   1.945  -2.958  0.00  0.00     0.002 A 
ENDROOT
BRANCH   1   7
ATOM      7  C2  UNL d   1      -5.865   2.120  -1.980  0.00  0.00     0.056 C 
BRANCH   7   8
ATOM      8  C1  UNL d   1      -5.852   1.309  -0.680  0.00  0.00     0.007 C 
ATOM      9  C   UNL d   1      -5.044   0.023  -0.782  0.00  0.00     0.009 C 
ENDBRANCH   7   8
ENDBRANCH   1   7
TORSDOF 2
ENDMDL
