MODEL 1
REMARK minimizedAffinity 20.4005585
REMARK minimizedRMSD -1
REMARK  1 active torsions:
REMARK  status: ('A' for Active; 'I' for Inactive)
REMARK    1  A    between atoms: N_2  and  C1_3 
ROOT
ATOM      1  C1  UNL d   1       0.427  -0.628   3.541  0.00  0.00     0.143 A 
ATOM      2  C2  UNL d   1       0.904   0.039   2.407  0.00  0.00    -0.057 A 
ATOM      3  C3  UNL d   1       1.206  -0.655   1.229  0.00  0.00     0.033 A 
ATOM      4  C4  UNL d   1       1.064  -2.038   1.174  0.00  0.00    -0.042 A 
ATOM      5  C5  UNL d   1       0.615  -2.724   2.296  0.00  0.00     0.033 A 
ATOM      6  C6  UNL d   1       0.308  -2.025   3.467  0.00  0.00    -0.057 A 
ENDROOT
BRANCH   1   7
ATOM      7  N   UNL d   1       0.203  -0.007   4.772  0.00  0.00    -0.732 N 
ATOM      8  C   UNL d   1       1.263   0.090   5.752  0.00  0.00     0.284 C 
ATOM      9  H3  UNL d   1      -0.362   0.835   4.685  0.00  0.00     0.395 HD
ENDBRANCH   1   7
TORSDOF 1
ENDMDL
