MODEL 1
REMARK minimizedAffinity 4.4215064
REMARK minimizedRMSD -1
REMARK  1 active torsions:
REMARK  status: ('A' for Active; 'I' for Inactive)
REMARK    1  A    between atoms: N_2  and  C1_3 
ROOT
ATOM      1  C1  UNL d   1      -2.673   3.232  -2.094  0.00  0.00     0.143 A 
ATOM      2  C2  UNL d   1      -3.806   3.334  -1.280  0.00  0.00    -0.057 A 
ATOM      3  C3  UNL d   1      -4.497   4.544  -1.146  0.00  0.00     0.033 A 
ATOM      4  C4  UNL d   1      -4.048   5.685  -1.803  0.00  0.00    -0.042 A 
ATOM      5  C5  UNL d   1      -2.910   5.613  -2.598  0.00  0.00     0.033 A 
ATOM      6  C6  UNL d   1      -2.228   4.400  -2.733  0.00  0.00    -0.057 A 
ENDROOT
BRANCH   1   7
ATOM      7  N   UNL d   1      -1.885   2.082  -2.191  0.00  0.00    -0.732 N 
ATOM      8  C   UNL d   1      -0.830   1.828  -1.234  0.00  0.00     0.284 C 
ATOM      9  H3  UNL d   1      -2.429   1.258  -2.438  0.00  0.00     0.395 HD
ENDBRANCH   1   7
TORSDOF 1
ENDMDL
