MODEL 1
REMARK minimizedAffinity 8.65442562
REMARK minimizedRMSD -1
REMARK  1 active torsions:
REMARK  status: ('A' for Active; 'I' for Inactive)
REMARK    1  A    between atoms: N_2  and  C1_3 
ROOT
ATOM      1  C1  UNL d   1       1.583   0.031   3.117  0.00  0.00     0.143 A 
ATOM      2  C2  UNL d   1       0.242  -0.143   2.761  0.00  0.00    -0.057 A 
ATOM      3  C3  UNL d   1      -0.772  -0.142   3.727  0.00  0.00     0.033 A 
ATOM      4  C4  UNL d   1      -0.457   0.005   5.074  0.00  0.00    -0.042 A 
ATOM      5  C5  UNL d   1       0.873   0.155   5.453  0.00  0.00     0.033 A 
ATOM      6  C6  UNL d   1       1.879   0.160   4.483  0.00  0.00    -0.057 A 
ENDROOT
BRANCH   1   7
ATOM      7  N   UNL d   1       2.646  -0.059   2.214  0.00  0.00    -0.732 N 
ATOM      8  C   UNL d   1       3.871   0.677   2.441  0.00  0.00     0.284 C 
ATOM      9  H3  UNL d   1       2.788  -1.008   1.875  0.00  0.00     0.395 HD
ENDBRANCH   1   7
TORSDOF 1
ENDMDL
