MODEL 1
REMARK minimizedAffinity 17.6781998
REMARK minimizedRMSD -1
REMARK  1 active torsions:
REMARK  status: ('A' for Active; 'I' for Inactive)
REMARK    1  A    between atoms: N_2  and  C1_3 
ROOT
ATOM      1  C1  UNL d   1      -2.711   3.354  -2.380  0.00  0.00     0.143 A 
ATOM      2  C2  UNL d   1      -3.797   3.182  -1.514  0.00  0.00    -0.057 A 
ATOM      3  C3  UNL d   1      -4.473   4.281  -0.970  0.00  0.00     0.033 A 
ATOM      4  C4  UNL d   1      -4.054   5.575  -1.259  0.00  0.00    -0.042 A 
ATOM      5  C5  UNL d   1      -2.961   5.770  -2.097  0.00  0.00     0.033 A 
ATOM      6  C6  UNL d   1      -2.295   4.668  -2.643  0.00  0.00    -0.057 A 
ENDROOT
BRANCH   1   7
ATOM      7  N   UNL d   1      -1.937   2.302  -2.875  0.00  0.00    -0.732 N 
ATOM      8  C   UNL d   1      -0.628   2.026  -2.324  0.00  0.00     0.284 C 
ATOM      9  H3  UNL d   1      -2.491   1.470  -3.068  0.00  0.00     0.395 HD
ENDBRANCH   1   7
TORSDOF 1
ENDMDL
