MODEL 1
REMARK minimizedAffinity 9.59509277
REMARK minimizedRMSD -1
REMARK  1 active torsions:
REMARK  status: ('A' for Active; 'I' for Inactive)
REMARK    1  A    between atoms: N_2  and  C1_3 
ROOT
ATOM      1  C1  UNL d   1       0.332  -0.693   3.541  0.00  0.00     0.143 A 
ATOM      2  C2  UNL d   1      -1.010  -1.082   3.622  0.00  0.00    -0.057 A 
ATOM      3  C3  UNL d   1      -1.706  -1.038   4.836  0.00  0.00     0.033 A 
ATOM      4  C4  UNL d   1      -1.063  -0.630   6.000  0.00  0.00    -0.042 A 
ATOM      5  C5  UNL d   1       0.277  -0.262   5.947  0.00  0.00     0.033 A 
ATOM      6  C6  UNL d   1       0.965  -0.302   4.731  0.00  0.00    -0.057 A 
ENDROOT
BRANCH   1   7
ATOM      7  N   UNL d   1       1.106  -0.808   2.384  0.00  0.00    -0.732 N 
ATOM      8  C   UNL d   1       1.391  -2.107   1.814  0.00  0.00     0.284 C 
ATOM      9  H3  UNL d   1       0.885  -0.091   1.696  0.00  0.00     0.395 HD
ENDBRANCH   1   7
TORSDOF 1
ENDMDL
