MODEL 1
REMARK minimizedAffinity 13.9902725
REMARK minimizedRMSD -1
REMARK  1 active torsions:
REMARK  status: ('A' for Active; 'I' for Inactive)
REMARK    1  A    between atoms: N_2  and  C1_3 
ROOT
ATOM      1  C1  UNL d   1       2.711   0.267   2.702  0.00  0.00     0.143 A 
ATOM      2  C2  UNL d   1       1.867  -0.426   1.828  0.00  0.00    -0.057 A 
ATOM      3  C3  UNL d   1       0.623  -0.910   2.251  0.00  0.00     0.033 A 
ATOM      4  C4  UNL d   1       0.213  -0.733   3.568  0.00  0.00    -0.042 A 
ATOM      5  C5  UNL d   1       1.046  -0.068   4.461  0.00  0.00     0.033 A 
ATOM      6  C6  UNL d   1       2.285   0.418   4.030  0.00  0.00    -0.057 A 
ENDROOT
BRANCH   1   7
ATOM      7  N   UNL d   1       4.001   0.687   2.368  0.00  0.00    -0.732 N 
ATOM      8  C   UNL d   1       5.121  -0.225   2.466  0.00  0.00     0.284 C 
ATOM      9  H3  UNL d   1       4.016   1.275   1.538  0.00  0.00     0.395 HD
ENDBRANCH   1   7
TORSDOF 1
ENDMDL
