MODEL 1
REMARK minimizedAffinity 3.17320466
REMARK minimizedRMSD -1
REMARK  1 active torsions:
REMARK  status: ('A' for Active; 'I' for Inactive)
REMARK    1  A    between atoms: N_2  and  C1_3 
ROOT
ATOM      1  C1  UNL d   1      -1.369  -3.012   4.872  0.00  0.00     0.143 A 
ATOM      2  C2  UNL d   1      -1.133  -1.885   5.666  0.00  0.00    -0.057 A 
ATOM      3  C3  UNL d   1      -0.158  -0.943   5.319  0.00  0.00     0.033 A 
ATOM      4  C4  UNL d   1       0.622  -1.126   4.181  0.00  0.00    -0.042 A 
ATOM      5  C5  UNL d   1       0.422  -2.252   3.390  0.00  0.00     0.033 A 
ATOM      6  C6  UNL d   1      -0.558  -3.186   3.739  0.00  0.00    -0.057 A 
ENDROOT
BRANCH   1   7
ATOM      7  N   UNL d   1      -2.255  -4.035   5.216  0.00  0.00    -0.732 N 
ATOM      8  C   UNL d   1      -3.442  -3.751   5.994  0.00  0.00     0.284 C 
ATOM      9  H3  UNL d   1      -2.405  -4.692   4.454  0.00  0.00     0.395 HD
ENDBRANCH   1   7
TORSDOF 1
ENDMDL
