MODEL 1
REMARK minimizedAffinity 15.9453459
REMARK minimizedRMSD -1
REMARK  1 active torsions:
REMARK  status: ('A' for Active; 'I' for Inactive)
REMARK    1  A    between atoms: N_2  and  C1_3 
ROOT
ATOM      1  C1  UNL d   1       4.231  -0.052  -0.315  0.00  0.00     0.143 A 
ATOM      2  C2  UNL d   1       4.739  -0.668   0.834  0.00  0.00    -0.057 A 
ATOM      3  C3  UNL d   1       4.693  -0.031   2.080  0.00  0.00     0.033 A 
ATOM      4  C4  UNL d   1       4.163   1.250   2.193  0.00  0.00    -0.042 A 
ATOM      5  C5  UNL d   1       3.676   1.891   1.060  0.00  0.00     0.033 A 
ATOM      6  C6  UNL d   1       3.718   1.247  -0.180  0.00  0.00    -0.057 A 
ENDROOT
BRANCH   1   7
ATOM      7  N   UNL d   1       4.337  -0.593  -1.599  0.00  0.00    -0.732 N 
ATOM      8  C   UNL d   1       4.767   0.227  -2.711  0.00  0.00     0.284 C 
ATOM      9  H3  UNL d   1       4.735  -1.529  -1.595  0.00  0.00     0.395 HD
ENDBRANCH   1   7
TORSDOF 1
ENDMDL
