MODEL 1
REMARK minimizedAffinity 5.14589214
REMARK minimizedRMSD -1
REMARK  1 active torsions:
REMARK  status: ('A' for Active; 'I' for Inactive)
REMARK    1  A    between atoms: N_2  and  C1_3 
ROOT
ATOM      1  C1  UNL d   1      -0.338  -2.627   0.729  0.00  0.00     0.143 A 
ATOM      2  C2  UNL d   1       0.815  -3.330   1.092  0.00  0.00    -0.057 A 
ATOM      3  C3  UNL d   1       1.774  -2.764   1.941  0.00  0.00     0.033 A 
ATOM      4  C4  UNL d   1       1.608  -1.469   2.421  0.00  0.00    -0.042 A 
ATOM      5  C5  UNL d   1       0.481  -0.742   2.053  0.00  0.00     0.033 A 
ATOM      6  C6  UNL d   1      -0.475  -1.315   1.210  0.00  0.00    -0.057 A 
ENDROOT
BRANCH   1   7
ATOM      7  N   UNL d   1      -1.279  -3.098  -0.191  0.00  0.00    -0.732 N 
ATOM      8  C   UNL d   1      -2.297  -4.043   0.215  0.00  0.00     0.284 C 
ATOM      9  H3  UNL d   1      -1.616  -2.365  -0.811  0.00  0.00     0.395 HD
ENDBRANCH   1   7
TORSDOF 1
ENDMDL
