MODEL 1
REMARK minimizedAffinity 3.66518116
REMARK minimizedRMSD -1
REMARK  1 active torsions:
REMARK  status: ('A' for Active; 'I' for Inactive)
REMARK    1  A    between atoms: N_2  and  C1_3 
ROOT
ATOM      1  C1  UNL d   1       0.304   3.391  -0.219  0.00  0.00     0.143 A 
ATOM      2  C2  UNL d   1       1.207   3.705  -1.240  0.00  0.00    -0.057 A 
ATOM      3  C3  UNL d   1       1.744   4.991  -1.365  0.00  0.00     0.033 A 
ATOM      4  C4  UNL d   1       1.364   5.999  -0.484  0.00  0.00    -0.042 A 
ATOM      5  C5  UNL d   1       0.449   5.717   0.523  0.00  0.00     0.033 A 
ATOM      6  C6  UNL d   1      -0.079   4.428   0.647  0.00  0.00    -0.057 A 
ENDROOT
BRANCH   1   7
ATOM      7  N   UNL d   1      -0.340   2.157  -0.101  0.00  0.00    -0.732 N 
ATOM      8  C   UNL d   1      -1.167   1.653  -1.176  0.00  0.00     0.284 C 
ATOM      9  H3  UNL d   1       0.248   1.452   0.337  0.00  0.00     0.395 HD
ENDBRANCH   1   7
TORSDOF 1
ENDMDL
