MODEL 1
REMARK minimizedAffinity 12.4576988
REMARK minimizedRMSD -1
REMARK  1 active torsions:
REMARK  status: ('A' for Active; 'I' for Inactive)
REMARK    1  A    between atoms: N_2  and  C1_3 
ROOT
ATOM      1  C1  UNL d   1      -1.353  -2.305   2.640  0.00  0.00     0.143 A 
ATOM      2  C2  UNL d   1      -1.121  -1.418   3.696  0.00  0.00    -0.057 A 
ATOM      3  C3  UNL d   1       0.003  -0.583   3.709  0.00  0.00     0.033 A 
ATOM      4  C4  UNL d   1       0.933  -0.643   2.677  0.00  0.00    -0.042 A 
ATOM      5  C5  UNL d   1       0.736  -1.536   1.629  0.00  0.00     0.033 A 
ATOM      6  C6  UNL d   1      -0.392  -2.362   1.618  0.00  0.00    -0.057 A 
ENDROOT
BRANCH   1   7
ATOM      7  N   UNL d   1      -2.400  -3.230   2.617  0.00  0.00    -0.732 N 
ATOM      8  C   UNL d   1      -3.585  -2.984   1.824  0.00  0.00     0.284 C 
ATOM      9  H3  UNL d   1      -2.068  -4.192   2.580  0.00  0.00     0.395 HD
ENDBRANCH   1   7
TORSDOF 1
ENDMDL
