MODEL 1
REMARK minimizedAffinity 4.22217083
REMARK minimizedRMSD -1
REMARK  1 active torsions:
REMARK  status: ('A' for Active; 'I' for Inactive)
REMARK    1  A    between atoms: N_2  and  C1_3 
ROOT
ATOM      1  C1  UNL d   1      -0.205   3.224  -1.472  0.00  0.00     0.143 A 
ATOM      2  C2  UNL d   1       0.658   4.055  -2.194  0.00  0.00    -0.057 A 
ATOM      3  C3  UNL d   1       1.573   4.892  -1.543  0.00  0.00     0.033 A 
ATOM      4  C4  UNL d   1       1.619   4.935  -0.153  0.00  0.00    -0.042 A 
ATOM      5  C5  UNL d   1       0.753   4.136   0.585  0.00  0.00     0.033 A 
ATOM      6  C6  UNL d   1      -0.153   3.297  -0.071  0.00  0.00    -0.057 A 
ENDROOT
BRANCH   1   7
ATOM      7  N   UNL d   1      -1.204   2.443  -2.059  0.00  0.00    -0.732 N 
ATOM      8  C   UNL d   1      -2.368   3.061  -2.657  0.00  0.00     0.284 C 
ATOM      9  H3  UNL d   1      -0.824   1.666  -2.595  0.00  0.00     0.395 HD
ENDBRANCH   1   7
TORSDOF 1
ENDMDL
