MODEL 1
REMARK minimizedAffinity 5.12002802
REMARK minimizedRMSD -1
REMARK  1 active torsions:
REMARK  status: ('A' for Active; 'I' for Inactive)
REMARK    1  A    between atoms: N_2  and  C1_3 
ROOT
ATOM      1  C1  UNL d   1      -2.113   3.632  -3.657  0.00  0.00     0.143 A 
ATOM      2  C2  UNL d   1      -2.426   4.847  -3.038  0.00  0.00    -0.057 A 
ATOM      3  C3  UNL d   1      -2.687   5.999  -3.790  0.00  0.00     0.033 A 
ATOM      4  C4  UNL d   1      -2.612   5.963  -5.178  0.00  0.00    -0.042 A 
ATOM      5  C5  UNL d   1      -2.279   4.772  -5.814  0.00  0.00     0.033 A 
ATOM      6  C6  UNL d   1      -2.025   3.624  -5.058  0.00  0.00    -0.057 A 
ENDROOT
BRANCH   1   7
ATOM      7  N   UNL d   1      -1.747   2.477  -2.963  0.00  0.00    -0.732 N 
ATOM      8  C   UNL d   1      -0.407   2.327  -2.436  0.00  0.00     0.284 C 
ATOM      9  H3  UNL d   1      -2.479   2.153  -2.335  0.00  0.00     0.395 HD
ENDBRANCH   1   7
TORSDOF 1
ENDMDL
