MODEL 1
REMARK minimizedAffinity 11.2337856
REMARK minimizedRMSD -1
REMARK  1 active torsions:
REMARK  status: ('A' for Active; 'I' for Inactive)
REMARK    1  A    between atoms: N_2  and  C1_3 
ROOT
ATOM      1  C1  UNL d   1       1.230  -0.221   3.758  0.00  0.00     0.143 A 
ATOM      2  C2  UNL d   1       2.458   0.443   3.668  0.00  0.00    -0.057 A 
ATOM      3  C3  UNL d   1       3.295   0.274   2.558  0.00  0.00     0.033 A 
ATOM      4  C4  UNL d   1       2.930  -0.586   1.529  0.00  0.00    -0.042 A 
ATOM      5  C5  UNL d   1       1.725  -1.276   1.608  0.00  0.00     0.033 A 
ATOM      6  C6  UNL d   1       0.891  -1.099   2.716  0.00  0.00    -0.057 A 
ENDROOT
BRANCH   1   7
ATOM      7  N   UNL d   1       0.400  -0.172   4.880  0.00  0.00    -0.732 N 
ATOM      8  C   UNL d   1      -1.040  -0.148   4.732  0.00  0.00     0.284 C 
ATOM      9  H3  UNL d   1       0.730  -0.770   5.634  0.00  0.00     0.395 HD
ENDBRANCH   1   7
TORSDOF 1
ENDMDL
