MODEL 1
REMARK minimizedAffinity 4.45778227
REMARK minimizedRMSD -1
REMARK  1 active torsions:
REMARK  status: ('A' for Active; 'I' for Inactive)
REMARK    1  A    between atoms: N_2  and  C1_3 
ROOT
ATOM      1  C1  UNL d   1       0.383   3.489  -1.112  0.00  0.00     0.143 A 
ATOM      2  C2  UNL d   1       0.879   4.559  -1.864  0.00  0.00    -0.057 A 
ATOM      3  C3  UNL d   1       1.150   5.799  -1.272  0.00  0.00     0.033 A 
ATOM      4  C4  UNL d   1       0.901   6.000   0.081  0.00  0.00    -0.042 A 
ATOM      5  C5  UNL d   1       0.384   4.958   0.843  0.00  0.00     0.033 A 
ATOM      6  C6  UNL d   1       0.122   3.720   0.248  0.00  0.00    -0.057 A 
ENDROOT
BRANCH   1   7
ATOM      7  N   UNL d   1       0.001   2.263  -1.662  0.00  0.00    -0.732 N 
ATOM      8  C   UNL d   1      -1.309   2.096  -2.253  0.00  0.00     0.284 C 
ATOM      9  H3  UNL d   1       0.753   1.821  -2.186  0.00  0.00     0.395 HD
ENDBRANCH   1   7
TORSDOF 1
ENDMDL
