MODEL 1
REMARK minimizedAffinity 7.29543161
REMARK minimizedRMSD -1
REMARK  1 active torsions:
REMARK  status: ('A' for Active; 'I' for Inactive)
REMARK    1  A    between atoms: N_2  and  C1_3 
ROOT
ATOM      1  C1  UNL d   1      -2.915   2.869  -1.600  0.00  0.00     0.143 A 
ATOM      2  C2  UNL d   1      -2.380   2.829  -0.308  0.00  0.00    -0.057 A 
ATOM      3  C3  UNL d   1      -0.997   2.775  -0.096  0.00  0.00     0.033 A 
ATOM      4  C4  UNL d   1      -0.123   2.732  -1.178  0.00  0.00    -0.042 A 
ATOM      5  C5  UNL d   1      -0.633   2.746  -2.471  0.00  0.00     0.033 A 
ATOM      6  C6  UNL d   1      -2.015   2.806  -2.676  0.00  0.00    -0.057 A 
ENDROOT
BRANCH   1   7
ATOM      7  N   UNL d   1      -4.283   2.823  -1.877  0.00  0.00    -0.732 N 
ATOM      8  C   UNL d   1      -4.890   1.617  -2.398  0.00  0.00     0.284 C 
ATOM      9  H3  UNL d   1      -4.839   3.295  -1.167  0.00  0.00     0.395 HD
ENDBRANCH   1   7
TORSDOF 1
ENDMDL
