MODEL 1
REMARK minimizedAffinity 7.91490221
REMARK minimizedRMSD -1
REMARK  0 active torsions:
REMARK  status: ('A' for Active; 'I' for Inactive)
ROOT
ATOM      1  C   UNL d   1       0.736   4.998   2.013  0.00  0.00     0.124 A 
ATOM      2  C1  UNL d   1       2.010   4.605   2.399  0.00  0.00     0.062 A 
ATOM      3  C2  UNL d   1       2.653   3.564   1.735  0.00  0.00     0.162 A 
ATOM      4  C3  UNL d   1       2.023   2.909   0.677  0.00  0.00    -0.034 A 
ATOM      5  C4  UNL d   1       0.742   3.309   0.295  0.00  0.00     0.162 A 
ATOM      6  C5  UNL d   1       0.103   4.350   0.962  0.00  0.00     0.062 A 
ATOM      7  F   UNL d   1      -1.127   4.728   0.587  0.00  0.00    -0.097 F 
ATOM      8  F1  UNL d   1       0.107   2.700  -0.718  0.00  0.00    -0.096 F 
ATOM      9  I   UNL d   1       2.981   1.352  -0.317  0.00  0.00    -0.060 I 
ATOM     10  F2  UNL d   1       3.884   3.206   2.130  0.00  0.00    -0.096 F 
ATOM     11  F3  UNL d   1       2.624   5.229   3.415  0.00  0.00    -0.097 F 
ATOM     12  F4  UNL d   1       0.120   5.999   2.654  0.00  0.00    -0.092 F 
ENDROOT
TORSDOF 0
ENDMDL
