MODEL 1
REMARK minimizedAffinity 19.8418446
REMARK minimizedRMSD -1
REMARK  0 active torsions:
REMARK  status: ('A' for Active; 'I' for Inactive)
ROOT
ATOM      1  C   UNL d   1       4.726   1.117  -0.561  0.00  0.00     0.124 A 
ATOM      2  C1  UNL d   1       3.833   0.479   0.288  0.00  0.00     0.062 A 
ATOM      3  C2  UNL d   1       2.792  -0.283  -0.235  0.00  0.00     0.162 A 
ATOM      4  C3  UNL d   1       2.639  -0.412  -1.616  0.00  0.00    -0.034 A 
ATOM      5  C4  UNL d   1       3.541   0.234  -2.463  0.00  0.00     0.162 A 
ATOM      6  C5  UNL d   1       4.580   0.994  -1.935  0.00  0.00     0.062 A 
ATOM      7  F   UNL d   1       5.442   1.610  -2.757  0.00  0.00    -0.097 F 
ATOM      8  F1  UNL d   1       3.424   0.131  -3.795  0.00  0.00    -0.096 F 
ATOM      9  I   UNL d   1       1.084  -1.550  -2.402  0.00  0.00    -0.060 I 
ATOM     10  F2  UNL d   1       1.943  -0.888   0.609  0.00  0.00    -0.096 F 
ATOM     11  F3  UNL d   1       3.971   0.597   1.617  0.00  0.00    -0.097 F 
ATOM     12  F4  UNL d   1       5.726   1.850  -0.054  0.00  0.00    -0.092 F 
ENDROOT
TORSDOF 0
ENDMDL
