MODEL 1
REMARK minimizedAffinity 18.2355919
REMARK minimizedRMSD -1
REMARK  0 active torsions:
REMARK  status: ('A' for Active; 'I' for Inactive)
ROOT
ATOM      1  C   UNL d   1       2.850   0.316   0.348  0.00  0.00     0.124 A 
ATOM      2  C1  UNL d   1       3.786   1.218   0.834  0.00  0.00     0.062 A 
ATOM      3  C2  UNL d   1       4.687   1.829  -0.035  0.00  0.00     0.162 A 
ATOM      4  C3  UNL d   1       4.655   1.539  -1.399  0.00  0.00    -0.034 A 
ATOM      5  C4  UNL d   1       3.711   0.630  -1.880  0.00  0.00     0.162 A 
ATOM      6  C5  UNL d   1       2.814   0.023  -1.008  0.00  0.00     0.062 A 
ATOM      7  F   UNL d   1       1.910  -0.849  -1.479  0.00  0.00    -0.097 F 
ATOM      8  F1  UNL d   1       3.653   0.329  -3.186  0.00  0.00    -0.096 F 
ATOM      9  I   UNL d   1       6.000   2.450  -2.700  0.00  0.00    -0.060 I 
ATOM     10  F2  UNL d   1       5.580   2.697   0.463  0.00  0.00    -0.096 F 
ATOM     11  F3  UNL d   1       3.824   1.503   2.144  0.00  0.00    -0.097 F 
ATOM     12  F4  UNL d   1       1.986  -0.270   1.186  0.00  0.00    -0.092 F 
ENDROOT
TORSDOF 0
ENDMDL
