MODEL 1
REMARK minimizedAffinity 27.942112
REMARK minimizedRMSD -1
REMARK  0 active torsions:
REMARK  status: ('A' for Active; 'I' for Inactive)
ROOT
ATOM      1  C   UNL d   1      -3.766   2.693   0.122  0.00  0.00     0.124 A 
ATOM      2  C1  UNL d   1      -4.218   3.940  -0.286  0.00  0.00     0.062 A 
ATOM      3  C2  UNL d   1      -4.837   4.792   0.624  0.00  0.00     0.162 A 
ATOM      4  C3  UNL d   1      -5.007   4.400   1.952  0.00  0.00    -0.034 A 
ATOM      5  C4  UNL d   1      -4.551   3.143   2.354  0.00  0.00     0.162 A 
ATOM      6  C5  UNL d   1      -3.933   2.296   1.441  0.00  0.00     0.062 A 
ATOM      7  F   UNL d   1      -3.496   1.091   1.837  0.00  0.00    -0.097 F 
ATOM      8  F1  UNL d   1      -4.698   2.735   3.623  0.00  0.00    -0.096 F 
ATOM      9  I   UNL d   1      -5.933   5.671   3.316  0.00  0.00    -0.060 I 
ATOM     10  F2  UNL d   1      -5.265   5.991   0.203  0.00  0.00    -0.096 F 
ATOM     11  F3  UNL d   1      -4.059   4.326  -1.560  0.00  0.00    -0.097 F 
ATOM     12  F4  UNL d   1      -3.171   1.875  -0.756  0.00  0.00    -0.092 F 
ENDROOT
TORSDOF 0
ENDMDL
