MODEL 1
REMARK minimizedAffinity 6.97863483
REMARK minimizedRMSD -1
REMARK  0 active torsions:
REMARK  status: ('A' for Active; 'I' for Inactive)
ROOT
ATOM      1  C   UNL d   1       3.540   0.364   0.393  0.00  0.00     0.124 A 
ATOM      2  C1  UNL d   1       3.345   0.133  -0.962  0.00  0.00     0.062 A 
ATOM      3  C2  UNL d   1       4.046   0.877  -1.906  0.00  0.00     0.162 A 
ATOM      4  C3  UNL d   1       4.950   1.859  -1.499  0.00  0.00    -0.034 A 
ATOM      5  C4  UNL d   1       5.139   2.086  -0.135  0.00  0.00     0.162 A 
ATOM      6  C5  UNL d   1       4.436   1.340   0.805  0.00  0.00     0.062 A 
ATOM      7  F   UNL d   1       4.625   1.564   2.114  0.00  0.00    -0.097 F 
ATOM      8  F1  UNL d   1       6.000   3.023   0.291  0.00  0.00    -0.096 F 
ATOM      9  I   UNL d   1       6.000   2.974  -2.908  0.00  0.00    -0.060 I 
ATOM     10  F2  UNL d   1       3.839   0.633  -3.209  0.00  0.00    -0.096 F 
ATOM     11  F3  UNL d   1       2.479  -0.809  -1.362  0.00  0.00    -0.097 F 
ATOM     12  F4  UNL d   1       2.863  -0.353   1.300  0.00  0.00    -0.092 F 
ENDROOT
TORSDOF 0
ENDMDL
