MODEL 1
REMARK minimizedAffinity 28.5232029
REMARK minimizedRMSD -1
REMARK  0 active torsions:
REMARK  status: ('A' for Active; 'I' for Inactive)
ROOT
ATOM      1  C   UNL d   1       3.041   0.188   0.555  0.00  0.00     0.124 A 
ATOM      2  C1  UNL d   1       3.935   0.994   1.246  0.00  0.00     0.062 A 
ATOM      3  C2  UNL d   1       4.781   1.855   0.552  0.00  0.00     0.162 A 
ATOM      4  C3  UNL d   1       4.736   1.916  -0.841  0.00  0.00    -0.034 A 
ATOM      5  C4  UNL d   1       3.834   1.101  -1.528  0.00  0.00     0.162 A 
ATOM      6  C5  UNL d   1       2.990   0.243  -0.831  0.00  0.00     0.062 A 
ATOM      7  F   UNL d   1       2.127  -0.535  -1.500  0.00  0.00    -0.097 F 
ATOM      8  F1  UNL d   1       3.764   1.135  -2.867  0.00  0.00    -0.096 F 
ATOM      9  I   UNL d   1       5.998   3.202  -1.881  0.00  0.00    -0.060 I 
ATOM     10  F2  UNL d   1       5.636   2.622   1.245  0.00  0.00    -0.096 F 
ATOM     11  F3  UNL d   1       3.986   0.942   2.584  0.00  0.00    -0.097 F 
ATOM     12  F4  UNL d   1       2.229  -0.640   1.225  0.00  0.00    -0.092 F 
ENDROOT
TORSDOF 0
ENDMDL
