MODEL 1
REMARK minimizedAffinity 21.3374825
REMARK minimizedRMSD -1
REMARK  0 active torsions:
REMARK  status: ('A' for Active; 'I' for Inactive)
ROOT
ATOM      1  C   UNL d   1       3.718   0.999  -1.250  0.00  0.00     0.124 A 
ATOM      2  C1  UNL d   1       2.692   0.145  -0.869  0.00  0.00     0.062 A 
ATOM      3  C2  UNL d   1       2.397  -0.037   0.479  0.00  0.00     0.162 A 
ATOM      4  C3  UNL d   1       3.128   0.637   1.457  0.00  0.00    -0.034 A 
ATOM      5  C4  UNL d   1       4.159   1.493   1.066  0.00  0.00     0.162 A 
ATOM      6  C5  UNL d   1       4.450   1.672  -0.282  0.00  0.00     0.062 A 
ATOM      7  F   UNL d   1       5.442   2.497  -0.648  0.00  0.00    -0.097 F 
ATOM      8  F1  UNL d   1       4.882   2.157   1.981  0.00  0.00    -0.096 F 
ATOM      9  I   UNL d   1       2.690   0.367   3.474  0.00  0.00    -0.060 I 
ATOM     10  F2  UNL d   1       1.400  -0.868   0.818  0.00  0.00    -0.096 F 
ATOM     11  F3  UNL d   1       1.983  -0.507  -1.802  0.00  0.00    -0.097 F 
ATOM     12  F4  UNL d   1       4.000   1.171  -2.547  0.00  0.00    -0.092 F 
ENDROOT
TORSDOF 0
ENDMDL
