MODEL 1
REMARK minimizedAffinity 17.2793388
REMARK minimizedRMSD -1
REMARK  0 active torsions:
REMARK  status: ('A' for Active; 'I' for Inactive)
ROOT
ATOM      1  C   UNL d   1      -2.625   2.038   1.038  0.00  0.00     0.124 A 
ATOM      2  C1  UNL d   1      -3.855   1.875   1.660  0.00  0.00     0.062 A 
ATOM      3  C2  UNL d   1      -4.820   1.043   1.098  0.00  0.00     0.162 A 
ATOM      4  C3  UNL d   1      -4.558   0.368  -0.094  0.00  0.00    -0.034 A 
ATOM      5  C4  UNL d   1      -3.319   0.538  -0.715  0.00  0.00     0.162 A 
ATOM      6  C5  UNL d   1      -2.358   1.370  -0.149  0.00  0.00     0.062 A 
ATOM      7  F   UNL d   1      -1.171   1.527  -0.751  0.00  0.00    -0.097 F 
ATOM      8  F1  UNL d   1      -3.034  -0.096  -1.862  0.00  0.00    -0.096 F 
ATOM      9  I   UNL d   1      -5.997  -0.876  -0.939  0.00  0.00    -0.060 I 
ATOM     10  F2  UNL d   1      -5.999   0.904   1.721  0.00  0.00    -0.096 F 
ATOM     11  F3  UNL d   1      -4.116   2.520   2.806  0.00  0.00    -0.097 F 
ATOM     12  F4  UNL d   1      -1.700   2.839   1.581  0.00  0.00    -0.092 F 
ENDROOT
TORSDOF 0
ENDMDL
