MODEL 1
REMARK minimizedAffinity 22.8499107
REMARK minimizedRMSD -1
REMARK  0 active torsions:
REMARK  status: ('A' for Active; 'I' for Inactive)
ROOT
ATOM      1  C   UNL d   1       1.493   0.827  -0.520  0.00  0.00     0.124 A 
ATOM      2  C1  UNL d   1       2.296   1.319   0.500  0.00  0.00     0.062 A 
ATOM      3  C2  UNL d   1       1.930   2.475   1.183  0.00  0.00     0.162 A 
ATOM      4  C3  UNL d   1       0.754   3.148   0.849  0.00  0.00    -0.034 A 
ATOM      5  C4  UNL d   1      -0.047   2.648  -0.178  0.00  0.00     0.162 A 
ATOM      6  C5  UNL d   1       0.322   1.492  -0.858  0.00  0.00     0.062 A 
ATOM      7  F   UNL d   1      -0.454   1.018  -1.843  0.00  0.00    -0.097 F 
ATOM      8  F1  UNL d   1      -1.184   3.269  -0.525  0.00  0.00    -0.096 F 
ATOM      9  I   UNL d   1       0.204   4.877   1.868  0.00  0.00    -0.060 I 
ATOM     10  F2  UNL d   1       2.725   2.927   2.164  0.00  0.00    -0.096 F 
ATOM     11  F3  UNL d   1       3.427   0.679   0.828  0.00  0.00    -0.097 F 
ATOM     12  F4  UNL d   1       1.848  -0.285  -1.176  0.00  0.00    -0.092 F 
ENDROOT
TORSDOF 0
ENDMDL
