MODEL 1
REMARK minimizedAffinity 20.5736446
REMARK minimizedRMSD -1
REMARK  0 active torsions:
REMARK  status: ('A' for Active; 'I' for Inactive)
ROOT
ATOM      1  C   UNL d   1       5.149   2.250  -1.561  0.00  0.00     0.124 A 
ATOM      2  C1  UNL d   1       4.342   1.204  -1.989  0.00  0.00     0.062 A 
ATOM      3  C2  UNL d   1       3.606   0.465  -1.067  0.00  0.00     0.162 A 
ATOM      4  C3  UNL d   1       3.673   0.769   0.292  0.00  0.00    -0.034 A 
ATOM      5  C4  UNL d   1       4.488   1.821   0.715  0.00  0.00     0.162 A 
ATOM      6  C5  UNL d   1       5.221   2.557  -0.210  0.00  0.00     0.062 A 
ATOM      7  F   UNL d   1       6.000   3.566   0.205  0.00  0.00    -0.097 F 
ATOM      8  F1  UNL d   1       4.575   2.140   2.015  0.00  0.00    -0.096 F 
ATOM      9  I   UNL d   1       2.575  -0.334   1.674  0.00  0.00    -0.060 I 
ATOM     10  F2  UNL d   1       2.835  -0.539  -1.509  0.00  0.00    -0.096 F 
ATOM     11  F3  UNL d   1       4.271   0.905  -3.294  0.00  0.00    -0.097 F 
ATOM     12  F4  UNL d   1       5.856   2.959  -2.451  0.00  0.00    -0.092 F 
ENDROOT
TORSDOF 0
ENDMDL
