MODEL 1
REMARK minimizedAffinity 17.945549
REMARK minimizedRMSD -1
REMARK  0 active torsions:
REMARK  status: ('A' for Active; 'I' for Inactive)
ROOT
ATOM      1  C   UNL d   1       2.777  -0.512   1.665  0.00  0.00     0.124 A 
ATOM      2  C1  UNL d   1       3.989  -0.096   2.198  0.00  0.00     0.062 A 
ATOM      3  C2  UNL d   1       4.834   0.725   1.457  0.00  0.00     0.162 A 
ATOM      4  C3  UNL d   1       4.469   1.136   0.175  0.00  0.00    -0.034 A 
ATOM      5  C4  UNL d   1       3.249   0.713  -0.354  0.00  0.00     0.162 A 
ATOM      6  C5  UNL d   1       2.408  -0.108   0.390  0.00  0.00     0.062 A 
ATOM      7  F   UNL d   1       1.237  -0.509  -0.126  0.00  0.00    -0.097 F 
ATOM      8  F1  UNL d   1       2.867   1.090  -1.584  0.00  0.00    -0.096 F 
ATOM      9  I   UNL d   1       5.730   2.363  -0.937  0.00  0.00    -0.060 I 
ATOM     10  F2  UNL d   1       6.000   1.111   1.996  0.00  0.00    -0.096 F 
ATOM     11  F3  UNL d   1       4.348  -0.487   3.429  0.00  0.00    -0.097 F 
ATOM     12  F4  UNL d   1       1.966  -1.303   2.380  0.00  0.00    -0.092 F 
ENDROOT
TORSDOF 0
ENDMDL
