MODEL 1
REMARK minimizedAffinity -5.00379896
REMARK minimizedRMSD -1
REMARK  1 active torsions:
REMARK  status: ('A' for Active; 'I' for Inactive)
REMARK    1  A    between atoms: C1_2  and  C2_3 
ROOT
ATOM      1  C2  UNL d   1      -0.004  -0.222   0.046  0.00  0.00    -0.076 A 
ATOM      2  C3  UNL d   1      -1.178   0.549  -0.008  0.00  0.00     0.004 A 
ATOM      3  C4  UNL d   1      -1.511   1.422   1.026  0.00  0.00    -0.003 A 
ATOM      4  C5  UNL d   1      -0.675   1.538   2.131  0.00  0.00     0.000 A 
ATOM      5  C6  UNL d   1       0.503   0.794   2.193  0.00  0.00     0.000 A 
ATOM      6  C7  UNL d   1       0.861  -0.079   1.151  0.00  0.00    -0.073 A 
ATOM      7  C8  UNL d   1       2.140  -0.862   1.273  0.00  0.00     0.078 C 
ENDROOT
BRANCH   1   8
ATOM      8  C1  UNL d   1       0.291  -1.172  -1.093  0.00  0.00     0.053 C 
ATOM      9  C   UNL d   1       0.269  -0.482  -2.448  0.00  0.00     0.018 C 
ENDBRANCH   1   8
TORSDOF 1
ENDMDL
