MODEL 1
REMARK minimizedAffinity -5.17388439
REMARK minimizedRMSD -1
REMARK  1 active torsions:
REMARK  status: ('A' for Active; 'I' for Inactive)
REMARK    1  A    between atoms: C1_2  and  C2_3 
ROOT
ATOM      1  C2  UNL d   1       0.110  -0.074   0.627  0.00  0.00    -0.076 A 
ATOM      2  C3  UNL d   1      -1.259   0.231   0.530  0.00  0.00     0.004 A 
ATOM      3  C4  UNL d   1      -1.875   1.070   1.458  0.00  0.00    -0.003 A 
ATOM      4  C5  UNL d   1      -1.131   1.617   2.497  0.00  0.00     0.000 A 
ATOM      5  C6  UNL d   1       0.232   1.339   2.599  0.00  0.00     0.000 A 
ATOM      6  C7  UNL d   1       0.871   0.509   1.662  0.00  0.00    -0.073 A 
ATOM      7  C8  UNL d   1       2.342   0.238   1.823  0.00  0.00     0.078 C 
ENDROOT
BRANCH   1   8
ATOM      8  C1  UNL d   1       0.717  -1.011  -0.393  0.00  0.00     0.053 C 
ATOM      9  C   UNL d   1       0.180  -0.773  -1.796  0.00  0.00     0.018 C 
ENDBRANCH   1   8
TORSDOF 1
ENDMDL
