MODEL 1
REMARK minimizedAffinity -3.05762744
REMARK minimizedRMSD -1
REMARK  1 active torsions:
REMARK  status: ('A' for Active; 'I' for Inactive)
REMARK    1  A    between atoms: C1_2  and  C2_3 
ROOT
ATOM      1  C2  UNL d   1      -0.073  -0.043   0.723  0.00  0.00    -0.076 A 
ATOM      2  C3  UNL d   1      -1.469   0.087   0.814  0.00  0.00     0.004 A 
ATOM      3  C4  UNL d   1      -2.052   0.891   1.793  0.00  0.00    -0.003 A 
ATOM      4  C5  UNL d   1      -1.247   1.578   2.695  0.00  0.00     0.000 A 
ATOM      5  C6  UNL d   1       0.140   1.474   2.607  0.00  0.00     0.000 A 
ATOM      6  C7  UNL d   1       0.744   0.681   1.617  0.00  0.00    -0.073 A 
ATOM      7  C8  UNL d   1       2.246   0.600   1.572  0.00  0.00     0.078 C 
ENDROOT
BRANCH   1   8
ATOM      8  C1  UNL d   1       0.501  -0.951  -0.342  0.00  0.00     0.053 C 
ATOM      9  C   UNL d   1       0.490  -0.310  -1.721  0.00  0.00     0.018 C 
ENDBRANCH   1   8
TORSDOF 1
ENDMDL
