MODEL 1
REMARK minimizedAffinity -4.91837788
REMARK minimizedRMSD -1
REMARK  1 active torsions:
REMARK  status: ('A' for Active; 'I' for Inactive)
REMARK    1  A    between atoms: C1_2  and  C2_3 
ROOT
ATOM      1  C2  UNL d   1       0.024   0.009   0.664  0.00  0.00    -0.076 A 
ATOM      2  C3  UNL d   1       0.714   0.985   1.404  0.00  0.00     0.004 A 
ATOM      3  C4  UNL d   1       0.069   1.722   2.396  0.00  0.00    -0.003 A 
ATOM      4  C5  UNL d   1      -1.276   1.495   2.664  0.00  0.00     0.000 A 
ATOM      5  C6  UNL d   1      -1.972   0.518   1.952  0.00  0.00     0.000 A 
ATOM      6  C7  UNL d   1      -1.333  -0.245   0.960  0.00  0.00    -0.073 A 
ATOM      7  C8  UNL d   1      -2.132  -1.281   0.219  0.00  0.00     0.078 C 
ENDROOT
BRANCH   1   8
ATOM      8  C1  UNL d   1       0.769  -0.740  -0.418  0.00  0.00     0.053 C 
ATOM      9  C   UNL d   1       0.748  -0.010  -1.752  0.00  0.00     0.018 C 
ENDBRANCH   1   8
TORSDOF 1
ENDMDL
