MODEL 1
REMARK minimizedAffinity -4.98492289
REMARK minimizedRMSD -1
REMARK  1 active torsions:
REMARK  status: ('A' for Active; 'I' for Inactive)
REMARK    1  A    between atoms: C1_2  and  C2_3 
ROOT
ATOM      1  C2  UNL d   1      -0.206   0.073   0.555  0.00  0.00    -0.076 A 
ATOM      2  C3  UNL d   1       0.578   1.022   1.234  0.00  0.00     0.004 A 
ATOM      3  C4  UNL d   1       0.075   1.712   2.336  0.00  0.00    -0.003 A 
ATOM      4  C5  UNL d   1      -1.220   1.464   2.777  0.00  0.00     0.000 A 
ATOM      5  C6  UNL d   1      -2.005   0.513   2.126  0.00  0.00     0.000 A 
ATOM      6  C7  UNL d   1      -1.508  -0.203   1.024  0.00  0.00    -0.073 A 
ATOM      7  C8  UNL d   1      -2.401  -1.213   0.356  0.00  0.00     0.078 C 
ENDROOT
BRANCH   1   8
ATOM      8  C1  UNL d   1       0.384  -0.624  -0.650  0.00  0.00     0.053 C 
ATOM      9  C   UNL d   1       0.055   0.088  -1.954  0.00  0.00     0.018 C 
ENDBRANCH   1   8
TORSDOF 1
ENDMDL
