MODEL 1
REMARK minimizedAffinity -0.88233614
REMARK minimizedRMSD -1
REMARK  0 active torsions:
REMARK  status: ('A' for Active; 'I' for Inactive)
ROOT
ATOM      1  C   UNL d   1      -4.815   5.837  -5.995  0.00  0.00     0.172 C 
ATOM      2  N   UNL d   1      -3.487   5.270  -5.972  0.00  0.00    -0.070 N 
ATOM      3  C1  UNL d   1      -3.190   3.934  -5.946  0.00  0.00    -0.004 A 
ATOM      4  C2  UNL d   1      -1.818   3.806  -5.930  0.00  0.00    -0.047 A 
ATOM      5  C3  UNL d   1      -1.271   5.111  -5.947  0.00  0.00    -0.047 A 
ATOM      6  C4  UNL d   1      -2.327   5.998  -5.972  0.00  0.00    -0.004 A 
ENDROOT
TORSDOF 0
ENDMDL
