MODEL 1
REMARK minimizedAffinity -2.25280881
REMARK minimizedRMSD -1
REMARK  0 active torsions:
REMARK  status: ('A' for Active; 'I' for Inactive)
ROOT
ATOM      1  C   UNL d   1      -2.884  -4.912  -0.480  0.00  0.00     0.172 C 
ATOM      2  N   UNL d   1      -1.961  -3.865  -0.109  0.00  0.00    -0.070 N 
ATOM      3  C1  UNL d   1      -0.618  -3.853  -0.376  0.00  0.00    -0.004 A 
ATOM      4  C2  UNL d   1      -0.096  -2.687   0.141  0.00  0.00    -0.047 A 
ATOM      5  C3  UNL d   1      -1.162  -1.974   0.740  0.00  0.00    -0.047 A 
ATOM      6  C4  UNL d   1      -2.305  -2.726   0.571  0.00  0.00    -0.004 A 
ENDROOT
TORSDOF 0
ENDMDL
