MODEL 1
REMARK minimizedAffinity -0.634090006
REMARK minimizedRMSD -1
REMARK  0 active torsions:
REMARK  status: ('A' for Active; 'I' for Inactive)
ROOT
ATOM      1  C   UNL d   1      -2.469  -1.177   0.941  0.00  0.00     0.172 C 
ATOM      2  N   UNL d   1      -1.809  -2.156   0.109  0.00  0.00    -0.070 N 
ATOM      3  C1  UNL d   1      -0.536  -2.628   0.288  0.00  0.00    -0.004 A 
ATOM      4  C2  UNL d   1      -0.281  -3.543  -0.710  0.00  0.00    -0.047 A 
ATOM      5  C3  UNL d   1      -1.441  -3.625  -1.517  0.00  0.00    -0.047 A 
ATOM      6  C4  UNL d   1      -2.371  -2.755  -0.987  0.00  0.00    -0.004 A 
ENDROOT
TORSDOF 0
ENDMDL
