MODEL 1
REMARK minimizedAffinity -1.9890424
REMARK minimizedRMSD -1
REMARK  0 active torsions:
REMARK  status: ('A' for Active; 'I' for Inactive)
ROOT
ATOM      1  C   UNL d   1      -0.414  -2.668  -0.311  0.00  0.00     0.172 C 
ATOM      2  N   UNL d   1      -0.921  -3.910  -0.845  0.00  0.00    -0.070 N 
ATOM      3  C1  UNL d   1      -0.181  -5.037  -1.086  0.00  0.00    -0.004 A 
ATOM      4  C2  UNL d   1      -1.029  -5.999  -1.590  0.00  0.00    -0.047 A 
ATOM      5  C3  UNL d   1      -2.324  -5.431  -1.655  0.00  0.00    -0.047 A 
ATOM      6  C4  UNL d   1      -2.228  -4.137  -1.187  0.00  0.00    -0.004 A 
ENDROOT
TORSDOF 0
ENDMDL
