MODEL 1
REMARK minimizedAffinity 3.3551774
REMARK minimizedRMSD -1
REMARK  0 active torsions:
REMARK  status: ('A' for Active; 'I' for Inactive)
ROOT
ATOM      1  C   UNL d   1       1.889   0.850   0.835  0.00  0.00     0.172 C 
ATOM      2  N   UNL d   1       2.403   1.891   1.692  0.00  0.00    -0.070 N 
ATOM      3  C1  UNL d   1       3.726   2.196   1.872  0.00  0.00    -0.004 A 
ATOM      4  C2  UNL d   1       3.800   3.246   2.762  0.00  0.00    -0.047 A 
ATOM      5  C3  UNL d   1       2.476   3.583   3.130  0.00  0.00    -0.047 A 
ATOM      6  C4  UNL d   1       1.632   2.728   2.454  0.00  0.00    -0.004 A 
ENDROOT
TORSDOF 0
ENDMDL
