MODEL 1
REMARK minimizedAffinity 2.73682141
REMARK minimizedRMSD -1
REMARK  0 active torsions:
REMARK  status: ('A' for Active; 'I' for Inactive)
ROOT
ATOM      1  C   UNL d   1       1.711   0.620   0.891  0.00  0.00     0.172 C 
ATOM      2  N   UNL d   1       1.841  -0.792   0.615  0.00  0.00    -0.070 N 
ATOM      3  C1  UNL d   1       0.881  -1.742   0.843  0.00  0.00    -0.004 A 
ATOM      4  C2  UNL d   1       1.390  -2.960   0.447  0.00  0.00    -0.047 A 
ATOM      5  C3  UNL d   1       2.701  -2.734  -0.034  0.00  0.00    -0.047 A 
ATOM      6  C4  UNL d   1       2.955  -1.384   0.081  0.00  0.00    -0.004 A 
ENDROOT
TORSDOF 0
ENDMDL
