MODEL 1
REMARK minimizedAffinity 3.20358992
REMARK minimizedRMSD -1
REMARK  0 active torsions:
REMARK  status: ('A' for Active; 'I' for Inactive)
ROOT
ATOM      1  C   UNL d   1       5.341   2.459   2.023  0.00  0.00     0.172 C 
ATOM      2  N   UNL d   1       3.913   2.678   2.003  0.00  0.00    -0.070 N 
ATOM      3  C1  UNL d   1       2.971   1.764   1.613  0.00  0.00    -0.004 A 
ATOM      4  C2  UNL d   1       1.733   2.355   1.739  0.00  0.00    -0.047 A 
ATOM      5  C3  UNL d   1       1.937   3.669   2.221  0.00  0.00    -0.047 A 
ATOM      6  C4  UNL d   1       3.297   3.843   2.376  0.00  0.00    -0.004 A 
ENDROOT
TORSDOF 0
ENDMDL
