MODEL 1
REMARK minimizedAffinity 3.47074747
REMARK minimizedRMSD -1
REMARK  0 active torsions:
REMARK  status: ('A' for Active; 'I' for Inactive)
ROOT
ATOM      1  C   UNL d   1       1.933   1.324   0.793  0.00  0.00     0.172 C 
ATOM      2  N   UNL d   1       2.645   2.324   1.553  0.00  0.00    -0.070 N 
ATOM      3  C1  UNL d   1       2.209   3.598   1.803  0.00  0.00    -0.004 A 
ATOM      4  C2  UNL d   1       3.171   4.233   2.558  0.00  0.00    -0.047 A 
ATOM      5  C3  UNL d   1       4.222   3.310   2.768  0.00  0.00    -0.047 A 
ATOM      6  C4  UNL d   1       3.871   2.136   2.135  0.00  0.00    -0.004 A 
ENDROOT
TORSDOF 0
ENDMDL
