MODEL 1
REMARK minimizedAffinity 3.78257179
REMARK minimizedRMSD -1
REMARK  0 active torsions:
REMARK  status: ('A' for Active; 'I' for Inactive)
ROOT
ATOM      1  C   UNL d   1       4.109   4.774   2.307  0.00  0.00     0.172 C 
ATOM      2  N   UNL d   1       3.459   3.492   2.162  0.00  0.00    -0.070 N 
ATOM      3  C1  UNL d   1       4.082   2.312   1.854  0.00  0.00    -0.004 A 
ATOM      4  C2  UNL d   1       3.119   1.326   1.809  0.00  0.00    -0.047 A 
ATOM      5  C3  UNL d   1       1.875   1.936   2.098  0.00  0.00    -0.047 A 
ATOM      6  C4  UNL d   1       2.115   3.277   2.313  0.00  0.00    -0.004 A 
ENDROOT
TORSDOF 0
ENDMDL
