MODEL 1
REMARK minimizedAffinity 4.83307505
REMARK minimizedRMSD -1
REMARK  0 active torsions:
REMARK  status: ('A' for Active; 'I' for Inactive)
ROOT
ATOM      1  C   UNL d   1       1.279   1.403   1.223  0.00  0.00     0.172 C 
ATOM      2  N   UNL d   1       2.138   2.389   1.836  0.00  0.00    -0.070 N 
ATOM      3  C1  UNL d   1       3.461   2.216   2.142  0.00  0.00    -0.004 A 
ATOM      4  C2  UNL d   1       3.920   3.384   2.711  0.00  0.00    -0.047 A 
ATOM      5  C3  UNL d   1       2.834   4.290   2.751  0.00  0.00    -0.047 A 
ATOM      6  C4  UNL d   1       1.743   3.649   2.202  0.00  0.00    -0.004 A 
ENDROOT
TORSDOF 0
ENDMDL
