MODEL 1
REMARK minimizedAffinity 6.08435917
REMARK minimizedRMSD -1
REMARK  0 active torsions:
REMARK  status: ('A' for Active; 'I' for Inactive)
ROOT
ATOM      1  C   UNL d   1       5.279   5.555   5.999  0.00  0.00     0.172 C 
ATOM      2  N   UNL d   1       5.177   4.514   5.004  0.00  0.00    -0.070 N 
ATOM      3  C1  UNL d   1       4.253   4.462   3.995  0.00  0.00    -0.004 A 
ATOM      4  C2  UNL d   1       4.490   3.317   3.264  0.00  0.00    -0.047 A 
ATOM      5  C3  UNL d   1       5.594   2.658   3.856  0.00  0.00    -0.047 A 
ATOM      6  C4  UNL d   1       6.000   3.421   4.931  0.00  0.00    -0.004 A 
ENDROOT
TORSDOF 0
ENDMDL
