MODEL 1
REMARK minimizedAffinity 5.35427237
REMARK minimizedRMSD -1
REMARK  0 active torsions:
REMARK  status: ('A' for Active; 'I' for Inactive)
ROOT
ATOM      1  C   UNL d   1      -0.722   0.380  -6.000  0.00  0.00     0.172 C 
ATOM      2  N   UNL d   1       0.514   0.744  -5.348  0.00  0.00    -0.070 N 
ATOM      3  C1  UNL d   1       0.741   0.724  -3.998  0.00  0.00    -0.004 A 
ATOM      4  C2  UNL d   1       2.037   1.138  -3.782  0.00  0.00    -0.047 A 
ATOM      5  C3  UNL d   1       2.609   1.419  -5.046  0.00  0.00    -0.047 A 
ATOM      6  C4  UNL d   1       1.644   1.167  -5.998  0.00  0.00    -0.004 A 
ENDROOT
TORSDOF 0
ENDMDL
