MODEL 1
REMARK minimizedAffinity 3.73154616
REMARK minimizedRMSD -1
REMARK  0 active torsions:
REMARK  status: ('A' for Active; 'I' for Inactive)
ROOT
ATOM      1  C   UNL d   1       2.751   2.074   2.172  0.00  0.00     0.172 C 
ATOM      2  N   UNL d   1       2.181   3.039   3.082  0.00  0.00    -0.070 N 
ATOM      3  C1  UNL d   1       1.319   2.756   4.108  0.00  0.00    -0.004 A 
ATOM      4  C2  UNL d   1       1.009   3.943   4.737  0.00  0.00    -0.047 A 
ATOM      5  C3  UNL d   1       1.708   4.974   4.066  0.00  0.00    -0.047 A 
ATOM      6  C4  UNL d   1       2.426   4.386   3.045  0.00  0.00    -0.004 A 
ENDROOT
TORSDOF 0
ENDMDL
