MODEL 1
REMARK minimizedAffinity -0.197552532
REMARK minimizedRMSD -1
REMARK  0 active torsions:
REMARK  status: ('A' for Active; 'I' for Inactive)
ROOT
ATOM      1  C   UNL d   1      -1.221  -5.315  -1.612  0.00  0.00     0.172 C 
ATOM      2  N   UNL d   1      -0.163  -4.737  -0.817  0.00  0.00    -0.070 N 
ATOM      3  C1  UNL d   1       1.059  -5.306  -0.579  0.00  0.00    -0.004 A 
ATOM      4  C2  UNL d   1       1.778  -4.443   0.219  0.00  0.00    -0.047 A 
ATOM      5  C3  UNL d   1       0.960  -3.317   0.470  0.00  0.00    -0.047 A 
ATOM      6  C4  UNL d   1      -0.236  -3.524  -0.184  0.00  0.00    -0.004 A 
ENDROOT
TORSDOF 0
ENDMDL
