MODEL 1
REMARK minimizedAffinity 4.46590948
REMARK minimizedRMSD -1
REMARK  0 active torsions:
REMARK  status: ('A' for Active; 'I' for Inactive)
ROOT
ATOM      1  C   UNL d   1       3.728   5.695   2.190  0.00  0.00     0.172 C 
ATOM      2  N   UNL d   1       3.881   4.259   2.177  0.00  0.00    -0.070 N 
ATOM      3  C1  UNL d   1       5.070   3.583   2.107  0.00  0.00    -0.004 A 
ATOM      4  C2  UNL d   1       4.789   2.233   2.120  0.00  0.00    -0.047 A 
ATOM      5  C3  UNL d   1       3.383   2.094   2.199  0.00  0.00    -0.047 A 
ATOM      6  C4  UNL d   1       2.846   3.363   2.233  0.00  0.00    -0.004 A 
ENDROOT
TORSDOF 0
ENDMDL
