MODEL 1
REMARK minimizedAffinity 2.59584737
REMARK minimizedRMSD -1
REMARK  0 active torsions:
REMARK  status: ('A' for Active; 'I' for Inactive)
ROOT
ATOM      1  C   UNL d   1       0.354  -5.994  -4.228  0.00  0.00     0.172 C 
ATOM      2  N   UNL d   1       1.781  -5.996  -4.006  0.00  0.00    -0.070 N 
ATOM      3  C1  UNL d   1       2.400  -5.997  -2.785  0.00  0.00    -0.004 A 
ATOM      4  C2  UNL d   1       3.761  -5.999  -3.001  0.00  0.00    -0.047 A 
ATOM      5  C3  UNL d   1       3.968  -5.999  -4.401  0.00  0.00    -0.047 A 
ATOM      6  C4  UNL d   1       2.726  -5.997  -4.999  0.00  0.00    -0.004 A 
ENDROOT
TORSDOF 0
ENDMDL
