MODEL 1
REMARK minimizedAffinity 0.080342412
REMARK minimizedRMSD -1
REMARK  0 active torsions:
REMARK  status: ('A' for Active; 'I' for Inactive)
ROOT
ATOM      1  C   UNL d   1       2.366   2.699   2.282  0.00  0.00     0.172 C 
ATOM      2  N   UNL d   1       2.665   4.038   2.733  0.00  0.00    -0.070 N 
ATOM      3  C1  UNL d   1       1.932   4.758   3.637  0.00  0.00    -0.004 A 
ATOM      4  C2  UNL d   1       2.545   5.982   3.798  0.00  0.00    -0.047 A 
ATOM      5  C3  UNL d   1       3.685   5.998   2.961  0.00  0.00    -0.047 A 
ATOM      6  C4  UNL d   1       3.736   4.782   2.313  0.00  0.00    -0.004 A 
ENDROOT
TORSDOF 0
ENDMDL
