MODEL 1
REMARK minimizedAffinity 0.776542902
REMARK minimizedRMSD -1
REMARK  0 active torsions:
REMARK  status: ('A' for Active; 'I' for Inactive)
ROOT
ATOM      1  C   UNL d   1       3.721   5.238   4.256  0.00  0.00     0.172 C 
ATOM      2  N   UNL d   1       3.503   4.646   2.957  0.00  0.00    -0.070 N 
ATOM      3  C1  UNL d   1       3.879   5.190   1.758  0.00  0.00    -0.004 A 
ATOM      4  C2  UNL d   1       3.492   4.321   0.761  0.00  0.00    -0.047 A 
ATOM      5  C3  UNL d   1       2.861   3.217   1.382  0.00  0.00    -0.047 A 
ATOM      6  C4  UNL d   1       2.882   3.444   2.742  0.00  0.00    -0.004 A 
ENDROOT
TORSDOF 0
ENDMDL
