MODEL 1
REMARK minimizedAffinity -1.95416903
REMARK minimizedRMSD -1
REMARK  2 active torsions:
REMARK  status: ('A' for Active; 'I' for Inactive)
REMARK    1  A    between atoms: C1_2  and  C2_3 
REMARK    2  A    between atoms: C2_3  and  C3_4 
ROOT
ATOM      1  C3  UNL d   1       2.186  -0.744  -5.294  0.00  0.00    -0.075 A 
ATOM      2  C4  UNL d   1       2.197  -1.459  -4.088  0.00  0.00     0.002 A 
ATOM      3  C5  UNL d   1       1.006  -1.918  -3.525  0.00  0.00     0.002 A 
ATOM      4  C6  UNL d   1      -0.210  -1.660  -4.153  0.00  0.00    -0.004 A 
ATOM      5  C7  UNL d   1      -0.235  -0.936  -5.343  0.00  0.00     0.002 A 
ATOM      6  C8  UNL d   1       0.956  -0.479  -5.911  0.00  0.00     0.002 A 
ENDROOT
BRANCH   1   7
ATOM      7  C2  UNL d   1       3.474  -0.270  -5.924  0.00  0.00     0.056 C 
BRANCH   7   8
ATOM      8  C1  UNL d   1       4.615  -1.290  -5.854  0.00  0.00     0.007 C 
ATOM      9  C   UNL d   1       5.994  -0.647  -5.814  0.00  0.00     0.009 C 
ENDBRANCH   7   8
ENDBRANCH   1   7
TORSDOF 2
ENDMDL
