MODEL 1
REMARK minimizedAffinity 2.16532397
REMARK minimizedRMSD -1
REMARK  2 active torsions:
REMARK  status: ('A' for Active; 'I' for Inactive)
REMARK    1  A    between atoms: C1_2  and  C2_3 
REMARK    2  A    between atoms: C2_3  and  C3_4 
ROOT
ATOM      1  C3  UNL d   1       1.520  -0.757  -5.201  0.00  0.00    -0.075 A 
ATOM      2  C4  UNL d   1       2.642  -0.489  -5.999  0.00  0.00     0.002 A 
ATOM      3  C5  UNL d   1       3.927  -0.751  -5.525  0.00  0.00     0.002 A 
ATOM      4  C6  UNL d   1       4.109  -1.273  -4.246  0.00  0.00    -0.004 A 
ATOM      5  C7  UNL d   1       3.002  -1.527  -3.438  0.00  0.00     0.002 A 
ATOM      6  C8  UNL d   1       1.715  -1.270  -3.912  0.00  0.00     0.002 A 
ENDROOT
BRANCH   1   7
ATOM      7  C2  UNL d   1       0.125  -0.503  -5.719  0.00  0.00     0.056 C 
BRANCH   7   8
ATOM      8  C1  UNL d   1      -0.980  -1.157  -4.882  0.00  0.00     0.007 C 
ATOM      9  C   UNL d   1      -2.274  -0.354  -4.865  0.00  0.00     0.009 C 
ENDBRANCH   7   8
ENDBRANCH   1   7
TORSDOF 2
ENDMDL
