MODEL 1
REMARK minimizedAffinity 1.76108515
REMARK minimizedRMSD -1
REMARK  2 active torsions:
REMARK  status: ('A' for Active; 'I' for Inactive)
REMARK    1  A    between atoms: C1_2  and  C2_3 
REMARK    2  A    between atoms: C2_3  and  C3_4 
ROOT
ATOM      1  C3  UNL d   1       2.822  -0.183  -5.226  0.00  0.00    -0.075 A 
ATOM      2  C4  UNL d   1       3.024  -0.639  -3.915  0.00  0.00     0.002 A 
ATOM      3  C5  UNL d   1       4.311  -0.724  -3.384  0.00  0.00     0.002 A 
ATOM      4  C6  UNL d   1       5.412  -0.364  -4.158  0.00  0.00    -0.004 A 
ATOM      5  C7  UNL d   1       5.225   0.075  -5.467  0.00  0.00     0.002 A 
ATOM      6  C8  UNL d   1       3.938   0.164  -5.999  0.00  0.00     0.002 A 
ENDROOT
BRANCH   1   7
ATOM      7  C2  UNL d   1       1.429  -0.062  -5.796  0.00  0.00     0.056 C 
BRANCH   7   8
ATOM      8  C1  UNL d   1       0.423  -1.051  -5.200  0.00  0.00     0.007 C 
ATOM      9  C   UNL d   1      -1.001  -0.511  -5.163  0.00  0.00     0.009 C 
ENDBRANCH   7   8
ENDBRANCH   1   7
TORSDOF 2
ENDMDL
