MODEL 1
REMARK minimizedAffinity 4.65208769
REMARK minimizedRMSD -1
REMARK  2 active torsions:
REMARK  status: ('A' for Active; 'I' for Inactive)
REMARK    1  A    between atoms: C1_2  and  C2_3 
REMARK    2  A    between atoms: C2_3  and  C3_4 
ROOT
ATOM      1  C3  UNL d   1       1.431  -0.702  -5.185  0.00  0.00    -0.075 A 
ATOM      2  C4  UNL d   1       2.530  -0.385  -5.997  0.00  0.00     0.002 A 
ATOM      3  C5  UNL d   1       3.825  -0.408  -5.477  0.00  0.00     0.002 A 
ATOM      4  C6  UNL d   1       4.036  -0.736  -4.140  0.00  0.00    -0.004 A 
ATOM      5  C7  UNL d   1       2.950  -1.036  -3.320  0.00  0.00     0.002 A 
ATOM      6  C8  UNL d   1       1.654  -1.019  -3.838  0.00  0.00     0.002 A 
ENDROOT
BRANCH   1   7
ATOM      7  C2  UNL d   1       0.030  -0.708  -5.748  0.00  0.00     0.056 C 
BRANCH   7   8
ATOM      8  C1  UNL d   1      -1.005  -1.377  -4.839  0.00  0.00     0.007 C 
ATOM      9  C   UNL d   1      -2.166  -0.461  -4.476  0.00  0.00     0.009 C 
ENDBRANCH   7   8
ENDBRANCH   1   7
TORSDOF 2
ENDMDL
