MODEL 1
REMARK minimizedAffinity 4.26367617
REMARK minimizedRMSD -1
REMARK  2 active torsions:
REMARK  status: ('A' for Active; 'I' for Inactive)
REMARK    1  A    between atoms: C1_2  and  C2_3 
REMARK    2  A    between atoms: C2_3  and  C3_4 
ROOT
ATOM      1  C3  UNL d   1       2.450  -0.333  -5.270  0.00  0.00    -0.075 A 
ATOM      2  C4  UNL d   1       3.580   0.061  -6.000  0.00  0.00     0.002 A 
ATOM      3  C5  UNL d   1       4.860  -0.104  -5.468  0.00  0.00     0.002 A 
ATOM      4  C6  UNL d   1       5.024  -0.653  -4.199  0.00  0.00    -0.004 A 
ATOM      5  C7  UNL d   1       3.908  -1.033  -3.458  0.00  0.00     0.002 A 
ATOM      6  C8  UNL d   1       2.626  -0.874  -3.989  0.00  0.00     0.002 A 
ENDROOT
BRANCH   1   7
ATOM      7  C2  UNL d   1       1.064  -0.185  -5.851  0.00  0.00     0.056 C 
BRANCH   7   8
ATOM      8  C1  UNL d   1       0.052  -1.204  -5.318  0.00  0.00     0.007 C 
ATOM      9  C   UNL d   1      -1.385  -0.702  -5.360  0.00  0.00     0.009 C 
ENDBRANCH   7   8
ENDBRANCH   1   7
TORSDOF 2
ENDMDL
