MODEL 1
REMARK minimizedAffinity -5.44737959
REMARK minimizedRMSD -1
REMARK  0 active torsions:
REMARK  status: ('A' for Active; 'I' for Inactive)
ROOT
ATOM      1  C   UNL d   1      -0.709  -2.004   3.295  0.00  0.00     0.077 C 
ATOM      2  C1  UNL d   1       0.063  -1.630   2.064  0.00  0.00    -0.074 A 
ATOM      3  C2  UNL d   1       1.213  -2.336   1.695  0.00  0.00    -0.005 A 
ATOM      4  C3  UNL d   1       1.915  -1.982   0.542  0.00  0.00     0.006 A 
ATOM      5  C4  UNL d   1       1.475  -0.922  -0.251  0.00  0.00    -0.005 A 
ATOM      6  C5  UNL d   1       0.327  -0.205   0.102  0.00  0.00    -0.074 A 
ATOM      7  C6  UNL d   1      -0.165   0.931  -0.744  0.00  0.00     0.077 C 
ATOM      8  C7  UNL d   1      -0.377  -0.571   1.258  0.00  0.00    -0.001 A 
ENDROOT
TORSDOF 0
ENDMDL
