MODEL 1
REMARK minimizedAffinity -2.38610458
REMARK minimizedRMSD -1
REMARK  0 active torsions:
REMARK  status: ('A' for Active; 'I' for Inactive)
ROOT
ATOM      1  C   UNL d   1      -1.906   1.973  -3.959  0.00  0.00     0.077 C 
ATOM      2  C1  UNL d   1      -1.763   1.651  -2.501  0.00  0.00    -0.074 A 
ATOM      3  C2  UNL d   1      -2.796   1.929  -1.600  0.00  0.00    -0.005 A 
ATOM      4  C3  UNL d   1      -2.652   1.616  -0.248  0.00  0.00     0.006 A 
ATOM      5  C4  UNL d   1      -1.477   1.022   0.215  0.00  0.00    -0.005 A 
ATOM      6  C5  UNL d   1      -0.435   0.736  -0.672  0.00  0.00    -0.074 A 
ATOM      7  C6  UNL d   1       0.831   0.089  -0.193  0.00  0.00     0.077 C 
ATOM      8  C7  UNL d   1      -0.589   1.047  -2.030  0.00  0.00    -0.001 A 
ENDROOT
TORSDOF 0
ENDMDL
