MODEL 1
REMARK minimizedAffinity -2.50871015
REMARK minimizedRMSD -1
REMARK  0 active torsions:
REMARK  status: ('A' for Active; 'I' for Inactive)
ROOT
ATOM      1  C   UNL d   1       0.282   5.064  -3.733  0.00  0.00     0.077 C 
ATOM      2  C1  UNL d   1      -0.574   3.833  -3.700  0.00  0.00    -0.074 A 
ATOM      3  C2  UNL d   1      -0.949   3.186  -4.882  0.00  0.00    -0.005 A 
ATOM      4  C3  UNL d   1      -1.737   2.036  -4.834  0.00  0.00     0.006 A 
ATOM      5  C4  UNL d   1      -2.159   1.523  -3.607  0.00  0.00    -0.005 A 
ATOM      6  C5  UNL d   1      -1.794   2.157  -2.415  0.00  0.00    -0.074 A 
ATOM      7  C6  UNL d   1      -2.230   1.613  -1.087  0.00  0.00     0.077 C 
ATOM      8  C7  UNL d   1      -0.995   3.307  -2.470  0.00  0.00    -0.001 A 
ENDROOT
TORSDOF 0
ENDMDL
