MODEL 1
REMARK minimizedAffinity -4.31473255
REMARK minimizedRMSD -1
REMARK  0 active torsions:
REMARK  status: ('A' for Active; 'I' for Inactive)
ROOT
ATOM      1  C   UNL d   1      -1.500  -1.206   3.456  0.00  0.00     0.077 C 
ATOM      2  C1  UNL d   1      -1.054  -0.409   2.266  0.00  0.00    -0.074 A 
ATOM      3  C2  UNL d   1      -1.777   0.708   1.837  0.00  0.00    -0.005 A 
ATOM      4  C3  UNL d   1      -1.344   1.445   0.734  0.00  0.00     0.006 A 
ATOM      5  C4  UNL d   1      -0.186   1.072   0.051  0.00  0.00    -0.005 A 
ATOM      6  C5  UNL d   1       0.551  -0.042   0.467  0.00  0.00    -0.074 A 
ATOM      7  C6  UNL d   1       1.804  -0.450  -0.250  0.00  0.00     0.077 C 
ATOM      8  C7  UNL d   1       0.114  -0.773   1.580  0.00  0.00    -0.001 A 
ENDROOT
TORSDOF 0
ENDMDL
