MODEL 1
REMARK minimizedAffinity -1.32926631
REMARK minimizedRMSD -1
REMARK  0 active torsions:
REMARK  status: ('A' for Active; 'I' for Inactive)
ROOT
ATOM      1  C   UNL d   1      -1.337  -0.927   2.881  0.00  0.00     0.077 C 
ATOM      2  C1  UNL d   1      -0.469  -0.590   1.705  0.00  0.00    -0.074 A 
ATOM      3  C2  UNL d   1       0.758  -1.232   1.509  0.00  0.00    -0.005 A 
ATOM      4  C3  UNL d   1       1.550  -0.915   0.406  0.00  0.00     0.006 A 
ATOM      5  C4  UNL d   1       1.124   0.046  -0.512  0.00  0.00    -0.005 A 
ATOM      6  C5  UNL d   1      -0.100   0.698  -0.333  0.00  0.00    -0.074 A 
ATOM      7  C6  UNL d   1      -0.577   1.726  -1.315  0.00  0.00     0.077 C 
ATOM      8  C7  UNL d   1      -0.893   0.369   0.774  0.00  0.00    -0.001 A 
ENDROOT
TORSDOF 0
ENDMDL
