MODEL 1
REMARK minimizedAffinity -1.52380443
REMARK minimizedRMSD -1
REMARK  0 active torsions:
REMARK  status: ('A' for Active; 'I' for Inactive)
ROOT
ATOM      1  C   UNL d   1      -0.785   1.435  -0.817  0.00  0.00     0.077 C 
ATOM      2  C1  UNL d   1       0.099   0.430  -0.140  0.00  0.00    -0.074 A 
ATOM      3  C2  UNL d   1       1.319   0.049  -0.707  0.00  0.00    -0.005 A 
ATOM      4  C3  UNL d   1       2.135  -0.880  -0.062  0.00  0.00     0.006 A 
ATOM      5  C4  UNL d   1       1.740  -1.437   1.155  0.00  0.00    -0.005 A 
ATOM      6  C5  UNL d   1       0.523  -1.068   1.737  0.00  0.00    -0.074 A 
ATOM      7  C6  UNL d   1       0.087  -1.650   3.049  0.00  0.00     0.077 C 
ATOM      8  C7  UNL d   1      -0.288  -0.129   1.086  0.00  0.00    -0.001 A 
ENDROOT
TORSDOF 0
ENDMDL
