MODEL 1
REMARK minimizedAffinity -4.70814657
REMARK minimizedRMSD -1
REMARK  0 active torsions:
REMARK  status: ('A' for Active; 'I' for Inactive)
ROOT
ATOM      1  C   UNL d   1      -0.627  -1.724   3.115  0.00  0.00     0.077 C 
ATOM      2  C1  UNL d   1       0.094  -1.091   1.962  0.00  0.00    -0.074 A 
ATOM      3  C2  UNL d   1       1.372  -1.521   1.591  0.00  0.00    -0.005 A 
ATOM      4  C3  UNL d   1       2.026  -0.930   0.510  0.00  0.00     0.006 A 
ATOM      5  C4  UNL d   1       1.410   0.095  -0.210  0.00  0.00    -0.005 A 
ATOM      6  C5  UNL d   1       0.132   0.537   0.146  0.00  0.00    -0.074 A 
ATOM      7  C6  UNL d   1      -0.549   1.631  -0.622  0.00  0.00     0.077 C 
ATOM      8  C7  UNL d   1      -0.522  -0.067   1.229  0.00  0.00    -0.001 A 
ENDROOT
TORSDOF 0
ENDMDL
