MODEL 1
REMARK minimizedAffinity -4.34558535
REMARK minimizedRMSD -1
REMARK  0 active torsions:
REMARK  status: ('A' for Active; 'I' for Inactive)
ROOT
ATOM      1  C   UNL d   1      -0.254   1.475  -0.645  0.00  0.00     0.077 C 
ATOM      2  C1  UNL d   1      -0.320   0.481   0.476  0.00  0.00    -0.074 A 
ATOM      3  C2  UNL d   1      -1.391   0.483   1.376  0.00  0.00    -0.005 A 
ATOM      4  C3  UNL d   1      -1.444  -0.454   2.408  0.00  0.00     0.006 A 
ATOM      5  C4  UNL d   1      -0.429  -1.401   2.550  0.00  0.00    -0.005 A 
ATOM      6  C5  UNL d   1       0.649  -1.418   1.659  0.00  0.00    -0.074 A 
ATOM      7  C6  UNL d   1       1.744  -2.435   1.792  0.00  0.00     0.077 C 
ATOM      8  C7  UNL d   1       0.692  -0.478   0.621  0.00  0.00    -0.001 A 
ENDROOT
TORSDOF 0
ENDMDL
