MODEL 1
REMARK minimizedAffinity -4.96937847
REMARK minimizedRMSD -1
REMARK  0 active torsions:
REMARK  status: ('A' for Active; 'I' for Inactive)
ROOT
ATOM      1  C   UNL d   1       1.854  -1.623   0.373  0.00  0.00     0.077 C 
ATOM      2  C1  UNL d   1       0.670  -0.788   0.760  0.00  0.00    -0.074 A 
ATOM      3  C2  UNL d   1       0.348   0.374   0.052  0.00  0.00    -0.005 A 
ATOM      4  C3  UNL d   1      -0.762   1.136   0.417  0.00  0.00     0.006 A 
ATOM      5  C4  UNL d   1      -1.559   0.744   1.494  0.00  0.00    -0.005 A 
ATOM      6  C5  UNL d   1      -1.253  -0.415   2.213  0.00  0.00    -0.074 A 
ATOM      7  C6  UNL d   1      -2.105  -0.855   3.366  0.00  0.00     0.077 C 
ATOM      8  C7  UNL d   1      -0.140  -1.179   1.835  0.00  0.00    -0.001 A 
ENDROOT
TORSDOF 0
ENDMDL
