MODEL 1
REMARK minimizedAffinity -4.80255842
REMARK minimizedRMSD -1
REMARK  0 active torsions:
REMARK  status: ('A' for Active; 'I' for Inactive)
ROOT
ATOM      1  C   UNL d   1      -1.489   2.343  -1.642  0.00  0.00     0.077 C 
ATOM      2  C1  UNL d   1      -1.184   1.361  -0.550  0.00  0.00    -0.074 A 
ATOM      3  C2  UNL d   1      -2.096   1.132   0.486  0.00  0.00    -0.005 A 
ATOM      4  C3  UNL d   1      -1.803   0.208   1.489  0.00  0.00     0.006 A 
ATOM      5  C4  UNL d   1      -0.597  -0.494   1.467  0.00  0.00    -0.005 A 
ATOM      6  C5  UNL d   1       0.326  -0.279   0.440  0.00  0.00    -0.074 A 
ATOM      7  C6  UNL d   1       1.622  -1.033   0.396  0.00  0.00     0.077 C 
ATOM      8  C7  UNL d   1       0.022   0.645  -0.569  0.00  0.00    -0.001 A 
ENDROOT
TORSDOF 0
ENDMDL
