MODEL 1
REMARK minimizedAffinity -4.56257486
REMARK minimizedRMSD -1
REMARK  0 active torsions:
REMARK  status: ('A' for Active; 'I' for Inactive)
ROOT
ATOM      1  C   UNL d   1       0.046  -1.887   3.405  0.00  0.00     0.077 C 
ATOM      2  C1  UNL d   1       0.516  -1.364   2.080  0.00  0.00    -0.074 A 
ATOM      3  C2  UNL d   1       1.684  -1.856   1.487  0.00  0.00    -0.005 A 
ATOM      4  C3  UNL d   1       2.103  -1.367   0.250  0.00  0.00     0.006 A 
ATOM      5  C4  UNL d   1       1.362  -0.383  -0.406  0.00  0.00    -0.005 A 
ATOM      6  C5  UNL d   1       0.191   0.120   0.172  0.00  0.00    -0.074 A 
ATOM      7  C6  UNL d   1      -0.623   1.170  -0.524  0.00  0.00     0.077 C 
ATOM      8  C7  UNL d   1      -0.228  -0.382   1.412  0.00  0.00    -0.001 A 
ENDROOT
TORSDOF 0
ENDMDL
