MODEL 1
REMARK minimizedAffinity -0.893633008
REMARK minimizedRMSD -1
REMARK  0 active torsions:
REMARK  status: ('A' for Active; 'I' for Inactive)
ROOT
ATOM      1  C   UNL d   1      -0.999   1.055  -0.063  0.00  0.00     0.077 C 
ATOM      2  C1  UNL d   1      -0.051   0.074   0.559  0.00  0.00    -0.074 A 
ATOM      3  C2  UNL d   1       1.181  -0.211  -0.037  0.00  0.00    -0.005 A 
ATOM      4  C3  UNL d   1       2.057  -1.119   0.558  0.00  0.00     0.006 A 
ATOM      5  C4  UNL d   1       1.711  -1.749   1.754  0.00  0.00    -0.005 A 
ATOM      6  C5  UNL d   1       0.483  -1.475   2.365  0.00  0.00    -0.074 A 
ATOM      7  C6  UNL d   1       0.099  -2.137   3.656  0.00  0.00     0.077 C 
ATOM      8  C7  UNL d   1      -0.389  -0.557   1.765  0.00  0.00    -0.001 A 
ENDROOT
TORSDOF 0
ENDMDL
