MODEL 1
REMARK minimizedAffinity 1.78733587
REMARK minimizedRMSD -1
REMARK  0 active torsions:
REMARK  status: ('A' for Active; 'I' for Inactive)
ROOT
ATOM      1  C   UNL d   1       0.378   0.609  -1.021  0.00  0.00     0.077 C 
ATOM      2  C1  UNL d   1       0.556  -0.209   0.223  0.00  0.00    -0.074 A 
ATOM      3  C2  UNL d   1       1.785  -0.804   0.523  0.00  0.00    -0.005 A 
ATOM      4  C3  UNL d   1       1.938  -1.554   1.689  0.00  0.00     0.006 A 
ATOM      5  C4  UNL d   1       0.865  -1.717   2.565  0.00  0.00    -0.005 A 
ATOM      6  C5  UNL d   1      -0.372  -1.129   2.283  0.00  0.00    -0.074 A 
ATOM      7  C6  UNL d   1      -1.533  -1.286   3.219  0.00  0.00     0.077 C 
ATOM      8  C7  UNL d   1      -0.516  -0.371   1.113  0.00  0.00    -0.001 A 
ENDROOT
TORSDOF 0
ENDMDL
