MODEL 1
REMARK minimizedAffinity 9.13916016
REMARK minimizedRMSD -1
REMARK  0 active torsions:
REMARK  status: ('A' for Active; 'I' for Inactive)
ROOT
ATOM      1  C   UNL d   1      -1.313  -0.498  -1.134  0.00  0.00    -0.002 A 
ATOM      2  C1  UNL d   1       0.025  -0.502  -1.502  0.00  0.00     0.010 A 
ATOM      3  C2  UNL d   1       0.412  -0.951  -2.767  0.00  0.00     0.041 A 
ATOM      4  C3  UNL d   1      -0.578  -1.397  -3.664  0.00  0.00    -0.075 A 
ATOM      5  S   UNL d   1      -0.339  -1.990  -5.265  0.00  0.00     0.015 SA
ATOM      6  C4  UNL d   1      -2.008  -2.250  -5.498  0.00  0.00     0.022 A 
ATOM      7  C5  UNL d   1      -2.744  -1.899  -4.391  0.00  0.00     0.026 A 
ATOM      8  C6  UNL d   1      -1.932  -1.401  -3.316  0.00  0.00    -0.082 A 
ATOM      9  C7  UNL d   1      -2.292  -0.941  -2.026  0.00  0.00     0.045 A 
ENDROOT
TORSDOF 0
ENDMDL
