MODEL 1
REMARK minimizedAffinity 8.07126141
REMARK minimizedRMSD -1
REMARK  0 active torsions:
REMARK  status: ('A' for Active; 'I' for Inactive)
ROOT
ATOM      1  C   UNL d   1       5.004  -2.774  -2.252  0.00  0.00    -0.002 A 
ATOM      2  C1  UNL d   1       4.269  -1.892  -1.472  0.00  0.00     0.010 A 
ATOM      3  C2  UNL d   1       3.173  -2.340  -0.734  0.00  0.00     0.041 A 
ATOM      4  C3  UNL d   1       2.824  -3.704  -0.792  0.00  0.00    -0.075 A 
ATOM      5  S   UNL d   1       1.521  -4.479   0.029  0.00  0.00     0.015 SA
ATOM      6  C4  UNL d   1       1.909  -6.000  -0.637  0.00  0.00     0.022 A 
ATOM      7  C5  UNL d   1       3.002  -5.936  -1.467  0.00  0.00     0.026 A 
ATOM      8  C6  UNL d   1       3.548  -4.612  -1.570  0.00  0.00    -0.082 A 
ATOM      9  C7  UNL d   1       4.655  -4.126  -2.307  0.00  0.00     0.045 A 
ENDROOT
TORSDOF 0
ENDMDL
