MODEL 1
REMARK minimizedAffinity 11.2174692
REMARK minimizedRMSD -1
REMARK  0 active torsions:
REMARK  status: ('A' for Active; 'I' for Inactive)
ROOT
ATOM      1  C   UNL d   1       1.336   3.061   3.387  0.00  0.00    -0.002 A 
ATOM      2  C1  UNL d   1       0.695   1.833   3.301  0.00  0.00     0.010 A 
ATOM      3  C2  UNL d   1      -0.079   1.513   2.184  0.00  0.00     0.041 A 
ATOM      4  C3  UNL d   1      -0.198   2.456   1.144  0.00  0.00    -0.075 A 
ATOM      5  S   UNL d   1      -1.093   2.282  -0.320  0.00  0.00     0.015 SA
ATOM      6  C4  UNL d   1      -0.644   3.833  -0.865  0.00  0.00     0.022 A 
ATOM      7  C5  UNL d   1       0.168   4.482   0.035  0.00  0.00     0.026 A 
ATOM      8  C6  UNL d   1       0.439   3.698   1.207  0.00  0.00    -0.082 A 
ATOM      9  C7  UNL d   1       1.216   3.994   2.353  0.00  0.00     0.045 A 
ENDROOT
TORSDOF 0
ENDMDL
