MODEL 1
REMARK minimizedAffinity 14.3591042
REMARK minimizedRMSD -1
REMARK  0 active torsions:
REMARK  status: ('A' for Active; 'I' for Inactive)
ROOT
ATOM      1  C   UNL d   1       0.322  -1.000  -1.709  0.00  0.00    -0.002 A 
ATOM      2  C1  UNL d   1       0.402   0.339  -1.352  0.00  0.00     0.010 A 
ATOM      3  C2  UNL d   1      -0.756   1.081  -1.111  0.00  0.00     0.041 A 
ATOM      4  C3  UNL d   1      -2.008   0.448  -1.235  0.00  0.00    -0.075 A 
ATOM      5  S   UNL d   1      -3.560   1.157  -0.988  0.00  0.00     0.015 SA
ATOM      6  C4  UNL d   1      -4.366  -0.300  -1.349  0.00  0.00     0.022 A 
ATOM      7  C5  UNL d   1      -3.489  -1.313  -1.653  0.00  0.00     0.026 A 
ATOM      8  C6  UNL d   1      -2.115  -0.899  -1.592  0.00  0.00    -0.082 A 
ATOM      9  C7  UNL d   1      -0.923  -1.624  -1.830  0.00  0.00     0.045 A 
ENDROOT
TORSDOF 0
ENDMDL
