MODEL 1
REMARK minimizedAffinity 4.01378727
REMARK minimizedRMSD -1
REMARK  0 active torsions:
REMARK  status: ('A' for Active; 'I' for Inactive)
ROOT
ATOM      1  C   UNL d   1       2.049   4.116   2.505  0.00  0.00    -0.002 A 
ATOM      2  C1  UNL d   1       1.177   3.053   2.699  0.00  0.00     0.010 A 
ATOM      3  C2  UNL d   1       0.189   2.764   1.757  0.00  0.00     0.041 A 
ATOM      4  C3  UNL d   1       0.092   3.566   0.603  0.00  0.00    -0.075 A 
ATOM      5  S   UNL d   1      -1.039   3.398  -0.688  0.00  0.00     0.015 SA
ATOM      6  C4  UNL d   1      -0.392   4.732  -1.528  0.00  0.00     0.022 A 
ATOM      7  C5  UNL d   1       0.662   5.303  -0.855  0.00  0.00     0.026 A 
ATOM      8  C6  UNL d   1       0.958   4.640   0.384  0.00  0.00    -0.082 A 
ATOM      9  C7  UNL d   1       1.949   4.909   1.359  0.00  0.00     0.045 A 
ENDROOT
TORSDOF 0
ENDMDL
