MODEL 1
REMARK minimizedAffinity 7.99233007
REMARK minimizedRMSD -1
REMARK  3 active torsions:
REMARK  status: ('A' for Active; 'I' for Inactive)
REMARK    1  A    between atoms: C3'_2  and  C2'_3 
REMARK    2  A    between atoms: C2'_3  and  C1'_4 
REMARK    3  A    between atoms: C1'_4  and  C1_5 
ROOT
ATOM      1  C1  N4B d   1       2.155   0.093   1.739  0.00  0.00    -0.075 A 
ATOM      2  C2  N4B d   1       2.174   1.106   2.722  0.00  0.00     0.002 A 
ATOM      3  C3  N4B d   1       2.799   2.301   2.464  0.00  0.00     0.002 A 
ATOM      4  C4  N4B d   1       3.425   2.499   1.242  0.00  0.00    -0.004 A 
ATOM      5  C5  N4B d   1       3.379   1.525   0.288  0.00  0.00     0.002 A 
ATOM      6  C6  N4B d   1       2.751   0.320   0.532  0.00  0.00     0.002 A 
ENDROOT
BRANCH   1   7
ATOM      7  C1' N4B d   1       1.558  -1.262   2.006  0.00  0.00     0.057 C 
BRANCH   7   8
ATOM      8  C2' N4B d   1       1.919  -1.697   3.423  0.00  0.00     0.009 C 
BRANCH   8   9
ATOM      9  C3' N4B d   1       1.362  -3.071   3.755  0.00  0.00     0.004 C 
ATOM     10  C4' N4B d   1       2.082  -4.177   3.042  0.00  0.00     0.003 C 
ENDBRANCH   8   9
ENDBRANCH   7   8
ENDBRANCH   1   7
TORSDOF 3
ENDMDL
