MODEL 1
REMARK minimizedAffinity 11.2853365
REMARK minimizedRMSD -1
REMARK  3 active torsions:
REMARK  status: ('A' for Active; 'I' for Inactive)
REMARK    1  A    between atoms: C3'_2  and  C2'_3 
REMARK    2  A    between atoms: C2'_3  and  C1'_4 
REMARK    3  A    between atoms: C1'_4  and  C1_5 
ROOT
ATOM      1  C1  N4B d   1       3.540  -2.589   4.553  0.00  0.00    -0.075 A 
ATOM      2  C2  N4B d   1       3.540  -3.950   4.178  0.00  0.00     0.002 A 
ATOM      3  C3  N4B d   1       4.696  -4.686   4.261  0.00  0.00     0.002 A 
ATOM      4  C4  N4B d   1       5.865  -4.079   4.697  0.00  0.00    -0.004 A 
ATOM      5  C5  N4B d   1       5.851  -2.770   5.081  0.00  0.00     0.002 A 
ATOM      6  C6  N4B d   1       4.695  -2.020   5.007  0.00  0.00     0.002 A 
ENDROOT
BRANCH   1   7
ATOM      7  C1' N4B d   1       2.321  -1.722   4.398  0.00  0.00     0.057 C 
BRANCH   7   8
ATOM      8  C2' N4B d   1       2.198  -1.286   2.941  0.00  0.00     0.009 C 
BRANCH   8   9
ATOM      9  C3' N4B d   1       2.644   0.152   2.739  0.00  0.00     0.004 C 
ATOM     10  C4' N4B d   1       3.072   0.435   1.330  0.00  0.00     0.003 C 
ENDBRANCH   8   9
ENDBRANCH   7   8
ENDBRANCH   1   7
TORSDOF 3
ENDMDL
