MODEL 1
REMARK minimizedAffinity 10.6839266
REMARK minimizedRMSD -1
REMARK  3 active torsions:
REMARK  status: ('A' for Active; 'I' for Inactive)
REMARK    1  A    between atoms: C3'_2  and  C2'_3 
REMARK    2  A    between atoms: C2'_3  and  C1'_4 
REMARK    3  A    between atoms: C1'_4  and  C1_5 
ROOT
ATOM      1  C1  N4B d   1       1.983   0.021   1.771  0.00  0.00    -0.075 A 
ATOM      2  C2  N4B d   1       2.886   0.117   0.689  0.00  0.00     0.002 A 
ATOM      3  C3  N4B d   1       3.243   1.350   0.200  0.00  0.00     0.002 A 
ATOM      4  C4  N4B d   1       2.698   2.495   0.761  0.00  0.00    -0.004 A 
ATOM      5  C5  N4B d   1       1.846   2.395   1.822  0.00  0.00     0.002 A 
ATOM      6  C6  N4B d   1       1.482   1.163   2.327  0.00  0.00     0.002 A 
ENDROOT
BRANCH   1   7
ATOM      7  C1' N4B d   1       1.497  -1.306   2.284  0.00  0.00     0.057 C 
BRANCH   7   8
ATOM      8  C2' N4B d   1       0.673  -1.992   1.198  0.00  0.00     0.009 C 
BRANCH   8   9
ATOM      9  C3' N4B d   1      -0.564  -1.190   0.833  0.00  0.00     0.004 C 
ATOM     10  C4' N4B d   1      -1.431  -1.886  -0.174  0.00  0.00     0.003 C 
ENDBRANCH   8   9
ENDBRANCH   7   8
ENDBRANCH   1   7
TORSDOF 3
ENDMDL
