MODEL 1
REMARK minimizedAffinity 6.14611864
REMARK minimizedRMSD -1
REMARK  3 active torsions:
REMARK  status: ('A' for Active; 'I' for Inactive)
REMARK    1  A    between atoms: C3'_2  and  C2'_3 
REMARK    2  A    between atoms: C2'_3  and  C1'_4 
REMARK    3  A    between atoms: C1'_4  and  C1_5 
ROOT
ATOM      1  C1  N4B d   1       2.246  -2.837   4.273  0.00  0.00    -0.075 A 
ATOM      2  C2  N4B d   1       1.898  -3.582   5.421  0.00  0.00     0.002 A 
ATOM      3  C3  N4B d   1       2.056  -4.946   5.428  0.00  0.00     0.002 A 
ATOM      4  C4  N4B d   1       2.540  -5.586   4.297  0.00  0.00    -0.004 A 
ATOM      5  C5  N4B d   1       2.899  -4.857   3.201  0.00  0.00     0.002 A 
ATOM      6  C6  N4B d   1       2.749  -3.485   3.182  0.00  0.00     0.002 A 
ENDROOT
BRANCH   1   7
ATOM      7  C1' N4B d   1       2.011  -1.353   4.187  0.00  0.00     0.057 C 
BRANCH   7   8
ATOM      8  C2' N4B d   1       2.227  -0.895   2.748  0.00  0.00     0.009 C 
BRANCH   8   9
ATOM      9  C3' N4B d   1       2.676   0.555   2.675  0.00  0.00     0.004 C 
ATOM     10  C4' N4B d   1       3.066   0.973   1.289  0.00  0.00     0.003 C 
ENDBRANCH   8   9
ENDBRANCH   7   8
ENDBRANCH   1   7
TORSDOF 3
ENDMDL
