MODEL 1
REMARK minimizedAffinity -4.46004581
REMARK minimizedRMSD -1
REMARK  1 active torsions:
REMARK  status: ('A' for Active; 'I' for Inactive)
REMARK    1  A    between atoms: C1_2  and  C2_3 
ROOT
ATOM      1  C2  UNL d   1      -0.060   0.124   0.081  0.00  0.00    -0.073 A 
ATOM      2  C3  UNL d   1      -1.287  -0.084  -0.559  0.00  0.00    -0.002 A 
ATOM      3  C4  UNL d   1      -2.461   0.445  -0.022  0.00  0.00     0.004 A 
ATOM      4  C5  UNL d   1      -2.420   1.193   1.155  0.00  0.00    -0.004 A 
ATOM      5  C6  UNL d   1      -1.202   1.422   1.803  0.00  0.00    -0.075 A 
ATOM      6  C7  UNL d   1      -1.141   2.222   3.071  0.00  0.00     0.076 C 
ATOM      7  C8  UNL d   1      -0.028   0.885   1.259  0.00  0.00     0.001 A 
ENDROOT
BRANCH   1   8
ATOM      8  C1  UNL d   1       1.211  -0.440  -0.498  0.00  0.00     0.053 C 
ATOM      9  C   UNL d   1       1.831   0.491  -1.528  0.00  0.00     0.018 C 
ENDBRANCH   1   8
TORSDOF 1
ENDMDL
