MODEL 1
REMARK minimizedAffinity -4.01158857
REMARK minimizedRMSD -1
REMARK  1 active torsions:
REMARK  status: ('A' for Active; 'I' for Inactive)
REMARK    1  A    between atoms: C1_2  and  C2_3 
ROOT
ATOM      1  C2  UNL d   1       0.516  -0.570  -0.958  0.00  0.00    -0.073 A 
ATOM      2  C3  UNL d   1       1.337   0.233  -1.758  0.00  0.00    -0.002 A 
ATOM      3  C4  UNL d   1       1.070   1.596  -1.897  0.00  0.00     0.004 A 
ATOM      4  C5  UNL d   1      -0.014   2.170  -1.234  0.00  0.00    -0.004 A 
ATOM      5  C6  UNL d   1      -0.840   1.386  -0.421  0.00  0.00    -0.075 A 
ATOM      6  C7  UNL d   1      -2.012   1.989   0.297  0.00  0.00     0.076 C 
ATOM      7  C8  UNL d   1      -0.567   0.018  -0.288  0.00  0.00     0.001 A 
ENDROOT
BRANCH   1   8
ATOM      8  C1  UNL d   1       0.803  -2.041  -0.800  0.00  0.00     0.053 C 
ATOM      9  C   UNL d   1       0.806  -2.768  -2.135  0.00  0.00     0.018 C 
ENDBRANCH   1   8
TORSDOF 1
ENDMDL
