MODEL 1
REMARK minimizedAffinity -4.91749096
REMARK minimizedRMSD -1
REMARK  1 active torsions:
REMARK  status: ('A' for Active; 'I' for Inactive)
REMARK    1  A    between atoms: C1_2  and  C2_3 
ROOT
ATOM      1  C2  UNL d   1       0.336  -0.522  -0.809  0.00  0.00    -0.073 A 
ATOM      2  C3  UNL d   1       0.995   0.360  -1.673  0.00  0.00    -0.002 A 
ATOM      3  C4  UNL d   1       0.602   1.697  -1.749  0.00  0.00     0.004 A 
ATOM      4  C5  UNL d   1      -0.447   2.166  -0.959  0.00  0.00    -0.004 A 
ATOM      5  C6  UNL d   1      -1.110   1.303  -0.081  0.00  0.00    -0.075 A 
ATOM      6  C7  UNL d   1      -2.243   1.792   0.774  0.00  0.00     0.076 C 
ATOM      7  C8  UNL d   1      -0.712  -0.039  -0.012  0.00  0.00     0.001 A 
ENDROOT
BRANCH   1   8
ATOM      8  C1  UNL d   1       0.760  -1.965  -0.719  0.00  0.00     0.053 C 
ATOM      9  C   UNL d   1       0.369  -2.754  -1.959  0.00  0.00     0.018 C 
ENDBRANCH   1   8
TORSDOF 1
ENDMDL
