MODEL 1
REMARK minimizedAffinity -3.16601634
REMARK minimizedRMSD -1
REMARK  1 active torsions:
REMARK  status: ('A' for Active; 'I' for Inactive)
REMARK    1  A    between atoms: C1_2  and  C2_3 
ROOT
ATOM      1  C2  UNL d   1      -0.450  -0.100  -0.164  0.00  0.00    -0.073 A 
ATOM      2  C3  UNL d   1      -0.973   1.116  -0.616  0.00  0.00    -0.002 A 
ATOM      3  C4  UNL d   1      -1.650   1.963   0.262  0.00  0.00     0.004 A 
ATOM      4  C5  UNL d   1      -1.804   1.606   1.602  0.00  0.00    -0.004 A 
ATOM      5  C6  UNL d   1      -1.279   0.400   2.076  0.00  0.00    -0.075 A 
ATOM      6  C7  UNL d   1      -1.439   0.000   3.513  0.00  0.00     0.076 C 
ATOM      7  C8  UNL d   1      -0.603  -0.446   1.186  0.00  0.00     0.001 A 
ENDROOT
BRANCH   1   8
ATOM      8  C1  UNL d   1       0.287  -1.015  -1.108  0.00  0.00     0.053 C 
ATOM      9  C   UNL d   1      -0.643  -2.013  -1.778  0.00  0.00     0.018 C 
ENDBRANCH   1   8
TORSDOF 1
ENDMDL
