MODEL 1
REMARK minimizedAffinity -0.257904738
REMARK minimizedRMSD -1
REMARK  1 active torsions:
REMARK  status: ('A' for Active; 'I' for Inactive)
REMARK    1  A    between atoms: C1_2  and  C2_3 
ROOT
ATOM      1  C2  UNL d   1      -0.754   1.224   1.918  0.00  0.00    -0.073 A 
ATOM      2  C3  UNL d   1      -0.739  -0.169   1.787  0.00  0.00    -0.002 A 
ATOM      3  C4  UNL d   1      -0.338  -0.760   0.589  0.00  0.00     0.004 A 
ATOM      4  C5  UNL d   1       0.059   0.034  -0.487  0.00  0.00    -0.004 A 
ATOM      5  C6  UNL d   1       0.062   1.428  -0.372  0.00  0.00    -0.075 A 
ATOM      6  C7  UNL d   1       0.484   2.296  -1.521  0.00  0.00     0.076 C 
ATOM      7  C8  UNL d   1      -0.345   2.014   0.834  0.00  0.00     0.001 A 
ENDROOT
BRANCH   1   8
ATOM      8  C1  UNL d   1      -1.181   1.867   3.213  0.00  0.00     0.053 C 
ATOM      9  C   UNL d   1      -0.034   2.601   3.890  0.00  0.00     0.018 C 
ENDBRANCH   1   8
TORSDOF 1
ENDMDL
