MODEL 1
REMARK minimizedAffinity -2.25771904
REMARK minimizedRMSD -1
REMARK  1 active torsions:
REMARK  status: ('A' for Active; 'I' for Inactive)
REMARK    1  A    between atoms: C1_2  and  C2_3 
ROOT
ATOM      1  C2  UNL d   1       0.339  -1.686  -1.272  0.00  0.00    -0.073 A 
ATOM      2  C3  UNL d   1      -0.356  -1.784  -2.483  0.00  0.00    -0.002 A 
ATOM      3  C4  UNL d   1      -0.440  -3.007  -3.151  0.00  0.00     0.004 A 
ATOM      4  C5  UNL d   1       0.163  -4.143  -2.612  0.00  0.00    -0.004 A 
ATOM      5  C6  UNL d   1       0.851  -4.068  -1.397  0.00  0.00    -0.075 A 
ATOM      6  C7  UNL d   1       1.507  -5.281  -0.806  0.00  0.00     0.076 C 
ATOM      7  C8  UNL d   1       0.934  -2.836  -0.734  0.00  0.00     0.001 A 
ENDROOT
BRANCH   1   8
ATOM      8  C1  UNL d   1       0.427  -0.369  -0.545  0.00  0.00     0.053 C 
ATOM      9  C   UNL d   1      -0.732   0.552  -0.892  0.00  0.00     0.018 C 
ENDBRANCH   1   8
TORSDOF 1
ENDMDL
