MODEL 1
REMARK minimizedAffinity 0.127841428
REMARK minimizedRMSD -1
REMARK  1 active torsions:
REMARK  status: ('A' for Active; 'I' for Inactive)
REMARK    1  A    between atoms: C1_2  and  C2_3 
ROOT
ATOM      1  C2  UNL d   1      -4.424  -2.220   3.621  0.00  0.00    -0.073 A 
ATOM      2  C3  UNL d   1      -4.845  -2.114   4.951  0.00  0.00    -0.002 A 
ATOM      3  C4  UNL d   1      -3.909  -2.078   5.986  0.00  0.00     0.004 A 
ATOM      4  C5  UNL d   1      -2.545  -2.139   5.702  0.00  0.00    -0.004 A 
ATOM      5  C6  UNL d   1      -2.104  -2.233   4.378  0.00  0.00    -0.075 A 
ATOM      6  C7  UNL d   1      -0.641  -2.302   4.055  0.00  0.00     0.076 C 
ATOM      7  C8  UNL d   1      -3.050  -2.272   3.344  0.00  0.00     0.001 A 
ENDROOT
BRANCH   1   8
ATOM      8  C1  UNL d   1      -5.430  -2.253   2.500  0.00  0.00     0.053 C 
ATOM      9  C   UNL d   1      -5.160  -1.178   1.459  0.00  0.00     0.018 C 
ENDBRANCH   1   8
TORSDOF 1
ENDMDL
