MODEL 1
REMARK minimizedAffinity -1.30292165
REMARK minimizedRMSD -1
REMARK  1 active torsions:
REMARK  status: ('A' for Active; 'I' for Inactive)
REMARK    1  A    between atoms: C1_2  and  C2_3 
ROOT
ATOM      1  C2  UNL d   1       0.410  -2.074  -1.237  0.00  0.00    -0.073 A 
ATOM      2  C3  UNL d   1       1.682  -2.268  -0.686  0.00  0.00    -0.002 A 
ATOM      3  C4  UNL d   1       2.388  -1.192  -0.147  0.00  0.00     0.004 A 
ATOM      4  C5  UNL d   1       1.829   0.085  -0.147  0.00  0.00    -0.004 A 
ATOM      5  C6  UNL d   1       0.554   0.297  -0.682  0.00  0.00    -0.075 A 
ATOM      6  C7  UNL d   1      -0.061   1.666  -0.691  0.00  0.00     0.076 C 
ATOM      7  C8  UNL d   1      -0.148  -0.788  -1.224  0.00  0.00     0.001 A 
ENDROOT
BRANCH   1   8
ATOM      8  C1  UNL d   1      -0.359  -3.234  -1.815  0.00  0.00     0.053 C 
ATOM      9  C   UNL d   1      -0.065  -3.433  -3.294  0.00  0.00     0.018 C 
ENDBRANCH   1   8
TORSDOF 1
ENDMDL
