MODEL 1
REMARK minimizedAffinity -2.78440046
REMARK minimizedRMSD -1
REMARK  1 active torsions:
REMARK  status: ('A' for Active; 'I' for Inactive)
REMARK    1  A    between atoms: C1_2  and  C2_3 
ROOT
ATOM      1  C2  UNL d   1      -0.498  -0.344   1.316  0.00  0.00    -0.073 A 
ATOM      2  C3  UNL d   1      -1.196  -1.444   0.803  0.00  0.00    -0.002 A 
ATOM      3  C4  UNL d   1      -0.984  -1.864  -0.510  0.00  0.00     0.004 A 
ATOM      4  C5  UNL d   1      -0.068  -1.194  -1.322  0.00  0.00    -0.004 A 
ATOM      5  C6  UNL d   1       0.648  -0.100  -0.824  0.00  0.00    -0.075 A 
ATOM      6  C7  UNL d   1       1.635   0.632  -1.685  0.00  0.00     0.076 C 
ATOM      7  C8  UNL d   1       0.427   0.317   0.495  0.00  0.00     0.001 A 
ENDROOT
BRANCH   1   8
ATOM      8  C1  UNL d   1      -0.720   0.109   2.736  0.00  0.00     0.053 C 
ATOM      9  C   UNL d   1      -0.827   1.622   2.841  0.00  0.00     0.018 C 
ENDBRANCH   1   8
TORSDOF 1
ENDMDL
