MODEL 1
REMARK minimizedAffinity -2.61997366
REMARK minimizedRMSD -1
REMARK  1 active torsions:
REMARK  status: ('A' for Active; 'I' for Inactive)
REMARK    1  A    between atoms: C1_2  and  C2_3 
ROOT
ATOM      1  C2  UNL d   1       0.066  -0.867  -0.452  0.00  0.00    -0.073 A 
ATOM      2  C3  UNL d   1       0.085   0.314  -1.202  0.00  0.00    -0.002 A 
ATOM      3  C4  UNL d   1      -0.146   1.544  -0.585  0.00  0.00     0.004 A 
ATOM      4  C5  UNL d   1      -0.392   1.607   0.787  0.00  0.00    -0.004 A 
ATOM      5  C6  UNL d   1      -0.404   0.438   1.555  0.00  0.00    -0.075 A 
ATOM      6  C7  UNL d   1      -0.669   0.488   3.031  0.00  0.00     0.076 C 
ATOM      7  C8  UNL d   1      -0.173  -0.793   0.928  0.00  0.00     0.001 A 
ENDROOT
BRANCH   1   8
ATOM      8  C1  UNL d   1       0.322  -2.197  -1.112  0.00  0.00     0.053 C 
ATOM      9  C   UNL d   1      -0.312  -2.280  -2.492  0.00  0.00     0.018 C 
ENDBRANCH   1   8
TORSDOF 1
ENDMDL
