MODEL 1
REMARK minimizedAffinity -4.3441658
REMARK minimizedRMSD -1
REMARK  1 active torsions:
REMARK  status: ('A' for Active; 'I' for Inactive)
REMARK    1  A    between atoms: C1_2  and  C2_3 
ROOT
ATOM      1  C2  UNL d   1      -0.169  -1.639  -0.731  0.00  0.00    -0.073 A 
ATOM      2  C3  UNL d   1       1.163  -1.298  -0.990  0.00  0.00    -0.002 A 
ATOM      3  C4  UNL d   1       1.627  -0.011  -0.716  0.00  0.00     0.004 A 
ATOM      4  C5  UNL d   1       0.768   0.945  -0.175  0.00  0.00    -0.004 A 
ATOM      5  C6  UNL d   1      -0.564   0.620   0.101  0.00  0.00    -0.075 A 
ATOM      6  C7  UNL d   1      -1.502   1.638   0.681  0.00  0.00     0.076 C 
ATOM      7  C8  UNL d   1      -1.024  -0.674  -0.179  0.00  0.00     0.001 A 
ENDROOT
BRANCH   1   8
ATOM      8  C1  UNL d   1      -0.673  -3.030  -1.019  0.00  0.00     0.053 C 
ATOM      9  C   UNL d   1      -0.011  -3.633  -2.247  0.00  0.00     0.018 C 
ENDBRANCH   1   8
TORSDOF 1
ENDMDL
