MODEL 1
REMARK minimizedAffinity -4.12951422
REMARK minimizedRMSD -1
REMARK  1 active torsions:
REMARK  status: ('A' for Active; 'I' for Inactive)
REMARK    1  A    between atoms: C1_2  and  C2_3 
ROOT
ATOM      1  C2  UNL d   1      -0.126  -0.342  -0.004  0.00  0.00    -0.073 A 
ATOM      2  C3  UNL d   1      -0.743   0.891   0.234  0.00  0.00    -0.002 A 
ATOM      3  C4  UNL d   1      -0.992   1.314   1.540  0.00  0.00     0.004 A 
ATOM      4  C5  UNL d   1      -0.622   0.513   2.620  0.00  0.00    -0.004 A 
ATOM      5  C6  UNL d   1       0.006  -0.717   2.403  0.00  0.00    -0.075 A 
ATOM      6  C7  UNL d   1       0.409  -1.592   3.554  0.00  0.00     0.076 C 
ATOM      7  C8  UNL d   1       0.251  -1.137   1.088  0.00  0.00     0.001 A 
ENDROOT
BRANCH   1   8
ATOM      8  C1  UNL d   1       0.151  -0.800  -1.413  0.00  0.00     0.053 C 
ATOM      9  C   UNL d   1       1.211  -1.889  -1.460  0.00  0.00     0.018 C 
ENDBRANCH   1   8
TORSDOF 1
ENDMDL
