MODEL 1
REMARK minimizedAffinity -1.17810822
REMARK minimizedRMSD -1
REMARK  1 active torsions:
REMARK  status: ('A' for Active; 'I' for Inactive)
REMARK    1  A    between atoms: C1_2  and  C2_3 
ROOT
ATOM      1  C2  UNL d   1      -4.611  -3.208  -3.286  0.00  0.00    -0.076 A 
ATOM      2  C3  UNL d   1      -4.263  -3.885  -4.469  0.00  0.00     0.004 A 
ATOM      3  C4  UNL d   1      -4.101  -5.269  -4.482  0.00  0.00    -0.003 A 
ATOM      4  C5  UNL d   1      -4.286  -6.000  -3.314  0.00  0.00     0.000 A 
ATOM      5  C6  UNL d   1      -4.648  -5.347  -2.136  0.00  0.00     0.000 A 
ATOM      6  C7  UNL d   1      -4.831  -3.954  -2.109  0.00  0.00    -0.073 A 
ATOM      7  C8  UNL d   1      -5.217  -3.302  -0.809  0.00  0.00     0.078 C 
ENDROOT
BRANCH   1   8
ATOM      8  C1  UNL d   1      -4.746  -1.703  -3.326  0.00  0.00     0.053 C 
ATOM      9  C   UNL d   1      -3.499  -0.993  -2.823  0.00  0.00     0.018 C 
ENDBRANCH   1   8
TORSDOF 1
ENDMDL
