MODEL 1
REMARK minimizedAffinity 6.15174532
REMARK minimizedRMSD -1
REMARK  1 active torsions:
REMARK  status: ('A' for Active; 'I' for Inactive)
REMARK    1  A    between atoms: C1_2  and  C2_3 
ROOT
ATOM      1  C2  UNL d   1       1.398  -0.450   2.665  0.00  0.00    -0.076 A 
ATOM      2  C3  UNL d   1       1.051  -0.755   1.338  0.00  0.00     0.004 A 
ATOM      3  C4  UNL d   1       0.735  -2.059   0.960  0.00  0.00    -0.003 A 
ATOM      4  C5  UNL d   1       0.759  -3.079   1.905  0.00  0.00     0.000 A 
ATOM      5  C6  UNL d   1       1.083  -2.791   3.230  0.00  0.00     0.000 A 
ATOM      6  C7  UNL d   1       1.389  -1.479   3.631  0.00  0.00    -0.073 A 
ATOM      7  C8  UNL d   1       1.737  -1.227   5.072  0.00  0.00     0.078 C 
ENDROOT
BRANCH   1   8
ATOM      8  C1  UNL d   1       1.757   0.978   3.010  0.00  0.00     0.053 C 
ATOM      9  C   UNL d   1       2.662   1.618   1.969  0.00  0.00     0.018 C 
ENDBRANCH   1   8
TORSDOF 1
ENDMDL
