MODEL 1
REMARK minimizedAffinity 2.95069575
REMARK minimizedRMSD -1
REMARK  1 active torsions:
REMARK  status: ('A' for Active; 'I' for Inactive)
REMARK    1  A    between atoms: C1_2  and  C2_3 
ROOT
ATOM      1  C2  UNL d   1      -4.924  -4.459  -3.410  0.00  0.00    -0.076 A 
ATOM      2  C3  UNL d   1      -5.905  -4.031  -4.322  0.00  0.00     0.004 A 
ATOM      3  C4  UNL d   1      -5.977  -4.571  -5.605  0.00  0.00    -0.003 A 
ATOM      4  C5  UNL d   1      -5.070  -5.549  -5.997  0.00  0.00     0.000 A 
ATOM      5  C6  UNL d   1      -4.101  -5.999  -5.099  0.00  0.00     0.000 A 
ATOM      6  C7  UNL d   1      -4.025  -5.476  -3.797  0.00  0.00    -0.073 A 
ATOM      7  C8  UNL d   1      -2.957  -5.993  -2.873  0.00  0.00     0.078 C 
ENDROOT
BRANCH   1   8
ATOM      8  C1  UNL d   1      -4.877  -3.817  -2.042  0.00  0.00     0.053 C 
ATOM      9  C   UNL d   1      -5.640  -2.502  -1.989  0.00  0.00     0.018 C 
ENDBRANCH   1   8
TORSDOF 1
ENDMDL
