MODEL 1
REMARK minimizedAffinity 11.7130775
REMARK minimizedRMSD -1
REMARK  1 active torsions:
REMARK  status: ('A' for Active; 'I' for Inactive)
REMARK    1  A    between atoms: C1_2  and  C2_3 
ROOT
ATOM      1  C2  UNL d   1      -5.206  -5.065  -3.465  0.00  0.00    -0.076 A 
ATOM      2  C3  UNL d   1      -5.091  -5.853  -4.624  0.00  0.00     0.004 A 
ATOM      3  C4  UNL d   1      -5.431  -5.342  -5.875  0.00  0.00    -0.003 A 
ATOM      4  C5  UNL d   1      -5.891  -4.034  -5.988  0.00  0.00     0.000 A 
ATOM      5  C6  UNL d   1      -5.994  -3.233  -4.851  0.00  0.00     0.000 A 
ATOM      6  C7  UNL d   1      -5.640  -3.728  -3.585  0.00  0.00    -0.073 A 
ATOM      7  C8  UNL d   1      -5.776  -2.822  -2.392  0.00  0.00     0.078 C 
ENDROOT
BRANCH   1   8
ATOM      8  C1  UNL d   1      -4.848  -5.682  -2.132  0.00  0.00     0.053 C 
ATOM      9  C   UNL d   1      -5.992  -5.614  -1.132  0.00  0.00     0.018 C 
ENDBRANCH   1   8
TORSDOF 1
ENDMDL
