MODEL 1
REMARK minimizedAffinity 8.72731972
REMARK minimizedRMSD -1
REMARK  1 active torsions:
REMARK  status: ('A' for Active; 'I' for Inactive)
REMARK    1  A    between atoms: C1_2  and  C2_3 
ROOT
ATOM      1  C2  UNL d   1       0.844  -3.938   3.848  0.00  0.00    -0.076 A 
ATOM      2  C3  UNL d   1      -0.420  -4.526   4.026  0.00  0.00     0.004 A 
ATOM      3  C4  UNL d   1      -0.666  -5.389   5.093  0.00  0.00    -0.003 A 
ATOM      4  C5  UNL d   1       0.348  -5.676   6.000  0.00  0.00     0.000 A 
ATOM      5  C6  UNL d   1       1.603  -5.088   5.849  0.00  0.00     0.000 A 
ATOM      6  C7  UNL d   1       1.863  -4.204   4.788  0.00  0.00    -0.073 A 
ATOM      7  C8  UNL d   1       3.237  -3.603   4.669  0.00  0.00     0.078 C 
ENDROOT
BRANCH   1   8
ATOM      8  C1  UNL d   1       1.060  -3.033   2.656  0.00  0.00     0.053 C 
ATOM      9  C   UNL d   1       1.012  -1.559   3.029  0.00  0.00     0.018 C 
ENDBRANCH   1   8
TORSDOF 1
ENDMDL
