MODEL 1
REMARK minimizedAffinity 7.01412868
REMARK minimizedRMSD -1
REMARK  1 active torsions:
REMARK  status: ('A' for Active; 'I' for Inactive)
REMARK    1  A    between atoms: C1_2  and  C2_3 
ROOT
ATOM      1  C2  UNL d   1      -5.021  -3.986  -3.643  0.00  0.00    -0.076 A 
ATOM      2  C3  UNL d   1      -5.797  -3.472  -4.696  0.00  0.00     0.004 A 
ATOM      3  C4  UNL d   1      -5.997  -4.205  -5.865  0.00  0.00    -0.003 A 
ATOM      4  C5  UNL d   1      -5.423  -5.465  -5.999  0.00  0.00     0.000 A 
ATOM      5  C6  UNL d   1      -4.665  -5.998  -4.957  0.00  0.00     0.000 A 
ATOM      6  C7  UNL d   1      -4.468  -5.279  -3.766  0.00  0.00    -0.073 A 
ATOM      7  C8  UNL d   1      -3.636  -5.899  -2.677  0.00  0.00     0.078 C 
ENDROOT
BRANCH   1   8
ATOM      8  C1  UNL d   1      -4.817  -3.134  -2.411  0.00  0.00     0.053 C 
ATOM      9  C   UNL d   1      -6.000  -3.197  -1.457  0.00  0.00     0.018 C 
ENDBRANCH   1   8
TORSDOF 1
ENDMDL
