MODEL 1
REMARK minimizedAffinity 21.8513947
REMARK minimizedRMSD -1
REMARK  0 active torsions:
REMARK  status: ('A' for Active; 'I' for Inactive)
ROOT
ATOM      1  C   UNL d   1       1.637  -3.173   0.468  0.00  0.00     0.124 A 
ATOM      2  C1  UNL d   1       2.981  -3.456   0.265  0.00  0.00     0.062 A 
ATOM      3  C2  UNL d   1       3.890  -2.422   0.061  0.00  0.00     0.162 A 
ATOM      4  C3  UNL d   1       3.460  -1.096   0.061  0.00  0.00    -0.034 A 
ATOM      5  C4  UNL d   1       2.106  -0.819   0.264  0.00  0.00     0.162 A 
ATOM      6  C5  UNL d   1       1.201  -1.856   0.467  0.00  0.00     0.062 A 
ATOM      7  F   UNL d   1      -0.097  -1.581   0.663  0.00  0.00    -0.097 F 
ATOM      8  F1  UNL d   1       1.658   0.445   0.270  0.00  0.00    -0.096 F 
ATOM      9  I   UNL d   1       4.817   0.453  -0.243  0.00  0.00    -0.060 I 
ATOM     10  F2  UNL d   1       5.183  -2.725  -0.132  0.00  0.00    -0.096 F 
ATOM     11  F3  UNL d   1       3.404  -4.728   0.264  0.00  0.00    -0.097 F 
ATOM     12  F4  UNL d   1       0.764  -4.170   0.662  0.00  0.00    -0.092 F 
ENDROOT
TORSDOF 0
ENDMDL
