MODEL 1
REMARK minimizedAffinity 11.8546591
REMARK minimizedRMSD -1
REMARK  0 active torsions:
REMARK  status: ('A' for Active; 'I' for Inactive)
ROOT
ATOM      1  C   UNL d   1       4.136  -4.158   0.707  0.00  0.00     0.124 A 
ATOM      2  C1  UNL d   1       5.004  -4.909   1.487  0.00  0.00     0.062 A 
ATOM      3  C2  UNL d   1       5.026  -4.742   2.869  0.00  0.00     0.162 A 
ATOM      4  C3  UNL d   1       4.175  -3.822   3.480  0.00  0.00    -0.034 A 
ATOM      5  C4  UNL d   1       3.304  -3.070   2.689  0.00  0.00     0.162 A 
ATOM      6  C5  UNL d   1       3.287  -3.240   1.308  0.00  0.00     0.062 A 
ATOM      7  F   UNL d   1       2.447  -2.513   0.556  0.00  0.00    -0.097 F 
ATOM      8  F1  UNL d   1       2.473  -2.176   3.244  0.00  0.00    -0.096 F 
ATOM      9  I   UNL d   1       4.203  -3.570   5.546  0.00  0.00    -0.060 I 
ATOM     10  F2  UNL d   1       5.875  -5.481   3.598  0.00  0.00    -0.096 F 
ATOM     11  F3  UNL d   1       5.826  -5.796   0.909  0.00  0.00    -0.097 F 
ATOM     12  F4  UNL d   1       4.118  -4.320  -0.622  0.00  0.00    -0.092 F 
ENDROOT
TORSDOF 0
ENDMDL
