MODEL 1
REMARK minimizedAffinity 5.9510951
REMARK minimizedRMSD -1
REMARK  0 active torsions:
REMARK  status: ('A' for Active; 'I' for Inactive)
ROOT
ATOM      1  C   UNL d   1       2.951  -3.337  -0.247  0.00  0.00     0.124 A 
ATOM      2  C1  UNL d   1       3.975  -4.240   0.005  0.00  0.00     0.062 A 
ATOM      3  C2  UNL d   1       4.456  -4.409   1.300  0.00  0.00     0.162 A 
ATOM      4  C3  UNL d   1       3.913  -3.675   2.354  0.00  0.00    -0.034 A 
ATOM      5  C4  UNL d   1       2.884  -2.768   2.093  0.00  0.00     0.162 A 
ATOM      6  C5  UNL d   1       2.407  -2.602   0.797  0.00  0.00     0.062 A 
ATOM      7  F   UNL d   1       1.418  -1.730   0.556  0.00  0.00    -0.097 F 
ATOM      8  F1  UNL d   1       2.340  -2.046   3.084  0.00  0.00    -0.096 F 
ATOM      9  I   UNL d   1       4.630  -3.926   4.292  0.00  0.00    -0.060 I 
ATOM     10  F2  UNL d   1       5.446  -5.289   1.514  0.00  0.00    -0.096 F 
ATOM     11  F3  UNL d   1       4.503  -4.950  -1.002  0.00  0.00    -0.097 F 
ATOM     12  F4  UNL d   1       2.490  -3.175  -1.494  0.00  0.00    -0.092 F 
ENDROOT
TORSDOF 0
ENDMDL
