MODEL 1
REMARK minimizedAffinity 7.10299587
REMARK minimizedRMSD -1
REMARK  0 active torsions:
REMARK  status: ('A' for Active; 'I' for Inactive)
ROOT
ATOM      1  C   UNL d   1       1.549   2.382  -5.816  0.00  0.00     0.124 A 
ATOM      2  C1  UNL d   1       1.181   3.719  -5.775  0.00  0.00     0.062 A 
ATOM      3  C2  UNL d   1       2.155   4.714  -5.805  0.00  0.00     0.162 A 
ATOM      4  C3  UNL d   1       3.506   4.375  -5.878  0.00  0.00    -0.034 A 
ATOM      5  C4  UNL d   1       3.868   3.027  -5.918  0.00  0.00     0.162 A 
ATOM      6  C5  UNL d   1       2.891   2.037  -5.887  0.00  0.00     0.062 A 
ATOM      7  F   UNL d   1       3.248   0.745  -5.927  0.00  0.00    -0.097 F 
ATOM      8  F1  UNL d   1       5.157   2.666  -5.989  0.00  0.00    -0.096 F 
ATOM      9  I   UNL d   1       4.964   5.859  -5.924  0.00  0.00    -0.060 I 
ATOM     10  F2  UNL d   1       1.770   5.999  -5.764  0.00  0.00    -0.096 F 
ATOM     11  F3  UNL d   1      -0.115   4.055  -5.704  0.00  0.00    -0.097 F 
ATOM     12  F4  UNL d   1       0.611   1.427  -5.785  0.00  0.00    -0.092 F 
ENDROOT
TORSDOF 0
ENDMDL
