MODEL 1
REMARK minimizedAffinity -5.14145803
REMARK minimizedRMSD -1
REMARK  0 active torsions:
REMARK  status: ('A' for Active; 'I' for Inactive)
ROOT
ATOM      1  C   UNL d   1       0.493   0.979  -0.565  0.00  0.00     0.077 C 
ATOM      2  C1  UNL d   1      -0.653   0.453   0.248  0.00  0.00    -0.074 A 
ATOM      3  C2  UNL d   1      -1.686   1.299   0.664  0.00  0.00    -0.005 A 
ATOM      4  C3  UNL d   1      -2.751   0.795   1.411  0.00  0.00     0.006 A 
ATOM      5  C4  UNL d   1      -2.793  -0.559   1.749  0.00  0.00    -0.005 A 
ATOM      6  C5  UNL d   1      -1.769  -1.420   1.340  0.00  0.00    -0.074 A 
ATOM      7  C6  UNL d   1      -1.804  -2.879   1.686  0.00  0.00     0.077 C 
ATOM      8  C7  UNL d   1      -0.707  -0.906   0.584  0.00  0.00    -0.001 A 
ENDROOT
TORSDOF 0
ENDMDL
