MODEL 1
REMARK minimizedAffinity -5.84395027
REMARK minimizedRMSD -1
REMARK  0 active torsions:
REMARK  status: ('A' for Active; 'I' for Inactive)
ROOT
ATOM      1  C   UNL d   1      -3.056  -0.185   3.451  0.00  0.00     0.077 C 
ATOM      2  C1  UNL d   1      -2.167  -0.707   2.362  0.00  0.00    -0.074 A 
ATOM      3  C2  UNL d   1      -2.280  -2.027   1.913  0.00  0.00    -0.005 A 
ATOM      4  C3  UNL d   1      -1.453  -2.496   0.892  0.00  0.00     0.006 A 
ATOM      5  C4  UNL d   1      -0.506  -1.651   0.312  0.00  0.00    -0.005 A 
ATOM      6  C5  UNL d   1      -0.379  -0.328   0.748  0.00  0.00    -0.074 A 
ATOM      7  C6  UNL d   1       0.628   0.595   0.128  0.00  0.00     0.077 C 
ATOM      8  C7  UNL d   1      -1.219   0.137   1.769  0.00  0.00    -0.001 A 
ENDROOT
TORSDOF 0
ENDMDL
