MODEL 1
REMARK minimizedAffinity -4.69125319
REMARK minimizedRMSD -1
REMARK  0 active torsions:
REMARK  status: ('A' for Active; 'I' for Inactive)
ROOT
ATOM      1  C   UNL d   1       0.912  -0.888  -0.081  0.00  0.00     0.077 C 
ATOM      2  C1  UNL d   1      -0.329  -1.148   0.720  0.00  0.00    -0.074 A 
ATOM      3  C2  UNL d   1      -0.582  -2.412   1.263  0.00  0.00    -0.005 A 
ATOM      4  C3  UNL d   1      -1.736  -2.637   2.014  0.00  0.00     0.006 A 
ATOM      5  C4  UNL d   1      -2.647  -1.602   2.229  0.00  0.00    -0.005 A 
ATOM      6  C5  UNL d   1      -2.411  -0.332   1.695  0.00  0.00    -0.074 A 
ATOM      7  C6  UNL d   1      -3.375   0.794   1.925  0.00  0.00     0.077 C 
ATOM      8  C7  UNL d   1      -1.245  -0.112   0.947  0.00  0.00    -0.001 A 
ENDROOT
TORSDOF 0
ENDMDL
