MODEL 1
REMARK minimizedAffinity -3.47901177
REMARK minimizedRMSD -1
REMARK  0 active torsions:
REMARK  status: ('A' for Active; 'I' for Inactive)
ROOT
ATOM      1  C   UNL d   1      -3.111  -0.559   3.075  0.00  0.00     0.077 C 
ATOM      2  C1  UNL d   1      -1.925  -0.967   2.251  0.00  0.00    -0.074 A 
ATOM      3  C2  UNL d   1      -1.238  -2.155   2.520  0.00  0.00    -0.005 A 
ATOM      4  C3  UNL d   1      -0.143  -2.526   1.740  0.00  0.00     0.006 A 
ATOM      5  C4  UNL d   1       0.276  -1.713   0.685  0.00  0.00    -0.005 A 
ATOM      6  C5  UNL d   1      -0.399  -0.522   0.401  0.00  0.00    -0.074 A 
ATOM      7  C6  UNL d   1       0.031   0.358  -0.734  0.00  0.00     0.077 C 
ATOM      8  C7  UNL d   1      -1.503  -0.160   1.185  0.00  0.00    -0.001 A 
ENDROOT
TORSDOF 0
ENDMDL
