MODEL 1
REMARK minimizedAffinity -5.35915709
REMARK minimizedRMSD -1
REMARK  0 active torsions:
REMARK  status: ('A' for Active; 'I' for Inactive)
ROOT
ATOM      1  C   UNL d   1       0.747   1.262  -0.523  0.00  0.00     0.077 C 
ATOM      2  C1  UNL d   1       0.105   0.120   0.208  0.00  0.00    -0.074 A 
ATOM      3  C2  UNL d   1       0.655  -1.165   0.157  0.00  0.00    -0.005 A 
ATOM      4  C3  UNL d   1       0.053  -2.216   0.849  0.00  0.00     0.006 A 
ATOM      5  C4  UNL d   1      -1.103  -1.992   1.598  0.00  0.00    -0.005 A 
ATOM      6  C5  UNL d   1      -1.666  -0.714   1.662  0.00  0.00    -0.074 A 
ATOM      7  C6  UNL d   1      -2.903  -0.454   2.471  0.00  0.00     0.077 C 
ATOM      8  C7  UNL d   1      -1.051   0.338   0.969  0.00  0.00    -0.001 A 
ENDROOT
TORSDOF 0
ENDMDL
