MODEL 1
REMARK minimizedAffinity -4.64391947
REMARK minimizedRMSD -1
REMARK  0 active torsions:
REMARK  status: ('A' for Active; 'I' for Inactive)
ROOT
ATOM      1  C   UNL d   1       0.188   1.052  -0.623  0.00  0.00     0.077 C 
ATOM      2  C1  UNL d   1      -0.591   0.016   0.132  0.00  0.00    -0.074 A 
ATOM      3  C2  UNL d   1      -0.664  -1.304  -0.326  0.00  0.00    -0.005 A 
ATOM      4  C3  UNL d   1      -1.385  -2.258   0.392  0.00  0.00     0.006 A 
ATOM      5  C4  UNL d   1      -2.039  -1.903   1.572  0.00  0.00    -0.005 A 
ATOM      6  C5  UNL d   1      -1.977  -0.589   2.046  0.00  0.00    -0.074 A 
ATOM      7  C6  UNL d   1      -2.666  -0.193   3.318  0.00  0.00     0.077 C 
ATOM      8  C7  UNL d   1      -1.245   0.363   1.323  0.00  0.00    -0.001 A 
ENDROOT
TORSDOF 0
ENDMDL
