MODEL 1
REMARK minimizedAffinity -2.69761777
REMARK minimizedRMSD -1
REMARK  0 active torsions:
REMARK  status: ('A' for Active; 'I' for Inactive)
ROOT
ATOM      1  C   UNL d   1      -1.026   1.992   0.751  0.00  0.00     0.077 C 
ATOM      2  C1  UNL d   1      -0.805   0.513   0.868  0.00  0.00    -0.074 A 
ATOM      3  C2  UNL d   1       0.361  -0.081   0.377  0.00  0.00    -0.005 A 
ATOM      4  C3  UNL d   1       0.557  -1.457   0.502  0.00  0.00     0.006 A 
ATOM      5  C4  UNL d   1      -0.411  -2.250   1.119  0.00  0.00    -0.005 A 
ATOM      6  C5  UNL d   1      -1.584  -1.674   1.618  0.00  0.00    -0.074 A 
ATOM      7  C6  UNL d   1      -2.629  -2.511   2.292  0.00  0.00     0.077 C 
ATOM      8  C7  UNL d   1      -1.769  -0.290   1.494  0.00  0.00    -0.001 A 
ENDROOT
TORSDOF 0
ENDMDL
