MODEL 1
REMARK minimizedAffinity -0.168450147
REMARK minimizedRMSD -1
REMARK  0 active torsions:
REMARK  status: ('A' for Active; 'I' for Inactive)
ROOT
ATOM      1  C   UNL d   1       0.035  -2.761   1.663  0.00  0.00     0.077 C 
ATOM      2  C1  UNL d   1       0.101  -1.421   0.994  0.00  0.00    -0.074 A 
ATOM      3  C2  UNL d   1       1.157  -1.097   0.136  0.00  0.00    -0.005 A 
ATOM      4  C3  UNL d   1       1.200   0.150  -0.487  0.00  0.00     0.006 A 
ATOM      5  C4  UNL d   1       0.189   1.085  -0.259  0.00  0.00    -0.005 A 
ATOM      6  C5  UNL d   1      -0.875   0.779   0.595  0.00  0.00    -0.074 A 
ATOM      7  C6  UNL d   1      -1.975   1.768   0.844  0.00  0.00     0.077 C 
ATOM      8  C7  UNL d   1      -0.915  -0.479   1.212  0.00  0.00    -0.001 A 
ENDROOT
TORSDOF 0
ENDMDL
