MODEL 1
REMARK minimizedAffinity -4.92972469
REMARK minimizedRMSD -1
REMARK  0 active torsions:
REMARK  status: ('A' for Active; 'I' for Inactive)
ROOT
ATOM      1  C   UNL d   1       0.691   0.458  -0.551  0.00  0.00     0.077 C 
ATOM      2  C1  UNL d   1      -0.524   0.155   0.275  0.00  0.00    -0.074 A 
ATOM      3  C2  UNL d   1      -1.309   1.185   0.803  0.00  0.00    -0.005 A 
ATOM      4  C3  UNL d   1      -2.441   0.888   1.562  0.00  0.00     0.006 A 
ATOM      5  C4  UNL d   1      -2.799  -0.440   1.799  0.00  0.00    -0.005 A 
ATOM      6  C5  UNL d   1      -2.027  -1.483   1.279  0.00  0.00    -0.074 A 
ATOM      7  C6  UNL d   1      -2.403  -2.915   1.516  0.00  0.00     0.077 C 
ATOM      8  C7  UNL d   1      -0.894  -1.176   0.512  0.00  0.00    -0.001 A 
ENDROOT
TORSDOF 0
ENDMDL
