MODEL 1
REMARK minimizedAffinity -4.99893665
REMARK minimizedRMSD -1
REMARK  0 active torsions:
REMARK  status: ('A' for Active; 'I' for Inactive)
ROOT
ATOM      1  C   UNL d   1       2.271  -2.197   0.632  0.00  0.00     0.077 C 
ATOM      2  C1  UNL d   1       0.978  -1.446   0.758  0.00  0.00    -0.074 A 
ATOM      3  C2  UNL d   1      -0.142  -2.037   1.351  0.00  0.00    -0.005 A 
ATOM      4  C3  UNL d   1      -1.334  -1.323   1.469  0.00  0.00     0.006 A 
ATOM      5  C4  UNL d   1      -1.418  -0.013   0.997  0.00  0.00    -0.005 A 
ATOM      6  C5  UNL d   1      -0.308   0.595   0.402  0.00  0.00    -0.074 A 
ATOM      7  C6  UNL d   1      -0.379   2.006  -0.103  0.00  0.00     0.077 C 
ATOM      8  C7  UNL d   1       0.888  -0.127   0.292  0.00  0.00    -0.001 A 
ENDROOT
TORSDOF 0
ENDMDL
