MODEL 1
REMARK minimizedAffinity -1.70071793
REMARK minimizedRMSD -1
REMARK  0 active torsions:
REMARK  status: ('A' for Active; 'I' for Inactive)
ROOT
ATOM      1  C   UNL d   1       0.507   1.478  -0.535  0.00  0.00     0.077 C 
ATOM      2  C1  UNL d   1       0.314   0.152   0.137  0.00  0.00    -0.074 A 
ATOM      3  C2  UNL d   1       1.109  -0.948  -0.201  0.00  0.00    -0.005 A 
ATOM      4  C3  UNL d   1       0.924  -2.173   0.440  0.00  0.00     0.006 A 
ATOM      5  C4  UNL d   1      -0.056  -2.311   1.423  0.00  0.00    -0.005 A 
ATOM      6  C5  UNL d   1      -0.860  -1.222   1.776  0.00  0.00    -0.074 A 
ATOM      7  C6  UNL d   1      -1.911  -1.351   2.838  0.00  0.00     0.077 C 
ATOM      8  C7  UNL d   1      -0.663   0.007   1.132  0.00  0.00    -0.001 A 
ENDROOT
TORSDOF 0
ENDMDL
