MODEL 1
REMARK minimizedAffinity -3.14950204
REMARK minimizedRMSD -1
REMARK  0 active torsions:
REMARK  status: ('A' for Active; 'I' for Inactive)
ROOT
ATOM      1  C   UNL d   1      -2.751  -2.661   1.816  0.00  0.00     0.077 C 
ATOM      2  C1  UNL d   1      -1.797  -1.835   1.005  0.00  0.00    -0.074 A 
ATOM      3  C2  UNL d   1      -2.156  -1.356  -0.259  0.00  0.00    -0.005 A 
ATOM      4  C3  UNL d   1      -1.262  -0.581  -0.997  0.00  0.00     0.006 A 
ATOM      5  C4  UNL d   1      -0.002  -0.278  -0.481  0.00  0.00    -0.005 A 
ATOM      6  C5  UNL d   1       0.375  -0.748   0.782  0.00  0.00    -0.074 A 
ATOM      7  C6  UNL d   1       1.722  -0.423   1.356  0.00  0.00     0.077 C 
ATOM      8  C7  UNL d   1      -0.532  -1.520   1.521  0.00  0.00    -0.001 A 
ENDROOT
TORSDOF 0
ENDMDL
