MODEL 1
REMARK minimizedAffinity -2.47859001
REMARK minimizedRMSD -1
REMARK  0 active torsions:
REMARK  status: ('A' for Active; 'I' for Inactive)
ROOT
ATOM      1  C   UNL d   1       0.265   1.506  -0.141  0.00  0.00     0.077 C 
ATOM      2  C1  UNL d   1      -0.013   0.090   0.267  0.00  0.00    -0.074 A 
ATOM      3  C2  UNL d   1       0.993  -0.881   0.222  0.00  0.00    -0.005 A 
ATOM      4  C3  UNL d   1       0.722  -2.192   0.614  0.00  0.00     0.006 A 
ATOM      5  C4  UNL d   1      -0.554  -2.545   1.054  0.00  0.00    -0.005 A 
ATOM      6  C5  UNL d   1      -1.572  -1.587   1.107  0.00  0.00    -0.074 A 
ATOM      7  C6  UNL d   1      -2.947  -1.947   1.587  0.00  0.00     0.077 C 
ATOM      8  C7  UNL d   1      -1.290  -0.270   0.718  0.00  0.00    -0.001 A 
ENDROOT
TORSDOF 0
ENDMDL
