MODEL 1
REMARK minimizedAffinity 5.51552916
REMARK minimizedRMSD -1
REMARK  0 active torsions:
REMARK  status: ('A' for Active; 'I' for Inactive)
ROOT
ATOM      1  C   UNL d   1       2.218   1.875  -3.596  0.00  0.00     0.077 C 
ATOM      2  C1  UNL d   1       1.131   1.511  -2.629  0.00  0.00    -0.074 A 
ATOM      3  C2  UNL d   1      -0.185   1.939  -2.833  0.00  0.00    -0.005 A 
ATOM      4  C3  UNL d   1      -1.188   1.585  -1.930  0.00  0.00     0.006 A 
ATOM      5  C4  UNL d   1      -0.885   0.801  -0.816  0.00  0.00    -0.005 A 
ATOM      6  C5  UNL d   1       0.425   0.363  -0.597  0.00  0.00    -0.074 A 
ATOM      7  C6  UNL d   1       0.765  -0.489   0.590  0.00  0.00     0.077 C 
ATOM      8  C7  UNL d   1       1.425   0.717  -1.512  0.00  0.00    -0.001 A 
ENDROOT
TORSDOF 0
ENDMDL
