MODEL 1
REMARK minimizedAffinity -5.38903046
REMARK minimizedRMSD -1
REMARK  0 active torsions:
REMARK  status: ('A' for Active; 'I' for Inactive)
ROOT
ATOM      1  C   UNL d   1       0.410   1.020  -0.124  0.00  0.00     0.077 C 
ATOM      2  C1  UNL d   1      -0.415  -0.137   0.355  0.00  0.00    -0.074 A 
ATOM      3  C2  UNL d   1      -0.069  -1.452   0.027  0.00  0.00    -0.005 A 
ATOM      4  C3  UNL d   1      -0.841  -2.519   0.487  0.00  0.00     0.006 A 
ATOM      5  C4  UNL d   1      -1.965  -2.282   1.279  0.00  0.00    -0.005 A 
ATOM      6  C5  UNL d   1      -2.327  -0.974   1.618  0.00  0.00    -0.074 A 
ATOM      7  C6  UNL d   1      -3.526  -0.703   2.476  0.00  0.00     0.077 C 
ATOM      8  C7  UNL d   1      -1.542   0.092   1.157  0.00  0.00    -0.001 A 
ENDROOT
TORSDOF 0
ENDMDL
