MODEL 1
REMARK minimizedAffinity -5.43775415
REMARK minimizedRMSD -1
REMARK  0 active torsions:
REMARK  status: ('A' for Active; 'I' for Inactive)
ROOT
ATOM      1  C   UNL d   1       0.472   1.161  -0.467  0.00  0.00     0.077 C 
ATOM      2  C1  UNL d   1       0.016  -0.022   0.334  0.00  0.00    -0.074 A 
ATOM      3  C2  UNL d   1       0.937  -0.833   1.006  0.00  0.00    -0.005 A 
ATOM      4  C3  UNL d   1       0.498  -1.925   1.755  0.00  0.00     0.006 A 
ATOM      5  C4  UNL d   1      -0.864  -2.216   1.839  0.00  0.00    -0.005 A 
ATOM      6  C5  UNL d   1      -1.800  -1.416   1.175  0.00  0.00    -0.074 A 
ATOM      7  C6  UNL d   1      -3.268  -1.710   1.264  0.00  0.00     0.077 C 
ATOM      8  C7  UNL d   1      -1.351  -0.317   0.431  0.00  0.00    -0.001 A 
ENDROOT
TORSDOF 0
ENDMDL
