MODEL 1
REMARK minimizedAffinity -4.91165304
REMARK minimizedRMSD -1
REMARK  0 active torsions:
REMARK  status: ('A' for Active; 'I' for Inactive)
ROOT
ATOM      1  C   UNL d   1       0.155   1.221  -0.562  0.00  0.00     0.077 C 
ATOM      2  C1  UNL d   1      -0.010  -0.091   0.146  0.00  0.00    -0.074 A 
ATOM      3  C2  UNL d   1       1.088  -0.928   0.374  0.00  0.00    -0.005 A 
ATOM      4  C3  UNL d   1       0.920  -2.141   1.042  0.00  0.00     0.006 A 
ATOM      5  C4  UNL d   1      -0.343  -2.528   1.488  0.00  0.00    -0.005 A 
ATOM      6  C5  UNL d   1      -1.452  -1.704   1.271  0.00  0.00    -0.074 A 
ATOM      7  C6  UNL d   1      -2.816  -2.101   1.753  0.00  0.00     0.077 C 
ATOM      8  C7  UNL d   1      -1.275  -0.484   0.605  0.00  0.00    -0.001 A 
ENDROOT
TORSDOF 0
ENDMDL
