MODEL 1
REMARK minimizedAffinity -0.900347888
REMARK minimizedRMSD -1
REMARK  0 active torsions:
REMARK  status: ('A' for Active; 'I' for Inactive)
ROOT
ATOM      1  C   UNL d   1       2.241  -1.827   0.524  0.00  0.00     0.077 C 
ATOM      2  C1  UNL d   1       0.928  -1.300   1.020  0.00  0.00    -0.074 A 
ATOM      3  C2  UNL d   1       0.104  -2.078   1.840  0.00  0.00    -0.005 A 
ATOM      4  C3  UNL d   1      -1.111  -1.570   2.301  0.00  0.00     0.006 A 
ATOM      5  C4  UNL d   1      -1.513  -0.282   1.948  0.00  0.00    -0.005 A 
ATOM      6  C5  UNL d   1      -0.702   0.511   1.130  0.00  0.00    -0.074 A 
ATOM      7  C6  UNL d   1      -1.115   1.902   0.749  0.00  0.00     0.077 C 
ATOM      8  C7  UNL d   1       0.520  -0.003   0.676  0.00  0.00    -0.001 A 
ENDROOT
TORSDOF 0
ENDMDL
