MODEL 1
REMARK minimizedAffinity -6.57572412
REMARK minimizedRMSD -1
REMARK  0 active torsions:
REMARK  status: ('A' for Active; 'I' for Inactive)
ROOT
ATOM      1  C   UNL d   1       0.519   1.207  -0.581  0.00  0.00     0.077 C 
ATOM      2  C1  UNL d   1      -0.218   0.116   0.138  0.00  0.00    -0.074 A 
ATOM      3  C2  UNL d   1       0.178  -1.220   0.016  0.00  0.00    -0.005 A 
ATOM      4  C3  UNL d   1      -0.511  -2.223   0.699  0.00  0.00     0.006 A 
ATOM      5  C4  UNL d   1      -1.601  -1.900   1.508  0.00  0.00    -0.005 A 
ATOM      6  C5  UNL d   1      -2.011  -0.570   1.642  0.00  0.00    -0.074 A 
ATOM      7  C6  UNL d   1      -3.174  -0.205   2.516  0.00  0.00     0.077 C 
ATOM      8  C7  UNL d   1      -1.309   0.433   0.959  0.00  0.00    -0.001 A 
ENDROOT
TORSDOF 0
ENDMDL
