MODEL 1
REMARK minimizedAffinity -5.4480505
REMARK minimizedRMSD -1
REMARK  0 active torsions:
REMARK  status: ('A' for Active; 'I' for Inactive)
ROOT
ATOM      1  C   UNL d   1      -0.060   0.367  -0.274  0.00  0.00     0.077 C 
ATOM      2  C1  UNL d   1      -0.913  -0.482   0.622  0.00  0.00    -0.074 A 
ATOM      3  C2  UNL d   1      -1.046  -1.856   0.396  0.00  0.00    -0.005 A 
ATOM      4  C3  UNL d   1      -1.835  -2.634   1.243  0.00  0.00     0.006 A 
ATOM      5  C4  UNL d   1      -2.497  -2.048   2.323  0.00  0.00    -0.005 A 
ATOM      6  C5  UNL d   1      -2.375  -0.676   2.564  0.00  0.00    -0.074 A 
ATOM      7  C6  UNL d   1      -3.071  -0.031   3.726  0.00  0.00     0.077 C 
ATOM      8  C7  UNL d   1      -1.575   0.098   1.713  0.00  0.00    -0.001 A 
ENDROOT
TORSDOF 0
ENDMDL
