MODEL 1
REMARK minimizedAffinity 2.58817959
REMARK minimizedRMSD -1
REMARK  0 active torsions:
REMARK  status: ('A' for Active; 'I' for Inactive)
ROOT
ATOM      1  C   UNL d   1       0.714  -5.536  -1.506  0.00  0.00    -0.002 A 
ATOM      2  C1  UNL d   1      -0.531  -5.726  -2.089  0.00  0.00     0.010 A 
ATOM      3  C2  UNL d   1      -0.660  -5.817  -3.476  0.00  0.00     0.041 A 
ATOM      4  C3  UNL d   1       0.495  -5.715  -4.276  0.00  0.00    -0.075 A 
ATOM      5  S   UNL d   1       0.579  -5.798  -5.996  0.00  0.00     0.015 SA
ATOM      6  C4  UNL d   1       2.270  -5.584  -5.998  0.00  0.00     0.022 A 
ATOM      7  C5  UNL d   1       2.775  -5.450  -4.726  0.00  0.00     0.026 A 
ATOM      8  C6  UNL d   1       1.760  -5.524  -3.712  0.00  0.00    -0.082 A 
ATOM      9  C7  UNL d   1       1.858  -5.435  -2.303  0.00  0.00     0.045 A 
ENDROOT
TORSDOF 0
ENDMDL
