MODEL 1
REMARK minimizedAffinity 3.53590798
REMARK minimizedRMSD -1
REMARK  0 active torsions:
REMARK  status: ('A' for Active; 'I' for Inactive)
ROOT
ATOM      1  C   UNL d   1      -1.949   1.185  -0.938  0.00  0.00    -0.002 A 
ATOM      2  C1  UNL d   1      -2.587  -0.028  -1.157  0.00  0.00     0.010 A 
ATOM      3  C2  UNL d   1      -2.603  -1.011  -0.166  0.00  0.00     0.041 A 
ATOM      4  C3  UNL d   1      -1.963  -0.751   1.062  0.00  0.00    -0.075 A 
ATOM      5  S   UNL d   1      -1.856  -1.806   2.421  0.00  0.00     0.015 SA
ATOM      6  C4  UNL d   1      -0.961  -0.671   3.325  0.00  0.00     0.022 A 
ATOM      7  C5  UNL d   1      -0.741   0.490   2.622  0.00  0.00     0.026 A 
ATOM      8  C6  UNL d   1      -1.315   0.463   1.306  0.00  0.00    -0.082 A 
ATOM      9  C7  UNL d   1      -1.316   1.439   0.281  0.00  0.00     0.045 A 
ENDROOT
TORSDOF 0
ENDMDL
