MODEL 1
REMARK minimizedAffinity -4.50317049
REMARK minimizedRMSD -1
REMARK  0 active torsions:
REMARK  status: ('A' for Active; 'I' for Inactive)
ROOT
ATOM      1  C   UNL d   1      -1.203  -2.059   4.840  0.00  0.00    -0.002 A 
ATOM      2  C1  UNL d   1      -1.969  -1.235   4.028  0.00  0.00     0.010 A 
ATOM      3  C2  UNL d   1      -1.367  -0.449   3.043  0.00  0.00     0.041 A 
ATOM      4  C3  UNL d   1       0.031  -0.508   2.885  0.00  0.00    -0.075 A 
ATOM      5  S   UNL d   1       0.986   0.364   1.745  0.00  0.00     0.015 SA
ATOM      6  C4  UNL d   1       2.433  -0.338   2.307  0.00  0.00     0.022 A 
ATOM      7  C5  UNL d   1       2.212  -1.218   3.340  0.00  0.00     0.026 A 
ATOM      8  C6  UNL d   1       0.824  -1.331   3.690  0.00  0.00    -0.082 A 
ATOM      9  C7  UNL d   1       0.184  -2.115   4.680  0.00  0.00     0.045 A 
ENDROOT
TORSDOF 0
ENDMDL
