MODEL 1
REMARK minimizedAffinity 6.4253912
REMARK minimizedRMSD -1
REMARK  1 active torsions:
REMARK  status: ('A' for Active; 'I' for Inactive)
REMARK    1  A    between atoms: C1_2  and  C2_3 
ROOT
ATOM      1  C2  UNL d   1      -4.987   1.951  -3.538  0.00  0.00    -0.076 A 
ATOM      2  C3  UNL d   1      -5.505   3.241  -3.749  0.00  0.00     0.004 A 
ATOM      3  C4  UNL d   1      -5.999   3.997  -2.688  0.00  0.00    -0.003 A 
ATOM      4  C5  UNL d   1      -5.983   3.476  -1.399  0.00  0.00     0.000 A 
ATOM      5  C6  UNL d   1      -5.457   2.206  -1.169  0.00  0.00     0.000 A 
ATOM      6  C7  UNL d   1      -4.940   1.436  -2.225  0.00  0.00    -0.073 A 
ATOM      7  C8  UNL d   1      -4.390   0.070  -1.920  0.00  0.00     0.078 C 
ENDROOT
BRANCH   1   8
ATOM      8  C1  UNL d   1      -4.489   1.166  -4.731  0.00  0.00     0.053 C 
ATOM      9  C   UNL d   1      -3.156   1.681  -5.252  0.00  0.00     0.018 C 
ENDBRANCH   1   8
TORSDOF 1
ENDMDL
