MODEL 1
REMARK minimizedAffinity 5.46012974
REMARK minimizedRMSD -1
REMARK  1 active torsions:
REMARK  status: ('A' for Active; 'I' for Inactive)
REMARK    1  A    between atoms: C1_2  and  C2_3 
ROOT
ATOM      1  C2  UNL d   1       2.398   0.999   0.874  0.00  0.00    -0.076 A 
ATOM      2  C3  UNL d   1       3.336   0.998  -0.173  0.00  0.00     0.004 A 
ATOM      3  C4  UNL d   1       4.297  -0.006  -0.274  0.00  0.00    -0.003 A 
ATOM      4  C5  UNL d   1       4.337  -1.025   0.670  0.00  0.00     0.000 A 
ATOM      5  C6  UNL d   1       3.404  -1.050   1.706  0.00  0.00     0.000 A 
ATOM      6  C7  UNL d   1       2.417  -0.055   1.813  0.00  0.00    -0.073 A 
ATOM      7  C8  UNL d   1       1.440  -0.127   2.954  0.00  0.00     0.078 C 
ENDROOT
BRANCH   1   8
ATOM      8  C1  UNL d   1       1.396   2.128   0.948  0.00  0.00     0.053 C 
ATOM      9  C   UNL d   1       0.327   2.030  -0.129  0.00  0.00     0.018 C 
ENDBRANCH   1   8
TORSDOF 1
ENDMDL
