MODEL 1
REMARK minimizedAffinity -0.748080194
REMARK minimizedRMSD -1
REMARK  1 active torsions:
REMARK  status: ('A' for Active; 'I' for Inactive)
REMARK    1  A    between atoms: C1_2  and  C2_3 
ROOT
ATOM      1  C2  UNL d   1       1.518  -0.382  -1.083  0.00  0.00    -0.076 A 
ATOM      2  C3  UNL d   1       1.816   0.975  -1.293  0.00  0.00     0.004 A 
ATOM      3  C4  UNL d   1       3.124   1.446  -1.194  0.00  0.00    -0.003 A 
ATOM      4  C5  UNL d   1       4.156   0.567  -0.884  0.00  0.00     0.000 A 
ATOM      5  C6  UNL d   1       3.881  -0.786  -0.689  0.00  0.00     0.000 A 
ATOM      6  C7  UNL d   1       2.570  -1.280  -0.801  0.00  0.00    -0.073 A 
ATOM      7  C8  UNL d   1       2.330  -2.748  -0.575  0.00  0.00     0.078 C 
ENDROOT
BRANCH   1   8
ATOM      8  C1  UNL d   1       0.077  -0.831  -1.176  0.00  0.00     0.053 C 
ATOM      9  C   UNL d   1      -0.624  -0.283  -2.410  0.00  0.00     0.018 C 
ENDBRANCH   1   8
TORSDOF 1
ENDMDL
