MODEL 1
REMARK minimizedAffinity 21.7082615
REMARK minimizedRMSD -1
REMARK  2 active torsions:
REMARK  status: ('A' for Active; 'I' for Inactive)
REMARK    1  A    between atoms: C2'_3  and  C1'_4 
REMARK    2  A    between atoms: C1'_4  and  C1_5 
ROOT
ATOM      1  C1  I4B d   1       1.342  -2.872   1.002  0.00  0.00    -0.075 A 
ATOM      2  C2  I4B d   1       2.569  -2.477   1.475  0.00  0.00     0.003 A 
ATOM      3  C3  I4B d   1       2.802  -1.119   1.804  0.00  0.00     0.002 A 
ATOM      4  C4  I4B d   1       1.804  -0.189   1.598  0.00  0.00    -0.004 A 
ATOM      5  C5  I4B d   1       0.554  -0.595   1.140  0.00  0.00     0.002 A 
ATOM      6  C6  I4B d   1       0.317  -1.947   0.851  0.00  0.00     0.003 A 
ENDROOT
BRANCH   1   7
ATOM      7  C1' I4B d   1       1.140  -4.308   0.633  0.00  0.00     0.060 C 
BRANCH   7   8
ATOM      8  C2' I4B d   1       0.275  -4.353  -0.610  0.00  0.00    -0.013 C 
ATOM      9  C4' I4B d   1       1.089  -4.700  -1.828  0.00  0.00     0.013 C 
ATOM     10  C3' I4B d   1      -0.812  -5.360  -0.380  0.00  0.00     0.013 C 
ENDBRANCH   7   8
ENDBRANCH   1   7
TORSDOF 2
ENDMDL
