MODEL 1
REMARK minimizedAffinity 3.12863851
REMARK minimizedRMSD -1
REMARK  2 active torsions:
REMARK  status: ('A' for Active; 'I' for Inactive)
REMARK    1  A    between atoms: C2'_3  and  C1'_4 
REMARK    2  A    between atoms: C1'_4  and  C1_5 
ROOT
ATOM      1  C1  I4B d   1       1.391  -3.252   1.739  0.00  0.00    -0.075 A 
ATOM      2  C2  I4B d   1       0.722  -4.125   0.919  0.00  0.00     0.003 A 
ATOM      3  C3  I4B d   1       0.835  -5.522   1.121  0.00  0.00     0.002 A 
ATOM      4  C4  I4B d   1       1.663  -6.000   2.117  0.00  0.00    -0.004 A 
ATOM      5  C5  I4B d   1       2.323  -5.112   2.962  0.00  0.00     0.002 A 
ATOM      6  C6  I4B d   1       2.177  -3.729   2.780  0.00  0.00     0.003 A 
ENDROOT
BRANCH   1   7
ATOM      7  C1' I4B d   1       1.275  -1.784   1.476  0.00  0.00     0.060 C 
BRANCH   7   8
ATOM      8  C2' I4B d   1      -0.101  -1.336   1.927  0.00  0.00    -0.013 C 
ATOM      9  C4' I4B d   1      -0.284  -1.545   3.407  0.00  0.00     0.013 C 
ATOM     10  C3' I4B d   1      -0.261   0.109   1.560  0.00  0.00     0.013 C 
ENDBRANCH   7   8
ENDBRANCH   1   7
TORSDOF 2
ENDMDL
