MODEL 1
REMARK minimizedAffinity 12.3318377
REMARK minimizedRMSD -1
REMARK  2 active torsions:
REMARK  status: ('A' for Active; 'I' for Inactive)
REMARK    1  A    between atoms: C2'_3  and  C1'_4 
REMARK    2  A    between atoms: C1'_4  and  C1_5 
ROOT
ATOM      1  C1  I4B d   1       2.066  -2.672   2.493  0.00  0.00    -0.075 A 
ATOM      2  C2  I4B d   1       1.578  -2.354   3.736  0.00  0.00     0.003 A 
ATOM      3  C3  I4B d   1       1.015  -1.077   3.976  0.00  0.00     0.002 A 
ATOM      4  C4  I4B d   1       1.006  -0.138   2.964  0.00  0.00    -0.004 A 
ATOM      5  C5  I4B d   1       1.480  -0.470   1.699  0.00  0.00     0.002 A 
ATOM      6  C6  I4B d   1       2.002  -1.749   1.458  0.00  0.00     0.003 A 
ENDROOT
BRANCH   1   7
ATOM      7  C1' I4B d   1       2.683  -4.018   2.284  0.00  0.00     0.060 C 
BRANCH   7   8
ATOM      8  C2' I4B d   1       1.569  -5.045   2.262  0.00  0.00    -0.013 C 
ATOM      9  C4' I4B d   1       1.601  -5.855   0.993  0.00  0.00     0.013 C 
ATOM     10  C3' I4B d   1       1.722  -5.921   3.468  0.00  0.00     0.013 C 
ENDBRANCH   7   8
ENDBRANCH   1   7
TORSDOF 2
ENDMDL
