MODEL 1
REMARK minimizedAffinity 13.5004263
REMARK minimizedRMSD -1
REMARK  2 active torsions:
REMARK  status: ('A' for Active; 'I' for Inactive)
REMARK    1  A    between atoms: C2'_3  and  C1'_4 
REMARK    2  A    between atoms: C1'_4  and  C1_5 
ROOT
ATOM      1  C1  I4B d   1      -3.313   2.711  -0.745  0.00  0.00    -0.075 A 
ATOM      2  C2  I4B d   1      -3.774   2.453  -2.011  0.00  0.00     0.003 A 
ATOM      3  C3  I4B d   1      -3.210   1.402  -2.774  0.00  0.00     0.002 A 
ATOM      4  C4  I4B d   1      -2.161   0.672  -2.255  0.00  0.00    -0.004 A 
ATOM      5  C5  I4B d   1      -1.710   0.921  -0.962  0.00  0.00     0.002 A 
ATOM      6  C6  I4B d   1      -2.297   1.939  -0.197  0.00  0.00     0.003 A 
ENDROOT
BRANCH   1   7
ATOM      7  C1' I4B d   1      -3.909   3.850   0.021  0.00  0.00     0.060 C 
BRANCH   7   8
ATOM      8  C2' I4B d   1      -5.414   3.678   0.018  0.00  0.00    -0.013 C 
ATOM      9  C4' I4B d   1      -5.979   3.797   1.409  0.00  0.00     0.013 C 
ATOM     10  C3' I4B d   1      -5.997   4.716  -0.894  0.00  0.00     0.013 C 
ENDBRANCH   7   8
ENDBRANCH   1   7
TORSDOF 2
ENDMDL
