MODEL 1
REMARK minimizedAffinity 6.37581205
REMARK minimizedRMSD -1
REMARK  2 active torsions:
REMARK  status: ('A' for Active; 'I' for Inactive)
REMARK    1  A    between atoms: C2'_3  and  C1'_4 
REMARK    2  A    between atoms: C1'_4  and  C1_5 
ROOT
ATOM      1  C1  I4B d   1       2.512  -0.859   2.214  0.00  0.00    -0.075 A 
ATOM      2  C2  I4B d   1       3.332  -1.129   1.148  0.00  0.00     0.003 A 
ATOM      3  C3  I4B d   1       3.679  -0.102   0.237  0.00  0.00     0.002 A 
ATOM      4  C4  I4B d   1       3.147   1.160   0.401  0.00  0.00    -0.004 A 
ATOM      5  C5  I4B d   1       2.333   1.438   1.495  0.00  0.00     0.002 A 
ATOM      6  C6  I4B d   1       2.023   0.426   2.415  0.00  0.00     0.003 A 
ENDROOT
BRANCH   1   7
ATOM      7  C1' I4B d   1       2.139  -1.975   3.138  0.00  0.00     0.060 C 
BRANCH   7   8
ATOM      8  C2' I4B d   1       0.916  -1.543   3.922  0.00  0.00    -0.013 C 
ATOM      9  C4' I4B d   1      -0.016  -2.702   4.160  0.00  0.00     0.013 C 
ATOM     10  C3' I4B d   1       1.383  -0.948   5.217  0.00  0.00     0.013 C 
ENDBRANCH   7   8
ENDBRANCH   1   7
TORSDOF 2
ENDMDL
