MODEL 1
REMARK minimizedAffinity -4.92953014
REMARK minimizedRMSD -1
REMARK  0 active torsions:
REMARK  status: ('A' for Active; 'I' for Inactive)
ROOT
ATOM      1  C1  DEN d   1      -1.685   0.264  -0.950  0.00  0.00     0.130 A 
ATOM      2  C2  DEN d   1      -2.641  -0.835  -1.050  0.00  0.00    -0.031 A 
ATOM      3  C3  DEN d   1      -2.173  -1.928  -0.175  0.00  0.00     0.027 A 
ATOM      4  C4  DEN d   1      -0.073  -2.024   1.321  0.00  0.00     0.027 A 
ATOM      5  C5  DEN d   1       1.048  -1.335   1.727  0.00  0.00    -0.003 A 
ATOM      6  C6  DEN d   1       1.352  -0.088   1.248  0.00  0.00     0.001 A 
ATOM      7  C7  DEN d   1       0.502   0.527   0.368  0.00  0.00     0.017 A 
ATOM      8  C8  DEN d   1      -0.627  -0.165  -0.052  0.00  0.00    -0.094 A 
ATOM      9  C9  DEN d   1      -0.924  -1.419   0.453  0.00  0.00    -0.072 A 
ENDROOT
TORSDOF 0
ENDMDL
