MODEL 1
REMARK minimizedAffinity -0.409360826
REMARK minimizedRMSD -1
REMARK  0 active torsions:
REMARK  status: ('A' for Active; 'I' for Inactive)
ROOT
ATOM      1  C1  DEN d   1       5.387   5.248  -0.000  0.00  0.00     0.130 A 
ATOM      2  C2  DEN d   1       4.500   4.369  -0.758  0.00  0.00    -0.031 A 
ATOM      3  C3  DEN d   1       3.882   3.419   0.189  0.00  0.00     0.027 A 
ATOM      4  C4  DEN d   1       4.207   3.227   2.740  0.00  0.00     0.027 A 
ATOM      5  C5  DEN d   1       4.871   3.747   3.829  0.00  0.00    -0.003 A 
ATOM      6  C6  DEN d   1       5.771   4.772   3.715  0.00  0.00     0.001 A 
ATOM      7  C7  DEN d   1       5.999   5.341   2.490  0.00  0.00     0.017 A 
ATOM      8  C8  DEN d   1       5.339   4.818   1.386  0.00  0.00    -0.094 A 
ATOM      9  C9  DEN d   1       4.424   3.789   1.524  0.00  0.00    -0.072 A 
ENDROOT
TORSDOF 0
ENDMDL
