MODEL 1
REMARK minimizedAffinity -6.57434416
REMARK minimizedRMSD -1
REMARK  0 active torsions:
REMARK  status: ('A' for Active; 'I' for Inactive)
ROOT
ATOM      1  C1  DEN d   1       0.992  -0.209   1.534  0.00  0.00     0.130 A 
ATOM      2  C2  DEN d   1       1.624   0.976   0.961  0.00  0.00    -0.031 A 
ATOM      3  C3  DEN d   1       0.794   1.434  -0.171  0.00  0.00     0.027 A 
ATOM      4  C4  DEN d   1      -1.400   0.432  -1.083  0.00  0.00     0.027 A 
ATOM      5  C5  DEN d   1      -2.320  -0.582  -0.931  0.00  0.00    -0.003 A 
ATOM      6  C6  DEN d   1      -2.184  -1.554   0.024  0.00  0.00     0.001 A 
ATOM      7  C7  DEN d   1      -1.127  -1.507   0.894  0.00  0.00     0.017 A 
ATOM      8  C8  DEN d   1      -0.191  -0.492   0.742  0.00  0.00    -0.094 A 
ATOM      9  C9  DEN d   1      -0.353   0.488  -0.222  0.00  0.00    -0.072 A 
ENDROOT
TORSDOF 0
ENDMDL
