MODEL 1
REMARK minimizedAffinity 8.62838078
REMARK minimizedRMSD -1
REMARK  0 active torsions:
REMARK  status: ('A' for Active; 'I' for Inactive)
ROOT
ATOM      1  C1  DEN d   1      -0.431   1.116   3.763  0.00  0.00     0.130 A 
ATOM      2  C2  DEN d   1      -1.872   0.890   3.826  0.00  0.00    -0.031 A 
ATOM      3  C3  DEN d   1      -2.135  -0.501   3.409  0.00  0.00     0.027 A 
ATOM      4  C4  DEN d   1      -0.459  -2.321   2.679  0.00  0.00     0.027 A 
ATOM      5  C5  DEN d   1       0.872  -2.596   2.455  0.00  0.00    -0.003 A 
ATOM      6  C6  DEN d   1       1.851  -1.651   2.618  0.00  0.00     0.001 A 
ATOM      7  C7  DEN d   1       1.517  -0.398   3.059  0.00  0.00     0.017 A 
ATOM      8  C8  DEN d   1       0.177  -0.110   3.280  0.00  0.00    -0.094 A 
ATOM      9  C9  DEN d   1      -0.796  -1.083   3.121  0.00  0.00    -0.072 A 
ENDROOT
TORSDOF 0
ENDMDL
