MODEL 1
REMARK minimizedAffinity 5.49182892
REMARK minimizedRMSD -1
REMARK  0 active torsions:
REMARK  status: ('A' for Active; 'I' for Inactive)
ROOT
ATOM      1  C1  DEN d   1       1.157  -1.130   0.773  0.00  0.00     0.130 A 
ATOM      2  C2  DEN d   1       0.508  -1.610   1.990  0.00  0.00    -0.031 A 
ATOM      3  C3  DEN d   1      -0.933  -1.770   1.707  0.00  0.00     0.027 A 
ATOM      4  C4  DEN d   1      -2.213  -1.329  -0.489  0.00  0.00     0.027 A 
ATOM      5  C5  DEN d   1      -2.091  -0.902  -1.792  0.00  0.00    -0.003 A 
ATOM      6  C6  DEN d   1      -0.895  -0.492  -2.318  0.00  0.00     0.001 A 
ATOM      7  C7  DEN d   1       0.238  -0.543  -1.549  0.00  0.00     0.017 A 
ATOM      8  C8  DEN d   1       0.122  -0.966  -0.231  0.00  0.00    -0.094 A 
ATOM      9  C9  DEN d   1      -1.095  -1.388   0.278  0.00  0.00    -0.072 A 
ENDROOT
TORSDOF 0
ENDMDL
