MODEL 1
REMARK minimizedAffinity 9.54773712
REMARK minimizedRMSD -1
REMARK  0 active torsions:
REMARK  status: ('A' for Active; 'I' for Inactive)
ROOT
ATOM      1  C1  DEN d   1      -2.909   2.040  -2.696  0.00  0.00     0.130 A 
ATOM      2  C2  DEN d   1      -1.617   2.299  -3.323  0.00  0.00    -0.031 A 
ATOM      3  C3  DEN d   1      -0.702   1.199  -2.956  0.00  0.00     0.027 A 
ATOM      4  C4  DEN d   1      -1.161  -0.871  -1.489  0.00  0.00     0.027 A 
ATOM      5  C5  DEN d   1      -2.108  -1.519  -0.726  0.00  0.00    -0.003 A 
ATOM      6  C6  DEN d   1      -3.367  -1.013  -0.540  0.00  0.00     0.001 A 
ATOM      7  C7  DEN d   1      -3.729   0.153  -1.162  0.00  0.00     0.017 A 
ATOM      8  C8  DEN d   1      -2.777   0.816  -1.926  0.00  0.00    -0.094 A 
ATOM      9  C9  DEN d   1      -1.513   0.282  -2.112  0.00  0.00    -0.072 A 
ENDROOT
TORSDOF 0
ENDMDL
