MODEL 1
REMARK minimizedAffinity -3.54062986
REMARK minimizedRMSD -1
REMARK  0 active torsions:
REMARK  status: ('A' for Active; 'I' for Inactive)
ROOT
ATOM      1  C1  DEN d   1      -0.505   0.615  -2.602  0.00  0.00     0.130 A 
ATOM      2  C2  DEN d   1      -1.224   1.709  -3.248  0.00  0.00    -0.031 A 
ATOM      3  C3  DEN d   1      -2.534   1.851  -2.582  0.00  0.00     0.027 A 
ATOM      4  C4  DEN d   1      -3.511   0.493  -0.619  0.00  0.00     0.027 A 
ATOM      5  C5  DEN d   1      -3.276  -0.546   0.255  0.00  0.00    -0.003 A 
ATOM      6  C6  DEN d   1      -2.124  -1.286   0.215  0.00  0.00     0.001 A 
ATOM      7  C7  DEN d   1      -1.144  -0.969  -0.687  0.00  0.00     0.017 A 
ATOM      8  C8  DEN d   1      -1.377   0.072  -1.576  0.00  0.00    -0.094 A 
ATOM      9  C9  DEN d   1      -2.543   0.817  -1.513  0.00  0.00    -0.072 A 
ENDROOT
TORSDOF 0
ENDMDL
