MODEL 1
REMARK minimizedAffinity 7.47089624
REMARK minimizedRMSD -1
REMARK  0 active torsions:
REMARK  status: ('A' for Active; 'I' for Inactive)
ROOT
ATOM      1  C1  DEN d   1      -0.376   0.891  -2.861  0.00  0.00     0.130 A 
ATOM      2  C2  DEN d   1      -1.357   1.512  -3.746  0.00  0.00    -0.031 A 
ATOM      3  C3  DEN d   1      -2.691   0.992  -3.386  0.00  0.00     0.027 A 
ATOM      4  C4  DEN d   1      -3.330  -0.702  -1.549  0.00  0.00     0.027 A 
ATOM      5  C5  DEN d   1      -2.839  -1.513  -0.550  0.00  0.00    -0.003 A 
ATOM      6  C6  DEN d   1      -1.500  -1.604  -0.276  0.00  0.00     0.001 A 
ATOM      7  C7  DEN d   1      -0.609  -0.838  -0.980  0.00  0.00     0.017 A 
ATOM      8  C8  DEN d   1      -1.096  -0.024  -1.994  0.00  0.00    -0.094 A 
ATOM      9  C9  DEN d   1      -2.454   0.064  -2.247  0.00  0.00    -0.072 A 
ENDROOT
TORSDOF 0
ENDMDL
