MODEL 1
REMARK minimizedAffinity -6.57308292
REMARK minimizedRMSD -1
REMARK  0 active torsions:
REMARK  status: ('A' for Active; 'I' for Inactive)
ROOT
ATOM      1  C1  DEN d   1       0.502  -0.024   1.761  0.00  0.00     0.130 A 
ATOM      2  C2  DEN d   1       1.568   0.687   1.060  0.00  0.00    -0.031 A 
ATOM      3  C3  DEN d   1       1.145   0.877  -0.342  0.00  0.00     0.027 A 
ATOM      4  C4  DEN d   1      -1.046   0.145  -1.489  0.00  0.00     0.027 A 
ATOM      5  C5  DEN d   1      -2.248  -0.500  -1.305  0.00  0.00    -0.003 A 
ATOM      6  C6  DEN d   1      -2.601  -1.058  -0.104  0.00  0.00     0.001 A 
ATOM      7  C7  DEN d   1      -1.761  -0.941   0.971  0.00  0.00     0.017 A 
ATOM      8  C8  DEN d   1      -0.543  -0.298   0.791  0.00  0.00    -0.094 A 
ATOM      9  C9  DEN d   1      -0.211   0.270  -0.427  0.00  0.00    -0.072 A 
ENDROOT
TORSDOF 0
ENDMDL
