MODEL 1
REMARK minimizedAffinity -1.42453504
REMARK minimizedRMSD -1
REMARK  0 active torsions:
REMARK  status: ('A' for Active; 'I' for Inactive)
ROOT
ATOM      1  C1  DEN d   1      -2.823  -2.646   1.144  0.00  0.00     0.130 A 
ATOM      2  C2  DEN d   1      -3.194  -3.237  -0.139  0.00  0.00    -0.031 A 
ATOM      3  C3  DEN d   1      -2.390  -2.585  -1.191  0.00  0.00     0.027 A 
ATOM      4  C4  DEN d   1      -0.611  -0.731  -0.960  0.00  0.00     0.027 A 
ATOM      5  C5  DEN d   1       0.038   0.097  -0.071  0.00  0.00    -0.003 A 
ATOM      6  C6  DEN d   1      -0.242   0.092   1.270  0.00  0.00     0.001 A 
ATOM      7  C7  DEN d   1      -1.166  -0.790   1.767  0.00  0.00     0.017 A 
ATOM      8  C8  DEN d   1      -1.830  -1.622   0.876  0.00  0.00    -0.094 A 
ATOM      9  C9  DEN d   1      -1.524  -1.610  -0.474  0.00  0.00    -0.072 A 
ENDROOT
TORSDOF 0
ENDMDL
