MODEL 1
REMARK minimizedAffinity 14.3229485
REMARK minimizedRMSD -1
REMARK  0 active torsions:
REMARK  status: ('A' for Active; 'I' for Inactive)
ROOT
ATOM      1  C1  DEN d   1      -5.962   5.996   1.505  0.00  0.00     0.130 A 
ATOM      2  C2  DEN d   1      -5.155   5.431   2.583  0.00  0.00    -0.031 A 
ATOM      3  C3  DEN d   1      -4.206   4.469   1.987  0.00  0.00     0.027 A 
ATOM      4  C4  DEN d   1      -3.906   3.808  -0.488  0.00  0.00     0.027 A 
ATOM      5  C5  DEN d   1      -4.369   4.013  -1.769  0.00  0.00    -0.003 A 
ATOM      6  C6  DEN d   1      -5.410   4.860  -2.042  0.00  0.00     0.001 A 
ATOM      7  C7  DEN d   1      -5.993   5.569  -1.025  0.00  0.00     0.017 A 
ATOM      8  C8  DEN d   1      -5.536   5.363   0.270  0.00  0.00    -0.094 A 
ATOM      9  C9  DEN d   1      -4.474   4.511   0.524  0.00  0.00    -0.072 A 
ENDROOT
TORSDOF 0
ENDMDL
