MODEL 1
REMARK minimizedAffinity -0.0354075842
REMARK minimizedRMSD -1
REMARK  0 active torsions:
REMARK  status: ('A' for Active; 'I' for Inactive)
ROOT
ATOM      1  C1  DEN d   1      -5.613   3.679   1.140  0.00  0.00     0.130 A 
ATOM      2  C2  DEN d   1      -5.238   4.861   0.369  0.00  0.00    -0.031 A 
ATOM      3  C3  DEN d   1      -5.052   5.982   1.313  0.00  0.00     0.027 A 
ATOM      4  C4  DEN d   1      -5.304   6.000   3.880  0.00  0.00     0.027 A 
ATOM      5  C5  DEN d   1      -5.619   5.237   4.982  0.00  0.00    -0.003 A 
ATOM      6  C6  DEN d   1      -5.984   3.921   4.879  0.00  0.00     0.001 A 
ATOM      7  C7  DEN d   1      -6.000   3.315   3.651  0.00  0.00     0.017 A 
ATOM      8  C8  DEN d   1      -5.690   4.080   2.534  0.00  0.00    -0.094 A 
ATOM      9  C9  DEN d   1      -5.312   5.406   2.660  0.00  0.00    -0.072 A 
ENDROOT
TORSDOF 0
ENDMDL
