MODEL 1
REMARK minimizedAffinity -1.41496742
REMARK minimizedRMSD -1
REMARK  0 active torsions:
REMARK  status: ('A' for Active; 'I' for Inactive)
ROOT
ATOM      1  C1  DEN d   1      -0.426  -2.377   1.207  0.00  0.00     0.130 A 
ATOM      2  C2  DEN d   1       0.735  -1.516   1.412  0.00  0.00    -0.031 A 
ATOM      3  C3  DEN d   1       0.785  -0.544   0.302  0.00  0.00     0.027 A 
ATOM      4  C4  DEN d   1      -0.818  -0.284  -1.701  0.00  0.00     0.027 A 
ATOM      5  C5  DEN d   1      -1.944  -0.792  -2.311  0.00  0.00    -0.003 A 
ATOM      6  C6  DEN d   1      -2.618  -1.876  -1.813  0.00  0.00     0.001 A 
ATOM      7  C7  DEN d   1      -2.198  -2.460  -0.648  0.00  0.00     0.017 A 
ATOM      8  C8  DEN d   1      -1.059  -1.958  -0.031  0.00  0.00    -0.094 A 
ATOM      9  C9  DEN d   1      -0.399  -0.854  -0.543  0.00  0.00    -0.072 A 
ENDROOT
TORSDOF 0
ENDMDL
