MODEL 1
REMARK minimizedAffinity -4.46985531
REMARK minimizedRMSD -1
REMARK  0 active torsions:
REMARK  status: ('A' for Active; 'I' for Inactive)
ROOT
ATOM      1  C1  DEN d   1       0.105   0.246  -0.472  0.00  0.00     0.130 A 
ATOM      2  C2  DEN d   1      -0.810   0.629  -1.543  0.00  0.00    -0.031 A 
ATOM      3  C3  DEN d   1      -1.964  -0.292  -1.509  0.00  0.00     0.027 A 
ATOM      4  C4  DEN d   1      -2.423  -2.260   0.093  0.00  0.00     0.027 A 
ATOM      5  C5  DEN d   1      -1.928  -2.979   1.159  0.00  0.00    -0.003 A 
ATOM      6  C6  DEN d   1      -0.715  -2.696   1.730  0.00  0.00     0.001 A 
ATOM      7  C7  DEN d   1       0.024  -1.640   1.266  0.00  0.00     0.017 A 
ATOM      8  C8  DEN d   1      -0.465  -0.916   0.187  0.00  0.00    -0.094 A 
ATOM      9  C9  DEN d   1      -1.699  -1.209  -0.368  0.00  0.00    -0.072 A 
ENDROOT
TORSDOF 0
ENDMDL
