MODEL 1
REMARK minimizedAffinity 0.0429157279
REMARK minimizedRMSD -1
REMARK  0 active torsions:
REMARK  status: ('A' for Active; 'I' for Inactive)
ROOT
ATOM      1  C1  DEN d   1       1.928  -0.625   0.651  0.00  0.00     0.130 A 
ATOM      2  C2  DEN d   1       2.434   0.722   0.899  0.00  0.00    -0.031 A 
ATOM      3  C3  DEN d   1       1.524   1.382   1.856  0.00  0.00     0.027 A 
ATOM      4  C4  DEN d   1      -0.605   0.453   2.976  0.00  0.00     0.027 A 
ATOM      5  C5  DEN d   1      -1.441  -0.638   3.068  0.00  0.00    -0.003 A 
ATOM      6  C6  DEN d   1      -1.233  -1.780   2.341  0.00  0.00     0.001 A 
ATOM      7  C7  DEN d   1      -0.138  -1.873   1.523  0.00  0.00     0.017 A 
ATOM      8  C8  DEN d   1       0.705  -0.774   1.419  0.00  0.00    -0.094 A 
ATOM      9  C9  DEN d   1       0.484   0.366   2.172  0.00  0.00    -0.072 A 
ENDROOT
TORSDOF 0
ENDMDL
