MODEL 1
REMARK minimizedAffinity -1.38351345
REMARK minimizedRMSD -1
REMARK  1 active torsions:
REMARK  status: ('A' for Active; 'I' for Inactive)
REMARK    1  A    between atoms: C3_4  and  O_7 
ROOT
ATOM      1  C   UNL d   1      -0.685   3.765   0.655  0.00  0.00    -0.033 A 
ATOM      2  C1  UNL d   1      -0.264   2.983   1.733  0.00  0.00     0.039 A 
ATOM      3  C2  UNL d   1      -1.057   2.886   2.878  0.00  0.00    -0.080 A 
ATOM      4  C3  UNL d   1      -2.267   3.572   2.932  0.00  0.00     0.150 A 
ATOM      5  C4  UNL d   1      -2.694   4.349   1.860  0.00  0.00    -0.007 A 
ATOM      6  C5  UNL d   1      -1.900   4.447   0.718  0.00  0.00     0.039 A 
ENDROOT
BRANCH   4   7
ATOM      7  O   UNL d   1      -3.072   3.511   4.030  0.00  0.00    -0.526 OA
ATOM      8  H5  UNL d   1      -2.636   2.961   4.701  0.00  0.00     0.418 HD
ENDBRANCH   4   7
TORSDOF 1
ENDMDL
