MODEL 1
REMARK minimizedAffinity -0.172266409
REMARK minimizedRMSD -1
REMARK  1 active torsions:
REMARK  status: ('A' for Active; 'I' for Inactive)
REMARK    1  A    between atoms: C3_4  and  O_7 
ROOT
ATOM      1  C   UNL d   1      -5.958   3.815  -5.673  0.00  0.00    -0.033 A 
ATOM      2  C1  UNL d   1      -5.986   4.611  -4.527  0.00  0.00     0.039 A 
ATOM      3  C2  UNL d   1      -5.998   4.018  -3.263  0.00  0.00    -0.080 A 
ATOM      4  C3  UNL d   1      -5.980   2.630  -3.159  0.00  0.00     0.150 A 
ATOM      5  C4  UNL d   1      -5.949   1.831  -4.297  0.00  0.00    -0.007 A 
ATOM      6  C5  UNL d   1      -5.938   2.424  -5.558  0.00  0.00     0.039 A 
ENDROOT
BRANCH   4   7
ATOM      7  O   UNL d   1      -5.996   2.006  -1.947  0.00  0.00    -0.526 OA
ATOM      8  H5  UNL d   1      -6.046   2.684  -1.253  0.00  0.00     0.418 HD
ENDBRANCH   4   7
TORSDOF 1
ENDMDL
