MODEL 1
REMARK minimizedAffinity 1.27919543
REMARK minimizedRMSD -1
REMARK  1 active torsions:
REMARK  status: ('A' for Active; 'I' for Inactive)
REMARK    1  A    between atoms: C3_4  and  O_7 
ROOT
ATOM      1  C   UNL d   1       4.511  -5.032  -3.268  0.00  0.00    -0.033 A 
ATOM      2  C1  UNL d   1       4.562  -3.708  -3.709  0.00  0.00     0.039 A 
ATOM      3  C2  UNL d   1       4.599  -2.664  -2.783  0.00  0.00    -0.080 A 
ATOM      4  C3  UNL d   1       4.585  -2.956  -1.422  0.00  0.00     0.150 A 
ATOM      5  C4  UNL d   1       4.538  -4.272  -0.976  0.00  0.00    -0.007 A 
ATOM      6  C5  UNL d   1       4.500  -5.314  -1.902  0.00  0.00     0.039 A 
ENDROOT
BRANCH   4   7
ATOM      7  O   UNL d   1       4.615  -1.969  -0.481  0.00  0.00    -0.526 OA
ATOM      8  H5  UNL d   1       4.617  -1.111  -0.936  0.00  0.00     0.418 HD
ENDBRANCH   4   7
TORSDOF 1
ENDMDL
