MODEL 1
REMARK minimizedAffinity -3.79064751
REMARK minimizedRMSD -1
REMARK  1 active torsions:
REMARK  status: ('A' for Active; 'I' for Inactive)
REMARK    1  A    between atoms: C3_4  and  O_7 
ROOT
ATOM      1  C   UNL d   1      -4.293   4.500  -5.410  0.00  0.00    -0.033 A 
ATOM      2  C1  UNL d   1      -5.415   5.129  -4.865  0.00  0.00     0.039 A 
ATOM      3  C2  UNL d   1      -6.000   4.630  -3.700  0.00  0.00    -0.080 A 
ATOM      4  C3  UNL d   1      -5.454   3.505  -3.088  0.00  0.00     0.150 A 
ATOM      5  C4  UNL d   1      -4.335   2.876  -3.623  0.00  0.00    -0.007 A 
ATOM      6  C5  UNL d   1      -3.752   3.374  -4.788  0.00  0.00     0.039 A 
ENDROOT
BRANCH   4   7
ATOM      7  O   UNL d   1      -5.993   2.979  -1.952  0.00  0.00    -0.526 OA
ATOM      8  H5  UNL d   1      -6.779   3.500  -1.714  0.00  0.00     0.418 HD
ENDBRANCH   4   7
TORSDOF 1
ENDMDL
