MODEL 1
REMARK minimizedAffinity -0.544767559
REMARK minimizedRMSD -1
REMARK  1 active torsions:
REMARK  status: ('A' for Active; 'I' for Inactive)
REMARK    1  A    between atoms: C3_4  and  O_7 
ROOT
ATOM      1  C   UNL d   1      -5.997   2.948  -1.848  0.00  0.00    -0.033 A 
ATOM      2  C1  UNL d   1      -5.999   4.273  -2.289  0.00  0.00     0.039 A 
ATOM      3  C2  UNL d   1      -5.998   4.555  -3.656  0.00  0.00    -0.080 A 
ATOM      4  C3  UNL d   1      -5.996   3.506  -4.571  0.00  0.00     0.150 A 
ATOM      5  C4  UNL d   1      -5.998   2.184  -4.139  0.00  0.00    -0.007 A 
ATOM      6  C5  UNL d   1      -5.999   1.903  -2.773  0.00  0.00     0.039 A 
ENDROOT
BRANCH   4   7
ATOM      7  O   UNL d   1      -5.990   3.733  -5.915  0.00  0.00    -0.526 OA
ATOM      8  H5  UNL d   1      -5.960   4.692  -6.065  0.00  0.00     0.418 HD
ENDBRANCH   4   7
TORSDOF 1
ENDMDL
