MODEL 1
REMARK minimizedAffinity -1.43772519
REMARK minimizedRMSD -1
REMARK  1 active torsions:
REMARK  status: ('A' for Active; 'I' for Inactive)
REMARK    1  A    between atoms: C3_4  and  O_7 
ROOT
ATOM      1  C   UNL d   1      -5.993   3.536  -1.722  0.00  0.00    -0.033 A 
ATOM      2  C1  UNL d   1      -5.998   4.871  -2.132  0.00  0.00     0.039 A 
ATOM      3  C2  UNL d   1      -5.999   5.185  -3.492  0.00  0.00    -0.080 A 
ATOM      4  C3  UNL d   1      -5.998   4.157  -4.431  0.00  0.00     0.150 A 
ATOM      5  C4  UNL d   1      -5.997   2.825  -4.030  0.00  0.00    -0.007 A 
ATOM      6  C5  UNL d   1      -5.994   2.513  -2.671  0.00  0.00     0.039 A 
ENDROOT
BRANCH   4   7
ATOM      7  O   UNL d   1      -5.994   4.414  -5.770  0.00  0.00    -0.526 OA
ATOM      8  H5  UNL d   1      -5.966   5.377  -5.898  0.00  0.00     0.418 HD
ENDBRANCH   4   7
TORSDOF 1
ENDMDL
