MODEL 1
REMARK minimizedAffinity -2.67131972
REMARK minimizedRMSD -1
REMARK  1 active torsions:
REMARK  status: ('A' for Active; 'I' for Inactive)
REMARK    1  A    between atoms: C3_4  and  O_7 
ROOT
ATOM      1  C   UNL d   1      -4.792   3.073  -2.016  0.00  0.00    -0.033 A 
ATOM      2  C1  UNL d   1      -6.000   2.645  -1.461  0.00  0.00     0.039 A 
ATOM      3  C2  UNL d   1      -5.999   1.746  -0.392  0.00  0.00    -0.080 A 
ATOM      4  C3  UNL d   1      -4.786   1.284   0.112  0.00  0.00     0.150 A 
ATOM      5  C4  UNL d   1      -3.580   1.710  -0.434  0.00  0.00    -0.007 A 
ATOM      6  C5  UNL d   1      -3.582   2.607  -1.501  0.00  0.00     0.039 A 
ENDROOT
BRANCH   4   7
ATOM      7  O   UNL d   1      -4.735   0.403   1.150  0.00  0.00    -0.526 OA
ATOM      8  H5  UNL d   1      -5.645   0.176   1.406  0.00  0.00     0.418 HD
ENDBRANCH   4   7
TORSDOF 1
ENDMDL
