MODEL 1
REMARK minimizedAffinity -0.00940987282
REMARK minimizedRMSD -1
REMARK  1 active torsions:
REMARK  status: ('A' for Active; 'I' for Inactive)
REMARK    1  A    between atoms: C3_4  and  O_7 
ROOT
ATOM      1  C   UNL d   1      -4.384   4.857  -5.998  0.00  0.00    -0.033 A 
ATOM      2  C1  UNL d   1      -3.677   5.172  -4.836  0.00  0.00     0.039 A 
ATOM      3  C2  UNL d   1      -4.132   4.720  -3.596  0.00  0.00    -0.080 A 
ATOM      4  C3  UNL d   1      -5.293   3.954  -3.532  0.00  0.00     0.150 A 
ATOM      5  C4  UNL d   1      -6.000   3.633  -4.686  0.00  0.00    -0.007 A 
ATOM      6  C5  UNL d   1      -5.544   4.086  -5.923  0.00  0.00     0.039 A 
ENDROOT
BRANCH   4   7
ATOM      7  O   UNL d   1      -5.779   3.494  -2.344  0.00  0.00    -0.526 OA
ATOM      8  H5  UNL d   1      -5.204   3.817  -1.630  0.00  0.00     0.418 HD
ENDBRANCH   4   7
TORSDOF 1
ENDMDL
