MODEL 1
REMARK minimizedAffinity -4.22758055
REMARK minimizedRMSD -1
REMARK  1 active torsions:
REMARK  status: ('A' for Active; 'I' for Inactive)
REMARK    1  A    between atoms: C3_4  and  O_7 
ROOT
ATOM      1  C   UNL d   1      -5.251   4.587  -4.124  0.00  0.00    -0.033 A 
ATOM      2  C1  UNL d   1      -4.501   3.409  -4.120  0.00  0.00     0.039 A 
ATOM      3  C2  UNL d   1      -4.497   2.586  -2.991  0.00  0.00    -0.080 A 
ATOM      4  C3  UNL d   1      -5.245   2.952  -1.876  0.00  0.00     0.150 A 
ATOM      5  C4  UNL d   1      -5.997   4.122  -1.875  0.00  0.00    -0.007 A 
ATOM      6  C5  UNL d   1      -6.000   4.943  -3.002  0.00  0.00     0.039 A 
ENDROOT
BRANCH   4   7
ATOM      7  O   UNL d   1      -5.268   2.184  -0.750  0.00  0.00    -0.526 OA
ATOM      8  H5  UNL d   1      -4.680   1.423  -0.885  0.00  0.00     0.418 HD
ENDBRANCH   4   7
TORSDOF 1
ENDMDL
