MODEL 1
REMARK minimizedAffinity -1.66243982
REMARK minimizedRMSD -1
REMARK  1 active torsions:
REMARK  status: ('A' for Active; 'I' for Inactive)
REMARK    1  A    between atoms: C3_4  and  O_7 
ROOT
ATOM      1  C   UNL d   1      -5.471   3.010  -2.252  0.00  0.00    -0.033 A 
ATOM      2  C1  UNL d   1      -5.859   2.256  -3.361  0.00  0.00     0.039 A 
ATOM      3  C2  UNL d   1      -6.000   2.868  -4.608  0.00  0.00    -0.080 A 
ATOM      4  C3  UNL d   1      -5.749   4.232  -4.733  0.00  0.00     0.150 A 
ATOM      5  C4  UNL d   1      -5.358   4.988  -3.632  0.00  0.00    -0.007 A 
ATOM      6  C5  UNL d   1      -5.219   4.375  -2.387  0.00  0.00     0.039 A 
ENDROOT
BRANCH   4   7
ATOM      7  O   UNL d   1      -5.877   4.874  -5.928  0.00  0.00    -0.526 OA
ATOM      8  H5  UNL d   1      -6.181   4.232  -6.591  0.00  0.00     0.418 HD
ENDBRANCH   4   7
TORSDOF 1
ENDMDL
