MODEL 1
REMARK minimizedAffinity -3.58399415
REMARK minimizedRMSD -1
REMARK  0 active torsions:
REMARK  status: ('A' for Active; 'I' for Inactive)
ROOT
ATOM      1  N1  IND d   1       2.558   1.432   1.437  0.00  0.00    -0.196 N 
ATOM      2  C2  IND d   1       2.161   2.739   1.498  0.00  0.00     0.054 A 
ATOM      3  C3  IND d   1       0.838   2.841   1.236  0.00  0.00    -0.031 A 
ATOM      4  C4  IND d   1      -0.888   0.986   0.782  0.00  0.00     0.051 A 
ATOM      5  C5  IND d   1      -0.994  -0.363   0.590  0.00  0.00    -0.031 A 
ATOM      6  C6  IND d   1       0.100  -1.200   0.674  0.00  0.00     0.015 A 
ATOM      7  C7  IND d   1       1.345  -0.718   0.967  0.00  0.00    -0.016 A 
ATOM      8  C8  IND d   1       1.457   0.652   1.156  0.00  0.00    -0.047 A 
ATOM      9  C9  IND d   1       0.358   1.512   1.029  0.00  0.00    -0.096 A 
ATOM     10  HN1 IND d   1       3.360   1.146   1.554  0.00  0.00     0.298 HD
ENDROOT
TORSDOF 0
ENDMDL
