MODEL 1
REMARK minimizedAffinity -1.3028425
REMARK minimizedRMSD -1
REMARK  0 active torsions:
REMARK  status: ('A' for Active; 'I' for Inactive)
ROOT
ATOM      1  N1  IND d   1       0.751  -2.252   1.669  0.00  0.00    -0.196 N 
ATOM      2  C2  IND d   1      -0.099  -2.807   2.584  0.00  0.00     0.054 A 
ATOM      3  C3  IND d   1      -1.191  -2.027   2.746  0.00  0.00    -0.031 A 
ATOM      4  C4  IND d   1      -1.839   0.151   1.538  0.00  0.00     0.051 A 
ATOM      5  C5  IND d   1      -1.364   1.069   0.644  0.00  0.00    -0.031 A 
ATOM      6  C6  IND d   1      -0.136   0.923   0.031  0.00  0.00     0.015 A 
ATOM      7  C7  IND d   1       0.661  -0.158   0.283  0.00  0.00    -0.016 A 
ATOM      8  C8  IND d   1       0.185  -1.088   1.195  0.00  0.00    -0.047 A 
ATOM      9  C9  IND d   1      -1.041  -0.924   1.852  0.00  0.00    -0.096 A 
ATOM     10  HN1 IND d   1       1.511  -2.574   1.429  0.00  0.00     0.298 HD
ENDROOT
TORSDOF 0
ENDMDL
