MODEL 1
REMARK minimizedAffinity 0.363653123
REMARK minimizedRMSD -1
REMARK  0 active torsions:
REMARK  status: ('A' for Active; 'I' for Inactive)
ROOT
ATOM      1  N1  IND d   1      -2.681  -1.601   1.024  0.00  0.00    -0.196 N 
ATOM      2  C2  IND d   1      -3.447  -0.820   0.204  0.00  0.00     0.054 A 
ATOM      3  C3  IND d   1      -2.687   0.132  -0.382  0.00  0.00    -0.031 A 
ATOM      4  C4  IND d   1      -0.148   0.529  -0.220  0.00  0.00     0.051 A 
ATOM      5  C5  IND d   1       0.970   0.094   0.434  0.00  0.00    -0.031 A 
ATOM      6  C6  IND d   1       0.929  -0.951   1.334  0.00  0.00     0.015 A 
ATOM      7  C7  IND d   1      -0.236  -1.610   1.607  0.00  0.00    -0.016 A 
ATOM      8  C8  IND d   1      -1.376  -1.167   0.950  0.00  0.00    -0.047 A 
ATOM      9  C9  IND d   1      -1.347  -0.080   0.067  0.00  0.00    -0.096 A 
ATOM     10  HN1 IND d   1      -2.967  -2.254   1.506  0.00  0.00     0.298 HD
ENDROOT
TORSDOF 0
ENDMDL
