MODEL 1
REMARK minimizedAffinity -0.641054749
REMARK minimizedRMSD -1
REMARK  0 active torsions:
REMARK  status: ('A' for Active; 'I' for Inactive)
ROOT
ATOM      1  N1  IND d   1       1.210   0.271  -0.768  0.00  0.00    -0.196 N 
ATOM      2  C2  IND d   1       0.385  -0.332   0.141  0.00  0.00     0.054 A 
ATOM      3  C3  IND d   1       0.438   0.315   1.326  0.00  0.00    -0.031 A 
ATOM      4  C4  IND d   1       1.733   2.446   1.970  0.00  0.00     0.051 A 
ATOM      5  C5  IND d   1       2.650   3.336   1.487  0.00  0.00    -0.031 A 
ATOM      6  C6  IND d   1       3.142   3.250   0.201  0.00  0.00     0.015 A 
ATOM      7  C7  IND d   1       2.725   2.273  -0.658  0.00  0.00    -0.016 A 
ATOM      8  C8  IND d   1       1.799   1.363  -0.168  0.00  0.00    -0.047 A 
ATOM      9  C9  IND d   1       1.328   1.420   1.150  0.00  0.00    -0.096 A 
ATOM     10  HN1 IND d   1       1.340   0.012  -1.577  0.00  0.00     0.298 HD
ENDROOT
TORSDOF 0
ENDMDL
