MODEL 1
REMARK minimizedAffinity -2.82935238
REMARK minimizedRMSD -1
REMARK  0 active torsions:
REMARK  status: ('A' for Active; 'I' for Inactive)
ROOT
ATOM      1  N1  IND d   1       0.729  -1.133   0.858  0.00  0.00    -0.196 N 
ATOM      2  C2  IND d   1       0.535  -1.909   1.967  0.00  0.00     0.054 A 
ATOM      3  C3  IND d   1      -0.779  -2.181   2.128  0.00  0.00    -0.031 A 
ATOM      4  C4  IND d   1      -2.776  -1.541   0.635  0.00  0.00     0.051 A 
ATOM      5  C5  IND d   1      -3.103  -0.805  -0.470  0.00  0.00    -0.031 A 
ATOM      6  C6  IND d   1      -2.150  -0.130  -1.205  0.00  0.00     0.015 A 
ATOM      7  C7  IND d   1      -0.826  -0.175  -0.867  0.00  0.00    -0.016 A 
ATOM      8  C8  IND d   1      -0.492  -0.915   0.258  0.00  0.00    -0.047 A 
ATOM      9  C9  IND d   1      -1.460  -1.567   1.032  0.00  0.00    -0.096 A 
ATOM     10  HN1 IND d   1       1.485  -0.832   0.582  0.00  0.00     0.298 HD
ENDROOT
TORSDOF 0
ENDMDL
