MODEL 1
REMARK minimizedAffinity -4.95641565
REMARK minimizedRMSD -1
REMARK  0 active torsions:
REMARK  status: ('A' for Active; 'I' for Inactive)
ROOT
ATOM      1  N1  IND d   1      -2.022  -0.253  -0.939  0.00  0.00    -0.196 N 
ATOM      2  C2  IND d   1      -2.226  -0.493   0.391  0.00  0.00     0.054 A 
ATOM      3  C3  IND d   1      -1.043  -0.582   1.039  0.00  0.00    -0.031 A 
ATOM      4  C4  IND d   1       1.346  -0.264   0.134  0.00  0.00     0.051 A 
ATOM      5  C5  IND d   1       2.041  -0.066  -1.026  0.00  0.00    -0.031 A 
ATOM      6  C6  IND d   1       1.404   0.087  -2.240  0.00  0.00     0.015 A 
ATOM      7  C7  IND d   1       0.042   0.057  -2.339  0.00  0.00    -0.016 A 
ATOM      8  C8  IND d   1      -0.667  -0.152  -1.164  0.00  0.00    -0.047 A 
ATOM      9  C9  IND d   1      -0.024  -0.349   0.065  0.00  0.00    -0.096 A 
ATOM     10  HN1 IND d   1      -2.637  -0.177  -1.535  0.00  0.00     0.298 HD
ENDROOT
TORSDOF 0
ENDMDL
