MODEL 1
REMARK minimizedAffinity -5.42116261
REMARK minimizedRMSD -1
REMARK  0 active torsions:
REMARK  status: ('A' for Active; 'I' for Inactive)
ROOT
ATOM      1  N1  IND d   1       1.620  -0.626  -1.823  0.00  0.00    -0.196 N 
ATOM      2  C2  IND d   1       0.737  -0.089  -0.928  0.00  0.00     0.054 A 
ATOM      3  C3  IND d   1      -0.162   0.693  -1.567  0.00  0.00    -0.031 A 
ATOM      4  C4  IND d   1      -0.434   1.152  -4.085  0.00  0.00     0.051 A 
ATOM      5  C5  IND d   1       0.158   0.912  -5.294  0.00  0.00    -0.031 A 
ATOM      6  C6  IND d   1       1.289   0.130  -5.410  0.00  0.00     0.015 A 
ATOM      7  C7  IND d   1       1.865  -0.455  -4.318  0.00  0.00    -0.016 A 
ATOM      8  C8  IND d   1       1.271  -0.208  -3.088  0.00  0.00    -0.047 A 
ATOM      9  C9  IND d   1       0.149   0.621  -2.959  0.00  0.00    -0.096 A 
ATOM     10  HN1 IND d   1       2.282  -1.139  -1.628  0.00  0.00     0.298 HD
ENDROOT
TORSDOF 0
ENDMDL
