MODEL 1
REMARK minimizedAffinity -3.80948734
REMARK minimizedRMSD -1
REMARK  0 active torsions:
REMARK  status: ('A' for Active; 'I' for Inactive)
ROOT
ATOM      1  N1  IND d   1       1.189  -0.333  -0.950  0.00  0.00    -0.196 N 
ATOM      2  C2  IND d   1       0.694   0.137  -2.135  0.00  0.00     0.054 A 
ATOM      3  C3  IND d   1      -0.657   0.182  -2.095  0.00  0.00    -0.031 A 
ATOM      4  C4  IND d   1      -2.256  -0.370  -0.155  0.00  0.00     0.051 A 
ATOM      5  C5  IND d   1      -2.274  -0.873   1.116  0.00  0.00    -0.031 A 
ATOM      6  C6  IND d   1      -1.116  -1.227   1.777  0.00  0.00     0.015 A 
ATOM      7  C7  IND d   1       0.111  -1.079   1.194  0.00  0.00    -0.016 A 
ATOM      8  C8  IND d   1       0.133  -0.575  -0.099  0.00  0.00    -0.047 A 
ATOM      9  C9  IND d   1      -1.043  -0.254  -0.791  0.00  0.00    -0.096 A 
ATOM     10  HN1 IND d   1       2.020  -0.457  -0.767  0.00  0.00     0.298 HD
ENDROOT
TORSDOF 0
ENDMDL
