MODEL 1
REMARK minimizedAffinity -2.59407878
REMARK minimizedRMSD -1
REMARK  0 active torsions:
REMARK  status: ('A' for Active; 'I' for Inactive)
ROOT
ATOM      1  N1  IND d   1       2.573  -0.277  -1.606  0.00  0.00    -0.196 N 
ATOM      2  C2  IND d   1       2.396  -0.209  -2.960  0.00  0.00     0.054 A 
ATOM      3  C3  IND d   1       1.079  -0.145  -3.259  0.00  0.00    -0.031 A 
ATOM      4  C4  IND d   1      -0.953  -0.036  -1.682  0.00  0.00     0.051 A 
ATOM      5  C5  IND d   1      -1.297  -0.105  -0.361  0.00  0.00    -0.031 A 
ATOM      6  C6  IND d   1      -0.348  -0.234   0.633  0.00  0.00     0.015 A 
ATOM      7  C7  IND d   1       0.986  -0.289   0.342  0.00  0.00    -0.016 A 
ATOM      8  C8  IND d   1       1.337  -0.226  -0.999  0.00  0.00    -0.047 A 
ATOM      9  C9  IND d   1       0.377  -0.137  -2.015  0.00  0.00    -0.096 A 
ATOM     10  HN1 IND d   1       3.329  -0.340  -1.201  0.00  0.00     0.298 HD
ENDROOT
TORSDOF 0
ENDMDL
