MODEL 1
REMARK minimizedAffinity -0.209793866
REMARK minimizedRMSD -1
REMARK  0 active torsions:
REMARK  status: ('A' for Active; 'I' for Inactive)
ROOT
ATOM      1  N1  IND d   1       1.454  -1.406   1.478  0.00  0.00    -0.196 N 
ATOM      2  C2  IND d   1       0.509  -1.958   2.298  0.00  0.00     0.054 A 
ATOM      3  C3  IND d   1      -0.732  -1.678   1.841  0.00  0.00    -0.031 A 
ATOM      4  C4  IND d   1      -1.446  -0.417  -0.287  0.00  0.00     0.051 A 
ATOM      5  C5  IND d   1      -0.940   0.303  -1.333  0.00  0.00    -0.031 A 
ATOM      6  C6  IND d   1       0.416   0.491  -1.500  0.00  0.00     0.015 A 
ATOM      7  C7  IND d   1       1.323  -0.045  -0.630  0.00  0.00    -0.016 A 
ATOM      8  C8  IND d   1       0.813  -0.771   0.437  0.00  0.00    -0.047 A 
ATOM      9  C9  IND d   1      -0.564  -0.929   0.636  0.00  0.00    -0.096 A 
ATOM     10  HN1 IND d   1       2.305  -1.448   1.593  0.00  0.00     0.298 HD
ENDROOT
TORSDOF 0
ENDMDL
