MODEL 1
REMARK minimizedAffinity -2.43970728
REMARK minimizedRMSD -1
REMARK  0 active torsions:
REMARK  status: ('A' for Active; 'I' for Inactive)
ROOT
ATOM      1  N1  IND d   1       3.562   3.408   0.595  0.00  0.00    -0.196 N 
ATOM      2  C2  IND d   1       2.845   3.548   1.750  0.00  0.00     0.054 A 
ATOM      3  C3  IND d   1       2.019   2.491   1.922  0.00  0.00    -0.031 A 
ATOM      4  C4  IND d   1       1.756   0.371   0.485  0.00  0.00     0.051 A 
ATOM      5  C5  IND d   1       2.171  -0.194  -0.688  0.00  0.00    -0.031 A 
ATOM      6  C6  IND d   1       3.092   0.425  -1.509  0.00  0.00     0.015 A 
ATOM      7  C7  IND d   1       3.643   1.631  -1.180  0.00  0.00    -0.016 A 
ATOM      8  C8  IND d   1       3.218   2.211   0.007  0.00  0.00    -0.047 A 
ATOM      9  C9  IND d   1       2.252   1.608   0.823  0.00  0.00    -0.096 A 
ATOM     10  HN1 IND d   1       4.132   3.974   0.287  0.00  0.00     0.298 HD
ENDROOT
TORSDOF 0
ENDMDL
