MODEL 1
REMARK minimizedAffinity 0.411937535
REMARK minimizedRMSD -1
REMARK  0 active torsions:
REMARK  status: ('A' for Active; 'I' for Inactive)
ROOT
ATOM      1  N1  IND d   1       0.551   0.566  -0.712  0.00  0.00    -0.196 N 
ATOM      2  C2  IND d   1       1.751   0.498  -0.060  0.00  0.00     0.054 A 
ATOM      3  C3  IND d   1       1.627  -0.218   1.080  0.00  0.00    -0.031 A 
ATOM      4  C4  IND d   1      -0.427  -1.454   2.019  0.00  0.00     0.051 A 
ATOM      5  C5  IND d   1      -1.761  -1.651   1.796  0.00  0.00    -0.031 A 
ATOM      6  C6  IND d   1      -2.405  -1.111   0.701  0.00  0.00     0.015 A 
ATOM      7  C7  IND d   1      -1.733  -0.359  -0.221  0.00  0.00    -0.016 A 
ATOM      8  C8  IND d   1      -0.380  -0.151   0.007  0.00  0.00    -0.047 A 
ATOM      9  C9  IND d   1       0.270  -0.661   1.138  0.00  0.00    -0.096 A 
ATOM     10  HN1 IND d   1       0.403   0.986  -1.448  0.00  0.00     0.298 HD
ENDROOT
TORSDOF 0
ENDMDL
