MODEL 1
REMARK minimizedAffinity -3.38896322
REMARK minimizedRMSD -1
REMARK  0 active torsions:
REMARK  status: ('A' for Active; 'I' for Inactive)
ROOT
ATOM      1  N1  IND d   1      -0.236   0.222  -0.681  0.00  0.00    -0.196 N 
ATOM      2  C2  IND d   1       0.845   0.303   0.151  0.00  0.00     0.054 A 
ATOM      3  C3  IND d   1       0.658  -0.471   1.243  0.00  0.00    -0.031 A 
ATOM      4  C4  IND d   1      -1.303  -2.036   1.822  0.00  0.00     0.051 A 
ATOM      5  C5  IND d   1      -2.541  -2.418   1.386  0.00  0.00    -0.031 A 
ATOM      6  C6  IND d   1      -3.084  -1.932   0.214  0.00  0.00     0.015 A 
ATOM      7  C7  IND d   1      -2.401  -1.051  -0.576  0.00  0.00    -0.016 A 
ATOM      8  C8  IND d   1      -1.147  -0.655  -0.133  0.00  0.00    -0.047 A 
ATOM      9  C9  IND d   1      -0.609  -1.112   1.077  0.00  0.00    -0.096 A 
ATOM     10  HN1 IND d   1      -0.332   0.647  -1.423  0.00  0.00     0.298 HD
ENDROOT
TORSDOF 0
ENDMDL
