MODEL 1
REMARK minimizedAffinity -3.9217
REMARK minimizedRMSD -1
REMARK  0 active torsions:
REMARK  status: ('A' for Active; 'I' for Inactive)
ROOT
ATOM      1  N1  IND d   1      -0.149   0.689   1.495  0.00  0.00    -0.196 N 
ATOM      2  C2  IND d   1       1.015   0.961   0.831  0.00  0.00     0.054 A 
ATOM      3  C3  IND d   1       0.943   0.519  -0.444  0.00  0.00    -0.031 A 
ATOM      4  C4  IND d   1      -1.024  -0.586  -1.684  0.00  0.00     0.051 A 
ATOM      5  C5  IND d   1      -2.285  -1.074  -1.485  0.00  0.00    -0.031 A 
ATOM      6  C6  IND d   1      -2.912  -0.995  -0.259  0.00  0.00     0.015 A 
ATOM      7  C7  IND d   1      -2.303  -0.413   0.817  0.00  0.00    -0.016 A 
ATOM      8  C8  IND d   1      -1.020   0.077   0.620  0.00  0.00    -0.047 A 
ATOM      9  C9  IND d   1      -0.362  -0.038  -0.611  0.00  0.00    -0.096 A 
ATOM     10  HN1 IND d   1      -0.310   0.869   2.320  0.00  0.00     0.298 HD
ENDROOT
TORSDOF 0
ENDMDL
