MODEL 1
REMARK minimizedAffinity -5.6600318
REMARK minimizedRMSD -1
REMARK  0 active torsions:
REMARK  status: ('A' for Active; 'I' for Inactive)
ROOT
ATOM      1  N1  IND d   1       0.726  -0.412  -0.009  0.00  0.00    -0.196 N 
ATOM      2  C2  IND d   1       1.217  -1.365   0.840  0.00  0.00     0.054 A 
ATOM      3  C3  IND d   1       0.203  -2.020   1.448  0.00  0.00    -0.031 A 
ATOM      4  C4  IND d   1      -2.338  -1.763   1.125  0.00  0.00     0.051 A 
ATOM      5  C5  IND d   1      -3.270  -0.997   0.482  0.00  0.00    -0.031 A 
ATOM      6  C6  IND d   1      -2.910   0.022  -0.376  0.00  0.00     0.015 A 
ATOM      7  C7  IND d   1      -1.599   0.307  -0.634  0.00  0.00    -0.016 A 
ATOM      8  C8  IND d   1      -0.650  -0.464   0.022  0.00  0.00    -0.047 A 
ATOM      9  C9  IND d   1      -1.009  -1.472   0.927  0.00  0.00    -0.096 A 
ATOM     10  HN1 IND d   1       1.198   0.130  -0.482  0.00  0.00     0.298 HD
ENDROOT
TORSDOF 0
ENDMDL
