MODEL 1
REMARK minimizedAffinity -1.19584835
REMARK minimizedRMSD -1
REMARK  0 active torsions:
REMARK  status: ('A' for Active; 'I' for Inactive)
ROOT
ATOM      1  N1  IND d   1       1.234  -0.749  -1.413  0.00  0.00    -0.196 N 
ATOM      2  C2  IND d   1       0.784  -0.007  -2.469  0.00  0.00     0.054 A 
ATOM      3  C3  IND d   1      -0.472   0.436  -2.231  0.00  0.00    -0.031 A 
ATOM      4  C4  IND d   1      -1.938   0.147  -0.135  0.00  0.00     0.051 A 
ATOM      5  C5  IND d   1      -1.973  -0.485   1.077  0.00  0.00    -0.031 A 
ATOM      6  C6  IND d   1      -0.918  -1.249   1.531  0.00  0.00     0.015 A 
ATOM      7  C7  IND d   1       0.221  -1.403   0.792  0.00  0.00    -0.016 A 
ATOM      8  C8  IND d   1       0.257  -0.769  -0.442  0.00  0.00    -0.047 A 
ATOM      9  C9  IND d   1      -0.828  -0.027  -0.927  0.00  0.00    -0.096 A 
ATOM     10  HN1 IND d   1       1.999  -1.138  -1.363  0.00  0.00     0.298 HD
ENDROOT
TORSDOF 0
ENDMDL
