MODEL 1
REMARK minimizedAffinity -4.01064777
REMARK minimizedRMSD -1
REMARK  0 active torsions:
REMARK  status: ('A' for Active; 'I' for Inactive)
ROOT
ATOM      1  N1  IND d   1       0.155  -0.244  -1.912  0.00  0.00    -0.196 N 
ATOM      2  C2  IND d   1       1.160   0.042  -1.031  0.00  0.00     0.054 A 
ATOM      3  C3  IND d   1       0.708  -0.037   0.241  0.00  0.00    -0.031 A 
ATOM      4  C4  IND d   1      -1.617  -0.718   1.111  0.00  0.00     0.051 A 
ATOM      5  C5  IND d   1      -2.877  -1.034   0.685  0.00  0.00    -0.031 A 
ATOM      6  C6  IND d   1      -3.196  -1.107  -0.656  0.00  0.00     0.015 A 
ATOM      7  C7  IND d   1      -2.260  -0.877  -1.625  0.00  0.00    -0.016 A 
ATOM      8  C8  IND d   1      -0.982  -0.549  -1.196  0.00  0.00    -0.047 A 
ATOM      9  C9  IND d   1      -0.663  -0.432   0.163  0.00  0.00    -0.096 A 
ATOM     10  HN1 IND d   1       0.221  -0.236  -2.769  0.00  0.00     0.298 HD
ENDROOT
TORSDOF 0
ENDMDL
