MODEL 1
REMARK minimizedAffinity -3.44232345
REMARK minimizedRMSD -1
REMARK  0 active torsions:
REMARK  status: ('A' for Active; 'I' for Inactive)
ROOT
ATOM      1  C2' OXE d   1       2.220   2.865   1.857  0.00  0.00     0.078 C 
ATOM      2  C1' OXE d   1      -0.008   1.176   1.595  0.00  0.00     0.078 C 
ATOM      3  C1  OXE d   1       0.253   2.172   0.493  0.00  0.00    -0.078 A 
ATOM      4  C2  OXE d   1       1.318   3.026   0.652  0.00  0.00    -0.078 A 
ATOM      5  C3  OXE d   1       1.636   3.927  -0.361  0.00  0.00     0.003 A 
ATOM      6  C4  OXE d   1       0.792   4.077  -1.467  0.00  0.00    -0.002 A 
ATOM      7  C5  OXE d   1      -0.321   3.244  -1.629  0.00  0.00    -0.002 A 
ATOM      8  C6  OXE d   1      -0.579   2.260  -0.681  0.00  0.00     0.003 A 
ENDROOT
TORSDOF 0
ENDMDL
