MODEL 1
REMARK minimizedAffinity -0.938053906
REMARK minimizedRMSD -1
REMARK  0 active torsions:
REMARK  status: ('A' for Active; 'I' for Inactive)
ROOT
ATOM      1  C2' OXE d   1       2.056   3.144   2.301  0.00  0.00     0.078 C 
ATOM      2  C1' OXE d   1       0.430   1.045   1.389  0.00  0.00     0.078 C 
ATOM      3  C1  OXE d   1       0.557   2.267   0.515  0.00  0.00    -0.078 A 
ATOM      4  C2  OXE d   1       1.317   3.309   0.990  0.00  0.00    -0.078 A 
ATOM      5  C3  OXE d   1       1.512   4.437   0.199  0.00  0.00     0.003 A 
ATOM      6  C4  OXE d   1       0.818   4.586  -1.008  0.00  0.00    -0.002 A 
ATOM      7  C5  OXE d   1       0.007   3.554  -1.492  0.00  0.00    -0.002 A 
ATOM      8  C6  OXE d   1      -0.100   2.373  -0.765  0.00  0.00     0.003 A 
ENDROOT
TORSDOF 0
ENDMDL
