MODEL 1
REMARK minimizedAffinity 6.2342515
REMARK minimizedRMSD -1
REMARK  0 active torsions:
REMARK  status: ('A' for Active; 'I' for Inactive)
ROOT
ATOM      1  C2' OXE d   1       0.042   5.994  -2.038  0.00  0.00     0.078 C 
ATOM      2  C1' OXE d   1      -1.600   5.803   0.231  0.00  0.00     0.078 C 
ATOM      3  C1  OXE d   1      -0.833   4.574  -0.188  0.00  0.00    -0.078 A 
ATOM      4  C2  OXE d   1      -0.068   4.663  -1.326  0.00  0.00    -0.078 A 
ATOM      5  C3  OXE d   1       0.703   3.575  -1.725  0.00  0.00     0.003 A 
ATOM      6  C4  OXE d   1       0.587   2.345  -1.067  0.00  0.00    -0.002 A 
ATOM      7  C5  OXE d   1      -0.217   2.221   0.071  0.00  0.00    -0.002 A 
ATOM      8  C6  OXE d   1      -0.899   3.335   0.548  0.00  0.00     0.003 A 
ENDROOT
TORSDOF 0
ENDMDL
