MODEL 1
REMARK minimizedAffinity 1.49911427
REMARK minimizedRMSD -1
REMARK  0 active torsions:
REMARK  status: ('A' for Active; 'I' for Inactive)
ROOT
ATOM      1  C2' OXE d   1       2.286   2.889   2.584  0.00  0.00     0.078 C 
ATOM      2  C1' OXE d   1       0.364   1.009   1.776  0.00  0.00     0.078 C 
ATOM      3  C1  OXE d   1       0.634   2.177   0.860  0.00  0.00    -0.078 A 
ATOM      4  C2  OXE d   1       1.542   3.117   1.286  0.00  0.00    -0.078 A 
ATOM      5  C3  OXE d   1       1.869   4.185   0.455  0.00  0.00     0.003 A 
ATOM      6  C4  OXE d   1       1.169   4.394  -0.739  0.00  0.00    -0.002 A 
ATOM      7  C5  OXE d   1       0.212   3.470  -1.172  0.00  0.00    -0.002 A 
ATOM      8  C6  OXE d   1      -0.037   2.337  -0.406  0.00  0.00     0.003 A 
ENDROOT
TORSDOF 0
ENDMDL
