MODEL 1
REMARK minimizedAffinity 6.48496532
REMARK minimizedRMSD -1
REMARK  0 active torsions:
REMARK  status: ('A' for Active; 'I' for Inactive)
ROOT
ATOM      1  C2' OXE d   1       0.860   1.458   1.799  0.00  0.00     0.078 C 
ATOM      2  C1' OXE d   1       2.856   3.427   1.936  0.00  0.00     0.078 C 
ATOM      3  C1  OXE d   1       1.978   3.399   0.710  0.00  0.00    -0.078 A 
ATOM      4  C2  OXE d   1       1.035   2.403   0.630  0.00  0.00    -0.078 A 
ATOM      5  C3  OXE d   1       0.163   2.365  -0.455  0.00  0.00     0.003 A 
ATOM      6  C4  OXE d   1       0.338   3.237  -1.536  0.00  0.00    -0.002 A 
ATOM      7  C5  OXE d   1       1.319   4.234  -1.493  0.00  0.00    -0.002 A 
ATOM      8  C6  OXE d   1       2.117   4.355  -0.361  0.00  0.00     0.003 A 
ENDROOT
TORSDOF 0
ENDMDL
