MODEL 1
REMARK minimizedAffinity 3.84640884
REMARK minimizedRMSD -1
REMARK  0 active torsions:
REMARK  status: ('A' for Active; 'I' for Inactive)
ROOT
ATOM      1  C2' OXE d   1       1.966   2.716   1.936  0.00  0.00     0.078 C 
ATOM      2  C1' OXE d   1      -0.074   1.010   1.038  0.00  0.00     0.078 C 
ATOM      3  C1  OXE d   1       0.238   2.231   0.209  0.00  0.00    -0.078 A 
ATOM      4  C2  OXE d   1       1.205   3.085   0.681  0.00  0.00    -0.078 A 
ATOM      5  C3  OXE d   1       1.569   4.197  -0.072  0.00  0.00     0.003 A 
ATOM      6  C4  OXE d   1       0.854   4.537  -1.227  0.00  0.00    -0.002 A 
ATOM      7  C5  OXE d   1      -0.162   3.701  -1.704  0.00  0.00    -0.002 A 
ATOM      8  C6  OXE d   1      -0.453   2.525  -1.022  0.00  0.00     0.003 A 
ENDROOT
TORSDOF 0
ENDMDL
