MODEL 1
REMARK minimizedAffinity 5.86624241
REMARK minimizedRMSD -1
REMARK  0 active torsions:
REMARK  status: ('A' for Active; 'I' for Inactive)
ROOT
ATOM      1  C2' OXE d   1       5.742  -4.465  -2.259  0.00  0.00     0.078 C 
ATOM      2  C1' OXE d   1       4.500  -2.018  -1.667  0.00  0.00     0.078 C 
ATOM      3  C1  OXE d   1       4.957  -2.250  -3.086  0.00  0.00    -0.078 A 
ATOM      4  C2  OXE d   1       5.606  -3.431  -3.356  0.00  0.00    -0.078 A 
ATOM      5  C3  OXE d   1       6.000  -3.719  -4.660  0.00  0.00     0.003 A 
ATOM      6  C4  OXE d   1       5.879  -2.752  -5.666  0.00  0.00    -0.002 A 
ATOM      7  C5  OXE d   1       5.257  -1.527  -5.403  0.00  0.00    -0.002 A 
ATOM      8  C6  OXE d   1       4.754  -1.278  -4.131  0.00  0.00     0.003 A 
ENDROOT
TORSDOF 0
ENDMDL
