MODEL 1
REMARK minimizedAffinity 4.99150133
REMARK minimizedRMSD -1
REMARK  0 active torsions:
REMARK  status: ('A' for Active; 'I' for Inactive)
ROOT
ATOM      1  C2' OXE d   1      -0.619   2.598   0.313  0.00  0.00     0.078 C 
ATOM      2  C1' OXE d   1      -2.649   0.916   1.276  0.00  0.00     0.078 C 
ATOM      3  C1  OXE d   1      -1.219   0.512   1.534  0.00  0.00    -0.078 A 
ATOM      4  C2  OXE d   1      -0.231   1.317   1.019  0.00  0.00    -0.078 A 
ATOM      5  C3  OXE d   1       1.104   1.020   1.275  0.00  0.00     0.003 A 
ATOM      6  C4  OXE d   1       1.454  -0.173   1.919  0.00  0.00    -0.002 A 
ATOM      7  C5  OXE d   1       0.465  -1.027   2.417  0.00  0.00    -0.002 A 
ATOM      8  C6  OXE d   1      -0.874  -0.679   2.271  0.00  0.00     0.003 A 
ENDROOT
TORSDOF 0
ENDMDL
