MODEL 1
REMARK minimizedAffinity 1.29050291
REMARK minimizedRMSD -1
REMARK  0 active torsions:
REMARK  status: ('A' for Active; 'I' for Inactive)
ROOT
ATOM      1  C   UNL d   1       5.968  -5.999  -2.991  0.00  0.00     0.078 C 
ATOM      2  C1  UNL d   1       5.246  -5.234  -1.923  0.00  0.00    -0.077 A 
ATOM      3  C2  UNL d   1       4.142  -4.430  -2.233  0.00  0.00    -0.001 A 
ATOM      4  C3  UNL d   1       3.486  -3.715  -1.229  0.00  0.00     0.003 A 
ATOM      5  C4  UNL d   1       3.926  -3.796   0.090  0.00  0.00    -0.005 A 
ATOM      6  C5  UNL d   1       5.025  -4.592   0.408  0.00  0.00     0.003 A 
ATOM      7  C6  UNL d   1       5.683  -5.307  -0.594  0.00  0.00    -0.001 A 
ENDROOT
TORSDOF 0
ENDMDL
