MODEL 1
REMARK minimizedAffinity 12.9070969
REMARK minimizedRMSD -1
REMARK  0 active torsions:
REMARK  status: ('A' for Active; 'I' for Inactive)
ROOT
ATOM      1  C   UNL d   1       4.809   1.724   0.168  0.00  0.00     0.078 C 
ATOM      2  C1  UNL d   1       3.761   2.266   1.093  0.00  0.00    -0.077 A 
ATOM      3  C2  UNL d   1       4.084   2.658   2.398  0.00  0.00    -0.001 A 
ATOM      4  C3  UNL d   1       3.097   3.152   3.252  0.00  0.00     0.003 A 
ATOM      5  C4  UNL d   1       1.779   3.257   2.811  0.00  0.00    -0.005 A 
ATOM      6  C5  UNL d   1       1.447   2.868   1.515  0.00  0.00     0.003 A 
ATOM      7  C6  UNL d   1       2.434   2.374   0.660  0.00  0.00    -0.001 A 
ENDROOT
TORSDOF 0
ENDMDL
