MODEL 1
REMARK minimizedAffinity 6.67228031
REMARK minimizedRMSD -1
REMARK  0 active torsions:
REMARK  status: ('A' for Active; 'I' for Inactive)
ROOT
ATOM      1  C   UNL d   1       4.459  -2.609   3.592  0.00  0.00     0.078 C 
ATOM      2  C1  UNL d   1       3.505  -2.441   2.447  0.00  0.00    -0.077 A 
ATOM      3  C2  UNL d   1       3.651  -3.187   1.271  0.00  0.00    -0.001 A 
ATOM      4  C3  UNL d   1       2.761  -3.013   0.210  0.00  0.00     0.003 A 
ATOM      5  C4  UNL d   1       1.720  -2.093   0.313  0.00  0.00    -0.005 A 
ATOM      6  C5  UNL d   1       1.568  -1.344   1.478  0.00  0.00     0.003 A 
ATOM      7  C6  UNL d   1       2.457  -1.516   2.541  0.00  0.00    -0.001 A 
ENDROOT
TORSDOF 0
ENDMDL
