MODEL 1
REMARK minimizedAffinity -0.489882857
REMARK minimizedRMSD -1
REMARK  0 active torsions:
REMARK  status: ('A' for Active; 'I' for Inactive)
ROOT
ATOM      1  C   UNL d   1       2.426   1.680  -5.998  0.00  0.00     0.078 C 
ATOM      2  C1  UNL d   1       2.697   3.155  -5.991  0.00  0.00    -0.077 A 
ATOM      3  C2  UNL d   1       1.647   4.081  -5.995  0.00  0.00    -0.001 A 
ATOM      4  C3  UNL d   1       1.913   5.451  -5.999  0.00  0.00     0.003 A 
ATOM      5  C4  UNL d   1       3.230   5.907  -6.000  0.00  0.00    -0.005 A 
ATOM      6  C5  UNL d   1       4.282   4.993  -5.998  0.00  0.00     0.003 A 
ATOM      7  C6  UNL d   1       4.017   3.623  -5.994  0.00  0.00    -0.001 A 
ENDROOT
TORSDOF 0
ENDMDL
