MODEL 1
REMARK minimizedAffinity -0.975239396
REMARK minimizedRMSD -1
REMARK  0 active torsions:
REMARK  status: ('A' for Active; 'I' for Inactive)
ROOT
ATOM      1  C   UNL d   1       5.857   1.570  -5.985  0.00  0.00     0.078 C 
ATOM      2  C1  UNL d   1       4.606   2.398  -5.997  0.00  0.00    -0.077 A 
ATOM      3  C2  UNL d   1       4.668   3.797  -5.998  0.00  0.00    -0.001 A 
ATOM      4  C3  UNL d   1       3.496   4.555  -6.000  0.00  0.00     0.003 A 
ATOM      5  C4  UNL d   1       2.254   3.923  -5.999  0.00  0.00    -0.005 A 
ATOM      6  C5  UNL d   1       2.183   2.531  -5.996  0.00  0.00     0.003 A 
ATOM      7  C6  UNL d   1       3.354   1.772  -5.995  0.00  0.00    -0.001 A 
ENDROOT
TORSDOF 0
ENDMDL
