MODEL 1
REMARK minimizedAffinity 2.75328207
REMARK minimizedRMSD -1
REMARK  0 active torsions:
REMARK  status: ('A' for Active; 'I' for Inactive)
ROOT
ATOM      1  C   UNL d   1      -0.089  -0.734   3.140  0.00  0.00     0.078 C 
ATOM      2  C1  UNL d   1       0.934  -1.179   2.137  0.00  0.00    -0.077 A 
ATOM      3  C2  UNL d   1       1.416  -0.299   1.160  0.00  0.00    -0.001 A 
ATOM      4  C3  UNL d   1       2.361  -0.730   0.227  0.00  0.00     0.003 A 
ATOM      5  C4  UNL d   1       2.829  -2.042   0.260  0.00  0.00    -0.005 A 
ATOM      6  C5  UNL d   1       2.353  -2.925   1.226  0.00  0.00     0.003 A 
ATOM      7  C6  UNL d   1       1.409  -2.496   2.160  0.00  0.00    -0.001 A 
ENDROOT
TORSDOF 0
ENDMDL
