MODEL 1
REMARK minimizedAffinity 0.909866273
REMARK minimizedRMSD -1
REMARK  0 active torsions:
REMARK  status: ('A' for Active; 'I' for Inactive)
ROOT
ATOM      1  C   UNL d   1       4.460  -4.124   3.770  0.00  0.00     0.078 C 
ATOM      2  C1  UNL d   1       3.885  -3.735   2.442  0.00  0.00    -0.077 A 
ATOM      3  C2  UNL d   1       4.583  -3.981   1.253  0.00  0.00    -0.001 A 
ATOM      4  C3  UNL d   1       4.039  -3.604   0.024  0.00  0.00     0.003 A 
ATOM      5  C4  UNL d   1       2.796  -2.977  -0.028  0.00  0.00    -0.005 A 
ATOM      6  C5  UNL d   1       2.095  -2.726   1.149  0.00  0.00     0.003 A 
ATOM      7  C6  UNL d   1       2.637  -3.102   2.379  0.00  0.00    -0.001 A 
ENDROOT
TORSDOF 0
ENDMDL
