MODEL 1
REMARK minimizedAffinity 2.72264338
REMARK minimizedRMSD -1
REMARK  0 active torsions:
REMARK  status: ('A' for Active; 'I' for Inactive)
ROOT
ATOM      1  C   UNL d   1       4.680  -3.447   1.691  0.00  0.00     0.078 C 
ATOM      2  C1  UNL d   1       4.836  -3.640   3.170  0.00  0.00    -0.077 A 
ATOM      3  C2  UNL d   1       4.668  -4.901   3.755  0.00  0.00    -0.001 A 
ATOM      4  C3  UNL d   1       4.806  -5.064   5.134  0.00  0.00     0.003 A 
ATOM      5  C4  UNL d   1       5.111  -3.970   5.941  0.00  0.00    -0.005 A 
ATOM      6  C5  UNL d   1       5.277  -2.710   5.369  0.00  0.00     0.003 A 
ATOM      7  C6  UNL d   1       5.140  -2.545   3.990  0.00  0.00    -0.001 A 
ENDROOT
TORSDOF 0
ENDMDL
