MODEL 1
REMARK minimizedAffinity 7.56224966
REMARK minimizedRMSD -1
REMARK  0 active torsions:
REMARK  status: ('A' for Active; 'I' for Inactive)
ROOT
ATOM      1  C   UNL d   1      -4.120   2.702   6.000  0.00  0.00     0.078 C 
ATOM      2  C1  UNL d   1      -4.406   2.222   4.609  0.00  0.00    -0.077 A 
ATOM      3  C2  UNL d   1      -3.377   1.760   3.779  0.00  0.00    -0.001 A 
ATOM      4  C3  UNL d   1      -3.656   1.325   2.483  0.00  0.00     0.003 A 
ATOM      5  C4  UNL d   1      -4.965   1.348   2.004  0.00  0.00    -0.005 A 
ATOM      6  C5  UNL d   1      -5.995   1.809   2.821  0.00  0.00     0.003 A 
ATOM      7  C6  UNL d   1      -5.718   2.244   4.117  0.00  0.00    -0.001 A 
ENDROOT
TORSDOF 0
ENDMDL
