MODEL 1
REMARK minimizedAffinity -0.953446746
REMARK minimizedRMSD -1
REMARK  0 active torsions:
REMARK  status: ('A' for Active; 'I' for Inactive)
ROOT
ATOM      1  C   UNL d   1       1.062   0.467  -4.036  0.00  0.00     0.023 A 
ATOM      2  C1  UNL d   1      -0.088  -0.258  -3.724  0.00  0.00     0.003 A 
ATOM      3  C2  UNL d   1      -0.485  -0.402  -2.393  0.00  0.00     0.048 A 
ATOM      4  C3  UNL d   1       0.273   0.181  -1.378  0.00  0.00     0.023 A 
ATOM      5  C4  UNL d   1       1.424   0.909  -1.685  0.00  0.00     0.048 A 
ATOM      6  C5  UNL d   1       1.817   1.050  -3.018  0.00  0.00     0.003 A 
ATOM      7  I   UNL d   1      -0.315  -0.032   0.603  0.00  0.00    -0.146 I 
ENDROOT
TORSDOF 0
ENDMDL
