MODEL 1
REMARK minimizedAffinity -4.59975672
REMARK minimizedRMSD -1
REMARK  0 active torsions:
REMARK  status: ('A' for Active; 'I' for Inactive)
ROOT
ATOM      1  C   UNL d   1      -1.135   1.341   2.657  0.00  0.00     0.023 A 
ATOM      2  C1  UNL d   1      -2.062   0.802   1.765  0.00  0.00     0.003 A 
ATOM      3  C2  UNL d   1      -1.629   0.226   0.569  0.00  0.00     0.048 A 
ATOM      4  C3  UNL d   1      -0.267   0.192   0.272  0.00  0.00     0.023 A 
ATOM      5  C4  UNL d   1       0.664   0.730   1.161  0.00  0.00     0.048 A 
ATOM      6  C5  UNL d   1       0.226   1.305   2.356  0.00  0.00     0.003 A 
ATOM      7  I   UNL d   1       0.380  -0.664  -1.508  0.00  0.00    -0.146 I 
ENDROOT
TORSDOF 0
ENDMDL
