MODEL 1
REMARK minimizedAffinity -1.54480243
REMARK minimizedRMSD -1
REMARK  0 active torsions:
REMARK  status: ('A' for Active; 'I' for Inactive)
ROOT
ATOM      1  C   UNL d   1      -0.737   0.715   2.355  0.00  0.00     0.023 A 
ATOM      2  C1  UNL d   1      -1.711   0.728   1.356  0.00  0.00     0.003 A 
ATOM      3  C2  UNL d   1      -1.374   0.381   0.046  0.00  0.00     0.048 A 
ATOM      4  C3  UNL d   1      -0.061   0.022  -0.258  0.00  0.00     0.023 A 
ATOM      5  C4  UNL d   1       0.916   0.006   0.738  0.00  0.00     0.048 A 
ATOM      6  C5  UNL d   1       0.574   0.355   2.046  0.00  0.00     0.003 A 
ATOM      7  I   UNL d   1       0.443  -0.495  -2.207  0.00  0.00    -0.146 I 
ENDROOT
TORSDOF 0
ENDMDL
