MODEL 1
REMARK minimizedAffinity -3.69263959
REMARK minimizedRMSD -1
REMARK  0 active torsions:
REMARK  status: ('A' for Active; 'I' for Inactive)
ROOT
ATOM      1  C   UNL d   1      -0.115   1.139   3.381  0.00  0.00     0.023 A 
ATOM      2  C1  UNL d   1      -1.111   1.137   2.405  0.00  0.00     0.003 A 
ATOM      3  C2  UNL d   1      -0.831   0.664   1.121  0.00  0.00     0.048 A 
ATOM      4  C3  UNL d   1       0.447   0.192   0.821  0.00  0.00     0.023 A 
ATOM      5  C4  UNL d   1       1.446   0.191   1.795  0.00  0.00     0.048 A 
ATOM      6  C5  UNL d   1       1.162   0.666   3.077  0.00  0.00     0.003 A 
ATOM      7  I   UNL d   1       0.865  -0.513  -1.089  0.00  0.00    -0.146 I 
ENDROOT
TORSDOF 0
ENDMDL
