MODEL 1
REMARK minimizedAffinity -3.57236838
REMARK minimizedRMSD -1
REMARK  0 active torsions:
REMARK  status: ('A' for Active; 'I' for Inactive)
ROOT
ATOM      1  C   UNL d   1      -1.500   0.639   1.828  0.00  0.00     0.023 A 
ATOM      2  C1  UNL d   1      -2.188   0.033   0.777  0.00  0.00     0.003 A 
ATOM      3  C2  UNL d   1      -1.497  -0.383  -0.363  0.00  0.00     0.048 A 
ATOM      4  C3  UNL d   1      -0.118  -0.192  -0.444  0.00  0.00     0.023 A 
ATOM      5  C4  UNL d   1       0.574   0.412   0.606  0.00  0.00     0.048 A 
ATOM      6  C5  UNL d   1      -0.121   0.828   1.743  0.00  0.00     0.003 A 
ATOM      7  I   UNL d   1       0.912  -0.812  -2.140  0.00  0.00    -0.146 I 
ENDROOT
TORSDOF 0
ENDMDL
