MODEL 1
REMARK minimizedAffinity -4.82043266
REMARK minimizedRMSD -1
REMARK  0 active torsions:
REMARK  status: ('A' for Active; 'I' for Inactive)
ROOT
ATOM      1  C   UNL d   1       0.163  -0.445  -1.524  0.00  0.00     0.023 A 
ATOM      2  C1  UNL d   1      -1.169  -0.235  -1.168  0.00  0.00     0.003 A 
ATOM      3  C2  UNL d   1      -1.487   0.233   0.108  0.00  0.00     0.048 A 
ATOM      4  C3  UNL d   1      -0.468   0.489   1.025  0.00  0.00     0.023 A 
ATOM      5  C4  UNL d   1       0.867   0.281   0.674  0.00  0.00     0.048 A 
ATOM      6  C5  UNL d   1       1.180  -0.187  -0.604  0.00  0.00     0.003 A 
ATOM      7  I   UNL d   1      -0.939   1.184   2.926  0.00  0.00    -0.146 I 
ENDROOT
TORSDOF 0
ENDMDL
