MODEL 1
REMARK minimizedAffinity -4.31966496
REMARK minimizedRMSD -1
REMARK  0 active torsions:
REMARK  status: ('A' for Active; 'I' for Inactive)
ROOT
ATOM      1  C   UNL d   1      -1.144   1.398   2.478  0.00  0.00     0.023 A 
ATOM      2  C1  UNL d   1       0.226   1.480   2.224  0.00  0.00     0.003 A 
ATOM      3  C2  UNL d   1       0.752   0.943   1.048  0.00  0.00     0.048 A 
ATOM      4  C3  UNL d   1      -0.096   0.326   0.129  0.00  0.00     0.023 A 
ATOM      5  C4  UNL d   1      -1.467   0.243   0.378  0.00  0.00     0.048 A 
ATOM      6  C5  UNL d   1      -1.989   0.781   1.556  0.00  0.00     0.003 A 
ATOM      7  I   UNL d   1       0.686  -0.474  -1.623  0.00  0.00    -0.146 I 
ENDROOT
TORSDOF 0
ENDMDL
