MODEL 1
REMARK minimizedAffinity -4.15743256
REMARK minimizedRMSD -1
REMARK  2 active torsions:
REMARK  status: ('A' for Active; 'I' for Inactive)
REMARK    1  A    between atoms: C2'_3  and  C1'_4 
REMARK    2  A    between atoms: C1'_4  and  C1_5 
ROOT
ATOM      1  C1  I4B d   1      -0.161   0.048  -0.147  0.00  0.00    -0.075 A 
ATOM      2  C2  I4B d   1       0.493   0.004   1.059  0.00  0.00     0.003 A 
ATOM      3  C3  I4B d   1       0.052   0.807   2.139  0.00  0.00     0.002 A 
ATOM      4  C4  I4B d   1      -1.007   1.672   1.955  0.00  0.00    -0.004 A 
ATOM      5  C5  I4B d   1      -1.683   1.699   0.738  0.00  0.00     0.002 A 
ATOM      6  C6  I4B d   1      -1.265   0.873  -0.316  0.00  0.00     0.003 A 
ENDROOT
BRANCH   1   7
ATOM      7  C1' I4B d   1       0.351  -0.789  -1.276  0.00  0.00     0.060 C 
BRANCH   7   8
ATOM      8  C2' I4B d   1      -0.022  -2.230  -0.995  0.00  0.00    -0.013 C 
ATOM      9  C4' I4B d   1      -1.152  -2.683  -1.881  0.00  0.00     0.013 C 
ATOM     10  C3' I4B d   1       1.201  -3.074  -1.202  0.00  0.00     0.013 C 
ENDBRANCH   7   8
ENDBRANCH   1   7
TORSDOF 2
ENDMDL
