MODEL 1
REMARK minimizedAffinity -1.86061561
REMARK minimizedRMSD -1
REMARK  2 active torsions:
REMARK  status: ('A' for Active; 'I' for Inactive)
REMARK    1  A    between atoms: C2'_3  and  C1'_4 
REMARK    2  A    between atoms: C1'_4  and  C1_5 
ROOT
ATOM      1  C1  I4B d   1       0.417  -0.847  -0.383  0.00  0.00    -0.075 A 
ATOM      2  C2  I4B d   1       1.013  -0.644   0.837  0.00  0.00     0.003 A 
ATOM      3  C3  I4B d   1       0.588   0.419   1.671  0.00  0.00     0.002 A 
ATOM      4  C4  I4B d   1      -0.395   1.279   1.227  0.00  0.00    -0.004 A 
ATOM      5  C5  I4B d   1      -1.015   1.058   0.000  0.00  0.00     0.002 A 
ATOM      6  C6  I4B d   1      -0.615  -0.018  -0.804  0.00  0.00     0.003 A 
ENDROOT
BRANCH   1   7
ATOM      7  C1' I4B d   1       0.913  -1.958  -1.252  0.00  0.00     0.060 C 
BRANCH   7   8
ATOM      8  C2' I4B d   1       0.537  -3.270  -0.592  0.00  0.00    -0.013 C 
ATOM      9  C4' I4B d   1      -0.458  -4.034  -1.426  0.00  0.00     0.013 C 
ATOM     10  C3' I4B d   1       1.794  -4.062  -0.388  0.00  0.00     0.013 C 
ENDBRANCH   7   8
ENDBRANCH   1   7
TORSDOF 2
ENDMDL
