MODEL 1
REMARK minimizedAffinity -6.13894749
REMARK minimizedRMSD -1
REMARK  2 active torsions:
REMARK  status: ('A' for Active; 'I' for Inactive)
REMARK    1  A    between atoms: C2'_3  and  C1'_4 
REMARK    2  A    between atoms: C1'_4  and  C1_5 
ROOT
ATOM      1  C1  I4B d   1       0.075  -0.521  -0.442  0.00  0.00    -0.075 A 
ATOM      2  C2  I4B d   1      -0.651   0.479  -1.041  0.00  0.00     0.003 A 
ATOM      3  C3  I4B d   1      -1.090   1.592  -0.284  0.00  0.00     0.002 A 
ATOM      4  C4  I4B d   1      -0.827   1.640   1.069  0.00  0.00    -0.004 A 
ATOM      5  C5  I4B d   1      -0.072   0.637   1.670  0.00  0.00     0.002 A 
ATOM      6  C6  I4B d   1       0.393  -0.445   0.907  0.00  0.00     0.003 A 
ENDROOT
BRANCH   1   7
ATOM      7  C1' I4B d   1       0.494  -1.698  -1.264  0.00  0.00     0.060 C 
BRANCH   7   8
ATOM      8  C2' I4B d   1      -0.757  -2.357  -1.809  0.00  0.00    -0.013 C 
ATOM      9  C4' I4B d   1      -0.807  -2.273  -3.312  0.00  0.00     0.013 C 
ATOM     10  C3' I4B d   1      -0.768  -3.784  -1.346  0.00  0.00     0.013 C 
ENDBRANCH   7   8
ENDBRANCH   1   7
TORSDOF 2
ENDMDL
