MODEL 1
REMARK minimizedAffinity -5.44610596
REMARK minimizedRMSD -1
REMARK  2 active torsions:
REMARK  status: ('A' for Active; 'I' for Inactive)
REMARK    1  A    between atoms: C2'_3  and  C1'_4 
REMARK    2  A    between atoms: C1'_4  and  C1_5 
ROOT
ATOM      1  C1  I4B d   1      -0.096  -1.755  -1.104  0.00  0.00    -0.075 A 
ATOM      2  C2  I4B d   1       0.551  -2.870  -0.632  0.00  0.00     0.003 A 
ATOM      3  C3  I4B d   1       0.063  -4.162  -0.944  0.00  0.00     0.002 A 
ATOM      4  C4  I4B d   1      -1.095  -4.291  -1.683  0.00  0.00    -0.004 A 
ATOM      5  C5  I4B d   1      -1.737  -3.160  -2.180  0.00  0.00     0.002 A 
ATOM      6  C6  I4B d   1      -1.228  -1.884  -1.899  0.00  0.00     0.003 A 
ENDROOT
BRANCH   1   7
ATOM      7  C1' I4B d   1       0.427  -0.405  -0.728  0.00  0.00     0.060 C 
BRANCH   7   8
ATOM      8  C2' I4B d   1      -0.640   0.300   0.085  0.00  0.00    -0.013 C 
ATOM      9  C4' I4B d   1      -0.199   0.494   1.512  0.00  0.00     0.013 C 
ATOM     10  C3' I4B d   1      -0.933   1.614  -0.575  0.00  0.00     0.013 C 
ENDBRANCH   7   8
ENDBRANCH   1   7
TORSDOF 2
ENDMDL
