MODEL 1
REMARK minimizedAffinity -4.78369379
REMARK minimizedRMSD -1
REMARK  2 active torsions:
REMARK  status: ('A' for Active; 'I' for Inactive)
REMARK    1  A    between atoms: C2'_3  and  C1'_4 
REMARK    2  A    between atoms: C1'_4  and  C1_5 
ROOT
ATOM      1  C1  I4B d   1      -0.137  -0.255  -0.015  0.00  0.00    -0.075 A 
ATOM      2  C2  I4B d   1       0.525  -0.347   1.185  0.00  0.00     0.003 A 
ATOM      3  C3  I4B d   1       0.256   0.582   2.219  0.00  0.00     0.002 A 
ATOM      4  C4  I4B d   1      -0.638   1.609   1.995  0.00  0.00    -0.004 A 
ATOM      5  C5  I4B d   1      -1.324   1.687   0.787  0.00  0.00     0.002 A 
ATOM      6  C6  I4B d   1      -1.082   0.741  -0.220  0.00  0.00     0.003 A 
ENDROOT
BRANCH   1   7
ATOM      7  C1' I4B d   1       0.195  -1.233  -1.097  0.00  0.00     0.060 C 
BRANCH   7   8
ATOM      8  C2' I4B d   1      -0.558  -2.517  -0.813  0.00  0.00    -0.013 C 
ATOM      9  C4' I4B d   1      -1.776  -2.640  -1.690  0.00  0.00     0.013 C 
ATOM     10  C3' I4B d   1       0.384  -3.664  -1.031  0.00  0.00     0.013 C 
ENDBRANCH   7   8
ENDBRANCH   1   7
TORSDOF 2
ENDMDL
