MODEL 1
REMARK minimizedAffinity -5.0312109
REMARK minimizedRMSD -1
REMARK  2 active torsions:
REMARK  status: ('A' for Active; 'I' for Inactive)
REMARK    1  A    between atoms: C2'_3  and  C1'_4 
REMARK    2  A    between atoms: C1'_4  and  C1_5 
ROOT
ATOM      1  C1  I4B d   1       0.036  -0.024  -0.590  0.00  0.00    -0.075 A 
ATOM      2  C2  I4B d   1      -0.677   1.027  -1.110  0.00  0.00     0.003 A 
ATOM      3  C3  I4B d   1      -1.267   1.984  -0.248  0.00  0.00     0.002 A 
ATOM      4  C4  I4B d   1      -1.162   1.824   1.118  0.00  0.00    -0.004 A 
ATOM      5  C5  I4B d   1      -0.419   0.770   1.643  0.00  0.00     0.002 A 
ATOM      6  C6  I4B d   1       0.194  -0.153   0.784  0.00  0.00     0.003 A 
ENDROOT
BRANCH   1   7
ATOM      7  C1' I4B d   1       0.617  -1.034  -1.528  0.00  0.00     0.060 C 
BRANCH   7   8
ATOM      8  C2' I4B d   1      -0.025  -2.374  -1.228  0.00  0.00    -0.013 C 
ATOM      9  C4' I4B d   1      -1.200  -2.630  -2.134  0.00  0.00     0.013 C 
ATOM     10  C3' I4B d   1       1.023  -3.435  -1.386  0.00  0.00     0.013 C 
ENDBRANCH   7   8
ENDBRANCH   1   7
TORSDOF 2
ENDMDL
