MODEL 1
REMARK minimizedAffinity -6.22689819
REMARK minimizedRMSD -1
REMARK  2 active torsions:
REMARK  status: ('A' for Active; 'I' for Inactive)
REMARK    1  A    between atoms: C2'_3  and  C1'_4 
REMARK    2  A    between atoms: C1'_4  and  C1_5 
ROOT
ATOM      1  C1  I4B d   1      -0.996   1.128   0.167  0.00  0.00    -0.075 A 
ATOM      2  C2  I4B d   1      -1.388   1.691   1.356  0.00  0.00     0.003 A 
ATOM      3  C3  I4B d   1      -1.441   3.099   1.495  0.00  0.00     0.002 A 
ATOM      4  C4  I4B d   1      -1.048   3.901   0.443  0.00  0.00    -0.004 A 
ATOM      5  C5  I4B d   1      -0.673   3.329  -0.769  0.00  0.00     0.002 A 
ATOM      6  C6  I4B d   1      -0.659   1.934  -0.912  0.00  0.00     0.003 A 
ENDROOT
BRANCH   1   7
ATOM      7  C1' I4B d   1      -0.920  -0.362   0.066  0.00  0.00     0.060 C 
BRANCH   7   8
ATOM      8  C2' I4B d   1       0.540  -0.761   0.139  0.00  0.00    -0.013 C 
ATOM      9  C4' I4B d   1       0.991  -0.918   1.567  0.00  0.00     0.013 C 
ATOM     10  C3' I4B d   1       0.709  -2.040  -0.626  0.00  0.00     0.013 C 
ENDBRANCH   7   8
ENDBRANCH   1   7
TORSDOF 2
ENDMDL
