MODEL 1
REMARK minimizedAffinity -3.26385832
REMARK minimizedRMSD -1
REMARK  2 active torsions:
REMARK  status: ('A' for Active; 'I' for Inactive)
REMARK    1  A    between atoms: C2'_3  and  C1'_4 
REMARK    2  A    between atoms: C1'_4  and  C1_5 
ROOT
ATOM      1  C1  I4B d   1      -0.041   0.071  -0.245  0.00  0.00    -0.075 A 
ATOM      2  C2  I4B d   1       0.426   0.066   1.046  0.00  0.00     0.003 A 
ATOM      3  C3  I4B d   1      -0.006   1.053   1.965  0.00  0.00     0.002 A 
ATOM      4  C4  I4B d   1      -0.861   2.049   1.540  0.00  0.00    -0.004 A 
ATOM      5  C5  I4B d   1      -1.352   2.040   0.237  0.00  0.00     0.002 A 
ATOM      6  C6  I4B d   1      -0.949   1.038  -0.658  0.00  0.00     0.003 A 
ENDROOT
BRANCH   1   7
ATOM      7  C1' I4B d   1       0.461  -0.967  -1.197  0.00  0.00     0.060 C 
BRANCH   7   8
ATOM      8  C2' I4B d   1      -0.258  -2.265  -0.895  0.00  0.00    -0.013 C 
ATOM      9  C4' I4B d   1      -1.348  -2.531  -1.899  0.00  0.00     0.013 C 
ATOM     10  C3' I4B d   1       0.758  -3.368  -0.894  0.00  0.00     0.013 C 
ENDBRANCH   7   8
ENDBRANCH   1   7
TORSDOF 2
ENDMDL
