MODEL 1
REMARK minimizedAffinity -5.7853322
REMARK minimizedRMSD -1
REMARK  2 active torsions:
REMARK  status: ('A' for Active; 'I' for Inactive)
REMARK    1  A    between atoms: C2'_3  and  C1'_4 
REMARK    2  A    between atoms: C1'_4  and  C1_5 
ROOT
ATOM      1  C1  I4B d   1       0.045  -0.234  -0.223  0.00  0.00    -0.075 A 
ATOM      2  C2  I4B d   1      -0.745   0.875  -0.393  0.00  0.00     0.003 A 
ATOM      3  C3  I4B d   1      -1.120   1.661   0.724  0.00  0.00     0.002 A 
ATOM      4  C4  I4B d   1      -0.726   1.276   1.989  0.00  0.00    -0.004 A 
ATOM      5  C5  I4B d   1       0.094   0.164   2.157  0.00  0.00     0.002 A 
ATOM      6  C6  I4B d   1       0.493  -0.589   1.043  0.00  0.00     0.003 A 
ENDROOT
BRANCH   1   7
ATOM      7  C1' I4B d   1       0.394  -1.060  -1.420  0.00  0.00     0.060 C 
BRANCH   7   8
ATOM      8  C2' I4B d   1      -0.312  -2.395  -1.288  0.00  0.00    -0.013 C 
ATOM      9  C4' I4B d   1      -1.249  -2.632  -2.443  0.00  0.00     0.013 C 
ATOM     10  C3' I4B d   1       0.734  -3.466  -1.211  0.00  0.00     0.013 C 
ENDBRANCH   7   8
ENDBRANCH   1   7
TORSDOF 2
ENDMDL
