MODEL 1
REMARK minimizedAffinity -5.01005507
REMARK minimizedRMSD -1
REMARK  2 active torsions:
REMARK  status: ('A' for Active; 'I' for Inactive)
REMARK    1  A    between atoms: C2'_3  and  C1'_4 
REMARK    2  A    between atoms: C1'_4  and  C1_5 
ROOT
ATOM      1  C1  I4B d   1      -0.113  -0.550  -0.568  0.00  0.00    -0.075 A 
ATOM      2  C2  I4B d   1      -1.173  -1.413  -0.437  0.00  0.00     0.003 A 
ATOM      3  C3  I4B d   1      -1.118  -2.703  -1.017  0.00  0.00     0.002 A 
ATOM      4  C4  I4B d   1      -0.012  -3.069  -1.757  0.00  0.00    -0.004 A 
ATOM      5  C5  I4B d   1       1.071  -2.202  -1.870  0.00  0.00     0.002 A 
ATOM      6  C6  I4B d   1       1.026  -0.939  -1.261  0.00  0.00     0.003 A 
ENDROOT
BRANCH   1   7
ATOM      7  C1' I4B d   1      -0.219   0.817   0.030  0.00  0.00     0.060 C 
BRANCH   7   8
ATOM      8  C2' I4B d   1      -0.609   0.661   1.485  0.00  0.00    -0.013 C 
ATOM      9  C4' I4B d   1       0.567   0.232   2.322  0.00  0.00     0.013 C 
ATOM     10  C3' I4B d   1      -1.161   1.973   1.959  0.00  0.00     0.013 C 
ENDBRANCH   7   8
ENDBRANCH   1   7
TORSDOF 2
ENDMDL
