MODEL 1
REMARK minimizedAffinity -3.99644113
REMARK minimizedRMSD -1
REMARK  2 active torsions:
REMARK  status: ('A' for Active; 'I' for Inactive)
REMARK    1  A    between atoms: C2'_3  and  C1'_4 
REMARK    2  A    between atoms: C1'_4  and  C1_5 
ROOT
ATOM      1  C1  I4B d   1      -0.287   0.097   0.886  0.00  0.00    -0.075 A 
ATOM      2  C2  I4B d   1       0.506   0.890   1.677  0.00  0.00     0.003 A 
ATOM      3  C3  I4B d   1       0.010   2.115   2.183  0.00  0.00     0.002 A 
ATOM      4  C4  I4B d   1      -1.259   2.531   1.834  0.00  0.00    -0.004 A 
ATOM      5  C5  I4B d   1      -2.070   1.716   1.050  0.00  0.00     0.002 A 
ATOM      6  C6  I4B d   1      -1.586   0.485   0.583  0.00  0.00     0.003 A 
ENDROOT
BRANCH   1   7
ATOM      7  C1' I4B d   1       0.280  -1.175   0.341  0.00  0.00     0.060 C 
BRANCH   7   8
ATOM      8  C2' I4B d   1      -0.064  -1.247  -1.133  0.00  0.00    -0.013 C 
ATOM      9  C4' I4B d   1       0.892  -0.424  -1.956  0.00  0.00     0.013 C 
ATOM     10  C3' I4B d   1      -0.032  -2.688  -1.547  0.00  0.00     0.013 C 
ENDBRANCH   7   8
ENDBRANCH   1   7
TORSDOF 2
ENDMDL
