MODEL 1
REMARK minimizedAffinity -5.42409134
REMARK minimizedRMSD -1
REMARK  2 active torsions:
REMARK  status: ('A' for Active; 'I' for Inactive)
REMARK    1  A    between atoms: C2'_3  and  C1'_4 
REMARK    2  A    between atoms: C1'_4  and  C1_5 
ROOT
ATOM      1  C1  I4B d   1      -0.071   0.191  -0.097  0.00  0.00    -0.075 A 
ATOM      2  C2  I4B d   1       0.496   0.037   1.144  0.00  0.00     0.003 A 
ATOM      3  C3  I4B d   1       0.104   0.876   2.215  0.00  0.00     0.002 A 
ATOM      4  C4  I4B d   1      -0.814   1.882   1.990  0.00  0.00    -0.004 A 
ATOM      5  C5  I4B d   1      -1.404   2.021   0.737  0.00  0.00     0.002 A 
ATOM      6  C6  I4B d   1      -1.039   1.163  -0.310  0.00  0.00     0.003 A 
ENDROOT
BRANCH   1   7
ATOM      7  C1' I4B d   1       0.390  -0.691  -1.214  0.00  0.00     0.060 C 
BRANCH   7   8
ATOM      8  C2' I4B d   1       0.285  -2.129  -0.748  0.00  0.00    -0.013 C 
ATOM      9  C4' I4B d   1      -0.986  -2.770  -1.241  0.00  0.00     0.013 C 
ATOM     10  C3' I4B d   1       1.492  -2.867  -1.245  0.00  0.00     0.013 C 
ENDBRANCH   7   8
ENDBRANCH   1   7
TORSDOF 2
ENDMDL
