MODEL 1
REMARK minimizedAffinity -3.87282324
REMARK minimizedRMSD -1
REMARK  2 active torsions:
REMARK  status: ('A' for Active; 'I' for Inactive)
REMARK    1  A    between atoms: C2'_3  and  C1'_4 
REMARK    2  A    between atoms: C1'_4  and  C1_5 
ROOT
ATOM      1  C1  I4B d   1       0.039   0.151  -0.225  0.00  0.00    -0.075 A 
ATOM      2  C2  I4B d   1       0.666  -0.142   0.960  0.00  0.00     0.003 A 
ATOM      3  C3  I4B d   1       0.376   0.609   2.125  0.00  0.00     0.002 A 
ATOM      4  C4  I4B d   1      -0.503   1.670   2.047  0.00  0.00    -0.004 A 
ATOM      5  C5  I4B d   1      -1.155   1.951   0.850  0.00  0.00     0.002 A 
ATOM      6  C6  I4B d   1      -0.892   1.179  -0.291  0.00  0.00     0.003 A 
ENDROOT
BRANCH   1   7
ATOM      7  C1' I4B d   1       0.393  -0.643  -1.443  0.00  0.00     0.060 C 
BRANCH   7   8
ATOM      8  C2' I4B d   1       0.123  -2.103  -1.144  0.00  0.00    -0.013 C 
ATOM      9  C4' I4B d   1      -1.047  -2.615  -1.942  0.00  0.00     0.013 C 
ATOM     10  C3' I4B d   1       1.369  -2.877  -1.453  0.00  0.00     0.013 C 
ENDBRANCH   7   8
ENDBRANCH   1   7
TORSDOF 2
ENDMDL
