MODEL 1
REMARK minimizedAffinity -0.213409543
REMARK minimizedRMSD -1
REMARK  2 active torsions:
REMARK  status: ('A' for Active; 'I' for Inactive)
REMARK    1  A    between atoms: C2'_3  and  C1'_4 
REMARK    2  A    between atoms: C1'_4  and  C1_5 
ROOT
ATOM      1  C1  I4B d   1      -1.118   0.826   0.907  0.00  0.00    -0.075 A 
ATOM      2  C2  I4B d   1      -1.239   0.865  -0.460  0.00  0.00     0.003 A 
ATOM      3  C3  I4B d   1      -0.264   0.246  -1.279  0.00  0.00     0.002 A 
ATOM      4  C4  I4B d   1       0.834  -0.352  -0.695  0.00  0.00    -0.004 A 
ATOM      5  C5  I4B d   1       0.943  -0.409   0.691  0.00  0.00     0.002 A 
ATOM      6  C6  I4B d   1      -0.045   0.172   1.498  0.00  0.00     0.003 A 
ENDROOT
BRANCH   1   7
ATOM      7  C1' I4B d   1      -2.149   1.518   1.742  0.00  0.00     0.060 C 
BRANCH   7   8
ATOM      8  C2' I4B d   1      -1.464   2.644   2.491  0.00  0.00    -0.013 C 
ATOM      9  C4' I4B d   1      -0.029   2.793   2.058  0.00  0.00     0.013 C 
ATOM     10  C3' I4B d   1      -2.238   3.904   2.242  0.00  0.00     0.013 C 
ENDBRANCH   7   8
ENDBRANCH   1   7
TORSDOF 2
ENDMDL
