MODEL 1
REMARK minimizedAffinity 7.43292189
REMARK minimizedRMSD -1
REMARK  3 active torsions:
REMARK  status: ('A' for Active; 'I' for Inactive)
REMARK    1  A    between atoms: C3'_2  and  C2'_3 
REMARK    2  A    between atoms: C2'_3  and  C1'_4 
REMARK    3  A    between atoms: C1'_4  and  C1_5 
ROOT
ATOM      1  C1  N4B d   1       1.953   0.099   0.283  0.00  0.00    -0.075 A 
ATOM      2  C2  N4B d   1       1.120   0.626  -0.729  0.00  0.00     0.002 A 
ATOM      3  C3  N4B d   1      -0.018   1.317  -0.390  0.00  0.00     0.002 A 
ATOM      4  C4  N4B d   1      -0.351   1.477   0.946  0.00  0.00    -0.004 A 
ATOM      5  C5  N4B d   1       0.472   0.987   1.918  0.00  0.00     0.002 A 
ATOM      6  C6  N4B d   1       1.620   0.294   1.592  0.00  0.00     0.002 A 
ENDROOT
BRANCH   1   7
ATOM      7  C1' N4B d   1       3.161  -0.738  -0.039  0.00  0.00     0.057 C 
BRANCH   7   8
ATOM      8  C2' N4B d   1       4.203   0.134  -0.733  0.00  0.00     0.009 C 
BRANCH   8   9
ATOM      9  C3' N4B d   1       5.619  -0.262  -0.354  0.00  0.00     0.004 C 
ATOM     10  C4' N4B d   1       5.662  -1.356   0.670  0.00  0.00     0.003 C 
ENDBRANCH   8   9
ENDBRANCH   7   8
ENDBRANCH   1   7
TORSDOF 3
ENDMDL
