MODEL 1
REMARK minimizedAffinity 11.1539469
REMARK minimizedRMSD -1
REMARK  3 active torsions:
REMARK  status: ('A' for Active; 'I' for Inactive)
REMARK    1  A    between atoms: C3'_2  and  C2'_3 
REMARK    2  A    between atoms: C2'_3  and  C1'_4 
REMARK    3  A    between atoms: C1'_4  and  C1_5 
ROOT
ATOM      1  C1  N4B d   1       3.364  -0.849  -1.410  0.00  0.00    -0.075 A 
ATOM      2  C2  N4B d   1       4.511  -0.216  -1.937  0.00  0.00     0.002 A 
ATOM      3  C3  N4B d   1       4.921   0.993  -1.432  0.00  0.00     0.002 A 
ATOM      4  C4  N4B d   1       4.193   1.595  -0.416  0.00  0.00    -0.004 A 
ATOM      5  C5  N4B d   1       3.101   0.965   0.105  0.00  0.00     0.002 A 
ATOM      6  C6  N4B d   1       2.679  -0.253  -0.391  0.00  0.00     0.002 A 
ENDROOT
BRANCH   1   7
ATOM      7  C1' N4B d   1       2.828  -2.130  -1.988  0.00  0.00     0.057 C 
BRANCH   7   8
ATOM      8  C2' N4B d   1       2.149  -2.933  -0.883  0.00  0.00     0.009 C 
BRANCH   8   9
ATOM      9  C3' N4B d   1       1.484  -4.189  -1.419  0.00  0.00     0.004 C 
ATOM     10  C4' N4B d   1       0.024  -4.261  -1.084  0.00  0.00     0.003 C 
ENDBRANCH   8   9
ENDBRANCH   7   8
ENDBRANCH   1   7
TORSDOF 3
ENDMDL
