MODEL 1
REMARK minimizedAffinity 1.33182478
REMARK minimizedRMSD -1
REMARK  3 active torsions:
REMARK  status: ('A' for Active; 'I' for Inactive)
REMARK    1  A    between atoms: C3'_2  and  C2'_3 
REMARK    2  A    between atoms: C2'_3  and  C1'_4 
REMARK    3  A    between atoms: C1'_4  and  C1_5 
ROOT
ATOM      1  C1  N4B d   1       4.842  -1.535  -2.344  0.00  0.00    -0.075 A 
ATOM      2  C2  N4B d   1       4.021  -1.533  -1.195  0.00  0.00     0.002 A 
ATOM      3  C3  N4B d   1       3.047  -2.490  -1.046  0.00  0.00     0.002 A 
ATOM      4  C4  N4B d   1       2.864  -3.443  -2.036  0.00  0.00    -0.004 A 
ATOM      5  C5  N4B d   1       3.678  -3.453  -3.131  0.00  0.00     0.002 A 
ATOM      6  C6  N4B d   1       4.664  -2.500  -3.293  0.00  0.00     0.002 A 
ENDROOT
BRANCH   1   7
ATOM      7  C1' N4B d   1       5.864  -0.459  -2.592  0.00  0.00     0.057 C 
BRANCH   7   8
ATOM      8  C2' N4B d   1       5.976   0.420  -1.350  0.00  0.00     0.009 C 
BRANCH   8   9
ATOM      9  C3' N4B d   1       4.768   1.325  -1.183  0.00  0.00     0.004 C 
ATOM     10  C4' N4B d   1       5.137   2.776  -1.088  0.00  0.00     0.003 C 
ENDBRANCH   8   9
ENDBRANCH   7   8
ENDBRANCH   1   7
TORSDOF 3
ENDMDL
