MODEL 1
REMARK minimizedAffinity 1.3245666
REMARK minimizedRMSD -1
REMARK  3 active torsions:
REMARK  status: ('A' for Active; 'I' for Inactive)
REMARK    1  A    between atoms: C3'_2  and  C2'_3 
REMARK    2  A    between atoms: C2'_3  and  C1'_4 
REMARK    3  A    between atoms: C1'_4  and  C1_5 
ROOT
ATOM      1  C1  N4B d   1      -0.113  -2.146  -1.226  0.00  0.00    -0.075 A 
ATOM      2  C2  N4B d   1       1.014  -2.511  -0.457  0.00  0.00     0.002 A 
ATOM      3  C3  N4B d   1       1.634  -1.578   0.338  0.00  0.00     0.002 A 
ATOM      4  C4  N4B d   1       1.157  -0.276   0.367  0.00  0.00    -0.004 A 
ATOM      5  C5  N4B d   1       0.052   0.061  -0.358  0.00  0.00     0.002 A 
ATOM      6  C6  N4B d   1      -0.583  -0.866  -1.159  0.00  0.00     0.002 A 
ENDROOT
BRANCH   1   7
ATOM      7  C1' N4B d   1      -0.772  -3.108  -2.176  0.00  0.00     0.057 C 
BRANCH   7   8
ATOM      8  C2' N4B d   1      -1.155  -2.367  -3.453  0.00  0.00     0.009 C 
BRANCH   8   9
ATOM      9  C3' N4B d   1      -1.401  -3.320  -4.611  0.00  0.00     0.004 C 
ATOM     10  C4' N4B d   1      -2.822  -3.300  -5.087  0.00  0.00     0.003 C 
ENDBRANCH   8   9
ENDBRANCH   7   8
ENDBRANCH   1   7
TORSDOF 3
ENDMDL
