MODEL 1
REMARK minimizedAffinity 17.1943855
REMARK minimizedRMSD -1
REMARK  3 active torsions:
REMARK  status: ('A' for Active; 'I' for Inactive)
REMARK    1  A    between atoms: C3'_2  and  C2'_3 
REMARK    2  A    between atoms: C2'_3  and  C1'_4 
REMARK    3  A    between atoms: C1'_4  and  C1_5 
ROOT
ATOM      1  C1  N4B d   1       2.904  -1.631  -1.942  0.00  0.00    -0.075 A 
ATOM      2  C2  N4B d   1       3.662  -0.617  -2.569  0.00  0.00     0.002 A 
ATOM      3  C3  N4B d   1       4.184   0.411  -1.822  0.00  0.00     0.002 A 
ATOM      4  C4  N4B d   1       3.946   0.456  -0.457  0.00  0.00    -0.004 A 
ATOM      5  C5  N4B d   1       3.234  -0.541   0.145  0.00  0.00     0.002 A 
ATOM      6  C6  N4B d   1       2.707  -1.582  -0.593  0.00  0.00     0.002 A 
ENDROOT
BRANCH   1   7
ATOM      7  C1' N4B d   1       2.241  -2.728  -2.730  0.00  0.00     0.057 C 
BRANCH   7   8
ATOM      8  C2' N4B d   1       1.312  -3.513  -1.809  0.00  0.00     0.009 C 
BRANCH   8   9
ATOM      9  C3' N4B d   1      -0.015  -3.830  -2.477  0.00  0.00     0.004 C 
ATOM     10  C4' N4B d   1      -0.810  -4.861  -1.732  0.00  0.00     0.003 C 
ENDBRANCH   8   9
ENDBRANCH   7   8
ENDBRANCH   1   7
TORSDOF 3
ENDMDL
