MODEL 1
REMARK minimizedAffinity -4.19867659
REMARK minimizedRMSD -1
REMARK  0 active torsions:
REMARK  status: ('A' for Active; 'I' for Inactive)
ROOT
ATOM      1  C1  BNZ d   1      -1.105   1.855  -0.604  0.00  0.00     0.000 A 
ATOM      2  C2  BNZ d   1       0.037   1.143  -0.859  0.00  0.00     0.000 A 
ATOM      3  C3  BNZ d   1       0.311  -0.009  -0.176  0.00  0.00     0.000 A 
ATOM      4  C4  BNZ d   1      -0.536  -0.426   0.788  0.00  0.00     0.000 A 
ATOM      5  C5  BNZ d   1      -1.686   0.286   1.063  0.00  0.00     0.000 A 
ATOM      6  C6  BNZ d   1      -1.978   1.424   0.347  0.00  0.00     0.000 A 
ENDROOT
TORSDOF 0
ENDMDL
