MODEL 1
REMARK minimizedAffinity -4.80558586
REMARK minimizedRMSD -1
REMARK  0 active torsions:
REMARK  status: ('A' for Active; 'I' for Inactive)
ROOT
ATOM      1  C1  BNZ d   1       0.824  -0.818   0.230  0.00  0.00     0.000 A 
ATOM      2  C2  BNZ d   1       0.074  -0.797   1.375  0.00  0.00     0.000 A 
ATOM      3  C3  BNZ d   1      -0.909   0.137   1.551  0.00  0.00     0.000 A 
ATOM      4  C4  BNZ d   1      -1.114   1.071   0.601  0.00  0.00     0.000 A 
ATOM      5  C5  BNZ d   1      -0.360   1.069  -0.556  0.00  0.00     0.000 A 
ATOM      6  C6  BNZ d   1       0.602   0.104  -0.747  0.00  0.00     0.000 A 
ENDROOT
TORSDOF 0
ENDMDL
