MODEL 1
REMARK minimizedAffinity -4.76649141
REMARK minimizedRMSD -1
REMARK  0 active torsions:
REMARK  status: ('A' for Active; 'I' for Inactive)
ROOT
ATOM      1  C1  BNZ d   1      -0.429   1.568   0.091  0.00  0.00     0.000 A 
ATOM      2  C2  BNZ d   1      -1.343   2.381   0.708  0.00  0.00     0.000 A 
ATOM      3  C3  BNZ d   1      -1.865   2.048   1.926  0.00  0.00     0.000 A 
ATOM      4  C4  BNZ d   1      -1.504   0.886   2.508  0.00  0.00     0.000 A 
ATOM      5  C5  BNZ d   1      -0.591   0.052   1.894  0.00  0.00     0.000 A 
ATOM      6  C6  BNZ d   1      -0.037   0.409   0.686  0.00  0.00     0.000 A 
ENDROOT
TORSDOF 0
ENDMDL
