MODEL 1
REMARK minimizedAffinity -4.61676073
REMARK minimizedRMSD -1
REMARK  0 active torsions:
REMARK  status: ('A' for Active; 'I' for Inactive)
ROOT
ATOM      1  C1  BNZ d   1      -0.876   1.529   1.877  0.00  0.00     0.000 A 
ATOM      2  C2  BNZ d   1      -1.368   2.698   1.361  0.00  0.00     0.000 A 
ATOM      3  C3  BNZ d   1      -1.131   3.044   0.060  0.00  0.00     0.000 A 
ATOM      4  C4  BNZ d   1      -0.369   2.242  -0.711  0.00  0.00     0.000 A 
ATOM      5  C5  BNZ d   1       0.142   1.064  -0.203  0.00  0.00     0.000 A 
ATOM      6  C6  BNZ d   1      -0.132   0.700   1.096  0.00  0.00     0.000 A 
ENDROOT
TORSDOF 0
ENDMDL
