MODEL 1
REMARK minimizedAffinity -3.92621064
REMARK minimizedRMSD -1
REMARK  0 active torsions:
REMARK  status: ('A' for Active; 'I' for Inactive)
ROOT
ATOM      1  C1  BNZ d   1      -1.965   0.547   2.227  0.00  0.00     0.000 A 
ATOM      2  C2  BNZ d   1      -1.445  -0.651   1.817  0.00  0.00     0.000 A 
ATOM      3  C3  BNZ d   1      -0.596  -0.717   0.748  0.00  0.00     0.000 A 
ATOM      4  C4  BNZ d   1      -0.299   0.408   0.067  0.00  0.00     0.000 A 
ATOM      5  C5  BNZ d   1      -0.823   1.623   0.462  0.00  0.00     0.000 A 
ATOM      6  C6  BNZ d   1      -1.647   1.691   1.562  0.00  0.00     0.000 A 
ENDROOT
TORSDOF 0
ENDMDL
