MODEL 1
REMARK minimizedAffinity -4.85673857
REMARK minimizedRMSD -1
REMARK  0 active torsions:
REMARK  status: ('A' for Active; 'I' for Inactive)
ROOT
ATOM      1  C1  BNZ d   1      -0.622   2.858   0.232  0.00  0.00     0.000 A 
ATOM      2  C2  BNZ d   1      -1.079   2.493   1.470  0.00  0.00     0.000 A 
ATOM      3  C3  BNZ d   1      -0.878   1.227   1.945  0.00  0.00     0.000 A 
ATOM      4  C4  BNZ d   1      -0.256   0.318   1.167  0.00  0.00     0.000 A 
ATOM      5  C5  BNZ d   1       0.203   0.668  -0.087  0.00  0.00     0.000 A 
ATOM      6  C6  BNZ d   1       0.033   1.954  -0.547  0.00  0.00     0.000 A 
ENDROOT
TORSDOF 0
ENDMDL
