MODEL 1
REMARK minimizedAffinity -4.41646671
REMARK minimizedRMSD -1
REMARK  0 active torsions:
REMARK  status: ('A' for Active; 'I' for Inactive)
ROOT
ATOM      1  C1  BNZ d   1      -1.866   0.404  -0.136  0.00  0.00     0.000 A 
ATOM      2  C2  BNZ d   1      -0.821  -0.368  -0.566  0.00  0.00     0.000 A 
ATOM      3  C3  BNZ d   1       0.210  -0.683   0.276  0.00  0.00     0.000 A 
ATOM      4  C4  BNZ d   1       0.213  -0.192   1.532  0.00  0.00     0.000 A 
ATOM      5  C5  BNZ d   1      -0.830   0.596   1.977  0.00  0.00     0.000 A 
ATOM      6  C6  BNZ d   1      -1.884   0.878   1.139  0.00  0.00     0.000 A 
ENDROOT
TORSDOF 0
ENDMDL
