MODEL 1
REMARK minimizedAffinity -4.86434126
REMARK minimizedRMSD -1
REMARK  0 active torsions:
REMARK  status: ('A' for Active; 'I' for Inactive)
ROOT
ATOM      1  C1  BNZ d   1      -1.981   1.164   1.664  0.00  0.00     0.000 A 
ATOM      2  C2  BNZ d   1      -2.450   2.414   1.357  0.00  0.00     0.000 A 
ATOM      3  C3  BNZ d   1      -1.828   3.183   0.413  0.00  0.00     0.000 A 
ATOM      4  C4  BNZ d   1      -0.716   2.719  -0.192  0.00  0.00     0.000 A 
ATOM      5  C5  BNZ d   1      -0.225   1.465   0.113  0.00  0.00     0.000 A 
ATOM      6  C6  BNZ d   1      -0.876   0.678   1.035  0.00  0.00     0.000 A 
ENDROOT
TORSDOF 0
ENDMDL
