MODEL 1
REMARK minimizedAffinity -4.71033764
REMARK minimizedRMSD -1
REMARK  0 active torsions:
REMARK  status: ('A' for Active; 'I' for Inactive)
ROOT
ATOM      1  C1  BNZ d   1      -1.534   3.117   0.962  0.00  0.00     0.000 A 
ATOM      2  C2  BNZ d   1      -0.710   3.744   0.066  0.00  0.00     0.000 A 
ATOM      3  C3  BNZ d   1       0.036   3.022  -0.823  0.00  0.00     0.000 A 
ATOM      4  C4  BNZ d   1      -0.012   1.675  -0.787  0.00  0.00     0.000 A 
ATOM      5  C5  BNZ d   1      -0.830   1.028   0.117  0.00  0.00     0.000 A 
ATOM      6  C6  BNZ d   1      -1.609   1.759   0.984  0.00  0.00     0.000 A 
ENDROOT
TORSDOF 0
ENDMDL
