MODEL 1
REMARK minimizedAffinity -5.38453102
REMARK minimizedRMSD -1
REMARK  0 active torsions:
REMARK  status: ('A' for Active; 'I' for Inactive)
ROOT
ATOM      1  C1  BNZ d   1      -0.541  -0.343   0.349  0.00  0.00     0.000 A 
ATOM      2  C2  BNZ d   1      -1.493   0.387  -0.310  0.00  0.00     0.000 A 
ATOM      3  C3  BNZ d   1      -2.056   1.489   0.270  0.00  0.00     0.000 A 
ATOM      4  C4  BNZ d   1      -1.696   1.836   1.523  0.00  0.00     0.000 A 
ATOM      5  C5  BNZ d   1      -0.744   1.104   2.204  0.00  0.00     0.000 A 
ATOM      6  C6  BNZ d   1      -0.151   0.018   1.602  0.00  0.00     0.000 A 
ENDROOT
TORSDOF 0
ENDMDL
