MODEL 1
REMARK minimizedAffinity -3.49252081
REMARK minimizedRMSD -1
REMARK  0 active torsions:
REMARK  status: ('A' for Active; 'I' for Inactive)
ROOT
ATOM      1  C1  BNZ d   1       0.487   0.569   0.173  0.00  0.00     0.000 A 
ATOM      2  C2  BNZ d   1      -0.134   0.519   1.392  0.00  0.00     0.000 A 
ATOM      3  C3  BNZ d   1      -0.733   1.629   1.919  0.00  0.00     0.000 A 
ATOM      4  C4  BNZ d   1      -0.677   2.796   1.245  0.00  0.00     0.000 A 
ATOM      5  C5  BNZ d   1      -0.046   2.864   0.018  0.00  0.00     0.000 A 
ATOM      6  C6  BNZ d   1       0.522   1.736  -0.527  0.00  0.00     0.000 A 
ENDROOT
TORSDOF 0
ENDMDL
