MODEL 1
REMARK minimizedAffinity -4.97086143
REMARK minimizedRMSD -1
REMARK  0 active torsions:
REMARK  status: ('A' for Active; 'I' for Inactive)
ROOT
ATOM      1  C1  BNZ d   1      -1.970   0.101   0.154  0.00  0.00     0.000 A 
ATOM      2  C2  BNZ d   1      -2.677   1.162   0.655  0.00  0.00     0.000 A 
ATOM      3  C3  BNZ d   1      -2.036   2.204   1.265  0.00  0.00     0.000 A 
ATOM      4  C4  BNZ d   1      -0.695   2.165   1.409  0.00  0.00     0.000 A 
ATOM      5  C5  BNZ d   1       0.030   1.098   0.918  0.00  0.00     0.000 A 
ATOM      6  C6  BNZ d   1      -0.615   0.070   0.270  0.00  0.00     0.000 A 
ENDROOT
TORSDOF 0
ENDMDL
