MODEL 1
REMARK minimizedAffinity -3.78058243
REMARK minimizedRMSD -1
REMARK  1 active torsions:
REMARK  status: ('A' for Active; 'I' for Inactive)
REMARK    1  A    between atoms: C1_2  and  C2_3 
ROOT
ATOM      1  C2  UNL d   1       0.365  -2.089  -0.908  0.00  0.00    -0.077 A 
ATOM      2  C3  UNL d   1      -0.132  -1.775   0.364  0.00  0.00     0.002 A 
ATOM      3  C4  UNL d   1      -0.019  -0.477   0.866  0.00  0.00     0.002 A 
ATOM      4  C5  UNL d   1       0.587   0.517   0.100  0.00  0.00    -0.004 A 
ATOM      5  C6  UNL d   1       1.086   0.214  -1.166  0.00  0.00     0.002 A 
ATOM      6  C7  UNL d   1       0.975  -1.083  -1.668  0.00  0.00     0.002 A 
ENDROOT
BRANCH   1   7
ATOM      7  C1  UNL d   1       0.200  -3.477  -1.471  0.00  0.00     0.055 C 
ATOM      8  C   UNL d   1      -1.061  -3.586  -2.315  0.00  0.00     0.019 C 
ENDBRANCH   1   7
TORSDOF 1
ENDMDL
