MODEL 1
REMARK minimizedAffinity -2.928936
REMARK minimizedRMSD -1
REMARK  1 active torsions:
REMARK  status: ('A' for Active; 'I' for Inactive)
REMARK    1  A    between atoms: C1_2  and  C2_3 
ROOT
ATOM      1  C2  UNL d   1       0.784  -1.828  -0.325  0.00  0.00    -0.077 A 
ATOM      2  C3  UNL d   1       1.441  -1.442   0.852  0.00  0.00     0.002 A 
ATOM      3  C4  UNL d   1       1.176  -0.201   1.434  0.00  0.00     0.002 A 
ATOM      4  C5  UNL d   1       0.252   0.662   0.849  0.00  0.00    -0.004 A 
ATOM      5  C6  UNL d   1      -0.405   0.288  -0.323  0.00  0.00     0.002 A 
ATOM      6  C7  UNL d   1      -0.141  -0.951  -0.907  0.00  0.00     0.002 A 
ENDROOT
BRANCH   1   7
ATOM      7  C1  UNL d   1       1.032  -3.186  -0.927  0.00  0.00     0.055 C 
ATOM      8  C   UNL d   1      -0.275  -3.908  -1.222  0.00  0.00     0.019 C 
ENDBRANCH   1   7
TORSDOF 1
ENDMDL
