MODEL 1
REMARK minimizedAffinity -4.40474224
REMARK minimizedRMSD -1
REMARK  1 active torsions:
REMARK  status: ('A' for Active; 'I' for Inactive)
REMARK    1  A    between atoms: C1_2  and  C2_3 
ROOT
ATOM      1  C2  UNL d   1       0.035   0.346   0.143  0.00  0.00    -0.077 A 
ATOM      2  C3  UNL d   1      -0.817   1.394  -0.234  0.00  0.00     0.002 A 
ATOM      3  C4  UNL d   1      -1.427   2.192   0.736  0.00  0.00     0.002 A 
ATOM      4  C5  UNL d   1      -1.190   1.953   2.088  0.00  0.00    -0.004 A 
ATOM      5  C6  UNL d   1      -0.346   0.912   2.473  0.00  0.00     0.002 A 
ATOM      6  C7  UNL d   1       0.264   0.112   1.505  0.00  0.00     0.002 A 
ENDROOT
BRANCH   1   7
ATOM      7  C1  UNL d   1       0.733  -0.485  -0.902  0.00  0.00     0.055 C 
ATOM      8  C   UNL d   1       0.152  -1.890  -0.971  0.00  0.00     0.019 C 
ENDBRANCH   1   7
TORSDOF 1
ENDMDL
