MODEL 1
REMARK minimizedAffinity -3.63913083
REMARK minimizedRMSD -1
REMARK  1 active torsions:
REMARK  status: ('A' for Active; 'I' for Inactive)
REMARK    1  A    between atoms: C1_2  and  C2_3 
ROOT
ATOM      1  C2  UNL d   1       0.673  -0.227  -0.502  0.00  0.00    -0.077 A 
ATOM      2  C3  UNL d   1       0.696  -0.013   0.884  0.00  0.00     0.002 A 
ATOM      3  C4  UNL d   1       0.374   1.239   1.410  0.00  0.00     0.002 A 
ATOM      4  C5  UNL d   1       0.023   2.286   0.560  0.00  0.00    -0.004 A 
ATOM      5  C6  UNL d   1      -0.001   2.083  -0.820  0.00  0.00     0.002 A 
ATOM      6  C7  UNL d   1       0.322   0.833  -1.348  0.00  0.00     0.002 A 
ENDROOT
BRANCH   1   7
ATOM      7  C1  UNL d   1       0.972  -1.590  -1.069  0.00  0.00     0.055 C 
ATOM      8  C   UNL d   1      -0.303  -2.396  -1.274  0.00  0.00     0.019 C 
ENDBRANCH   1   7
TORSDOF 1
ENDMDL
