MODEL 1
REMARK minimizedAffinity -0.207710534
REMARK minimizedRMSD -1
REMARK  0 active torsions:
REMARK  status: ('A' for Active; 'I' for Inactive)
ROOT
ATOM      1  C2' OXE d   1       2.608   3.500  -3.387  0.00  0.00     0.078 C 
ATOM      2  C1' OXE d   1       2.077   6.000  -4.549  0.00  0.00     0.078 C 
ATOM      3  C1  OXE d   1       3.413   5.361  -4.834  0.00  0.00    -0.078 A 
ATOM      4  C2  OXE d   1       3.683   4.160  -4.223  0.00  0.00    -0.078 A 
ATOM      5  C3  OXE d   1       4.878   3.501  -4.495  0.00  0.00     0.003 A 
ATOM      6  C4  OXE d   1       5.871   4.123  -5.262  0.00  0.00    -0.002 A 
ATOM      7  C5  OXE d   1       5.633   5.364  -5.861  0.00  0.00    -0.002 A 
ATOM      8  C6  OXE d   1       4.396   5.976  -5.692  0.00  0.00     0.003 A 
ENDROOT
TORSDOF 0
ENDMDL
