MODEL 1
REMARK minimizedAffinity 6.28283978
REMARK minimizedRMSD -1
REMARK  0 active torsions:
REMARK  status: ('A' for Active; 'I' for Inactive)
ROOT
ATOM      1  C2' OXE d   1      -2.749  -3.452  -1.365  0.00  0.00     0.078 C 
ATOM      2  C1' OXE d   1      -2.451  -5.999  -2.507  0.00  0.00     0.078 C 
ATOM      3  C1  OXE d   1      -3.700  -5.222  -2.837  0.00  0.00    -0.078 A 
ATOM      4  C2  OXE d   1      -3.860  -3.996  -2.237  0.00  0.00    -0.078 A 
ATOM      5  C3  OXE d   1      -4.968  -3.214  -2.550  0.00  0.00     0.003 A 
ATOM      6  C4  OXE d   1      -5.996  -3.729  -3.350  0.00  0.00    -0.002 A 
ATOM      7  C5  OXE d   1      -5.872  -4.992  -3.939  0.00  0.00    -0.002 A 
ATOM      8  C6  OXE d   1      -4.714  -5.732  -3.728  0.00  0.00     0.003 A 
ENDROOT
TORSDOF 0
ENDMDL
