MODEL 1
REMARK minimizedAffinity 10.6195164
REMARK minimizedRMSD -1
REMARK  0 active torsions:
REMARK  status: ('A' for Active; 'I' for Inactive)
ROOT
ATOM      1  C2' OXE d   1       0.503   0.282   2.971  0.00  0.00     0.078 C 
ATOM      2  C1' OXE d   1      -1.710   2.005   3.078  0.00  0.00     0.078 C 
ATOM      3  C1  OXE d   1      -0.543   2.411   2.212  0.00  0.00    -0.078 A 
ATOM      4  C2  OXE d   1       0.554   1.585   2.203  0.00  0.00    -0.078 A 
ATOM      5  C3  OXE d   1       1.636   1.885   1.379  0.00  0.00     0.003 A 
ATOM      6  C4  OXE d   1       1.680   3.097   0.680  0.00  0.00    -0.002 A 
ATOM      7  C5  OXE d   1       0.589   3.972   0.707  0.00  0.00    -0.002 A 
ATOM      8  C6  OXE d   1      -0.545   3.625   1.433  0.00  0.00     0.003 A 
ENDROOT
TORSDOF 0
ENDMDL
