MODEL 1
REMARK minimizedAffinity 6.14538574
REMARK minimizedRMSD -1
REMARK  0 active torsions:
REMARK  status: ('A' for Active; 'I' for Inactive)
ROOT
ATOM      1  C2' OXE d   1       2.835   1.006   0.213  0.00  0.00     0.078 C 
ATOM      2  C1' OXE d   1       1.294  -1.319  -0.102  0.00  0.00     0.078 C 
ATOM      3  C1  OXE d   1       0.948  -0.125  -0.956  0.00  0.00    -0.078 A 
ATOM      4  C2  OXE d   1       1.677   1.024  -0.762  0.00  0.00    -0.078 A 
ATOM      5  C3  OXE d   1       1.435   2.137  -1.561  0.00  0.00     0.003 A 
ATOM      6  C4  OXE d   1       0.356   2.149  -2.453  0.00  0.00    -0.002 A 
ATOM      7  C5  OXE d   1      -0.424   1.002  -2.638  0.00  0.00    -0.002 A 
ATOM      8  C6  OXE d   1      -0.116  -0.154  -1.929  0.00  0.00     0.003 A 
ENDROOT
TORSDOF 0
ENDMDL
