MODEL 1
REMARK minimizedAffinity -1.24803805
REMARK minimizedRMSD -1
REMARK  0 active torsions:
REMARK  status: ('A' for Active; 'I' for Inactive)
ROOT
ATOM      1  C2' OXE d   1      -5.244  -0.370   2.577  0.00  0.00     0.078 C 
ATOM      2  C1' OXE d   1      -6.000  -0.943   5.219  0.00  0.00     0.078 C 
ATOM      3  C1  OXE d   1      -5.327   0.380   4.951  0.00  0.00    -0.078 A 
ATOM      4  C2  OXE d   1      -4.919   0.632   3.664  0.00  0.00    -0.078 A 
ATOM      5  C3  OXE d   1      -4.342   1.860   3.352  0.00  0.00     0.003 A 
ATOM      6  C4  OXE d   1      -4.036   2.777   4.364  0.00  0.00    -0.002 A 
ATOM      7  C5  OXE d   1      -4.407   2.523   5.689  0.00  0.00    -0.002 A 
ATOM      8  C6  OXE d   1      -5.091   1.350   5.992  0.00  0.00     0.003 A 
ENDROOT
TORSDOF 0
ENDMDL
