MODEL 1
REMARK minimizedAffinity 3.02014542
REMARK minimizedRMSD -1
REMARK  0 active torsions:
REMARK  status: ('A' for Active; 'I' for Inactive)
ROOT
ATOM      1  C2' OXE d   1      -2.658  -4.947  -1.809  0.00  0.00     0.078 C 
ATOM      2  C1' OXE d   1      -3.339  -2.254  -1.405  0.00  0.00     0.078 C 
ATOM      3  C1  OXE d   1      -2.076  -2.766  -0.757  0.00  0.00    -0.078 A 
ATOM      4  C2  OXE d   1      -1.776  -4.096  -0.921  0.00  0.00    -0.078 A 
ATOM      5  C3  OXE d   1      -0.595  -4.607  -0.391  0.00  0.00     0.003 A 
ATOM      6  C4  OXE d   1       0.211  -3.816   0.437  0.00  0.00    -0.002 A 
ATOM      7  C5  OXE d   1      -0.098  -2.468   0.650  0.00  0.00    -0.002 A 
ATOM      8  C6  OXE d   1      -1.212  -1.918   0.027  0.00  0.00     0.003 A 
ENDROOT
TORSDOF 0
ENDMDL
