MODEL 1
REMARK minimizedAffinity 4.28937244
REMARK minimizedRMSD -1
REMARK  0 active torsions:
REMARK  status: ('A' for Active; 'I' for Inactive)
ROOT
ATOM      1  C2' OXE d   1       4.042  -0.418  -1.046  0.00  0.00     0.078 C 
ATOM      2  C1' OXE d   1       2.017   1.227  -2.084  0.00  0.00     0.078 C 
ATOM      3  C1  OXE d   1       2.237   1.238  -0.592  0.00  0.00    -0.078 A 
ATOM      4  C2  OXE d   1       3.198   0.395  -0.088  0.00  0.00    -0.078 A 
ATOM      5  C3  OXE d   1       3.479   0.406   1.275  0.00  0.00     0.003 A 
ATOM      6  C4  OXE d   1       2.687   1.153   2.156  0.00  0.00    -0.002 A 
ATOM      7  C5  OXE d   1       1.676   1.988   1.667  0.00  0.00    -0.002 A 
ATOM      8  C6  OXE d   1       1.467   2.074   0.295  0.00  0.00     0.003 A 
ENDROOT
TORSDOF 0
ENDMDL
