MODEL 1
REMARK minimizedAffinity 0.321646661
REMARK minimizedRMSD -1
REMARK  0 active torsions:
REMARK  status: ('A' for Active; 'I' for Inactive)
ROOT
ATOM      1  C2' OXE d   1       0.228  -1.906   1.452  0.00  0.00     0.078 C 
ATOM      2  C1' OXE d   1       2.161  -0.815  -0.266  0.00  0.00     0.078 C 
ATOM      3  C1  OXE d   1       1.461   0.119   0.688  0.00  0.00    -0.078 A 
ATOM      4  C2  OXE d   1       0.483  -0.415   1.493  0.00  0.00    -0.078 A 
ATOM      5  C3  OXE d   1      -0.156   0.392   2.430  0.00  0.00     0.003 A 
ATOM      6  C4  OXE d   1       0.079   1.772   2.455  0.00  0.00    -0.002 A 
ATOM      7  C5  OXE d   1       1.042   2.343   1.616  0.00  0.00    -0.002 A 
ATOM      8  C6  OXE d   1       1.771   1.526   0.759  0.00  0.00     0.003 A 
ENDROOT
TORSDOF 0
ENDMDL
