MODEL 1
REMARK minimizedAffinity 7.35721302
REMARK minimizedRMSD -1
REMARK  0 active torsions:
REMARK  status: ('A' for Active; 'I' for Inactive)
ROOT
ATOM      1  C2' OXE d   1      -0.494   0.172  -3.548  0.00  0.00     0.078 C 
ATOM      2  C1' OXE d   1       0.847   2.635  -3.671  0.00  0.00     0.078 C 
ATOM      3  C1  OXE d   1       1.391   1.584  -2.735  0.00  0.00    -0.078 A 
ATOM      4  C2  OXE d   1       0.701   0.399  -2.647  0.00  0.00    -0.078 A 
ATOM      5  C3  OXE d   1       1.190  -0.624  -1.840  0.00  0.00     0.003 A 
ATOM      6  C4  OXE d   1       2.290  -0.403  -1.002  0.00  0.00    -0.002 A 
ATOM      7  C5  OXE d   1       2.983   0.811  -1.047  0.00  0.00    -0.002 A 
ATOM      8  C6  OXE d   1       2.573   1.798  -1.938  0.00  0.00     0.003 A 
ENDROOT
TORSDOF 0
ENDMDL
