MODEL 1
REMARK minimizedAffinity 7.4914012
REMARK minimizedRMSD -1
REMARK  0 active torsions:
REMARK  status: ('A' for Active; 'I' for Inactive)
ROOT
ATOM      1  C2' OXE d   1       0.901   1.871   2.622  0.00  0.00     0.078 C 
ATOM      2  C1' OXE d   1       2.372   3.778   1.180  0.00  0.00     0.078 C 
ATOM      3  C1  OXE d   1       2.286   2.382   0.615  0.00  0.00    -0.078 A 
ATOM      4  C2  OXE d   1       1.603   1.443   1.351  0.00  0.00    -0.078 A 
ATOM      5  C3  OXE d   1       1.447   0.154   0.849  0.00  0.00     0.003 A 
ATOM      6  C4  OXE d   1       2.108  -0.235  -0.322  0.00  0.00    -0.002 A 
ATOM      7  C5  OXE d   1       2.842   0.695  -1.066  0.00  0.00    -0.002 A 
ATOM      8  C6  OXE d   1       2.905   2.015  -0.634  0.00  0.00     0.003 A 
ENDROOT
TORSDOF 0
ENDMDL
