MODEL 1
REMARK minimizedAffinity 3.94276118
REMARK minimizedRMSD -1
REMARK  0 active torsions:
REMARK  status: ('A' for Active; 'I' for Inactive)
ROOT
ATOM      1  C2' OXE d   1      -0.208  -1.093   0.297  0.00  0.00     0.078 C 
ATOM      2  C1' OXE d   1       0.312   0.275   2.693  0.00  0.00     0.078 C 
ATOM      3  C1  OXE d   1       1.041   0.727   1.452  0.00  0.00    -0.078 A 
ATOM      4  C2  OXE d   1       0.816   0.022   0.295  0.00  0.00    -0.078 A 
ATOM      5  C3  OXE d   1       1.421   0.431  -0.890  0.00  0.00     0.003 A 
ATOM      6  C4  OXE d   1       2.374   1.457  -0.882  0.00  0.00    -0.002 A 
ATOM      7  C5  OXE d   1       2.648   2.162   0.295  0.00  0.00    -0.002 A 
ATOM      8  C6  OXE d   1       1.961   1.838   1.459  0.00  0.00     0.003 A 
ENDROOT
TORSDOF 0
ENDMDL
