MODEL 1
REMARK minimizedAffinity 8.36707401
REMARK minimizedRMSD -1
REMARK  0 active torsions:
REMARK  status: ('A' for Active; 'I' for Inactive)
ROOT
ATOM      1  C2' OXE d   1       0.622  -1.153  -2.519  0.00  0.00     0.078 C 
ATOM      2  C1' OXE d   1      -0.053   1.534  -2.966  0.00  0.00     0.078 C 
ATOM      3  C1  OXE d   1       0.793   1.213  -1.760  0.00  0.00    -0.078 A 
ATOM      4  C2  OXE d   1       1.080  -0.110  -1.523  0.00  0.00    -0.078 A 
ATOM      5  C3  OXE d   1       1.903  -0.457  -0.455  0.00  0.00     0.003 A 
ATOM      6  C4  OXE d   1       2.313   0.513   0.467  0.00  0.00    -0.002 A 
ATOM      7  C5  OXE d   1       1.999   1.862   0.267  0.00  0.00    -0.002 A 
ATOM      8  C6  OXE d   1       1.277   2.233  -0.862  0.00  0.00     0.003 A 
ENDROOT
TORSDOF 0
ENDMDL
