MODEL 1
REMARK minimizedAffinity 13.0386763
REMARK minimizedRMSD -1
REMARK  0 active torsions:
REMARK  status: ('A' for Active; 'I' for Inactive)
ROOT
ATOM      1  C2' OXE d   1      -1.827  -5.281  -3.763  0.00  0.00     0.078 C 
ATOM      2  C1' OXE d   1      -2.499  -3.188  -2.018  0.00  0.00     0.078 C 
ATOM      3  C1  OXE d   1      -3.607  -4.099  -2.484  0.00  0.00    -0.078 A 
ATOM      4  C2  OXE d   1      -3.277  -5.092  -3.374  0.00  0.00    -0.078 A 
ATOM      5  C3  OXE d   1      -4.251  -5.994  -3.793  0.00  0.00     0.003 A 
ATOM      6  C4  OXE d   1      -5.592  -5.805  -3.437  0.00  0.00    -0.002 A 
ATOM      7  C5  OXE d   1      -5.956  -4.776  -2.562  0.00  0.00    -0.002 A 
ATOM      8  C6  OXE d   1      -4.971  -3.941  -2.044  0.00  0.00     0.003 A 
ENDROOT
TORSDOF 0
ENDMDL
