MODEL 1
REMARK minimizedAffinity 5.38314676
REMARK minimizedRMSD -1
REMARK  0 active torsions:
REMARK  status: ('A' for Active; 'I' for Inactive)
ROOT
ATOM      1  C2' OXE d   1       1.219   2.856  -2.642  0.00  0.00     0.078 C 
ATOM      2  C1' OXE d   1       3.002   2.103  -0.609  0.00  0.00     0.078 C 
ATOM      3  C1  OXE d   1       2.111   1.036  -1.193  0.00  0.00    -0.078 A 
ATOM      4  C2  OXE d   1       1.209   1.423  -2.155  0.00  0.00    -0.078 A 
ATOM      5  C3  OXE d   1       0.401   0.468  -2.766  0.00  0.00     0.003 A 
ATOM      6  C4  OXE d   1       0.391  -0.853  -2.303  0.00  0.00    -0.002 A 
ATOM      7  C5  OXE d   1       1.274  -1.260  -1.297  0.00  0.00    -0.002 A 
ATOM      8  C6  OXE d   1       2.168  -0.339  -0.763  0.00  0.00     0.003 A 
ENDROOT
TORSDOF 0
ENDMDL
