MODEL 1
REMARK minimizedAffinity 5.19079161
REMARK minimizedRMSD -1
REMARK  0 active torsions:
REMARK  status: ('A' for Active; 'I' for Inactive)
ROOT
ATOM      1  C2' OXE d   1       2.506  -0.181  -0.888  0.00  0.00     0.078 C 
ATOM      2  C1' OXE d   1       2.329   2.211  -2.348  0.00  0.00     0.078 C 
ATOM      3  C1  OXE d   1       2.016   2.262  -0.873  0.00  0.00    -0.078 A 
ATOM      4  C2  OXE d   1       2.059   1.078  -0.176  0.00  0.00    -0.078 A 
ATOM      5  C3  OXE d   1       1.832   1.079   1.197  0.00  0.00     0.003 A 
ATOM      6  C4  OXE d   1       1.409   2.245   1.846  0.00  0.00    -0.002 A 
ATOM      7  C5  OXE d   1       1.320   3.454   1.146  0.00  0.00    -0.002 A 
ATOM      8  C6  OXE d   1       1.660   3.487  -0.202  0.00  0.00     0.003 A 
ENDROOT
TORSDOF 0
ENDMDL
