MODEL 1
REMARK minimizedAffinity 4.03613853
REMARK minimizedRMSD -1
REMARK  0 active torsions:
REMARK  status: ('A' for Active; 'I' for Inactive)
ROOT
ATOM      1  C2' OXE d   1       1.954  -0.106   0.326  0.00  0.00     0.078 C 
ATOM      2  C1' OXE d   1       3.054   2.010   1.806  0.00  0.00     0.078 C 
ATOM      3  C1  OXE d   1       1.565   1.790   1.895  0.00  0.00    -0.078 A 
ATOM      4  C2  OXE d   1       1.028   0.781   1.130  0.00  0.00    -0.078 A 
ATOM      5  C3  OXE d   1      -0.332   0.501   1.217  0.00  0.00     0.003 A 
ATOM      6  C4  OXE d   1      -1.182   1.332   1.955  0.00  0.00    -0.002 A 
ATOM      7  C5  OXE d   1      -0.662   2.389   2.710  0.00  0.00    -0.002 A 
ATOM      8  C6  OXE d   1       0.712   2.605   2.724  0.00  0.00     0.003 A 
ENDROOT
TORSDOF 0
ENDMDL
