MODEL 1
REMARK minimizedAffinity 2.28021979
REMARK minimizedRMSD -1
REMARK  0 active torsions:
REMARK  status: ('A' for Active; 'I' for Inactive)
ROOT
ATOM      1  C2' OXE d   1      -4.329  -4.408  -2.282  0.00  0.00     0.078 C 
ATOM      2  C1' OXE d   1      -1.958  -5.124  -3.604  0.00  0.00     0.078 C 
ATOM      3  C1  OXE d   1      -1.989  -5.243  -2.101  0.00  0.00    -0.078 A 
ATOM      4  C2  OXE d   1      -3.137  -4.846  -1.458  0.00  0.00    -0.078 A 
ATOM      5  C3  OXE d   1      -3.238  -4.986  -0.077  0.00  0.00     0.003 A 
ATOM      6  C4  OXE d   1      -2.127  -5.382   0.678  0.00  0.00    -0.002 A 
ATOM      7  C5  OXE d   1      -0.935  -5.753   0.047  0.00  0.00    -0.002 A 
ATOM      8  C6  OXE d   1      -0.863  -5.729  -1.342  0.00  0.00     0.003 A 
ENDROOT
TORSDOF 0
ENDMDL
