MODEL 1
REMARK minimizedAffinity 4.57136059
REMARK minimizedRMSD -1
REMARK  0 active torsions:
REMARK  status: ('A' for Active; 'I' for Inactive)
ROOT
ATOM      1  C2' OXE d   1       2.038  -1.227  -1.708  0.00  0.00     0.078 C 
ATOM      2  C1' OXE d   1       0.794   0.247   0.332  0.00  0.00     0.078 C 
ATOM      3  C1  OXE d   1       0.518   0.649  -1.096  0.00  0.00    -0.078 A 
ATOM      4  C2  OXE d   1       1.167  -0.048  -2.086  0.00  0.00    -0.078 A 
ATOM      5  C3  OXE d   1       0.906   0.246  -3.421  0.00  0.00     0.003 A 
ATOM      6  C4  OXE d   1       0.108   1.344  -3.762  0.00  0.00    -0.002 A 
ATOM      7  C5  OXE d   1      -0.532   2.093  -2.768  0.00  0.00    -0.002 A 
ATOM      8  C6  OXE d   1      -0.372   1.732  -1.434  0.00  0.00     0.003 A 
ENDROOT
TORSDOF 0
ENDMDL
