MODEL 1
REMARK minimizedAffinity 7.8314085
REMARK minimizedRMSD -1
REMARK  0 active torsions:
REMARK  status: ('A' for Active; 'I' for Inactive)
ROOT
ATOM      1  C2' OXE d   1      -0.482  -0.512  -3.413  0.00  0.00     0.078 C 
ATOM      2  C1' OXE d   1       0.231   2.203  -3.446  0.00  0.00     0.078 C 
ATOM      3  C1  OXE d   1       0.828   1.332  -2.370  0.00  0.00    -0.078 A 
ATOM      4  C2  OXE d   1       0.437   0.015  -2.333  0.00  0.00    -0.078 A 
ATOM      5  C3  OXE d   1       1.000  -0.845  -1.394  0.00  0.00     0.003 A 
ATOM      6  C4  OXE d   1       1.842  -0.348  -0.392  0.00  0.00    -0.002 A 
ATOM      7  C5  OXE d   1       2.221   0.999  -0.387  0.00  0.00    -0.002 A 
ATOM      8  C6  OXE d   1       1.758   1.841  -1.392  0.00  0.00     0.003 A 
ENDROOT
TORSDOF 0
ENDMDL
