MODEL 1
REMARK minimizedAffinity 3.70801663
REMARK minimizedRMSD -1
REMARK  0 active torsions:
REMARK  status: ('A' for Active; 'I' for Inactive)
ROOT
ATOM      1  C2' OXE d   1      -0.741   1.390   2.260  0.00  0.00     0.078 C 
ATOM      2  C1' OXE d   1       1.463   1.996   3.890  0.00  0.00     0.078 C 
ATOM      3  C1  OXE d   1       1.737   1.497   2.493  0.00  0.00    -0.078 A 
ATOM      4  C2  OXE d   1       0.653   1.159   1.719  0.00  0.00    -0.078 A 
ATOM      5  C3  OXE d   1       0.848   0.745   0.404  0.00  0.00     0.003 A 
ATOM      6  C4  OXE d   1       2.140   0.524  -0.086  0.00  0.00    -0.002 A 
ATOM      7  C5  OXE d   1       3.258   0.825   0.700  0.00  0.00    -0.002 A 
ATOM      8  C6  OXE d   1       3.074   1.352   1.973  0.00  0.00     0.003 A 
ENDROOT
TORSDOF 0
ENDMDL
