MODEL 1
REMARK minimizedAffinity 2.56017518
REMARK minimizedRMSD -1
REMARK  0 active torsions:
REMARK  status: ('A' for Active; 'I' for Inactive)
ROOT
ATOM      1  O1  BZF d   1       0.633  -2.909  -1.116  0.00  0.00    -0.204 OA
ATOM      2  C2  BZF d   1      -0.601  -2.377  -0.794  0.00  0.00     0.174 A 
ATOM      3  C3  BZF d   1      -0.493  -1.066  -0.496  0.00  0.00    -0.012 A 
ATOM      4  C3A BZF d   1       0.880  -0.738  -0.731  0.00  0.00    -0.107 A 
ATOM      5  C4  BZF d   1       1.601   0.417  -0.627  0.00  0.00     0.055 A 
ATOM      6  C5  BZF d   1       2.940   0.383  -0.858  0.00  0.00    -0.016 A 
ATOM      7  C6  BZF d   1       3.590  -0.787  -1.189  0.00  0.00     0.022 A 
ATOM      8  C7  BZF d   1       2.917  -1.958  -1.309  0.00  0.00     0.029 A 
ATOM      9  C7A BZF d   1       1.559  -1.920  -1.108  0.00  0.00     0.058 A 
ENDROOT
TORSDOF 0
ENDMDL
