MODEL 1
REMARK minimizedAffinity 11.1869287
REMARK minimizedRMSD -1
REMARK  0 active torsions:
REMARK  status: ('A' for Active; 'I' for Inactive)
ROOT
ATOM      1  O1  BZF d   1       0.275  -4.348   0.296  0.00  0.00    -0.204 OA
ATOM      2  C2  BZF d   1      -0.911  -5.052   0.221  0.00  0.00     0.174 A 
ATOM      3  C3  BZF d   1      -1.867  -4.316  -0.380  0.00  0.00    -0.012 A 
ATOM      4  C3A BZF d   1      -1.215  -3.108  -0.784  0.00  0.00    -0.107 A 
ATOM      5  C4  BZF d   1      -1.636  -1.989  -1.443  0.00  0.00     0.055 A 
ATOM      6  C5  BZF d   1      -0.767  -0.958  -1.615  0.00  0.00    -0.016 A 
ATOM      7  C6  BZF d   1       0.526  -1.010  -1.137  0.00  0.00     0.022 A 
ATOM      8  C7  BZF d   1       0.991  -2.102  -0.481  0.00  0.00     0.029 A 
ATOM      9  C7A BZF d   1       0.125  -3.158  -0.335  0.00  0.00     0.058 A 
ENDROOT
TORSDOF 0
ENDMDL
