MODEL 1
REMARK minimizedAffinity -3.33192992
REMARK minimizedRMSD -1
REMARK  0 active torsions:
REMARK  status: ('A' for Active; 'I' for Inactive)
ROOT
ATOM      1  O1  BZF d   1      -0.552  -2.822  -1.394  0.00  0.00    -0.204 OA
ATOM      2  C2  BZF d   1       0.441  -3.260  -0.539  0.00  0.00     0.174 A 
ATOM      3  C3  BZF d   1       1.136  -2.217  -0.038  0.00  0.00    -0.012 A 
ATOM      4  C3A BZF d   1       0.480  -1.051  -0.545  0.00  0.00    -0.107 A 
ATOM      5  C4  BZF d   1       0.694   0.289  -0.388  0.00  0.00     0.055 A 
ATOM      6  C5  BZF d   1      -0.081   1.167  -1.078  0.00  0.00    -0.016 A 
ATOM      7  C6  BZF d   1      -1.074   0.740  -1.935  0.00  0.00     0.022 A 
ATOM      8  C7  BZF d   1      -1.327  -0.578  -2.120  0.00  0.00     0.029 A 
ATOM      9  C7A BZF d   1      -0.567  -1.467  -1.399  0.00  0.00     0.058 A 
ENDROOT
TORSDOF 0
ENDMDL
