MODEL 1
REMARK minimizedAffinity 14.9188919
REMARK minimizedRMSD -1
REMARK  0 active torsions:
REMARK  status: ('A' for Active; 'I' for Inactive)
ROOT
ATOM      1  O1  BZF d   1      -4.736   0.722  -0.435  0.00  0.00    -0.204 OA
ATOM      2  C2  BZF d   1      -4.380   1.733   0.436  0.00  0.00     0.174 A 
ATOM      3  C3  BZF d   1      -3.078   2.052   0.292  0.00  0.00    -0.012 A 
ATOM      4  C3A BZF d   1      -2.612   1.250  -0.797  0.00  0.00    -0.107 A 
ATOM      5  C4  BZF d   1      -1.405   1.129  -1.425  0.00  0.00     0.055 A 
ATOM      6  C5  BZF d   1      -1.262   0.202  -2.408  0.00  0.00    -0.016 A 
ATOM      7  C6  BZF d   1      -2.301  -0.624  -2.784  0.00  0.00     0.022 A 
ATOM      8  C7  BZF d   1      -3.518  -0.538  -2.193  0.00  0.00     0.029 A 
ATOM      9  C7A BZF d   1      -3.675   0.421  -1.222  0.00  0.00     0.058 A 
ENDROOT
TORSDOF 0
ENDMDL
