MODEL 1
REMARK minimizedAffinity 13.9133348
REMARK minimizedRMSD -1
REMARK  0 active torsions:
REMARK  status: ('A' for Active; 'I' for Inactive)
ROOT
ATOM      1  O1  BZF d   1       5.006  -2.419   1.337  0.00  0.00    -0.204 OA
ATOM      2  C2  BZF d   1       5.713  -1.290   1.704  0.00  0.00     0.174 A 
ATOM      3  C3  BZF d   1       5.280  -0.212   1.018  0.00  0.00    -0.012 A 
ATOM      4  C3A BZF d   1       4.177  -0.680   0.237  0.00  0.00    -0.107 A 
ATOM      5  C4  BZF d   1       3.323  -0.074  -0.639  0.00  0.00     0.055 A 
ATOM      6  C5  BZF d   1       2.399  -0.829  -1.290  0.00  0.00    -0.016 A 
ATOM      7  C6  BZF d   1       2.305  -2.191  -1.093  0.00  0.00     0.022 A 
ATOM      8  C7  BZF d   1       3.127  -2.836  -0.230  0.00  0.00     0.029 A 
ATOM      9  C7A BZF d   1       4.040  -2.071   0.454  0.00  0.00     0.058 A 
ENDROOT
TORSDOF 0
ENDMDL
