MODEL 1
REMARK minimizedAffinity 5.33647346
REMARK minimizedRMSD -1
REMARK  0 active torsions:
REMARK  status: ('A' for Active; 'I' for Inactive)
ROOT
ATOM      1  O1  BZF d   1       3.793   1.877   2.177  0.00  0.00    -0.204 OA
ATOM      2  C2  BZF d   1       4.762   2.814   2.479  0.00  0.00     0.174 A 
ATOM      3  C3  BZF d   1       5.463   3.149   1.377  0.00  0.00    -0.012 A 
ATOM      4  C3A BZF d   1       4.837   2.441   0.303  0.00  0.00    -0.107 A 
ATOM      5  C4  BZF d   1       5.070   2.377  -1.041  0.00  0.00     0.055 A 
ATOM      6  C5  BZF d   1       4.324   1.534  -1.802  0.00  0.00    -0.016 A 
ATOM      7  C6  BZF d   1       3.341   0.737  -1.251  0.00  0.00     0.022 A 
ATOM      8  C7  BZF d   1       3.070   0.770   0.077  0.00  0.00     0.029 A 
ATOM      9  C7A BZF d   1       3.800   1.646   0.842  0.00  0.00     0.058 A 
ENDROOT
TORSDOF 0
ENDMDL
