MODEL 1
REMARK minimizedAffinity 4.75212622
REMARK minimizedRMSD -1
REMARK  0 active torsions:
REMARK  status: ('A' for Active; 'I' for Inactive)
ROOT
ATOM      1  O1  BZF d   1       4.375   2.798  -2.037  0.00  0.00    -0.204 OA
ATOM      2  C2  BZF d   1       5.123   3.890  -1.641  0.00  0.00     0.174 A 
ATOM      3  C3  BZF d   1       5.122   4.008  -0.297  0.00  0.00    -0.012 A 
ATOM      4  C3A BZF d   1       4.399   2.868   0.180  0.00  0.00    -0.107 A 
ATOM      5  C4  BZF d   1       4.073   2.418   1.427  0.00  0.00     0.055 A 
ATOM      6  C5  BZF d   1       3.296   1.310   1.547  0.00  0.00    -0.016 A 
ATOM      7  C6  BZF d   1       2.823   0.632   0.443  0.00  0.00     0.022 A 
ATOM      8  C7  BZF d   1       3.124   1.037  -0.815  0.00  0.00     0.029 A 
ATOM      9  C7A BZF d   1       3.937   2.137  -0.939  0.00  0.00     0.058 A 
ENDROOT
TORSDOF 0
ENDMDL
