MODEL 1
REMARK minimizedAffinity 14.3777399
REMARK minimizedRMSD -1
REMARK  0 active torsions:
REMARK  status: ('A' for Active; 'I' for Inactive)
ROOT
ATOM      1  O1  BZF d   1       4.606   3.515   0.643  0.00  0.00    -0.204 OA
ATOM      2  C2  BZF d   1       4.856   3.227   1.971  0.00  0.00     0.174 A 
ATOM      3  C3  BZF d   1       4.475   1.967   2.267  0.00  0.00    -0.012 A 
ATOM      4  C3A BZF d   1       4.040   1.404   1.025  0.00  0.00    -0.107 A 
ATOM      5  C4  BZF d   1       3.561   0.176   0.668  0.00  0.00     0.055 A 
ATOM      6  C5  BZF d   1       3.158  -0.028  -0.614  0.00  0.00    -0.016 A 
ATOM      7  C6  BZF d   1       3.215   0.973  -1.561  0.00  0.00     0.022 A 
ATOM      8  C7  BZF d   1       3.687   2.206  -1.255  0.00  0.00     0.029 A 
ATOM      9  C7A BZF d   1       4.126   2.406   0.031  0.00  0.00     0.058 A 
ENDROOT
TORSDOF 0
ENDMDL
