MODEL 1
REMARK minimizedAffinity -6.46379185
REMARK minimizedRMSD -1
REMARK  1 active torsions:
REMARK  status: ('A' for Active; 'I' for Inactive)
REMARK    1  A    between atoms: C1_2  and  C2_3 
ROOT
ATOM      1  C2  UNL d   1       0.968  -0.931   0.134  0.00  0.00    -0.076 A 
ATOM      2  C3  UNL d   1       2.286  -1.342   0.398  0.00  0.00     0.004 A 
ATOM      3  C4  UNL d   1       3.262  -0.422   0.776  0.00  0.00    -0.003 A 
ATOM      4  C5  UNL d   1       2.937   0.924   0.897  0.00  0.00     0.000 A 
ATOM      5  C6  UNL d   1       1.630   1.347   0.656  0.00  0.00     0.000 A 
ATOM      6  C7  UNL d   1       0.630   0.431   0.290  0.00  0.00    -0.073 A 
ATOM      7  C8  UNL d   1      -0.761   0.943   0.036  0.00  0.00     0.078 C 
ENDROOT
BRANCH   1   8
ATOM      8  C1  UNL d   1      -0.042  -1.969  -0.299  0.00  0.00     0.053 C 
ATOM      9  C   UNL d   1       0.219  -2.485  -1.706  0.00  0.00     0.018 C 
ENDBRANCH   1   8
TORSDOF 1
ENDMDL
