MODEL 1
REMARK minimizedAffinity -5.53609657
REMARK minimizedRMSD -1
REMARK  1 active torsions:
REMARK  status: ('A' for Active; 'I' for Inactive)
REMARK    1  A    between atoms: C1_2  and  C2_3 
ROOT
ATOM      1  C2  UNL d   1       0.419  -1.283  -0.430  0.00  0.00    -0.076 A 
ATOM      2  C3  UNL d   1       1.550  -2.066  -0.141  0.00  0.00     0.004 A 
ATOM      3  C4  UNL d   1       2.601  -1.555   0.620  0.00  0.00    -0.003 A 
ATOM      4  C5  UNL d   1       2.536  -0.254   1.105  0.00  0.00     0.000 A 
ATOM      5  C6  UNL d   1       1.414   0.531   0.843  0.00  0.00     0.000 A 
ATOM      6  C7  UNL d   1       0.339   0.026   0.091  0.00  0.00    -0.073 A 
ATOM      7  C8  UNL d   1      -0.844   0.918  -0.167  0.00  0.00     0.078 C 
ENDROOT
BRANCH   1   8
ATOM      8  C1  UNL d   1      -0.677  -1.881  -1.284  0.00  0.00     0.053 C 
ATOM      9  C   UNL d   1      -0.942  -3.342  -0.952  0.00  0.00     0.018 C 
ENDBRANCH   1   8
TORSDOF 1
ENDMDL
