MODEL 1
REMARK minimizedAffinity -5.50028753
REMARK minimizedRMSD -1
REMARK  1 active torsions:
REMARK  status: ('A' for Active; 'I' for Inactive)
REMARK    1  A    between atoms: C1_2  and  C2_3 
ROOT
ATOM      1  C2  UNL d   1       0.163   0.027  -0.134  0.00  0.00    -0.076 A 
ATOM      2  C3  UNL d   1      -0.106  -1.295  -0.527  0.00  0.00     0.004 A 
ATOM      3  C4  UNL d   1       0.859  -2.292  -0.399  0.00  0.00    -0.003 A 
ATOM      4  C5  UNL d   1       2.110  -1.983   0.125  0.00  0.00     0.000 A 
ATOM      5  C6  UNL d   1       2.387  -0.680   0.537  0.00  0.00     0.000 A 
ATOM      6  C7  UNL d   1       1.420   0.333   0.430  0.00  0.00    -0.073 A 
ATOM      7  C8  UNL d   1       1.776   1.723   0.884  0.00  0.00     0.078 C 
ENDROOT
BRANCH   1   8
ATOM      8  C1  UNL d   1      -0.914   1.072  -0.322  0.00  0.00     0.053 C 
ATOM      9  C   UNL d   1      -2.210   0.708   0.387  0.00  0.00     0.018 C 
ENDBRANCH   1   8
TORSDOF 1
ENDMDL
