MODEL 1
REMARK minimizedAffinity -5.78007841
REMARK minimizedRMSD -1
REMARK  1 active torsions:
REMARK  status: ('A' for Active; 'I' for Inactive)
REMARK    1  A    between atoms: C1_2  and  C2_3 
ROOT
ATOM      1  C2  UNL d   1       0.153  -0.405  -0.080  0.00  0.00    -0.076 A 
ATOM      2  C3  UNL d   1       1.063   0.268   0.753  0.00  0.00     0.004 A 
ATOM      3  C4  UNL d   1       2.237  -0.350   1.181  0.00  0.00    -0.003 A 
ATOM      4  C5  UNL d   1       2.520  -1.651   0.782  0.00  0.00     0.000 A 
ATOM      5  C6  UNL d   1       1.637  -2.328  -0.059  0.00  0.00     0.000 A 
ATOM      6  C7  UNL d   1       0.457  -1.714  -0.512  0.00  0.00    -0.073 A 
ATOM      7  C8  UNL d   1      -0.462  -2.493  -1.412  0.00  0.00     0.078 C 
ENDROOT
BRANCH   1   8
ATOM      8  C1  UNL d   1      -1.117   0.306  -0.490  0.00  0.00     0.053 C 
ATOM      9  C   UNL d   1      -2.130   0.389   0.642  0.00  0.00     0.018 C 
ENDBRANCH   1   8
TORSDOF 1
ENDMDL
