MODEL 1
REMARK minimizedAffinity -5.23182487
REMARK minimizedRMSD -1
REMARK  1 active torsions:
REMARK  status: ('A' for Active; 'I' for Inactive)
REMARK    1  A    between atoms: C1_2  and  C2_3 
ROOT
ATOM      1  C2  UNL d   1       1.690  -1.350  -0.930  0.00  0.00    -0.076 A 
ATOM      2  C3  UNL d   1       0.371  -1.064  -1.325  0.00  0.00     0.004 A 
ATOM      3  C4  UNL d   1      -0.425  -0.190  -0.586  0.00  0.00    -0.003 A 
ATOM      4  C5  UNL d   1       0.085   0.413   0.558  0.00  0.00     0.000 A 
ATOM      5  C6  UNL d   1       1.397   0.154   0.954  0.00  0.00     0.000 A 
ATOM      6  C7  UNL d   1       2.218  -0.712   0.212  0.00  0.00    -0.073 A 
ATOM      7  C8  UNL d   1       3.623  -0.960   0.689  0.00  0.00     0.078 C 
ENDROOT
BRANCH   1   8
ATOM      8  C1  UNL d   1       2.496  -2.328  -1.755  0.00  0.00     0.053 C 
ATOM      9  C   UNL d   1       3.615  -1.650  -2.532  0.00  0.00     0.018 C 
ENDBRANCH   1   8
TORSDOF 1
ENDMDL
