MODEL 1
REMARK minimizedAffinity -1.54237556
REMARK minimizedRMSD -1
REMARK  1 active torsions:
REMARK  status: ('A' for Active; 'I' for Inactive)
REMARK    1  A    between atoms: C1_2  and  C2_3 
ROOT
ATOM      1  C2  UNL d   1       1.610  -0.371   0.401  0.00  0.00    -0.076 A 
ATOM      2  C3  UNL d   1       0.638   0.257   1.199  0.00  0.00     0.004 A 
ATOM      3  C4  UNL d   1      -0.721   0.078   0.950  0.00  0.00    -0.003 A 
ATOM      4  C5  UNL d   1      -1.131  -0.734  -0.102  0.00  0.00     0.000 A 
ATOM      5  C6  UNL d   1      -0.182  -1.380  -0.893  0.00  0.00     0.000 A 
ATOM      6  C7  UNL d   1       1.193  -1.222  -0.645  0.00  0.00    -0.073 A 
ATOM      7  C8  UNL d   1       2.174  -1.938  -1.533  0.00  0.00     0.078 C 
ENDROOT
BRANCH   1   8
ATOM      8  C1  UNL d   1       3.070  -0.118   0.703  0.00  0.00     0.053 C 
ATOM      9  C   UNL d   1       3.499   1.299   0.353  0.00  0.00     0.018 C 
ENDBRANCH   1   8
TORSDOF 1
ENDMDL
