MODEL 1
REMARK minimizedAffinity -3.30603004
REMARK minimizedRMSD -1
REMARK  1 active torsions:
REMARK  status: ('A' for Active; 'I' for Inactive)
REMARK    1  A    between atoms: C1_2  and  C2_3 
ROOT
ATOM      1  C2  UNL d   1       0.135   0.110  -0.199  0.00  0.00    -0.076 A 
ATOM      2  C3  UNL d   1      -0.119  -1.236  -0.518  0.00  0.00     0.004 A 
ATOM      3  C4  UNL d   1       0.859  -2.212  -0.339  0.00  0.00    -0.003 A 
ATOM      4  C5  UNL d   1       2.107  -1.859   0.161  0.00  0.00     0.000 A 
ATOM      5  C6  UNL d   1       2.371  -0.532   0.499  0.00  0.00     0.000 A 
ATOM      6  C7  UNL d   1       1.390   0.462   0.341  0.00  0.00    -0.073 A 
ATOM      7  C8  UNL d   1       1.731   1.878   0.716  0.00  0.00     0.078 C 
ENDROOT
BRANCH   1   8
ATOM      8  C1  UNL d   1      -0.956   1.129  -0.440  0.00  0.00     0.053 C 
ATOM      9  C   UNL d   1      -2.292   0.702   0.147  0.00  0.00     0.018 C 
ENDBRANCH   1   8
TORSDOF 1
ENDMDL
