MODEL 1
REMARK minimizedAffinity -5.19010973
REMARK minimizedRMSD -1
REMARK  1 active torsions:
REMARK  status: ('A' for Active; 'I' for Inactive)
REMARK    1  A    between atoms: C1_2  and  C2_3 
ROOT
ATOM      1  C2  UNL d   1       0.895  -0.001   0.289  0.00  0.00    -0.076 A 
ATOM      2  C3  UNL d   1      -0.291  -0.154  -0.451  0.00  0.00     0.004 A 
ATOM      3  C4  UNL d   1      -0.472  -1.246  -1.298  0.00  0.00    -0.003 A 
ATOM      4  C5  UNL d   1       0.530  -2.203  -1.419  0.00  0.00     0.000 A 
ATOM      5  C6  UNL d   1       1.705  -2.076  -0.680  0.00  0.00     0.000 A 
ATOM      6  C7  UNL d   1       1.897  -0.990   0.191  0.00  0.00    -0.073 A 
ATOM      7  C8  UNL d   1       3.187  -0.900   0.960  0.00  0.00     0.078 C 
ENDROOT
BRANCH   1   8
ATOM      8  C1  UNL d   1       1.046   1.218   1.170  0.00  0.00     0.053 C 
ATOM      9  C   UNL d   1       1.430   2.462   0.384  0.00  0.00     0.018 C 
ENDBRANCH   1   8
TORSDOF 1
ENDMDL
