MODEL 1
REMARK minimizedAffinity -1.60036063
REMARK minimizedRMSD -1
REMARK  1 active torsions:
REMARK  status: ('A' for Active; 'I' for Inactive)
REMARK    1  A    between atoms: C1_2  and  C2_3 
ROOT
ATOM      1  C2  UNL d   1      -0.082  -0.584  -0.408  0.00  0.00    -0.076 A 
ATOM      2  C3  UNL d   1      -0.355  -1.946  -0.626  0.00  0.00     0.004 A 
ATOM      3  C4  UNL d   1       0.655  -2.903  -0.540  0.00  0.00    -0.003 A 
ATOM      4  C5  UNL d   1       1.955  -2.513  -0.234  0.00  0.00     0.000 A 
ATOM      5  C6  UNL d   1       2.240  -1.169   0.002  0.00  0.00     0.000 A 
ATOM      6  C7  UNL d   1       1.230  -0.194  -0.065  0.00  0.00    -0.073 A 
ATOM      7  C8  UNL d   1       1.595   1.243   0.193  0.00  0.00     0.078 C 
ENDROOT
BRANCH   1   8
ATOM      8  C1  UNL d   1      -1.212   0.411  -0.542  0.00  0.00     0.053 C 
ATOM      9  C   UNL d   1      -2.193   0.339   0.619  0.00  0.00     0.018 C 
ENDBRANCH   1   8
TORSDOF 1
ENDMDL
