MODEL 1
REMARK minimizedAffinity -1.81886697
REMARK minimizedRMSD -1
REMARK  1 active torsions:
REMARK  status: ('A' for Active; 'I' for Inactive)
REMARK    1  A    between atoms: C1_2  and  C2_3 
ROOT
ATOM      1  C2  UNL d   1       0.220  -1.147  -1.344  0.00  0.00    -0.076 A 
ATOM      2  C3  UNL d   1      -0.534  -2.323  -1.509  0.00  0.00     0.004 A 
ATOM      3  C4  UNL d   1       0.036  -3.576  -1.293  0.00  0.00    -0.003 A 
ATOM      4  C5  UNL d   1       1.369  -3.675  -0.908  0.00  0.00     0.000 A 
ATOM      5  C6  UNL d   1       2.126  -2.519  -0.724  0.00  0.00     0.000 A 
ATOM      6  C7  UNL d   1       1.563  -1.247  -0.921  0.00  0.00    -0.073 A 
ATOM      7  C8  UNL d   1       2.427  -0.034  -0.714  0.00  0.00     0.078 C 
ENDROOT
BRANCH   1   8
ATOM      8  C1  UNL d   1      -0.444   0.183  -1.619  0.00  0.00     0.053 C 
ATOM      9  C   UNL d   1      -1.923   0.181  -1.264  0.00  0.00     0.018 C 
ENDBRANCH   1   8
TORSDOF 1
ENDMDL
