MODEL 1
REMARK minimizedAffinity -0.454220325
REMARK minimizedRMSD -1
REMARK  0 active torsions:
REMARK  status: ('A' for Active; 'I' for Inactive)
ROOT
ATOM      1  C   UNL d   1      -1.624   0.487   0.225  0.00  0.00     0.172 C 
ATOM      2  N   UNL d   1      -0.427  -0.253  -0.098  0.00  0.00    -0.070 N 
ATOM      3  C1  UNL d   1       0.778   0.292  -0.453  0.00  0.00    -0.004 A 
ATOM      4  C2  UNL d   1       1.659  -0.743  -0.680  0.00  0.00    -0.047 A 
ATOM      5  C3  UNL d   1       0.959  -1.952  -0.454  0.00  0.00    -0.047 A 
ATOM      6  C4  UNL d   1      -0.330  -1.620  -0.096  0.00  0.00    -0.004 A 
ENDROOT
TORSDOF 0
ENDMDL
