MODEL 1
REMARK minimizedAffinity -3.10064673
REMARK minimizedRMSD -1
REMARK  0 active torsions:
REMARK  status: ('A' for Active; 'I' for Inactive)
ROOT
ATOM      1  C   UNL d   1      -1.163   0.740  -0.781  0.00  0.00     0.172 C 
ATOM      2  N   UNL d   1       0.016  -0.092  -0.724  0.00  0.00    -0.070 N 
ATOM      3  C1  UNL d   1       1.302   0.331  -0.933  0.00  0.00    -0.004 A 
ATOM      4  C2  UNL d   1       2.133  -0.759  -0.790  0.00  0.00    -0.047 A 
ATOM      5  C3  UNL d   1       1.318  -1.875  -0.485  0.00  0.00    -0.047 A 
ATOM      6  C4  UNL d   1       0.012  -1.434  -0.451  0.00  0.00    -0.004 A 
ENDROOT
TORSDOF 0
ENDMDL
