MODEL 1
REMARK minimizedAffinity -3.67509413
REMARK minimizedRMSD -1
REMARK  0 active torsions:
REMARK  status: ('A' for Active; 'I' for Inactive)
ROOT
ATOM      1  C   UNL d   1      -1.172   0.092   0.350  0.00  0.00     0.172 C 
ATOM      2  N   UNL d   1       0.064  -0.554  -0.026  0.00  0.00    -0.070 N 
ATOM      3  C1  UNL d   1       0.331  -1.892   0.083  0.00  0.00    -0.004 A 
ATOM      4  C2  UNL d   1       1.612  -2.106  -0.379  0.00  0.00    -0.047 A 
ATOM      5  C3  UNL d   1       2.133  -0.852  -0.778  0.00  0.00    -0.047 A 
ATOM      6  C4  UNL d   1       1.154   0.091  -0.549  0.00  0.00    -0.004 A 
ENDROOT
TORSDOF 0
ENDMDL
