MODEL 1
REMARK minimizedAffinity -3.33795571
REMARK minimizedRMSD -1
REMARK  0 active torsions:
REMARK  status: ('A' for Active; 'I' for Inactive)
ROOT
ATOM      1  C   UNL d   1       2.367  -0.407  -1.041  0.00  0.00     0.172 C 
ATOM      2  N   UNL d   1       1.005  -0.026  -0.753  0.00  0.00    -0.070 N 
ATOM      3  C1  UNL d   1       0.033  -0.853  -0.255  0.00  0.00    -0.004 A 
ATOM      4  C2  UNL d   1      -1.122  -0.114  -0.120  0.00  0.00    -0.047 A 
ATOM      5  C3  UNL d   1      -0.835   1.203  -0.553  0.00  0.00    -0.047 A 
ATOM      6  C4  UNL d   1       0.488   1.229  -0.939  0.00  0.00    -0.004 A 
ENDROOT
TORSDOF 0
ENDMDL
