MODEL 1
REMARK minimizedAffinity -4.04058361
REMARK minimizedRMSD -1
REMARK  0 active torsions:
REMARK  status: ('A' for Active; 'I' for Inactive)
ROOT
ATOM      1  C   UNL d   1      -1.090   0.680   0.665  0.00  0.00     0.172 C 
ATOM      2  N   UNL d   1      -0.005   0.140  -0.120  0.00  0.00    -0.070 N 
ATOM      3  C1  UNL d   1       1.005   0.867  -0.692  0.00  0.00    -0.004 A 
ATOM      4  C2  UNL d   1       1.836  -0.012  -1.353  0.00  0.00    -0.047 A 
ATOM      5  C3  UNL d   1       1.307  -1.312  -1.172  0.00  0.00    -0.047 A 
ATOM      6  C4  UNL d   1       0.167  -1.189  -0.405  0.00  0.00    -0.004 A 
ENDROOT
TORSDOF 0
ENDMDL
