MODEL 1
REMARK minimizedAffinity -3.20632648
REMARK minimizedRMSD -1
REMARK  0 active torsions:
REMARK  status: ('A' for Active; 'I' for Inactive)
ROOT
ATOM      1  C   UNL d   1      -3.869  -0.785   3.757  0.00  0.00     0.172 C 
ATOM      2  N   UNL d   1      -3.088   0.264   3.144  0.00  0.00    -0.070 N 
ATOM      3  C1  UNL d   1      -2.579   0.241   1.874  0.00  0.00    -0.004 A 
ATOM      4  C2  UNL d   1      -1.899   1.423   1.670  0.00  0.00    -0.047 A 
ATOM      5  C3  UNL d   1      -2.003   2.181   2.860  0.00  0.00    -0.047 A 
ATOM      6  C4  UNL d   1      -2.744   1.440   3.756  0.00  0.00    -0.004 A 
ENDROOT
TORSDOF 0
ENDMDL
