MODEL 1
REMARK minimizedAffinity -3.48676348
REMARK minimizedRMSD -1
REMARK  0 active torsions:
REMARK  status: ('A' for Active; 'I' for Inactive)
ROOT
ATOM      1  C   UNL d   1      -0.559  -1.650   0.168  0.00  0.00     0.172 C 
ATOM      2  N   UNL d   1       0.566  -0.858  -0.274  0.00  0.00    -0.070 N 
ATOM      3  C1  UNL d   1       1.713  -1.347  -0.840  0.00  0.00    -0.004 A 
ATOM      4  C2  UNL d   1       2.534  -0.277  -1.120  0.00  0.00    -0.047 A 
ATOM      5  C3  UNL d   1       1.858   0.896  -0.708  0.00  0.00    -0.047 A 
ATOM      6  C4  UNL d   1       0.641   0.507  -0.188  0.00  0.00    -0.004 A 
ENDROOT
TORSDOF 0
ENDMDL
