MODEL 1
REMARK minimizedAffinity -3.12473273
REMARK minimizedRMSD -1
REMARK  0 active torsions:
REMARK  status: ('A' for Active; 'I' for Inactive)
ROOT
ATOM      1  C   UNL d   1      -3.577  -1.100   3.061  0.00  0.00     0.172 C 
ATOM      2  N   UNL d   1      -2.724  -0.012   2.645  0.00  0.00    -0.070 N 
ATOM      3  C1  UNL d   1      -2.771   1.269   3.129  0.00  0.00    -0.004 A 
ATOM      4  C2  UNL d   1      -1.799   2.000   2.480  0.00  0.00    -0.047 A 
ATOM      5  C3  UNL d   1      -1.147   1.130   1.575  0.00  0.00    -0.047 A 
ATOM      6  C4  UNL d   1      -1.740  -0.109   1.698  0.00  0.00    -0.004 A 
ENDROOT
TORSDOF 0
ENDMDL
