MODEL 1
REMARK minimizedAffinity -2.48278141
REMARK minimizedRMSD -1
REMARK  0 active torsions:
REMARK  status: ('A' for Active; 'I' for Inactive)
ROOT
ATOM      1  C   UNL d   1       2.246  -1.084  -1.433  0.00  0.00     0.172 C 
ATOM      2  N   UNL d   1       1.089  -0.633  -0.696  0.00  0.00    -0.070 N 
ATOM      3  C1  UNL d   1       0.693   0.670  -0.551  0.00  0.00    -0.004 A 
ATOM      4  C2  UNL d   1      -0.451   0.680   0.218  0.00  0.00    -0.047 A 
ATOM      5  C3  UNL d   1      -0.752  -0.663   0.546  0.00  0.00    -0.047 A 
ATOM      6  C4  UNL d   1       0.217  -1.455  -0.033  0.00  0.00    -0.004 A 
ENDROOT
TORSDOF 0
ENDMDL
