MODEL 1
REMARK minimizedAffinity -3.23445439
REMARK minimizedRMSD -1
REMARK  0 active torsions:
REMARK  status: ('A' for Active; 'I' for Inactive)
ROOT
ATOM      1  C   UNL d   1      -1.218   0.302   0.663  0.00  0.00     0.172 C 
ATOM      2  N   UNL d   1       0.017  -0.071   0.015  0.00  0.00    -0.070 N 
ATOM      3  C1  UNL d   1       0.559  -1.329  -0.008  0.00  0.00    -0.004 A 
ATOM      4  C2  UNL d   1       1.734  -1.269  -0.725  0.00  0.00    -0.047 A 
ATOM      5  C3  UNL d   1       1.905   0.070  -1.148  0.00  0.00    -0.047 A 
ATOM      6  C4  UNL d   1       0.827   0.791  -0.676  0.00  0.00    -0.004 A 
ENDROOT
TORSDOF 0
ENDMDL
