MODEL 1
REMARK minimizedAffinity -2.81883788
REMARK minimizedRMSD -1
REMARK  0 active torsions:
REMARK  status: ('A' for Active; 'I' for Inactive)
ROOT
ATOM      1  C   UNL d   1      -1.455   0.275   0.342  0.00  0.00     0.172 C 
ATOM      2  N   UNL d   1      -1.802   0.548   1.717  0.00  0.00    -0.070 N 
ATOM      3  C1  UNL d   1      -2.919   0.092   2.364  0.00  0.00    -0.004 A 
ATOM      4  C2  UNL d   1      -2.883   0.570   3.656  0.00  0.00    -0.047 A 
ATOM      5  C3  UNL d   1      -1.704   1.341   3.789  0.00  0.00    -0.047 A 
ATOM      6  C4  UNL d   1      -1.053   1.310   2.574  0.00  0.00    -0.004 A 
ENDROOT
TORSDOF 0
ENDMDL
