MODEL 1
REMARK minimizedAffinity 6.53573322
REMARK minimizedRMSD -1
REMARK  0 active torsions:
REMARK  status: ('A' for Active; 'I' for Inactive)
ROOT
ATOM      1  C   UNL d   1       1.133   1.065  -1.143  0.00  0.00     0.172 C 
ATOM      2  N   UNL d   1      -0.076   0.898  -0.370  0.00  0.00    -0.070 N 
ATOM      3  C1  UNL d   1      -0.416   1.617   0.745  0.00  0.00    -0.004 A 
ATOM      4  C2  UNL d   1      -1.638   1.158   1.186  0.00  0.00    -0.047 A 
ATOM      5  C3  UNL d   1      -2.046   0.127   0.307  0.00  0.00    -0.047 A 
ATOM      6  C4  UNL d   1      -1.060  -0.014  -0.647  0.00  0.00    -0.004 A 
ENDROOT
TORSDOF 0
ENDMDL
