MODEL 1
REMARK minimizedAffinity -2.96090603
REMARK minimizedRMSD -1
REMARK  0 active torsions:
REMARK  status: ('A' for Active; 'I' for Inactive)
ROOT
ATOM      1  C   UNL d   1      -1.701   0.773   0.199  0.00  0.00     0.172 C 
ATOM      2  N   UNL d   1      -0.409   0.304  -0.245  0.00  0.00    -0.070 N 
ATOM      3  C1  UNL d   1       0.627   1.096  -0.664  0.00  0.00    -0.004 A 
ATOM      4  C2  UNL d   1       1.679   0.271  -1.001  0.00  0.00    -0.047 A 
ATOM      5  C3  UNL d   1       1.260  -1.062  -0.778  0.00  0.00    -0.047 A 
ATOM      6  C4  UNL d   1      -0.037  -1.013  -0.311  0.00  0.00    -0.004 A 
ENDROOT
TORSDOF 0
ENDMDL
