MODEL 1
REMARK minimizedAffinity -2.98684692
REMARK minimizedRMSD -1
REMARK  0 active torsions:
REMARK  status: ('A' for Active; 'I' for Inactive)
ROOT
ATOM      1  C   UNL d   1       2.973  -1.019  -1.454  0.00  0.00     0.172 C 
ATOM      2  N   UNL d   1       1.731  -0.730  -0.777  0.00  0.00    -0.070 N 
ATOM      3  C1  UNL d   1       1.187   0.515  -0.605  0.00  0.00    -0.004 A 
ATOM      4  C2  UNL d   1       0.004   0.367   0.087  0.00  0.00    -0.047 A 
ATOM      5  C3  UNL d   1      -0.169  -1.015   0.340  0.00  0.00    -0.047 A 
ATOM      6  C4  UNL d   1       0.915  -1.670  -0.206  0.00  0.00    -0.004 A 
ENDROOT
TORSDOF 0
ENDMDL
