MODEL 1
REMARK minimizedAffinity -1.43804336
REMARK minimizedRMSD -1
REMARK  0 active torsions:
REMARK  status: ('A' for Active; 'I' for Inactive)
ROOT
ATOM      1  C   UNL d   1       3.109  -0.370  -1.615  0.00  0.00     0.172 C 
ATOM      2  N   UNL d   1       1.918  -0.690  -0.864  0.00  0.00    -0.070 N 
ATOM      3  C1  UNL d   1       1.273   0.149   0.006  0.00  0.00    -0.004 A 
ATOM      4  C2  UNL d   1       0.185  -0.527   0.515  0.00  0.00    -0.047 A 
ATOM      5  C3  UNL d   1       0.176  -1.816  -0.068  0.00  0.00    -0.047 A 
ATOM      6  C4  UNL d   1       1.260  -1.890  -0.918  0.00  0.00    -0.004 A 
ENDROOT
TORSDOF 0
ENDMDL
