MODEL 1
REMARK minimizedAffinity -3.41514492
REMARK minimizedRMSD -1
REMARK  0 active torsions:
REMARK  status: ('A' for Active; 'I' for Inactive)
ROOT
ATOM      1  C   UNL d   1       1.975  -1.570  -0.752  0.00  0.00     0.172 C 
ATOM      2  N   UNL d   1       1.682  -0.284  -1.341  0.00  0.00    -0.070 N 
ATOM      3  C1  UNL d   1       0.745   0.607  -0.889  0.00  0.00    -0.004 A 
ATOM      4  C2  UNL d   1       0.774   1.707  -1.718  0.00  0.00    -0.047 A 
ATOM      5  C3  UNL d   1       1.762   1.469  -2.704  0.00  0.00    -0.047 A 
ATOM      6  C4  UNL d   1       2.308   0.230  -2.446  0.00  0.00    -0.004 A 
ENDROOT
TORSDOF 0
ENDMDL
