MODEL 1
REMARK minimizedAffinity -2.57096791
REMARK minimizedRMSD -1
REMARK  0 active torsions:
REMARK  status: ('A' for Active; 'I' for Inactive)
ROOT
ATOM      1  C   UNL d   1       2.103  -1.103  -1.529  0.00  0.00     0.172 C 
ATOM      2  N   UNL d   1       0.935  -0.751  -0.756  0.00  0.00    -0.070 N 
ATOM      3  C1  UNL d   1      -0.024  -1.624  -0.316  0.00  0.00    -0.004 A 
ATOM      4  C2  UNL d   1      -0.966  -0.900   0.382  0.00  0.00    -0.047 A 
ATOM      5  C3  UNL d   1      -0.560   0.456   0.359  0.00  0.00    -0.047 A 
ATOM      6  C4  UNL d   1       0.620   0.519  -0.352  0.00  0.00    -0.004 A 
ENDROOT
TORSDOF 0
ENDMDL
