MODEL 1
REMARK minimizedAffinity 6.76974249
REMARK minimizedRMSD -1
REMARK  3 active torsions:
REMARK  status: ('A' for Active; 'I' for Inactive)
REMARK    1  A    between atoms: C3'_2  and  C2'_3 
REMARK    2  A    between atoms: C2'_3  and  C1'_4 
REMARK    3  A    between atoms: C1'_4  and  C1_5 
ROOT
ATOM      1  C1  N4B d   1       1.084  -0.721   1.269  0.00  0.00    -0.075 A 
ATOM      2  C2  N4B d   1       1.853  -1.104   2.390  0.00  0.00     0.002 A 
ATOM      3  C3  N4B d   1       3.023  -0.444   2.678  0.00  0.00     0.002 A 
ATOM      4  C4  N4B d   1       3.452   0.584   1.852  0.00  0.00    -0.004 A 
ATOM      5  C5  N4B d   1       2.691   0.964   0.785  0.00  0.00     0.002 A 
ATOM      6  C6  N4B d   1       1.511   0.313   0.486  0.00  0.00     0.002 A 
ENDROOT
BRANCH   1   7
ATOM      7  C1' N4B d   1      -0.157  -1.468   0.865  0.00  0.00     0.057 C 
BRANCH   7   8
ATOM      8  C2' N4B d   1      -1.307  -0.478   0.704  0.00  0.00     0.009 C 
BRANCH   8   9
ATOM      9  C3' N4B d   1      -2.600  -1.169   0.304  0.00  0.00     0.004 C 
ATOM     10  C4' N4B d   1      -3.816  -0.345   0.605  0.00  0.00     0.003 C 
ENDBRANCH   8   9
ENDBRANCH   7   8
ENDBRANCH   1   7
TORSDOF 3
ENDMDL
