MODEL 1
REMARK minimizedAffinity 11.1354351
REMARK minimizedRMSD -1
REMARK  3 active torsions:
REMARK  status: ('A' for Active; 'I' for Inactive)
REMARK    1  A    between atoms: C3'_2  and  C2'_3 
REMARK    2  A    between atoms: C2'_3  and  C1'_4 
REMARK    3  A    between atoms: C1'_4  and  C1_5 
ROOT
ATOM      1  C1  N4B d   1      -3.947  -2.713   3.153  0.00  0.00    -0.075 A 
ATOM      2  C2  N4B d   1      -3.347  -1.681   3.908  0.00  0.00     0.002 A 
ATOM      3  C3  N4B d   1      -3.167  -1.836   5.260  0.00  0.00     0.002 A 
ATOM      4  C4  N4B d   1      -3.593  -3.002   5.880  0.00  0.00    -0.004 A 
ATOM      5  C5  N4B d   1      -4.148  -4.004   5.139  0.00  0.00     0.002 A 
ATOM      6  C6  N4B d   1      -4.332  -3.863   3.778  0.00  0.00     0.002 A 
ENDROOT
BRANCH   1   7
ATOM      7  C1' N4B d   1      -4.243  -2.554   1.686  0.00  0.00     0.057 C 
BRANCH   7   8
ATOM      8  C2' N4B d   1      -3.135  -1.730   1.038  0.00  0.00     0.009 C 
BRANCH   8   9
ATOM      9  C3' N4B d   1      -3.646  -0.919  -0.141  0.00  0.00     0.004 C 
ATOM     10  C4' N4B d   1      -3.090   0.473  -0.173  0.00  0.00     0.003 C 
ENDBRANCH   8   9
ENDBRANCH   7   8
ENDBRANCH   1   7
TORSDOF 3
ENDMDL
