MODEL 1
REMARK minimizedAffinity 3.69347382
REMARK minimizedRMSD -1
REMARK  3 active torsions:
REMARK  status: ('A' for Active; 'I' for Inactive)
REMARK    1  A    between atoms: C3'_2  and  C2'_3 
REMARK    2  A    between atoms: C2'_3  and  C1'_4 
REMARK    3  A    between atoms: C1'_4  and  C1_5 
ROOT
ATOM      1  C1  N4B d   1       3.040  -0.005   1.963  0.00  0.00    -0.075 A 
ATOM      2  C2  N4B d   1       1.649  -0.249   1.929  0.00  0.00     0.002 A 
ATOM      3  C3  N4B d   1       0.861   0.400   1.010  0.00  0.00     0.002 A 
ATOM      4  C4  N4B d   1       1.436   1.307   0.132  0.00  0.00    -0.004 A 
ATOM      5  C5  N4B d   1       2.783   1.517   0.155  0.00  0.00     0.002 A 
ATOM      6  C6  N4B d   1       3.588   0.869   1.070  0.00  0.00     0.002 A 
ENDROOT
BRANCH   1   7
ATOM      7  C1' N4B d   1       3.930  -0.626   3.005  0.00  0.00     0.057 C 
BRANCH   7   8
ATOM      8  C2' N4B d   1       5.388  -0.369   2.636  0.00  0.00     0.009 C 
BRANCH   8   9
ATOM      9  C3' N4B d   1       5.999   0.741   3.474  0.00  0.00     0.004 C 
ATOM     10  C4' N4B d   1       6.000   0.428   4.941  0.00  0.00     0.003 C 
ENDBRANCH   8   9
ENDBRANCH   7   8
ENDBRANCH   1   7
TORSDOF 3
ENDMDL
