MODEL 1
REMARK minimizedAffinity 6.33642912
REMARK minimizedRMSD -1
REMARK  3 active torsions:
REMARK  status: ('A' for Active; 'I' for Inactive)
REMARK    1  A    between atoms: C3'_2  and  C2'_3 
REMARK    2  A    between atoms: C2'_3  and  C1'_4 
REMARK    3  A    between atoms: C1'_4  and  C1_5 
ROOT
ATOM      1  C1  N4B d   1      -4.934   1.230   1.933  0.00  0.00    -0.075 A 
ATOM      2  C2  N4B d   1      -4.912  -0.180   2.009  0.00  0.00     0.002 A 
ATOM      3  C3  N4B d   1      -3.971  -0.892   1.306  0.00  0.00     0.002 A 
ATOM      4  C4  N4B d   1      -3.057  -0.219   0.509  0.00  0.00    -0.004 A 
ATOM      5  C5  N4B d   1      -3.068   1.144   0.461  0.00  0.00     0.002 A 
ATOM      6  C6  N4B d   1      -4.006   1.872   1.165  0.00  0.00     0.002 A 
ENDROOT
BRANCH   1   7
ATOM      7  C1' N4B d   1      -5.997   2.046   2.615  0.00  0.00     0.057 C 
BRANCH   7   8
ATOM      8  C2' N4B d   1      -5.410   3.395   3.021  0.00  0.00     0.009 C 
BRANCH   8   9
ATOM      9  C3' N4B d   1      -5.986   3.893   4.335  0.00  0.00     0.004 C 
ATOM     10  C4' N4B d   1      -4.927   4.229   5.343  0.00  0.00     0.003 C 
ENDBRANCH   8   9
ENDBRANCH   7   8
ENDBRANCH   1   7
TORSDOF 3
ENDMDL
