MODEL 1
REMARK minimizedAffinity 4.84399128
REMARK minimizedRMSD -1
REMARK  3 active torsions:
REMARK  status: ('A' for Active; 'I' for Inactive)
REMARK    1  A    between atoms: C3'_2  and  C2'_3 
REMARK    2  A    between atoms: C2'_3  and  C1'_4 
REMARK    3  A    between atoms: C1'_4  and  C1_5 
ROOT
ATOM      1  C1  N4B d   1       1.414  -1.858  -5.475  0.00  0.00    -0.075 A 
ATOM      2  C2  N4B d   1       1.603  -0.852  -4.501  0.00  0.00     0.002 A 
ATOM      3  C3  N4B d   1       2.856  -0.618  -3.990  0.00  0.00     0.002 A 
ATOM      4  C4  N4B d   1       3.927  -1.385  -4.422  0.00  0.00    -0.004 A 
ATOM      5  C5  N4B d   1       3.741  -2.337  -5.381  0.00  0.00     0.002 A 
ATOM      6  C6  N4B d   1       2.488  -2.581  -5.906  0.00  0.00     0.002 A 
ENDROOT
BRANCH   1   7
ATOM      7  C1' N4B d   1       0.049  -2.209  -6.000  0.00  0.00     0.057 C 
BRANCH   7   8
ATOM      8  C2' N4B d   1      -1.009  -1.512  -5.149  0.00  0.00     0.009 C 
BRANCH   8   9
ATOM      9  C3' N4B d   1      -2.123  -0.924  -5.998  0.00  0.00     0.004 C 
ATOM     10  C4' N4B d   1      -2.664   0.358  -5.438  0.00  0.00     0.003 C 
ENDBRANCH   8   9
ENDBRANCH   7   8
ENDBRANCH   1   7
TORSDOF 3
ENDMDL
