MODEL 1
REMARK minimizedAffinity 6.47672367
REMARK minimizedRMSD -1
REMARK  3 active torsions:
REMARK  status: ('A' for Active; 'I' for Inactive)
REMARK    1  A    between atoms: C3'_2  and  C2'_3 
REMARK    2  A    between atoms: C2'_3  and  C1'_4 
REMARK    3  A    between atoms: C1'_4  and  C1_5 
ROOT
ATOM      1  C1  N4B d   1       3.230   0.688   1.548  0.00  0.00    -0.075 A 
ATOM      2  C2  N4B d   1       1.934   0.329   1.980  0.00  0.00     0.002 A 
ATOM      3  C3  N4B d   1       1.751  -0.803   2.735  0.00  0.00     0.002 A 
ATOM      4  C4  N4B d   1       2.841  -1.599   3.054  0.00  0.00    -0.004 A 
ATOM      5  C5  N4B d   1       4.093  -1.232   2.654  0.00  0.00     0.002 A 
ATOM      6  C6  N4B d   1       4.292  -0.094   1.898  0.00  0.00     0.002 A 
ENDROOT
BRANCH   1   7
ATOM      7  C1' N4B d   1       3.468   1.869   0.648  0.00  0.00     0.057 C 
BRANCH   7   8
ATOM      8  C2' N4B d   1       4.898   2.365   0.840  0.00  0.00     0.009 C 
BRANCH   8   9
ATOM      9  C3' N4B d   1       4.947   3.850   1.154  0.00  0.00     0.004 C 
ATOM     10  C4' N4B d   1       3.586   4.447   1.356  0.00  0.00     0.003 C 
ENDBRANCH   8   9
ENDBRANCH   7   8
ENDBRANCH   1   7
TORSDOF 3
ENDMDL
