MODEL 1
REMARK minimizedAffinity 13.5874567
REMARK minimizedRMSD -1
REMARK  3 active torsions:
REMARK  status: ('A' for Active; 'I' for Inactive)
REMARK    1  A    between atoms: C3'_2  and  C2'_3 
REMARK    2  A    between atoms: C2'_3  and  C1'_4 
REMARK    3  A    between atoms: C1'_4  and  C1_5 
ROOT
ATOM      1  C1  N4B d   1      -5.313   1.160   2.160  0.00  0.00    -0.075 A 
ATOM      2  C2  N4B d   1      -5.786  -0.063   2.685  0.00  0.00     0.002 A 
ATOM      3  C3  N4B d   1      -5.182  -1.243   2.326  0.00  0.00     0.002 A 
ATOM      4  C4  N4B d   1      -4.121  -1.226   1.433  0.00  0.00    -0.004 A 
ATOM      5  C5  N4B d   1      -3.654  -0.039   0.951  0.00  0.00     0.002 A 
ATOM      6  C6  N4B d   1      -4.249   1.155   1.306  0.00  0.00     0.002 A 
ENDROOT
BRANCH   1   7
ATOM      7  C1' N4B d   1      -5.996   2.468   2.457  0.00  0.00     0.057 C 
BRANCH   7   8
ATOM      8  C2' N4B d   1      -5.190   3.226   3.507  0.00  0.00     0.009 C 
BRANCH   8   9
ATOM      9  C3' N4B d   1      -5.750   3.026   4.906  0.00  0.00     0.004 C 
ATOM     10  C4' N4B d   1      -4.804   3.475   5.979  0.00  0.00     0.003 C 
ENDBRANCH   8   9
ENDBRANCH   7   8
ENDBRANCH   1   7
TORSDOF 3
ENDMDL
