MODEL 1
REMARK minimizedAffinity 3.33052874
REMARK minimizedRMSD -1
REMARK  3 active torsions:
REMARK  status: ('A' for Active; 'I' for Inactive)
REMARK    1  A    between atoms: C3'_2  and  C2'_3 
REMARK    2  A    between atoms: C2'_3  and  C1'_4 
REMARK    3  A    between atoms: C1'_4  and  C1_5 
ROOT
ATOM      1  C1  N4B d   1      -3.665  -2.230   5.193  0.00  0.00    -0.075 A 
ATOM      2  C2  N4B d   1      -3.864  -3.477   5.825  0.00  0.00     0.002 A 
ATOM      3  C3  N4B d   1      -4.435  -4.515   5.130  0.00  0.00     0.002 A 
ATOM      4  C4  N4B d   1      -4.829  -4.325   3.814  0.00  0.00    -0.004 A 
ATOM      5  C5  N4B d   1      -4.610  -3.126   3.203  0.00  0.00     0.002 A 
ATOM      6  C6  N4B d   1      -4.034  -2.075   3.888  0.00  0.00     0.002 A 
ENDROOT
BRANCH   1   7
ATOM      7  C1' N4B d   1      -3.124  -1.040   5.937  0.00  0.00     0.057 C 
BRANCH   7   8
ATOM      8  C2' N4B d   1      -4.195   0.045   5.993  0.00  0.00     0.009 C 
BRANCH   8   9
ATOM      9  C3' N4B d   1      -3.593   1.439   5.979  0.00  0.00     0.004 C 
ATOM     10  C4' N4B d   1      -4.632   2.521   5.983  0.00  0.00     0.003 C 
ENDBRANCH   8   9
ENDBRANCH   7   8
ENDBRANCH   1   7
TORSDOF 3
ENDMDL
