MODEL 1
REMARK minimizedAffinity 2.89547896
REMARK minimizedRMSD -1
REMARK  3 active torsions:
REMARK  status: ('A' for Active; 'I' for Inactive)
REMARK    1  A    between atoms: C3'_2  and  C2'_3 
REMARK    2  A    between atoms: C2'_3  and  C1'_4 
REMARK    3  A    between atoms: C1'_4  and  C1_5 
ROOT
ATOM      1  C1  N4B d   1       3.126  -1.009   1.990  0.00  0.00    -0.075 A 
ATOM      2  C2  N4B d   1       4.382  -0.796   2.599  0.00  0.00     0.002 A 
ATOM      3  C3  N4B d   1       5.196   0.218   2.158  0.00  0.00     0.002 A 
ATOM      4  C4  N4B d   1       4.785   1.017   1.102  0.00  0.00    -0.004 A 
ATOM      5  C5  N4B d   1       3.559   0.821   0.536  0.00  0.00     0.002 A 
ATOM      6  C6  N4B d   1       2.729  -0.192   0.971  0.00  0.00     0.002 A 
ENDROOT
BRANCH   1   7
ATOM      7  C1' N4B d   1       2.238  -2.159   2.381  0.00  0.00     0.057 C 
BRANCH   7   8
ATOM      8  C2' N4B d   1       2.173  -3.156   1.228  0.00  0.00     0.009 C 
BRANCH   8   9
ATOM      9  C3' N4B d   1       2.936  -4.433   1.536  0.00  0.00     0.004 C 
ATOM     10  C4' N4B d   1       2.049  -5.640   1.593  0.00  0.00     0.003 C 
ENDBRANCH   8   9
ENDBRANCH   7   8
ENDBRANCH   1   7
TORSDOF 3
ENDMDL
