MODEL 1
REMARK minimizedAffinity 2.95258164
REMARK minimizedRMSD -1
REMARK  3 active torsions:
REMARK  status: ('A' for Active; 'I' for Inactive)
REMARK    1  A    between atoms: C3'_2  and  C2'_3 
REMARK    2  A    between atoms: C2'_3  and  C1'_4 
REMARK    3  A    between atoms: C1'_4  and  C1_5 
ROOT
ATOM      1  C1  N4B d   1      -3.603  -1.271   5.063  0.00  0.00    -0.075 A 
ATOM      2  C2  N4B d   1      -3.815  -2.561   5.597  0.00  0.00     0.002 A 
ATOM      3  C3  N4B d   1      -4.138  -3.604   4.764  0.00  0.00     0.002 A 
ATOM      4  C4  N4B d   1      -4.272  -3.378   3.402  0.00  0.00    -0.004 A 
ATOM      5  C5  N4B d   1      -4.040  -2.135   2.891  0.00  0.00     0.002 A 
ATOM      6  C6  N4B d   1      -3.711  -1.078   3.716  0.00  0.00     0.002 A 
ENDROOT
BRANCH   1   7
ATOM      7  C1' N4B d   1      -3.333  -0.082   5.944  0.00  0.00     0.057 C 
BRANCH   7   8
ATOM      8  C2' N4B d   1      -4.553   0.834   5.937  0.00  0.00     0.009 C 
BRANCH   8   9
ATOM      9  C3' N4B d   1      -4.162   2.302   5.956  0.00  0.00     0.004 C 
ATOM     10  C4' N4B d   1      -5.349   3.219   5.950  0.00  0.00     0.003 C 
ENDBRANCH   8   9
ENDBRANCH   7   8
ENDBRANCH   1   7
TORSDOF 3
ENDMDL
