MODEL 1
REMARK minimizedAffinity -1.99846005
REMARK minimizedRMSD -1
REMARK  0 active torsions:
REMARK  status: ('A' for Active; 'I' for Inactive)
ROOT
ATOM      1  N1  IND d   1       2.030  -1.687  -0.153  0.00  0.00    -0.196 N 
ATOM      2  C2  IND d   1       2.671  -2.494   0.745  0.00  0.00     0.054 A 
ATOM      3  C3  IND d   1       2.117  -2.367   1.971  0.00  0.00    -0.031 A 
ATOM      4  C4  IND d   1       0.086  -0.969   2.712  0.00  0.00     0.051 A 
ATOM      5  C5  IND d   1      -0.807  -0.041   2.256  0.00  0.00    -0.031 A 
ATOM      6  C6  IND d   1      -0.802   0.393   0.946  0.00  0.00     0.015 A 
ATOM      7  C7  IND d   1       0.094  -0.096   0.037  0.00  0.00    -0.016 A 
ATOM      8  C8  IND d   1       1.006  -1.034   0.499  0.00  0.00    -0.047 A 
ATOM      9  C9  IND d   1       1.034  -1.446   1.837  0.00  0.00    -0.096 A 
ATOM     10  HN1 IND d   1       2.231  -1.601  -0.984  0.00  0.00     0.298 HD
ENDROOT
TORSDOF 0
ENDMDL
