MODEL 1
REMARK minimizedAffinity -4.79917717
REMARK minimizedRMSD -1
REMARK  0 active torsions:
REMARK  status: ('A' for Active; 'I' for Inactive)
ROOT
ATOM      1  N1  IND d   1       2.710  -1.962   1.621  0.00  0.00    -0.196 N 
ATOM      2  C2  IND d   1       2.262  -1.714   2.889  0.00  0.00     0.054 A 
ATOM      3  C3  IND d   1       1.208  -0.868   2.857  0.00  0.00    -0.031 A 
ATOM      4  C4  IND d   1      -0.012   0.151   0.832  0.00  0.00     0.051 A 
ATOM      5  C5  IND d   1       0.054   0.245  -0.530  0.00  0.00    -0.031 A 
ATOM      6  C6  IND d   1       1.026  -0.408  -1.259  0.00  0.00     0.015 A 
ATOM      7  C7  IND d   1       1.967  -1.191  -0.652  0.00  0.00    -0.016 A 
ATOM      8  C8  IND d   1       1.907  -1.283   0.731  0.00  0.00    -0.047 A 
ATOM      9  C9  IND d   1       0.948  -0.589   1.480  0.00  0.00    -0.096 A 
ATOM     10  HN1 IND d   1       3.380  -2.459   1.415  0.00  0.00     0.298 HD
ENDROOT
TORSDOF 0
ENDMDL
