MODEL 1
REMARK minimizedAffinity -6.29207325
REMARK minimizedRMSD -1
REMARK  0 active torsions:
REMARK  status: ('A' for Active; 'I' for Inactive)
ROOT
ATOM      1  N1  IND d   1      -0.610  -0.410  -0.686  0.00  0.00    -0.196 N 
ATOM      2  C2  IND d   1       0.344  -0.684  -1.626  0.00  0.00     0.054 A 
ATOM      3  C3  IND d   1       1.534  -0.927  -1.031  0.00  0.00    -0.031 A 
ATOM      4  C4  IND d   1       2.120  -1.029   1.474  0.00  0.00     0.051 A 
ATOM      5  C5  IND d   1       1.588  -0.814   2.714  0.00  0.00    -0.031 A 
ATOM      6  C6  IND d   1       0.269  -0.448   2.888  0.00  0.00     0.015 A 
ATOM      7  C7  IND d   1      -0.574  -0.295   1.824  0.00  0.00    -0.016 A 
ATOM      8  C8  IND d   1      -0.036  -0.506   0.563  0.00  0.00    -0.047 A 
ATOM      9  C9  IND d   1       1.313  -0.836   0.377  0.00  0.00    -0.096 A 
ATOM     10  HN1 IND d   1      -1.431  -0.212  -0.847  0.00  0.00     0.298 HD
ENDROOT
TORSDOF 0
ENDMDL
