MODEL 1
REMARK minimizedAffinity -1.51216054
REMARK minimizedRMSD -1
REMARK  0 active torsions:
REMARK  status: ('A' for Active; 'I' for Inactive)
ROOT
ATOM      1  N1  IND d   1       1.800  -1.508  -0.781  0.00  0.00    -0.196 N 
ATOM      2  C2  IND d   1       2.516  -2.204   0.153  0.00  0.00     0.054 A 
ATOM      3  C3  IND d   1       1.980  -2.030   1.382  0.00  0.00    -0.031 A 
ATOM      4  C4  IND d   1      -0.130  -0.729   2.077  0.00  0.00     0.051 A 
ATOM      5  C5  IND d   1      -1.096   0.101   1.581  0.00  0.00    -0.031 A 
ATOM      6  C6  IND d   1      -1.149   0.441   0.245  0.00  0.00     0.015 A 
ATOM      7  C7  IND d   1      -0.240  -0.047  -0.651  0.00  0.00    -0.016 A 
ATOM      8  C8  IND d   1       0.746  -0.884  -0.150  0.00  0.00    -0.047 A 
ATOM      9  C9  IND d   1       0.831  -1.198   1.213  0.00  0.00    -0.096 A 
ATOM     10  HN1 IND d   1       1.978  -1.467  -1.621  0.00  0.00     0.298 HD
ENDROOT
TORSDOF 0
ENDMDL
