MODEL 1
REMARK minimizedAffinity -3.93690538
REMARK minimizedRMSD -1
REMARK  0 active torsions:
REMARK  status: ('A' for Active; 'I' for Inactive)
ROOT
ATOM      1  N1  IND d   1       0.467  -0.915  -1.192  0.00  0.00    -0.196 N 
ATOM      2  C2  IND d   1      -0.739  -0.273  -1.154  0.00  0.00     0.054 A 
ATOM      3  C3  IND d   1      -1.052   0.064   0.118  0.00  0.00    -0.031 A 
ATOM      4  C4  IND d   1       0.315  -0.251   2.277  0.00  0.00     0.051 A 
ATOM      5  C5  IND d   1       1.464  -0.819   2.751  0.00  0.00    -0.031 A 
ATOM      6  C6  IND d   1       2.359  -1.459   1.918  0.00  0.00     0.015 A 
ATOM      7  C7  IND d   1       2.142  -1.545   0.571  0.00  0.00    -0.016 A 
ATOM      8  C8  IND d   1       0.973  -0.975   0.087  0.00  0.00    -0.047 A 
ATOM      9  C9  IND d   1       0.041  -0.362   0.934  0.00  0.00    -0.096 A 
ATOM     10  HN1 IND d   1       0.845  -1.229  -1.898  0.00  0.00     0.298 HD
ENDROOT
TORSDOF 0
ENDMDL
