MODEL 1
REMARK minimizedAffinity -5.22592545
REMARK minimizedRMSD -1
REMARK  0 active torsions:
REMARK  status: ('A' for Active; 'I' for Inactive)
ROOT
ATOM      1  N1  IND d   1       0.544  -1.436  -1.422  0.00  0.00    -0.196 N 
ATOM      2  C2  IND d   1      -0.114  -0.334  -1.892  0.00  0.00     0.054 A 
ATOM      3  C3  IND d   1      -0.007   0.688  -1.013  0.00  0.00    -0.031 A 
ATOM      4  C4  IND d   1       1.285   0.805   1.211  0.00  0.00     0.051 A 
ATOM      5  C5  IND d   1       2.010   0.035   2.076  0.00  0.00    -0.031 A 
ATOM      6  C6  IND d   1       2.292  -1.290   1.814  0.00  0.00     0.015 A 
ATOM      7  C7  IND d   1       1.867  -1.894   0.665  0.00  0.00    -0.016 A 
ATOM      8  C8  IND d   1       1.124  -1.118  -0.213  0.00  0.00    -0.047 A 
ATOM      9  C9  IND d   1       0.798   0.215   0.068  0.00  0.00    -0.096 A 
ATOM     10  HN1 IND d   1       0.588  -2.200  -1.815  0.00  0.00     0.298 HD
ENDROOT
TORSDOF 0
ENDMDL
