MODEL 1
REMARK minimizedAffinity -4.17107105
REMARK minimizedRMSD -1
REMARK  0 active torsions:
REMARK  status: ('A' for Active; 'I' for Inactive)
ROOT
ATOM      1  N1  IND d   1       0.257  -0.761   0.680  0.00  0.00    -0.196 N 
ATOM      2  C2  IND d   1      -0.512  -1.560   1.479  0.00  0.00     0.054 A 
ATOM      3  C3  IND d   1       0.217  -2.030   2.515  0.00  0.00    -0.031 A 
ATOM      4  C4  IND d   1       2.662  -1.535   3.152  0.00  0.00     0.051 A 
ATOM      5  C5  IND d   1       3.782  -0.890   2.707  0.00  0.00    -0.031 A 
ATOM      6  C6  IND d   1       3.783  -0.152   1.541  0.00  0.00     0.015 A 
ATOM      7  C7  IND d   1       2.657  -0.022   0.779  0.00  0.00    -0.016 A 
ATOM      8  C8  IND d   1       1.519  -0.681   1.225  0.00  0.00    -0.047 A 
ATOM      9  C9  IND d   1       1.523  -1.466   2.385  0.00  0.00    -0.096 A 
ATOM     10  HN1 IND d   1      -0.004  -0.373  -0.042  0.00  0.00     0.298 HD
ENDROOT
TORSDOF 0
ENDMDL
