MODEL 1
REMARK minimizedAffinity -0.66857636
REMARK minimizedRMSD -1
REMARK  0 active torsions:
REMARK  status: ('A' for Active; 'I' for Inactive)
ROOT
ATOM      1  C   UNL d   1       0.003  -0.128   1.166  0.00  0.00     0.172 C 
ATOM      2  N   UNL d   1       0.644  -1.369   0.801  0.00  0.00    -0.070 N 
ATOM      3  C1  UNL d   1       0.343  -2.603   1.311  0.00  0.00    -0.004 A 
ATOM      4  C2  UNL d   1       1.175  -3.523   0.709  0.00  0.00    -0.047 A 
ATOM      5  C3  UNL d   1       2.005  -2.816  -0.193  0.00  0.00    -0.047 A 
ATOM      6  C4  UNL d   1       1.655  -1.485  -0.116  0.00  0.00    -0.004 A 
ENDROOT
TORSDOF 0
ENDMDL
