MODEL 1
REMARK minimizedAffinity -2.74196076
REMARK minimizedRMSD -1
REMARK  0 active torsions:
REMARK  status: ('A' for Active; 'I' for Inactive)
ROOT
ATOM      1  C   UNL d   1       2.267  -3.931  -0.226  0.00  0.00     0.172 C 
ATOM      2  N   UNL d   1       1.369  -2.852   0.110  0.00  0.00    -0.070 N 
ATOM      3  C1  UNL d   1       0.074  -2.993   0.534  0.00  0.00    -0.004 A 
ATOM      4  C2  UNL d   1      -0.440  -1.733   0.749  0.00  0.00    -0.047 A 
ATOM      5  C3  UNL d   1       0.581  -0.801   0.443  0.00  0.00    -0.047 A 
ATOM      6  C4  UNL d   1       1.689  -1.521   0.050  0.00  0.00    -0.004 A 
ENDROOT
TORSDOF 0
ENDMDL
