MODEL 1
REMARK minimizedAffinity 0.0731684789
REMARK minimizedRMSD -1
REMARK  0 active torsions:
REMARK  status: ('A' for Active; 'I' for Inactive)
ROOT
ATOM      1  C   UNL d   1       2.480  -4.096  -0.003  0.00  0.00     0.172 C 
ATOM      2  N   UNL d   1       1.570  -3.015   0.295  0.00  0.00    -0.070 N 
ATOM      3  C1  UNL d   1       1.903  -1.689   0.371  0.00  0.00    -0.004 A 
ATOM      4  C2  UNL d   1       0.759  -0.983   0.675  0.00  0.00    -0.047 A 
ATOM      5  C3  UNL d   1      -0.298  -1.917   0.786  0.00  0.00    -0.047 A 
ATOM      6  C4  UNL d   1       0.232  -3.168   0.547  0.00  0.00    -0.004 A 
ENDROOT
TORSDOF 0
ENDMDL
