MODEL 1
REMARK minimizedAffinity -2.6845665
REMARK minimizedRMSD -1
REMARK  0 active torsions:
REMARK  status: ('A' for Active; 'I' for Inactive)
ROOT
ATOM      1  C   UNL d   1       2.693  -0.161   0.395  0.00  0.00     0.172 C 
ATOM      2  N   UNL d   1       1.577  -1.044   0.637  0.00  0.00    -0.070 N 
ATOM      3  C1  UNL d   1       0.296  -0.652   0.922  0.00  0.00    -0.004 A 
ATOM      4  C2  UNL d   1      -0.467  -1.789   1.084  0.00  0.00    -0.047 A 
ATOM      5  C3  UNL d   1       0.385  -2.902   0.891  0.00  0.00    -0.047 A 
ATOM      6  C4  UNL d   1       1.644  -2.412   0.616  0.00  0.00    -0.004 A 
ENDROOT
TORSDOF 0
ENDMDL
