MODEL 1
REMARK minimizedAffinity -3.74546552
REMARK minimizedRMSD -1
REMARK  0 active torsions:
REMARK  status: ('A' for Active; 'I' for Inactive)
ROOT
ATOM      1  C   UNL d   1      -1.059  -0.431   0.795  0.00  0.00     0.172 C 
ATOM      2  N   UNL d   1       0.088  -1.305   0.718  0.00  0.00    -0.070 N 
ATOM      3  C1  UNL d   1       1.398  -0.906   0.733  0.00  0.00    -0.004 A 
ATOM      4  C2  UNL d   1       2.184  -2.035   0.642  0.00  0.00    -0.047 A 
ATOM      5  C3  UNL d   1       1.316  -3.151   0.570  0.00  0.00    -0.047 A 
ATOM      6  C4  UNL d   1       0.024  -2.670   0.619  0.00  0.00    -0.004 A 
ENDROOT
TORSDOF 0
ENDMDL
