MODEL 1
REMARK minimizedAffinity -1.96045458
REMARK minimizedRMSD -1
REMARK  0 active torsions:
REMARK  status: ('A' for Active; 'I' for Inactive)
ROOT
ATOM      1  C   UNL d   1      -5.362  -4.116   1.856  0.00  0.00     0.172 C 
ATOM      2  N   UNL d   1      -5.614  -4.618   3.186  0.00  0.00    -0.070 N 
ATOM      3  C1  UNL d   1      -5.726  -5.938   3.533  0.00  0.00    -0.004 A 
ATOM      4  C2  UNL d   1      -5.964  -6.000   4.889  0.00  0.00    -0.047 A 
ATOM      5  C3  UNL d   1      -5.998  -4.671   5.373  0.00  0.00    -0.047 A 
ATOM      6  C4  UNL d   1      -5.778  -3.836   4.298  0.00  0.00    -0.004 A 
ENDROOT
TORSDOF 0
ENDMDL
