MODEL 1
REMARK minimizedAffinity -2.86007905
REMARK minimizedRMSD -1
REMARK  0 active torsions:
REMARK  status: ('A' for Active; 'I' for Inactive)
ROOT
ATOM      1  C   UNL d   1       4.495   3.821  -1.237  0.00  0.00     0.172 C 
ATOM      2  N   UNL d   1       4.402   4.571  -0.006  0.00  0.00    -0.070 N 
ATOM      3  C1  UNL d   1       3.397   4.467   0.919  0.00  0.00    -0.004 A 
ATOM      4  C2  UNL d   1       3.675   5.344   1.944  0.00  0.00    -0.047 A 
ATOM      5  C3  UNL d   1       4.888   5.999   1.625  0.00  0.00    -0.047 A 
ATOM      6  C4  UNL d   1       5.316   5.502   0.412  0.00  0.00    -0.004 A 
ENDROOT
TORSDOF 0
ENDMDL
