MODEL 1
REMARK minimizedAffinity -2.73460293
REMARK minimizedRMSD -1
REMARK  0 active torsions:
REMARK  status: ('A' for Active; 'I' for Inactive)
ROOT
ATOM      1  C   UNL d   1      -5.618  -4.493   2.400  0.00  0.00     0.172 C 
ATOM      2  N   UNL d   1      -5.375  -4.812   3.786  0.00  0.00    -0.070 N 
ATOM      3  C1  UNL d   1      -5.620  -3.987   4.851  0.00  0.00    -0.004 A 
ATOM      4  C2  UNL d   1      -5.255  -4.658   5.998  0.00  0.00    -0.047 A 
ATOM      5  C3  UNL d   1      -4.772  -5.930   5.609  0.00  0.00    -0.047 A 
ATOM      6  C4  UNL d   1      -4.858  -5.999   4.235  0.00  0.00    -0.004 A 
ENDROOT
TORSDOF 0
ENDMDL
