MODEL 1
REMARK minimizedAffinity -1.76270533
REMARK minimizedRMSD -1
REMARK  0 active torsions:
REMARK  status: ('A' for Active; 'I' for Inactive)
ROOT
ATOM      1  C   UNL d   1       3.629  -4.950   0.025  0.00  0.00     0.172 C 
ATOM      2  N   UNL d   1       2.768  -3.807   0.221  0.00  0.00    -0.070 N 
ATOM      3  C1  UNL d   1       1.407  -3.848   0.366  0.00  0.00    -0.004 A 
ATOM      4  C2  UNL d   1       0.961  -2.554   0.530  0.00  0.00    -0.047 A 
ATOM      5  C3  UNL d   1       2.093  -1.706   0.482  0.00  0.00    -0.047 A 
ATOM      6  C4  UNL d   1       3.199  -2.508   0.290  0.00  0.00    -0.004 A 
ENDROOT
TORSDOF 0
ENDMDL
