MODEL 1
REMARK minimizedAffinity -0.967583537
REMARK minimizedRMSD -1
REMARK  0 active torsions:
REMARK  status: ('A' for Active; 'I' for Inactive)
ROOT
ATOM      1  C   UNL d   1       2.115  -4.102   0.117  0.00  0.00     0.172 C 
ATOM      2  N   UNL d   1       1.316  -2.925   0.365  0.00  0.00    -0.070 N 
ATOM      3  C1  UNL d   1       1.799  -1.686   0.693  0.00  0.00    -0.004 A 
ATOM      4  C2  UNL d   1       0.722  -0.840   0.846  0.00  0.00    -0.047 A 
ATOM      5  C3  UNL d   1      -0.449  -1.597   0.604  0.00  0.00    -0.047 A 
ATOM      6  C4  UNL d   1      -0.052  -2.884   0.308  0.00  0.00    -0.004 A 
ENDROOT
TORSDOF 0
ENDMDL
