MODEL 1
REMARK minimizedAffinity -3.22053695
REMARK minimizedRMSD -1
REMARK  0 active torsions:
REMARK  status: ('A' for Active; 'I' for Inactive)
ROOT
ATOM      1  C   UNL d   1       2.024  -3.844  -0.086  0.00  0.00     0.172 C 
ATOM      2  N   UNL d   1       1.251  -2.658   0.202  0.00  0.00    -0.070 N 
ATOM      3  C1  UNL d   1       1.761  -1.406   0.417  0.00  0.00    -0.004 A 
ATOM      4  C2  UNL d   1       0.704  -0.555   0.657  0.00  0.00    -0.047 A 
ATOM      5  C3  UNL d   1      -0.483  -1.323   0.584  0.00  0.00    -0.047 A 
ATOM      6  C4  UNL d   1      -0.115  -2.621   0.301  0.00  0.00    -0.004 A 
ENDROOT
TORSDOF 0
ENDMDL
