MODEL 1
REMARK minimizedAffinity -0.365840763
REMARK minimizedRMSD -1
REMARK  0 active torsions:
REMARK  status: ('A' for Active; 'I' for Inactive)
ROOT
ATOM      1  C   UNL d   1       3.092  -1.066   0.047  0.00  0.00     0.172 C 
ATOM      2  N   UNL d   1       1.722  -0.933   0.484  0.00  0.00    -0.070 N 
ATOM      3  C1  UNL d   1       0.621  -1.382  -0.195  0.00  0.00    -0.004 A 
ATOM      4  C2  UNL d   1      -0.493  -1.063   0.551  0.00  0.00    -0.047 A 
ATOM      5  C3  UNL d   1      -0.046  -0.399   1.718  0.00  0.00    -0.047 A 
ATOM      6  C4  UNL d   1       1.330  -0.332   1.650  0.00  0.00    -0.004 A 
ENDROOT
TORSDOF 0
ENDMDL
