MODEL 1
REMARK minimizedAffinity -2.53428435
REMARK minimizedRMSD -1
REMARK  0 active torsions:
REMARK  status: ('A' for Active; 'I' for Inactive)
ROOT
ATOM      1  C   UNL d   1       2.733   3.790  -4.028  0.00  0.00     0.172 C 
ATOM      2  N   UNL d   1       1.612   4.626  -4.390  0.00  0.00    -0.070 N 
ATOM      3  C1  UNL d   1       0.500   4.847  -3.622  0.00  0.00    -0.004 A 
ATOM      4  C2  UNL d   1      -0.331   5.698  -4.317  0.00  0.00    -0.047 A 
ATOM      5  C3  UNL d   1       0.304   5.999  -5.546  0.00  0.00    -0.047 A 
ATOM      6  C4  UNL d   1       1.505   5.322  -5.564  0.00  0.00    -0.004 A 
ENDROOT
TORSDOF 0
ENDMDL
