MODEL 1
REMARK minimizedAffinity 0.365077049
REMARK minimizedRMSD -1
REMARK  0 active torsions:
REMARK  status: ('A' for Active; 'I' for Inactive)
ROOT
ATOM      1  C   UNL d   1       2.600  -0.032   1.425  0.00  0.00     0.172 C 
ATOM      2  N   UNL d   1       1.254  -0.420   1.071  0.00  0.00    -0.070 N 
ATOM      3  C1  UNL d   1       0.107   0.185   1.511  0.00  0.00    -0.004 A 
ATOM      4  C2  UNL d   1      -0.962  -0.478   0.947  0.00  0.00    -0.047 A 
ATOM      5  C3  UNL d   1      -0.439  -1.517   0.141  0.00  0.00    -0.047 A 
ATOM      6  C4  UNL d   1       0.935  -1.458   0.236  0.00  0.00    -0.004 A 
ENDROOT
TORSDOF 0
ENDMDL
