MODEL 1
REMARK minimizedAffinity -0.870768666
REMARK minimizedRMSD -1
REMARK  0 active torsions:
REMARK  status: ('A' for Active; 'I' for Inactive)
ROOT
ATOM      1  C   UNL d   1       0.663  -4.140  -0.945  0.00  0.00     0.172 C 
ATOM      2  N   UNL d   1       0.150  -3.110  -0.073  0.00  0.00    -0.070 N 
ATOM      3  C1  UNL d   1       0.255  -1.761  -0.282  0.00  0.00    -0.004 A 
ATOM      4  C2  UNL d   1      -0.359  -1.121   0.772  0.00  0.00    -0.047 A 
ATOM      5  C3  UNL d   1      -0.850  -2.120   1.646  0.00  0.00    -0.047 A 
ATOM      6  C4  UNL d   1      -0.521  -3.342   1.099  0.00  0.00    -0.004 A 
ENDROOT
TORSDOF 0
ENDMDL
