MODEL 1
REMARK minimizedAffinity -1.89956439
REMARK minimizedRMSD -1
REMARK  0 active torsions:
REMARK  status: ('A' for Active; 'I' for Inactive)
ROOT
ATOM      1  C   UNL d   1       1.619  -3.898  -0.197  0.00  0.00     0.172 C 
ATOM      2  N   UNL d   1       1.138  -2.578   0.135  0.00  0.00    -0.070 N 
ATOM      3  C1  UNL d   1       1.578  -1.405  -0.418  0.00  0.00    -0.004 A 
ATOM      4  C2  UNL d   1       0.873  -0.374   0.162  0.00  0.00    -0.047 A 
ATOM      5  C3  UNL d   1      -0.021  -0.946   1.098  0.00  0.00    -0.047 A 
ATOM      6  C4  UNL d   1       0.164  -2.312   1.061  0.00  0.00    -0.004 A 
ENDROOT
TORSDOF 0
ENDMDL
