MODEL 1
REMARK minimizedAffinity -2.4268105
REMARK minimizedRMSD -1
REMARK  0 active torsions:
REMARK  status: ('A' for Active; 'I' for Inactive)
ROOT
ATOM      1  C   UNL d   1       2.554  -3.606  -0.408  0.00  0.00     0.172 C 
ATOM      2  N   UNL d   1       1.519  -2.676  -0.023  0.00  0.00    -0.070 N 
ATOM      3  C1  UNL d   1       1.609  -1.311  -0.083  0.00  0.00    -0.004 A 
ATOM      4  C2  UNL d   1       0.417  -0.789   0.370  0.00  0.00    -0.047 A 
ATOM      5  C3  UNL d   1      -0.418  -1.878   0.715  0.00  0.00    -0.047 A 
ATOM      6  C4  UNL d   1       0.289  -3.034   0.462  0.00  0.00    -0.004 A 
ENDROOT
TORSDOF 0
ENDMDL
