MODEL 1
REMARK minimizedAffinity -4.13202429
REMARK minimizedRMSD -1
REMARK  0 active torsions:
REMARK  status: ('A' for Active; 'I' for Inactive)
ROOT
ATOM      1  O1  BZF d   1      -1.426   1.382   1.528  0.00  0.00    -0.204 OA
ATOM      2  C2  BZF d   1      -0.547   2.020   0.675  0.00  0.00     0.174 A 
ATOM      3  C3  BZF d   1       0.343   1.146   0.162  0.00  0.00    -0.012 A 
ATOM      4  C3A BZF d   1      -0.058  -0.134   0.659  0.00  0.00    -0.107 A 
ATOM      5  C4  BZF d   1       0.424  -1.400   0.489  0.00  0.00     0.055 A 
ATOM      6  C5  BZF d   1      -0.153  -2.424   1.173  0.00  0.00    -0.016 A 
ATOM      7  C6  BZF d   1      -1.208  -2.217   2.037  0.00  0.00     0.022 A 
ATOM      8  C7  BZF d   1      -1.724  -0.979   2.234  0.00  0.00     0.029 A 
ATOM      9  C7A BZF d   1      -1.165   0.052   1.520  0.00  0.00     0.058 A 
ENDROOT
TORSDOF 0
ENDMDL
