MODEL 1
REMARK minimizedAffinity -4.86731672
REMARK minimizedRMSD -1
REMARK  0 active torsions:
REMARK  status: ('A' for Active; 'I' for Inactive)
ROOT
ATOM      1  O1  BZF d   1      -0.481   1.158   0.259  0.00  0.00    -0.204 OA
ATOM      2  C2  BZF d   1       0.714   0.865  -0.369  0.00  0.00     0.174 A 
ATOM      3  C3  BZF d   1       1.027  -0.438  -0.217  0.00  0.00    -0.012 A 
ATOM      4  C3A BZF d   1      -0.085  -1.014   0.476  0.00  0.00    -0.107 A 
ATOM      5  C4  BZF d   1      -0.372  -2.279   0.903  0.00  0.00     0.055 A 
ATOM      6  C5  BZF d   1      -1.510  -2.493   1.615  0.00  0.00    -0.016 A 
ATOM      7  C6  BZF d   1      -2.379  -1.467   1.921  0.00  0.00     0.022 A 
ATOM      8  C7  BZF d   1      -2.139  -0.196   1.515  0.00  0.00     0.029 A 
ATOM      9  C7A BZF d   1      -1.007   0.018   0.767  0.00  0.00     0.058 A 
ENDROOT
TORSDOF 0
ENDMDL
