MODEL 1
REMARK minimizedAffinity -5.02018261
REMARK minimizedRMSD -1
REMARK  0 active torsions:
REMARK  status: ('A' for Active; 'I' for Inactive)
ROOT
ATOM      1  O1  BZF d   1      -1.229   1.320   0.738  0.00  0.00    -0.204 OA
ATOM      2  C2  BZF d   1      -0.042   1.731   0.164  0.00  0.00     0.174 A 
ATOM      3  C3  BZF d   1       0.717   0.670  -0.178  0.00  0.00    -0.012 A 
ATOM      4  C3A BZF d   1      -0.083  -0.477   0.122  0.00  0.00    -0.107 A 
ATOM      5  C4  BZF d   1       0.115  -1.821  -0.012  0.00  0.00     0.055 A 
ATOM      6  C5  BZF d   1      -0.835  -2.678   0.444  0.00  0.00    -0.016 A 
ATOM      7  C6  BZF d   1      -1.993  -2.227   1.044  0.00  0.00     0.022 A 
ATOM      8  C7  BZF d   1      -2.237  -0.902   1.195  0.00  0.00     0.029 A 
ATOM      9  C7A BZF d   1      -1.293  -0.033   0.705  0.00  0.00     0.058 A 
ENDROOT
TORSDOF 0
ENDMDL
