MODEL 1
REMARK minimizedAffinity -0.843355119
REMARK minimizedRMSD -1
REMARK  0 active torsions:
REMARK  status: ('A' for Active; 'I' for Inactive)
ROOT
ATOM      1  O1  BZF d   1      -0.152   1.089  -0.730  0.00  0.00    -0.204 OA
ATOM      2  C2  BZF d   1       1.127   1.541  -0.992  0.00  0.00     0.174 A 
ATOM      3  C3  BZF d   1       2.046   0.716  -0.449  0.00  0.00    -0.012 A 
ATOM      4  C3A BZF d   1       1.296  -0.364   0.114  0.00  0.00    -0.107 A 
ATOM      5  C4  BZF d   1       1.647  -1.505   0.778  0.00  0.00     0.055 A 
ATOM      6  C5  BZF d   1       0.669  -2.316   1.260  0.00  0.00    -0.016 A 
ATOM      7  C6  BZF d   1      -0.668  -2.015   1.101  0.00  0.00     0.022 A 
ATOM      8  C7  BZF d   1      -1.065  -0.897   0.445  0.00  0.00     0.029 A 
ATOM      9  C7A BZF d   1      -0.080  -0.093  -0.072  0.00  0.00     0.058 A 
ENDROOT
TORSDOF 0
ENDMDL
