MODEL 1
REMARK minimizedAffinity -0.91950351
REMARK minimizedRMSD -1
REMARK  0 active torsions:
REMARK  status: ('A' for Active; 'I' for Inactive)
ROOT
ATOM      1  O1  BZF d   1      -1.677   0.704   1.650  0.00  0.00    -0.204 OA
ATOM      2  C2  BZF d   1      -2.456  -0.155   2.401  0.00  0.00     0.174 A 
ATOM      3  C3  BZF d   1      -2.014  -1.424   2.289  0.00  0.00    -0.012 A 
ATOM      4  C3A BZF d   1      -0.833  -1.341   1.487  0.00  0.00    -0.107 A 
ATOM      5  C4  BZF d   1       0.064  -2.268   1.038  0.00  0.00     0.055 A 
ATOM      6  C5  BZF d   1       1.068  -1.871   0.213  0.00  0.00    -0.016 A 
ATOM      7  C6  BZF d   1       1.201  -0.558  -0.188  0.00  0.00     0.022 A 
ATOM      8  C7  BZF d   1       0.339   0.399   0.234  0.00  0.00     0.029 A 
ATOM      9  C7A BZF d   1      -0.657   0.006   1.095  0.00  0.00     0.058 A 
ENDROOT
TORSDOF 0
ENDMDL
