MODEL 1
REMARK minimizedAffinity -1.91667509
REMARK minimizedRMSD -1
REMARK  0 active torsions:
REMARK  status: ('A' for Active; 'I' for Inactive)
ROOT
ATOM      1  O1  BZF d   1       0.183   1.352  -0.058  0.00  0.00    -0.204 OA
ATOM      2  C2  BZF d   1       0.911   0.228   0.284  0.00  0.00     0.174 A 
ATOM      3  C3  BZF d   1       1.543  -0.278  -0.795  0.00  0.00    -0.012 A 
ATOM      4  C3A BZF d   1       1.261   0.635  -1.859  0.00  0.00    -0.107 A 
ATOM      5  C4  BZF d   1       1.623   0.684  -3.175  0.00  0.00     0.055 A 
ATOM      6  C5  BZF d   1       1.119   1.670  -3.963  0.00  0.00    -0.016 A 
ATOM      7  C6  BZF d   1       0.249   2.620  -3.470  0.00  0.00     0.022 A 
ATOM      8  C7  BZF d   1      -0.135   2.615  -2.170  0.00  0.00     0.029 A 
ATOM      9  C7A BZF d   1       0.398   1.640  -1.364  0.00  0.00     0.058 A 
ENDROOT
TORSDOF 0
ENDMDL
