MODEL 1
REMARK minimizedAffinity -6.02342796
REMARK minimizedRMSD -1
REMARK  0 active torsions:
REMARK  status: ('A' for Active; 'I' for Inactive)
ROOT
ATOM      1  O1  BZF d   1      -0.079   0.853   0.443  0.00  0.00    -0.204 OA
ATOM      2  C2  BZF d   1       0.925   0.076  -0.102  0.00  0.00     0.174 A 
ATOM      3  C3  BZF d   1       0.777  -1.216   0.256  0.00  0.00    -0.012 A 
ATOM      4  C3A BZF d   1      -0.445  -1.263   0.999  0.00  0.00    -0.107 A 
ATOM      5  C4  BZF d   1      -1.136  -2.272   1.607  0.00  0.00     0.055 A 
ATOM      6  C5  BZF d   1      -2.257  -1.973   2.313  0.00  0.00    -0.016 A 
ATOM      7  C6  BZF d   1      -2.713  -0.677   2.436  0.00  0.00     0.022 A 
ATOM      8  C7  BZF d   1      -2.064   0.357   1.847  0.00  0.00     0.029 A 
ATOM      9  C7A BZF d   1      -0.949   0.054   1.106  0.00  0.00     0.058 A 
ENDROOT
TORSDOF 0
ENDMDL
