MODEL 1
REMARK minimizedAffinity -1.22071731
REMARK minimizedRMSD -1
REMARK  0 active torsions:
REMARK  status: ('A' for Active; 'I' for Inactive)
ROOT
ATOM      1  O1  BZF d   1      -0.067  -1.672   1.173  0.00  0.00    -0.204 OA
ATOM      2  C2  BZF d   1       1.070  -2.221   0.612  0.00  0.00     0.174 A 
ATOM      3  C3  BZF d   1       1.698  -1.322  -0.173  0.00  0.00    -0.012 A 
ATOM      4  C3A BZF d   1       0.955  -0.109  -0.025  0.00  0.00    -0.107 A 
ATOM      5  C4  BZF d   1       1.095   1.147  -0.543  0.00  0.00     0.055 A 
ATOM      6  C5  BZF d   1       0.157   2.088  -0.257  0.00  0.00    -0.016 A 
ATOM      7  C6  BZF d   1      -0.936   1.806   0.537  0.00  0.00     0.022 A 
ATOM      8  C7  BZF d   1      -1.115   0.576   1.077  0.00  0.00     0.029 A 
ATOM      9  C7A BZF d   1      -0.151  -0.367   0.817  0.00  0.00     0.058 A 
ENDROOT
TORSDOF 0
ENDMDL
