MODEL 1
REMARK minimizedAffinity 16.27775
REMARK minimizedRMSD -1
REMARK  0 active torsions:
REMARK  status: ('A' for Active; 'I' for Inactive)
ROOT
ATOM      1  O1  BZF d   1      -0.360  -3.463   6.000  0.00  0.00    -0.204 OA
ATOM      2  C2  BZF d   1      -1.656  -2.983   5.991  0.00  0.00     0.174 A 
ATOM      3  C3  BZF d   1      -1.976  -2.491   4.777  0.00  0.00    -0.012 A 
ATOM      4  C3A BZF d   1      -0.839  -2.758   3.951  0.00  0.00    -0.107 A 
ATOM      5  C4  BZF d   1      -0.557  -2.521   2.636  0.00  0.00     0.055 A 
ATOM      6  C5  BZF d   1       0.674  -2.840   2.156  0.00  0.00    -0.016 A 
ATOM      7  C6  BZF d   1       1.648  -3.391   2.964  0.00  0.00     0.022 A 
ATOM      8  C7  BZF d   1       1.413  -3.649   4.273  0.00  0.00     0.029 A 
ATOM      9  C7A BZF d   1       0.159  -3.359   4.753  0.00  0.00     0.058 A 
ENDROOT
TORSDOF 0
ENDMDL
