MODEL 1
REMARK minimizedAffinity -1.6575948
REMARK minimizedRMSD -1
REMARK  0 active torsions:
REMARK  status: ('A' for Active; 'I' for Inactive)
ROOT
ATOM      1  O1  BZF d   1       0.751   1.293   0.017  0.00  0.00    -0.204 OA
ATOM      2  C2  BZF d   1       0.278  -0.005   0.038  0.00  0.00     0.174 A 
ATOM      3  C3  BZF d   1      -0.055  -0.413  -1.204  0.00  0.00    -0.012 A 
ATOM      4  C3A BZF d   1       0.314   0.667  -2.067  0.00  0.00    -0.107 A 
ATOM      5  C4  BZF d   1       0.247   0.855  -3.418  0.00  0.00     0.055 A 
ATOM      6  C5  BZF d   1       0.623   2.052  -3.938  0.00  0.00    -0.016 A 
ATOM      7  C6  BZF d   1       1.066   3.085  -3.137  0.00  0.00     0.022 A 
ATOM      8  C7  BZF d   1       1.155   2.944  -1.792  0.00  0.00     0.029 A 
ATOM      9  C7A BZF d   1       0.807   1.724  -1.267  0.00  0.00     0.058 A 
ENDROOT
TORSDOF 0
ENDMDL
