MODEL 1
REMARK minimizedAffinity -1.26914799
REMARK minimizedRMSD -1
REMARK  0 active torsions:
REMARK  status: ('A' for Active; 'I' for Inactive)
ROOT
ATOM      1  O1  BZF d   1      -2.263   0.785   1.740  0.00  0.00    -0.204 OA
ATOM      2  C2  BZF d   1      -3.006   0.001   2.602  0.00  0.00     0.174 A 
ATOM      3  C3  BZF d   1      -2.473  -1.233   2.706  0.00  0.00    -0.012 A 
ATOM      4  C3A BZF d   1      -1.272  -1.191   1.929  0.00  0.00    -0.107 A 
ATOM      5  C4  BZF d   1      -0.297  -2.108   1.657  0.00  0.00     0.055 A 
ATOM      6  C5  BZF d   1       0.705  -1.773   0.803  0.00  0.00    -0.016 A 
ATOM      7  C6  BZF d   1       0.760  -0.534   0.198  0.00  0.00     0.022 A 
ATOM      8  C7  BZF d   1      -0.181   0.410   0.441  0.00  0.00     0.029 A 
ATOM      9  C7A BZF d   1      -1.177   0.086   1.330  0.00  0.00     0.058 A 
ENDROOT
TORSDOF 0
ENDMDL
