MODEL 1
REMARK minimizedAffinity -1.19869804
REMARK minimizedRMSD -1
REMARK  0 active torsions:
REMARK  status: ('A' for Active; 'I' for Inactive)
ROOT
ATOM      1  O1  BZF d   1      -0.571   0.627  -0.570  0.00  0.00    -0.204 OA
ATOM      2  C2  BZF d   1       0.107   0.103   0.514  0.00  0.00     0.174 A 
ATOM      3  C3  BZF d   1       1.422   0.393   0.441  0.00  0.00    -0.012 A 
ATOM      4  C3A BZF d   1       1.560   1.225  -0.715  0.00  0.00    -0.107 A 
ATOM      5  C4  BZF d   1       2.625   1.848  -1.302  0.00  0.00     0.055 A 
ATOM      6  C5  BZF d   1       2.435   2.526  -2.464  0.00  0.00    -0.016 A 
ATOM      7  C6  BZF d   1       1.197   2.598  -3.069  0.00  0.00     0.022 A 
ATOM      8  C7  BZF d   1       0.110   2.001  -2.521  0.00  0.00     0.029 A 
ATOM      9  C7A BZF d   1       0.293   1.342  -1.330  0.00  0.00     0.058 A 
ENDROOT
TORSDOF 0
ENDMDL
