MODEL 1
REMARK minimizedAffinity -4.10499191
REMARK minimizedRMSD -1
REMARK  0 active torsions:
REMARK  status: ('A' for Active; 'I' for Inactive)
ROOT
ATOM      1  O1  BZF d   1      -0.246   0.774   0.329  0.00  0.00    -0.204 OA
ATOM      2  C2  BZF d   1       0.774   0.118  -0.333  0.00  0.00     0.174 A 
ATOM      3  C3  BZF d   1       0.765  -1.198  -0.041  0.00  0.00    -0.012 A 
ATOM      4  C3A BZF d   1      -0.386  -1.392   0.787  0.00  0.00    -0.107 A 
ATOM      5  C4  BZF d   1      -0.938  -2.489   1.385  0.00  0.00     0.055 A 
ATOM      6  C5  BZF d   1      -2.022  -2.327   2.189  0.00  0.00    -0.016 A 
ATOM      7  C6  BZF d   1      -2.575  -1.085   2.421  0.00  0.00     0.022 A 
ATOM      8  C7  BZF d   1      -2.065   0.031   1.846  0.00  0.00     0.029 A 
ATOM      9  C7A BZF d   1      -0.990  -0.133   1.007  0.00  0.00     0.058 A 
ENDROOT
TORSDOF 0
ENDMDL
