MODEL 1
REMARK minimizedAffinity -4.33213282
REMARK minimizedRMSD -1
REMARK  0 active torsions:
REMARK  status: ('A' for Active; 'I' for Inactive)
ROOT
ATOM      1  O1  BZF d   1      -2.059   0.755   1.712  0.00  0.00    -0.204 OA
ATOM      2  C2  BZF d   1      -2.697   0.031   2.701  0.00  0.00     0.174 A 
ATOM      3  C3  BZF d   1      -2.314  -1.261   2.671  0.00  0.00    -0.012 A 
ATOM      4  C3A BZF d   1      -1.308  -1.332   1.656  0.00  0.00    -0.107 A 
ATOM      5  C4  BZF d   1      -0.536  -2.348   1.169  0.00  0.00     0.055 A 
ATOM      6  C5  BZF d   1       0.298  -2.101   0.124  0.00  0.00    -0.016 A 
ATOM      7  C6  BZF d   1       0.381  -0.854  -0.459  0.00  0.00     0.022 A 
ATOM      8  C7  BZF d   1      -0.362   0.186  -0.008  0.00  0.00     0.029 A 
ATOM      9  C7A BZF d   1      -1.181  -0.052   1.069  0.00  0.00     0.058 A 
ENDROOT
TORSDOF 0
ENDMDL
