MODEL 1
REMARK minimizedAffinity -1.96675181
REMARK minimizedRMSD -1
REMARK  0 active torsions:
REMARK  status: ('A' for Active; 'I' for Inactive)
ROOT
ATOM      1  O1  BZF d   1       1.451   1.483   0.063  0.00  0.00    -0.204 OA
ATOM      2  C2  BZF d   1       0.896   0.232   0.250  0.00  0.00     0.174 A 
ATOM      3  C3  BZF d   1       0.384  -0.242  -0.904  0.00  0.00    -0.012 A 
ATOM      4  C3A BZF d   1       0.718   0.737  -1.893  0.00  0.00    -0.107 A 
ATOM      5  C4  BZF d   1       0.496   0.826  -3.238  0.00  0.00     0.055 A 
ATOM      6  C5  BZF d   1       0.886   1.948  -3.898  0.00  0.00    -0.016 A 
ATOM      7  C6  BZF d   1       1.495   3.000  -3.246  0.00  0.00     0.022 A 
ATOM      8  C7  BZF d   1       1.741   2.955  -1.914  0.00  0.00     0.029 A 
ATOM      9  C7A BZF d   1       1.377   1.809  -1.250  0.00  0.00     0.058 A 
ENDROOT
TORSDOF 0
ENDMDL
