MODEL 1
REMARK minimizedAffinity -2.42372036
REMARK minimizedRMSD -1
REMARK  0 active torsions:
REMARK  status: ('A' for Active; 'I' for Inactive)
ROOT
ATOM      1  O1  BZF d   1       1.098  -1.659   0.590  0.00  0.00    -0.204 OA
ATOM      2  C2  BZF d   1       0.299  -2.625   1.170  0.00  0.00     0.174 A 
ATOM      3  C3  BZF d   1      -0.855  -2.086   1.615  0.00  0.00    -0.012 A 
ATOM      4  C3A BZF d   1      -0.811  -0.714   1.211  0.00  0.00    -0.107 A 
ATOM      5  C4  BZF d   1      -1.676   0.333   1.349  0.00  0.00     0.055 A 
ATOM      6  C5  BZF d   1      -1.301   1.562   0.906  0.00  0.00    -0.016 A 
ATOM      7  C6  BZF d   1      -0.068   1.780   0.326  0.00  0.00     0.022 A 
ATOM      8  C7  BZF d   1       0.822   0.771   0.163  0.00  0.00     0.029 A 
ATOM      9  C7A BZF d   1       0.433  -0.479   0.579  0.00  0.00     0.058 A 
ENDROOT
TORSDOF 0
ENDMDL
