MODEL 1
REMARK minimizedAffinity -0.321650624
REMARK minimizedRMSD -1
REMARK  0 active torsions:
REMARK  status: ('A' for Active; 'I' for Inactive)
ROOT
ATOM      1  O1  BZF d   1      -0.749   0.990  -0.681  0.00  0.00    -0.204 OA
ATOM      2  C2  BZF d   1       0.012   0.522   0.373  0.00  0.00     0.174 A 
ATOM      3  C3  BZF d   1       1.321   0.513   0.051  0.00  0.00    -0.012 A 
ATOM      4  C3A BZF d   1       1.392   1.092  -1.256  0.00  0.00    -0.107 A 
ATOM      5  C4  BZF d   1       2.424   1.369  -2.105  0.00  0.00     0.055 A 
ATOM      6  C5  BZF d   1       2.149   1.869  -3.339  0.00  0.00    -0.016 A 
ATOM      7  C6  BZF d   1       0.854   2.099  -3.756  0.00  0.00     0.022 A 
ATOM      8  C7  BZF d   1      -0.203   1.844  -2.947  0.00  0.00     0.029 A 
ATOM      9  C7A BZF d   1       0.074   1.370  -1.688  0.00  0.00     0.058 A 
ENDROOT
TORSDOF 0
ENDMDL
