MODEL 1
REMARK minimizedAffinity -1.05283892
REMARK minimizedRMSD -1
REMARK  1 active torsions:
REMARK  status: ('A' for Active; 'I' for Inactive)
REMARK    1  A    between atoms: C1_2  and  C2_3 
ROOT
ATOM      1  C2  UNL d   1       0.403   0.452  -0.503  0.00  0.00    -0.073 A 
ATOM      2  C3  UNL d   1      -0.443   0.159   0.573  0.00  0.00    -0.002 A 
ATOM      3  C4  UNL d   1      -1.728   0.701   0.626  0.00  0.00     0.004 A 
ATOM      4  C5  UNL d   1      -2.182   1.533  -0.397  0.00  0.00    -0.004 A 
ATOM      5  C6  UNL d   1      -1.355   1.828  -1.486  0.00  0.00    -0.075 A 
ATOM      6  C7  UNL d   1      -1.828   2.723  -2.593  0.00  0.00     0.076 C 
ATOM      7  C8  UNL d   1      -0.065   1.282  -1.531  0.00  0.00     0.001 A 
ENDROOT
BRANCH   1   8
ATOM      8  C1  UNL d   1       1.789  -0.136  -0.568  0.00  0.00     0.053 C 
ATOM      9  C   UNL d   1       2.003  -1.211   0.486  0.00  0.00     0.018 C 
ENDBRANCH   1   8
TORSDOF 1
ENDMDL
