MODEL 1
REMARK minimizedAffinity -0.961353302
REMARK minimizedRMSD -1
REMARK  1 active torsions:
REMARK  status: ('A' for Active; 'I' for Inactive)
REMARK    1  A    between atoms: C1_2  and  C2_3 
ROOT
ATOM      1  C2  UNL d   1       0.230   0.453  -0.279  0.00  0.00    -0.073 A 
ATOM      2  C3  UNL d   1       1.476  -0.145  -0.494  0.00  0.00    -0.002 A 
ATOM      3  C4  UNL d   1       1.939  -1.138   0.371  0.00  0.00     0.004 A 
ATOM      4  C5  UNL d   1       1.159  -1.547   1.453  0.00  0.00    -0.004 A 
ATOM      5  C6  UNL d   1      -0.095  -0.969   1.676  0.00  0.00    -0.075 A 
ATOM      6  C7  UNL d   1      -0.945  -1.396   2.836  0.00  0.00     0.076 C 
ATOM      7  C8  UNL d   1      -0.552   0.029   0.805  0.00  0.00     0.001 A 
ENDROOT
BRANCH   1   8
ATOM      8  C1  UNL d   1      -0.277   1.521  -1.214  0.00  0.00     0.053 C 
ATOM      9  C   UNL d   1      -1.560   1.104  -1.915  0.00  0.00     0.018 C 
ENDBRANCH   1   8
TORSDOF 1
ENDMDL
