MODEL 1
REMARK minimizedAffinity -2.16892862
REMARK minimizedRMSD -1
REMARK  1 active torsions:
REMARK  status: ('A' for Active; 'I' for Inactive)
REMARK    1  A    between atoms: C1_2  and  C2_3 
ROOT
ATOM      1  C2  UNL d   1      -0.149   0.039   0.693  0.00  0.00    -0.073 A 
ATOM      2  C3  UNL d   1      -1.356   0.107   1.399  0.00  0.00    -0.002 A 
ATOM      3  C4  UNL d   1      -1.508  -0.582   2.603  0.00  0.00     0.004 A 
ATOM      4  C5  UNL d   1      -0.454  -1.338   3.117  0.00  0.00    -0.004 A 
ATOM      5  C6  UNL d   1       0.763  -1.408   2.432  0.00  0.00    -0.075 A 
ATOM      6  C7  UNL d   1       1.905  -2.219   2.971  0.00  0.00     0.076 C 
ATOM      7  C8  UNL d   1       0.907  -0.716   1.222  0.00  0.00     0.001 A 
ENDROOT
BRANCH   1   8
ATOM      8  C1  UNL d   1       0.021   0.786  -0.605  0.00  0.00     0.053 C 
ATOM      9  C   UNL d   1      -1.313   1.197  -1.205  0.00  0.00     0.018 C 
ENDBRANCH   1   8
TORSDOF 1
ENDMDL
