MODEL 1
REMARK minimizedAffinity -3.65017653
REMARK minimizedRMSD -1
REMARK  1 active torsions:
REMARK  status: ('A' for Active; 'I' for Inactive)
REMARK    1  A    between atoms: C1_2  and  C2_3 
ROOT
ATOM      1  C2  UNL d   1       0.727  -0.243  -0.413  0.00  0.00    -0.073 A 
ATOM      2  C3  UNL d   1       0.459   0.813   0.466  0.00  0.00    -0.002 A 
ATOM      3  C4  UNL d   1      -0.513   1.763   0.150  0.00  0.00     0.004 A 
ATOM      4  C5  UNL d   1      -1.231   1.663  -1.041  0.00  0.00    -0.004 A 
ATOM      5  C6  UNL d   1      -0.986   0.609  -1.927  0.00  0.00    -0.075 A 
ATOM      6  C7  UNL d   1      -1.748   0.489  -3.214  0.00  0.00     0.076 C 
ATOM      7  C8  UNL d   1      -0.006  -0.340  -1.604  0.00  0.00     0.001 A 
ENDROOT
BRANCH   1   8
ATOM      8  C1  UNL d   1       1.771  -1.275  -0.073  0.00  0.00     0.053 C 
ATOM      9  C   UNL d   1       1.682  -1.721   1.378  0.00  0.00     0.018 C 
ENDBRANCH   1   8
TORSDOF 1
ENDMDL
