MODEL 1
REMARK minimizedAffinity -4.79403067
REMARK minimizedRMSD -1
REMARK  1 active torsions:
REMARK  status: ('A' for Active; 'I' for Inactive)
REMARK    1  A    between atoms: C1_2  and  C2_3 
ROOT
ATOM      1  C2  UNL d   1       0.220   0.323   0.203  0.00  0.00    -0.073 A 
ATOM      2  C3  UNL d   1       1.281  -0.332  -0.432  0.00  0.00    -0.002 A 
ATOM      3  C4  UNL d   1       1.837  -1.482   0.130  0.00  0.00     0.004 A 
ATOM      4  C5  UNL d   1       1.335  -1.992   1.327  0.00  0.00    -0.004 A 
ATOM      5  C6  UNL d   1       0.267  -1.358   1.971  0.00  0.00    -0.075 A 
ATOM      6  C7  UNL d   1      -0.283  -1.893   3.260  0.00  0.00     0.076 C 
ATOM      7  C8  UNL d   1      -0.284  -0.202   1.402  0.00  0.00     0.001 A 
ENDROOT
BRANCH   1   8
ATOM      8  C1  UNL d   1      -0.388   1.562  -0.403  0.00  0.00     0.053 C 
ATOM      9  C   UNL d   1      -1.364   1.229  -1.520  0.00  0.00     0.018 C 
ENDBRANCH   1   8
TORSDOF 1
ENDMDL
