MODEL 1
REMARK minimizedAffinity -4.85004616
REMARK minimizedRMSD -1
REMARK  1 active torsions:
REMARK  status: ('A' for Active; 'I' for Inactive)
REMARK    1  A    between atoms: C1_2  and  C2_3 
ROOT
ATOM      1  C2  UNL d   1      -0.027   0.249  -0.123  0.00  0.00    -0.073 A 
ATOM      2  C3  UNL d   1       1.124   0.117  -0.909  0.00  0.00    -0.002 A 
ATOM      3  C4  UNL d   1       2.142  -0.758  -0.527  0.00  0.00     0.004 A 
ATOM      4  C5  UNL d   1       2.017  -1.515   0.637  0.00  0.00    -0.004 A 
ATOM      5  C6  UNL d   1       0.869  -1.407   1.429  0.00  0.00    -0.075 A 
ATOM      6  C7  UNL d   1       0.720  -2.212   2.686  0.00  0.00     0.076 C 
ATOM      7  C8  UNL d   1      -0.147  -0.523   1.041  0.00  0.00     0.001 A 
ENDROOT
BRANCH   1   8
ATOM      8  C1  UNL d   1      -1.131   1.188  -0.535  0.00  0.00     0.053 C 
ATOM      9  C   UNL d   1      -1.688   0.847  -1.908  0.00  0.00     0.018 C 
ENDBRANCH   1   8
TORSDOF 1
ENDMDL
