MODEL 1
REMARK minimizedAffinity -3.15249825
REMARK minimizedRMSD -1
REMARK  1 active torsions:
REMARK  status: ('A' for Active; 'I' for Inactive)
REMARK    1  A    between atoms: C1_2  and  C2_3 
ROOT
ATOM      1  C2  UNL d   1      -0.642   0.485  -0.724  0.00  0.00    -0.073 A 
ATOM      2  C3  UNL d   1      -1.725  -0.165  -1.328  0.00  0.00    -0.002 A 
ATOM      3  C4  UNL d   1      -2.509   0.501  -2.271  0.00  0.00     0.004 A 
ATOM      4  C5  UNL d   1      -2.216   1.818  -2.624  0.00  0.00    -0.004 A 
ATOM      5  C6  UNL d   1      -1.132   2.480  -2.039  0.00  0.00    -0.075 A 
ATOM      6  C7  UNL d   1      -0.804   3.898  -2.406  0.00  0.00     0.076 C 
ATOM      7  C8  UNL d   1      -0.350   1.806  -1.092  0.00  0.00     0.001 A 
ENDROOT
BRANCH   1   8
ATOM      8  C1  UNL d   1       0.212  -0.232   0.290  0.00  0.00     0.053 C 
ATOM      9  C   UNL d   1       1.623  -0.474  -0.223  0.00  0.00     0.018 C 
ENDBRANCH   1   8
TORSDOF 1
ENDMDL
