MODEL 1
REMARK minimizedAffinity -3.52736998
REMARK minimizedRMSD -1
REMARK  1 active torsions:
REMARK  status: ('A' for Active; 'I' for Inactive)
REMARK    1  A    between atoms: C1_2  and  C2_3 
ROOT
ATOM      1  C2  UNL d   1       0.154   0.549  -0.418  0.00  0.00    -0.073 A 
ATOM      2  C3  UNL d   1       0.980   0.429  -1.541  0.00  0.00    -0.002 A 
ATOM      3  C4  UNL d   1       2.066  -0.448  -1.526  0.00  0.00     0.004 A 
ATOM      4  C5  UNL d   1       2.332  -1.217  -0.394  0.00  0.00    -0.004 A 
ATOM      5  C6  UNL d   1       1.510  -1.120   0.734  0.00  0.00    -0.075 A 
ATOM      6  C7  UNL d   1       1.784  -1.939   1.961  0.00  0.00     0.076 C 
ATOM      7  C8  UNL d   1       0.424  -0.235   0.713  0.00  0.00     0.001 A 
ENDROOT
BRANCH   1   8
ATOM      8  C1  UNL d   1      -1.024   1.490  -0.431  0.00  0.00     0.053 C 
ATOM      9  C   UNL d   1      -1.388   1.927  -1.841  0.00  0.00     0.018 C 
ENDBRANCH   1   8
TORSDOF 1
ENDMDL
