MODEL 1
REMARK minimizedAffinity -3.78081298
REMARK minimizedRMSD -1
REMARK  1 active torsions:
REMARK  status: ('A' for Active; 'I' for Inactive)
REMARK    1  A    between atoms: C1_2  and  C2_3 
ROOT
ATOM      1  C2  UNL d   1       0.725  -1.469   1.662  0.00  0.00    -0.073 A 
ATOM      2  C3  UNL d   1       2.036  -1.651   1.205  0.00  0.00    -0.002 A 
ATOM      3  C4  UNL d   1       2.465  -1.030   0.031  0.00  0.00     0.004 A 
ATOM      4  C5  UNL d   1       1.592  -0.218  -0.693  0.00  0.00    -0.004 A 
ATOM      5  C6  UNL d   1       0.282  -0.015  -0.246  0.00  0.00    -0.075 A 
ATOM      6  C7  UNL d   1      -0.669   0.854  -1.015  0.00  0.00     0.076 C 
ATOM      7  C8  UNL d   1      -0.142  -0.644   0.932  0.00  0.00     0.001 A 
ENDROOT
BRANCH   1   8
ATOM      8  C1  UNL d   1       0.259  -2.132   2.932  0.00  0.00     0.053 C 
ATOM      9  C   UNL d   1      -1.108  -1.631   3.368  0.00  0.00     0.018 C 
ENDBRANCH   1   8
TORSDOF 1
ENDMDL
