MODEL 1
REMARK minimizedAffinity -4.80042315
REMARK minimizedRMSD -1
REMARK  1 active torsions:
REMARK  status: ('A' for Active; 'I' for Inactive)
REMARK    1  A    between atoms: C1_2  and  C2_3 
ROOT
ATOM      1  C2  UNL d   1      -1.671   2.019  -1.169  0.00  0.00    -0.073 A 
ATOM      2  C3  UNL d   1      -2.969   1.730  -1.605  0.00  0.00    -0.002 A 
ATOM      3  C4  UNL d   1      -3.405   2.166  -2.857  0.00  0.00     0.004 A 
ATOM      4  C5  UNL d   1      -2.547   2.887  -3.687  0.00  0.00    -0.004 A 
ATOM      5  C6  UNL d   1      -1.242   3.175  -3.274  0.00  0.00    -0.075 A 
ATOM      6  C7  UNL d   1      -0.308   3.952  -4.154  0.00  0.00     0.076 C 
ATOM      7  C8  UNL d   1      -0.813   2.736  -2.014  0.00  0.00     0.001 A 
ENDROOT
BRANCH   1   8
ATOM      8  C1  UNL d   1      -1.194   1.544   0.180  0.00  0.00     0.053 C 
ATOM      9  C   UNL d   1      -0.046   0.554   0.062  0.00  0.00     0.018 C 
ENDBRANCH   1   8
TORSDOF 1
ENDMDL
