MODEL 1
REMARK minimizedAffinity -3.8610456
REMARK minimizedRMSD -1
REMARK  1 active torsions:
REMARK  status: ('A' for Active; 'I' for Inactive)
REMARK    1  A    between atoms: C1_2  and  C2_3 
ROOT
ATOM      1  C2  UNL d   1       0.540   0.209  -0.632  0.00  0.00    -0.073 A 
ATOM      2  C3  UNL d   1       1.689  -0.455  -1.075  0.00  0.00    -0.002 A 
ATOM      3  C4  UNL d   1       2.391  -1.300  -0.214  0.00  0.00     0.004 A 
ATOM      4  C5  UNL d   1       1.947  -1.496   1.094  0.00  0.00    -0.004 A 
ATOM      5  C6  UNL d   1       0.793  -0.851   1.551  0.00  0.00    -0.075 A 
ATOM      6  C7  UNL d   1       0.304  -1.049   2.956  0.00  0.00     0.076 C 
ATOM      7  C8  UNL d   1       0.096  -0.001   0.682  0.00  0.00     0.001 A 
ENDROOT
BRANCH   1   8
ATOM      8  C1  UNL d   1      -0.225   1.118  -1.559  0.00  0.00     0.053 C 
ATOM      9  C   UNL d   1      -1.709   1.150  -1.231  0.00  0.00     0.018 C 
ENDBRANCH   1   8
TORSDOF 1
ENDMDL
