MODEL 1
REMARK minimizedAffinity -4.48661852
REMARK minimizedRMSD -1
REMARK  1 active torsions:
REMARK  status: ('A' for Active; 'I' for Inactive)
REMARK    1  A    between atoms: C1_2  and  C2_3 
ROOT
ATOM      1  C2  UNL d   1       0.585  -1.441   1.250  0.00  0.00    -0.073 A 
ATOM      2  C3  UNL d   1       1.909  -1.426   0.797  0.00  0.00    -0.002 A 
ATOM      3  C4  UNL d   1       2.338  -0.440  -0.093  0.00  0.00     0.004 A 
ATOM      4  C5  UNL d   1       1.452   0.543  -0.533  0.00  0.00    -0.004 A 
ATOM      5  C6  UNL d   1       0.128   0.552  -0.082  0.00  0.00    -0.075 A 
ATOM      6  C7  UNL d   1      -0.838   1.601  -0.547  0.00  0.00     0.076 C 
ATOM      7  C8  UNL d   1      -0.296  -0.443   0.810  0.00  0.00     0.001 A 
ENDROOT
BRANCH   1   8
ATOM      8  C1  UNL d   1       0.119  -2.499   2.216  0.00  0.00     0.053 C 
ATOM      9  C   UNL d   1      -0.582  -1.899   3.425  0.00  0.00     0.018 C 
ENDBRANCH   1   8
TORSDOF 1
ENDMDL
