MODEL 1
REMARK minimizedAffinity 6.67456484
REMARK minimizedRMSD -1
REMARK  1 active torsions:
REMARK  status: ('A' for Active; 'I' for Inactive)
REMARK    1  A    between atoms: C1_2  and  C2_3 
ROOT
ATOM      1  C2  UNL d   1       3.095  -1.168  -4.489  0.00  0.00    -0.081 A 
ATOM      2  C3  UNL d   1       1.779  -0.691  -4.455  0.00  0.00     0.006 A 
ATOM      3  C4  UNL d   1       1.524   0.683  -4.449  0.00  0.00     0.002 A 
ATOM      4  C5  UNL d   1       2.578   1.601  -4.484  0.00  0.00    -0.080 A 
ATOM      5  C6  UNL d   1       2.317   3.078  -4.508  0.00  0.00     0.076 C 
ATOM      6  C7  UNL d   1       3.894   1.125  -4.500  0.00  0.00     0.002 A 
ATOM      7  C8  UNL d   1       4.150  -0.248  -4.506  0.00  0.00     0.006 A 
ENDROOT
BRANCH   1   8
ATOM      8  C1  UNL d   1       3.373  -2.648  -4.562  0.00  0.00     0.054 C 
ATOM      9  C   UNL d   1       3.338  -3.147  -5.999  0.00  0.00     0.018 C 
ENDBRANCH   1   8
TORSDOF 1
ENDMDL
