MODEL 1
REMARK minimizedAffinity -3.15254307
REMARK minimizedRMSD -1
REMARK  1 active torsions:
REMARK  status: ('A' for Active; 'I' for Inactive)
REMARK    1  A    between atoms: C1_2  and  C2_3 
ROOT
ATOM      1  C2  UNL d   1       1.295   0.657  -3.174  0.00  0.00    -0.081 A 
ATOM      2  C3  UNL d   1       0.172   0.444  -2.365  0.00  0.00     0.006 A 
ATOM      3  C4  UNL d   1       0.321  -0.002  -1.049  0.00  0.00     0.002 A 
ATOM      4  C5  UNL d   1       1.594  -0.234  -0.518  0.00  0.00    -0.080 A 
ATOM      5  C6  UNL d   1       1.770  -0.683   0.902  0.00  0.00     0.076 C 
ATOM      6  C7  UNL d   1       2.716  -0.037  -1.332  0.00  0.00     0.002 A 
ATOM      7  C8  UNL d   1       2.567   0.407  -2.647  0.00  0.00     0.006 A 
ENDROOT
BRANCH   1   8
ATOM      8  C1  UNL d   1       1.141   1.199  -4.572  0.00  0.00     0.054 C 
ATOM      9  C   UNL d   1       2.304   2.108  -4.944  0.00  0.00     0.018 C 
ENDBRANCH   1   8
TORSDOF 1
ENDMDL
