MODEL 1
REMARK minimizedAffinity 1.03648317
REMARK minimizedRMSD -1
REMARK  1 active torsions:
REMARK  status: ('A' for Active; 'I' for Inactive)
REMARK    1  A    between atoms: C1_2  and  C2_3 
ROOT
ATOM      1  C2  UNL d   1       0.191  -0.411   0.040  0.00  0.00    -0.081 A 
ATOM      2  C3  UNL d   1       1.387  -1.118   0.216  0.00  0.00     0.006 A 
ATOM      3  C4  UNL d   1       2.438  -0.561   0.948  0.00  0.00     0.002 A 
ATOM      4  C5  UNL d   1       2.308   0.709   1.522  0.00  0.00    -0.080 A 
ATOM      5  C6  UNL d   1       3.418   1.306   2.336  0.00  0.00     0.076 C 
ATOM      6  C7  UNL d   1       1.120   1.422   1.332  0.00  0.00     0.002 A 
ATOM      7  C8  UNL d   1       0.069   0.866   0.600  0.00  0.00     0.006 A 
ENDROOT
BRANCH   1   8
ATOM      8  C1  UNL d   1      -0.968  -1.036  -0.694  0.00  0.00     0.054 C 
ATOM      9  C   UNL d   1      -1.864   0.024  -1.318  0.00  0.00     0.018 C 
ENDBRANCH   1   8
TORSDOF 1
ENDMDL
