MODEL 1
REMARK minimizedAffinity 1.5510335
REMARK minimizedRMSD -1
REMARK  1 active torsions:
REMARK  status: ('A' for Active; 'I' for Inactive)
REMARK    1  A    between atoms: C1_2  and  C2_3 
ROOT
ATOM      1  C2  UNL d   1       2.142  -0.424  -0.701  0.00  0.00    -0.081 A 
ATOM      2  C3  UNL d   1       1.991  -0.022  -2.034  0.00  0.00     0.006 A 
ATOM      3  C4  UNL d   1       2.941  -0.380  -2.994  0.00  0.00     0.002 A 
ATOM      4  C5  UNL d   1       4.053  -1.151  -2.639  0.00  0.00    -0.080 A 
ATOM      5  C6  UNL d   1       5.064  -1.568  -3.665  0.00  0.00     0.076 C 
ATOM      6  C7  UNL d   1       4.213  -1.539  -1.304  0.00  0.00     0.002 A 
ATOM      7  C8  UNL d   1       3.264  -1.181  -0.344  0.00  0.00     0.006 A 
ENDROOT
BRANCH   1   8
ATOM      8  C1  UNL d   1       1.086  -0.095   0.323  0.00  0.00     0.054 C 
ATOM      9  C   UNL d   1       1.557   0.999   1.271  0.00  0.00     0.018 C 
ENDBRANCH   1   8
TORSDOF 1
ENDMDL
