MODEL 1
REMARK minimizedAffinity 1.80013645
REMARK minimizedRMSD -1
REMARK  1 active torsions:
REMARK  status: ('A' for Active; 'I' for Inactive)
REMARK    1  A    between atoms: C1_2  and  C2_3 
ROOT
ATOM      1  C2  UNL d   1       2.375   1.990  -2.696  0.00  0.00    -0.081 A 
ATOM      2  C3  UNL d   1       2.767   3.207  -2.125  0.00  0.00     0.006 A 
ATOM      3  C4  UNL d   1       2.542   3.458  -0.770  0.00  0.00     0.002 A 
ATOM      4  C5  UNL d   1       1.929   2.495   0.039  0.00  0.00    -0.080 A 
ATOM      5  C6  UNL d   1       1.710   2.740   1.502  0.00  0.00     0.076 C 
ATOM      6  C7  UNL d   1       1.522   1.286  -0.535  0.00  0.00     0.002 A 
ATOM      7  C8  UNL d   1       1.746   1.034  -1.891  0.00  0.00     0.006 A 
ENDROOT
BRANCH   1   8
ATOM      8  C1  UNL d   1       2.674   1.691  -4.143  0.00  0.00     0.054 C 
ATOM      9  C   UNL d   1       4.095   1.175  -4.319  0.00  0.00     0.018 C 
ENDBRANCH   1   8
TORSDOF 1
ENDMDL
