MODEL 1
REMARK minimizedAffinity 1.91004479
REMARK minimizedRMSD -1
REMARK  1 active torsions:
REMARK  status: ('A' for Active; 'I' for Inactive)
REMARK    1  A    between atoms: C1_2  and  C2_3 
ROOT
ATOM      1  C2  UNL d   1       2.223   0.529   1.420  0.00  0.00    -0.081 A 
ATOM      2  C3  UNL d   1       2.851  -0.386   0.566  0.00  0.00     0.006 A 
ATOM      3  C4  UNL d   1       2.094  -1.209  -0.271  0.00  0.00     0.002 A 
ATOM      4  C5  UNL d   1       0.697  -1.125  -0.274  0.00  0.00    -0.080 A 
ATOM      5  C6  UNL d   1      -0.126  -1.981  -1.190  0.00  0.00     0.076 C 
ATOM      6  C7  UNL d   1       0.069  -0.223   0.591  0.00  0.00     0.002 A 
ATOM      7  C8  UNL d   1       0.826   0.599   1.429  0.00  0.00     0.006 A 
ENDROOT
BRANCH   1   8
ATOM      8  C1  UNL d   1       3.039   1.463   2.277  0.00  0.00     0.054 C 
ATOM      9  C   UNL d   1       2.158   2.232   3.250  0.00  0.00     0.018 C 
ENDBRANCH   1   8
TORSDOF 1
ENDMDL
