MODEL 1
REMARK minimizedAffinity 0.906018555
REMARK minimizedRMSD -1
REMARK  0 active torsions:
REMARK  status: ('A' for Active; 'I' for Inactive)
ROOT
ATOM      1  C   UNL d   1      -2.536   3.001  -1.907  0.00  0.00     0.020 A 
ATOM      2  C1  UNL d   1      -2.609   3.789  -3.055  0.00  0.00     0.020 A 
ATOM      3  C2  UNL d   1      -2.730   3.186  -4.309  0.00  0.00     0.034 A 
ATOM      4  C3  UNL d   1      -2.777   1.792  -4.418  0.00  0.00     0.017 A 
ATOM      5  C4  UNL d   1      -2.703   1.002  -3.265  0.00  0.00     0.017 A 
ATOM      6  C5  UNL d   1      -2.583   1.611  -2.012  0.00  0.00     0.034 A 
ATOM      7 Cl   UNL d   1      -2.755  -0.725  -3.319  0.00  0.00    -0.070 Cl
ATOM      8 Cl1  UNL d   1      -2.927   1.114  -6.000  0.00  0.00    -0.070 Cl
ENDROOT
TORSDOF 0
ENDMDL
