MODEL 1
REMARK minimizedAffinity -2.68509126
REMARK minimizedRMSD -1
REMARK  0 active torsions:
REMARK  status: ('A' for Active; 'I' for Inactive)
ROOT
ATOM      1  C   UNL d   1      -2.505  -1.127   3.109  0.00  0.00     0.020 A 
ATOM      2  C1  UNL d   1      -2.767  -0.253   2.055  0.00  0.00     0.020 A 
ATOM      3  C2  UNL d   1      -1.830  -0.090   1.033  0.00  0.00     0.034 A 
ATOM      4  C3  UNL d   1      -0.626  -0.803   1.062  0.00  0.00     0.017 A 
ATOM      5  C4  UNL d   1      -0.363  -1.680   2.121  0.00  0.00     0.017 A 
ATOM      6  C5  UNL d   1      -1.305  -1.839   3.142  0.00  0.00     0.034 A 
ATOM      7 Cl   UNL d   1       1.100  -2.594   2.226  0.00  0.00    -0.070 Cl
ATOM      8 Cl1  UNL d   1       0.488  -0.553  -0.235  0.00  0.00    -0.070 Cl
ENDROOT
TORSDOF 0
ENDMDL
