MODEL 1
REMARK minimizedAffinity 3.8893714
REMARK minimizedRMSD -1
REMARK  0 active torsions:
REMARK  status: ('A' for Active; 'I' for Inactive)
ROOT
ATOM      1  C   UNL d   1       0.791  -0.834  -0.518  0.00  0.00     0.020 A 
ATOM      2  C1  UNL d   1      -0.154  -0.344  -1.419  0.00  0.00     0.020 A 
ATOM      3  C2  UNL d   1      -1.503  -0.299  -1.061  0.00  0.00     0.034 A 
ATOM      4  C3  UNL d   1      -1.911  -0.745   0.201  0.00  0.00     0.017 A 
ATOM      5  C4  UNL d   1      -0.962  -1.237   1.105  0.00  0.00     0.017 A 
ATOM      6  C5  UNL d   1       0.387  -1.280   0.741  0.00  0.00     0.034 A 
ATOM      7 Cl   UNL d   1      -1.390  -1.805   2.680  0.00  0.00    -0.070 Cl
ATOM      8 Cl1  UNL d   1      -3.595  -0.660   0.578  0.00  0.00    -0.070 Cl
ENDROOT
TORSDOF 0
ENDMDL
