MODEL 1
REMARK minimizedAffinity -0.406228989
REMARK minimizedRMSD -1
REMARK  0 active torsions:
REMARK  status: ('A' for Active; 'I' for Inactive)
ROOT
ATOM      1  C   UNL d   1      -1.035   5.237   4.833  0.00  0.00     0.020 A 
ATOM      2  C1  UNL d   1      -0.426   5.771   5.968  0.00  0.00     0.020 A 
ATOM      3  C2  UNL d   1       0.952   5.997   5.981  0.00  0.00     0.034 A 
ATOM      4  C3  UNL d   1       1.726   5.688   4.856  0.00  0.00     0.017 A 
ATOM      5  C4  UNL d   1       1.114   5.152   3.717  0.00  0.00     0.017 A 
ATOM      6  C5  UNL d   1      -0.266   4.928   3.710  0.00  0.00     0.034 A 
ATOM      7 Cl   UNL d   1       2.003   4.747   2.291  0.00  0.00    -0.070 Cl
ATOM      8 Cl1  UNL d   1       3.424   5.994   4.941  0.00  0.00    -0.070 Cl
ENDROOT
TORSDOF 0
ENDMDL
