MODEL 1
REMARK minimizedAffinity -1.83893669
REMARK minimizedRMSD -1
REMARK  0 active torsions:
REMARK  status: ('A' for Active; 'I' for Inactive)
ROOT
ATOM      1  C   UNL d   1      -1.150  -0.921   2.647  0.00  0.00     0.020 A 
ATOM      2  C1  UNL d   1      -1.460  -0.080   1.579  0.00  0.00     0.020 A 
ATOM      3  C2  UNL d   1      -0.786  -0.217   0.364  0.00  0.00     0.034 A 
ATOM      4  C3  UNL d   1       0.203  -1.197   0.214  0.00  0.00     0.017 A 
ATOM      5  C4  UNL d   1       0.513  -2.040   1.287  0.00  0.00     0.017 A 
ATOM      6  C5  UNL d   1      -0.165  -1.899   2.501  0.00  0.00     0.034 A 
ATOM      7 Cl   UNL d   1       1.721  -3.272   1.178  0.00  0.00    -0.070 Cl
ATOM      8 Cl1  UNL d   1       0.996  -1.310  -1.316  0.00  0.00    -0.070 Cl
ENDROOT
TORSDOF 0
ENDMDL
