MODEL 1
REMARK minimizedAffinity 2.29081893
REMARK minimizedRMSD -1
REMARK  0 active torsions:
REMARK  status: ('A' for Active; 'I' for Inactive)
ROOT
ATOM      1  C   UNL d   1       0.333  -1.471   1.897  0.00  0.00     0.020 A 
ATOM      2  C1  UNL d   1      -0.592  -2.127   2.709  0.00  0.00     0.020 A 
ATOM      3  C2  UNL d   1      -1.958  -2.020   2.440  0.00  0.00     0.034 A 
ATOM      4  C3  UNL d   1      -2.404  -1.256   1.355  0.00  0.00     0.017 A 
ATOM      5  C4  UNL d   1      -1.475  -0.598   0.540  0.00  0.00     0.017 A 
ATOM      6  C5  UNL d   1      -0.108  -0.708   0.815  0.00  0.00     0.034 A 
ATOM      7 Cl   UNL d   1      -1.949   0.363  -0.816  0.00  0.00    -0.070 Cl
ATOM      8 Cl1  UNL d   1      -4.107  -1.169   1.081  0.00  0.00    -0.070 Cl
ENDROOT
TORSDOF 0
ENDMDL
