MODEL 1
REMARK minimizedAffinity 5.31869364
REMARK minimizedRMSD -1
REMARK  0 active torsions:
REMARK  status: ('A' for Active; 'I' for Inactive)
ROOT
ATOM      1  C   UNL d   1      -2.062  -1.338   0.562  0.00  0.00     0.020 A 
ATOM      2  C1  UNL d   1      -1.590  -0.600   1.647  0.00  0.00     0.020 A 
ATOM      3  C2  UNL d   1      -2.482  -0.131   2.613  0.00  0.00     0.034 A 
ATOM      4  C3  UNL d   1      -3.851  -0.397   2.497  0.00  0.00     0.017 A 
ATOM      5  C4  UNL d   1      -4.324  -1.137   1.407  0.00  0.00     0.017 A 
ATOM      6  C5  UNL d   1      -3.427  -1.605   0.442  0.00  0.00     0.034 A 
ATOM      7 Cl   UNL d   1      -5.999  -1.506   1.195  0.00  0.00    -0.070 Cl
ATOM      8 Cl1  UNL d   1      -4.897   0.215   3.729  0.00  0.00    -0.070 Cl
ENDROOT
TORSDOF 0
ENDMDL
