MODEL 1
REMARK minimizedAffinity -0.446600884
REMARK minimizedRMSD -1
REMARK  0 active torsions:
REMARK  status: ('A' for Active; 'I' for Inactive)
ROOT
ATOM      1  C   UNL d   1      -1.534  -2.272   3.412  0.00  0.00     0.020 A 
ATOM      2  C1  UNL d   1      -0.502  -1.489   2.898  0.00  0.00     0.020 A 
ATOM      3  C2  UNL d   1       0.664  -2.093   2.424  0.00  0.00     0.034 A 
ATOM      4  C3  UNL d   1       0.801  -3.486   2.464  0.00  0.00     0.017 A 
ATOM      5  C4  UNL d   1      -0.235  -4.271   2.981  0.00  0.00     0.017 A 
ATOM      6  C5  UNL d   1      -1.401  -3.661   3.454  0.00  0.00     0.034 A 
ATOM      7 Cl   UNL d   1      -0.139  -5.995   3.064  0.00  0.00    -0.070 Cl
ATOM      8 Cl1  UNL d   1       2.271  -4.166   1.861  0.00  0.00    -0.070 Cl
ENDROOT
TORSDOF 0
ENDMDL
