MODEL 1
REMARK minimizedAffinity -0.717491388
REMARK minimizedRMSD -1
REMARK  0 active torsions:
REMARK  status: ('A' for Active; 'I' for Inactive)
ROOT
ATOM      1  C   UNL d   1       4.050   5.994   2.036  0.00  0.00     0.020 A 
ATOM      2  C1  UNL d   1       2.741   5.986   1.555  0.00  0.00     0.020 A 
ATOM      3  C2  UNL d   1       1.669   5.983   2.449  0.00  0.00     0.034 A 
ATOM      4  C3  UNL d   1       1.903   5.987   3.829  0.00  0.00     0.017 A 
ATOM      5  C4  UNL d   1       3.217   5.994   4.311  0.00  0.00     0.017 A 
ATOM      6  C5  UNL d   1       4.287   5.998   3.411  0.00  0.00     0.034 A 
ATOM      7 Cl   UNL d   1       3.585   6.000   6.000  0.00  0.00    -0.070 Cl
ATOM      8 Cl1  UNL d   1       0.529   5.983   4.877  0.00  0.00    -0.070 Cl
ENDROOT
TORSDOF 0
ENDMDL
