MODEL 1
REMARK minimizedAffinity 5.53462458
REMARK minimizedRMSD -1
REMARK  0 active torsions:
REMARK  status: ('A' for Active; 'I' for Inactive)
ROOT
ATOM      1  C   UNL d   1      -3.331  -1.169   1.182  0.00  0.00     0.020 A 
ATOM      2  C1  UNL d   1      -3.339  -0.425   2.361  0.00  0.00     0.020 A 
ATOM      3  C2  UNL d   1      -2.197   0.277   2.752  0.00  0.00     0.034 A 
ATOM      4  C3  UNL d   1      -1.042   0.236   1.963  0.00  0.00     0.017 A 
ATOM      5  C4  UNL d   1      -1.034  -0.511   0.780  0.00  0.00     0.017 A 
ATOM      6  C5  UNL d   1      -2.181  -1.211   0.393  0.00  0.00     0.034 A 
ATOM      7 Cl   UNL d   1       0.354  -0.609  -0.246  0.00  0.00    -0.070 Cl
ATOM      8 Cl1  UNL d   1       0.335   1.128   2.508  0.00  0.00    -0.070 Cl
ENDROOT
TORSDOF 0
ENDMDL
