MODEL 1
REMARK minimizedAffinity -5.27508163
REMARK minimizedRMSD -1
REMARK  3 active torsions:
REMARK  status: ('A' for Active; 'I' for Inactive)
REMARK    1  A    between atoms: C3'_2  and  C2'_3 
REMARK    2  A    between atoms: C2'_3  and  C1'_4 
REMARK    3  A    between atoms: C1'_4  and  C1_5 
ROOT
ATOM      1  C1  N4B d   1      -0.781   2.078  -0.231  0.00  0.00    -0.075 A 
ATOM      2  C2  N4B d   1      -1.028   2.950   0.852  0.00  0.00     0.002 A 
ATOM      3  C3  N4B d   1      -0.935   4.308   0.675  0.00  0.00     0.002 A 
ATOM      4  C4  N4B d   1      -0.580   4.815  -0.566  0.00  0.00    -0.004 A 
ATOM      5  C5  N4B d   1      -0.368   3.967  -1.614  0.00  0.00     0.002 A 
ATOM      6  C6  N4B d   1      -0.462   2.599  -1.451  0.00  0.00     0.002 A 
ENDROOT
BRANCH   1   7
ATOM      7  C1' N4B d   1      -0.787   0.583  -0.064  0.00  0.00     0.057 C 
BRANCH   7   8
ATOM      8  C2' N4B d   1       0.362  -0.016  -0.870  0.00  0.00     0.009 C 
BRANCH   8   9
ATOM      9  C3' N4B d   1       1.178  -1.001  -0.052  0.00  0.00     0.004 C 
ATOM     10  C4' N4B d   1       1.294  -0.604   1.390  0.00  0.00     0.003 C 
ENDBRANCH   8   9
ENDBRANCH   7   8
ENDBRANCH   1   7
TORSDOF 3
ENDMDL
