MODEL 1
REMARK minimizedAffinity -4.32618761
REMARK minimizedRMSD -1
REMARK  3 active torsions:
REMARK  status: ('A' for Active; 'I' for Inactive)
REMARK    1  A    between atoms: C3'_2  and  C2'_3 
REMARK    2  A    between atoms: C2'_3  and  C1'_4 
REMARK    3  A    between atoms: C1'_4  and  C1_5 
ROOT
ATOM      1  C1  N4B d   1      -0.732   0.717   0.658  0.00  0.00    -0.075 A 
ATOM      2  C2  N4B d   1      -0.666   0.423  -0.722  0.00  0.00     0.002 A 
ATOM      3  C3  N4B d   1       0.388  -0.303  -1.219  0.00  0.00     0.002 A 
ATOM      4  C4  N4B d   1       1.393  -0.728  -0.364  0.00  0.00    -0.004 A 
ATOM      5  C5  N4B d   1       1.309  -0.461   0.972  0.00  0.00     0.002 A 
ATOM      6  C6  N4B d   1       0.254   0.264   1.486  0.00  0.00     0.002 A 
ENDROOT
BRANCH   1   7
ATOM      7  C1' N4B d   1      -1.820   1.581   1.235  0.00  0.00     0.057 C 
BRANCH   7   8
ATOM      8  C2' N4B d   1      -1.189   2.785   1.928  0.00  0.00     0.009 C 
BRANCH   8   9
ATOM      9  C3' N4B d   1      -0.518   3.723   0.940  0.00  0.00     0.004 C 
ATOM     10  C4' N4B d   1      -1.204   3.750  -0.393  0.00  0.00     0.003 C 
ENDBRANCH   8   9
ENDBRANCH   7   8
ENDBRANCH   1   7
TORSDOF 3
ENDMDL
