MODEL 1
REMARK minimizedAffinity -4.96369886
REMARK minimizedRMSD -1
REMARK  3 active torsions:
REMARK  status: ('A' for Active; 'I' for Inactive)
REMARK    1  A    between atoms: C3'_2  and  C2'_3 
REMARK    2  A    between atoms: C2'_3  and  C1'_4 
REMARK    3  A    between atoms: C1'_4  and  C1_5 
ROOT
ATOM      1  C1  N4B d   1       0.005   0.152  -0.026  0.00  0.00    -0.075 A 
ATOM      2  C2  N4B d   1       0.632   0.382   1.218  0.00  0.00     0.002 A 
ATOM      3  C3  N4B d   1       0.107   1.302   2.092  0.00  0.00     0.002 A 
ATOM      4  C4  N4B d   1      -1.030   2.013   1.738  0.00  0.00    -0.004 A 
ATOM      5  C5  N4B d   1      -1.645   1.766   0.546  0.00  0.00     0.002 A 
ATOM      6  C6  N4B d   1      -1.130   0.842  -0.341  0.00  0.00     0.002 A 
ENDROOT
BRANCH   1   7
ATOM      7  C1' N4B d   1       0.591  -0.781  -1.051  0.00  0.00     0.057 C 
BRANCH   7   8
ATOM      8  C2' N4B d   1      -0.279  -2.031  -1.146  0.00  0.00     0.009 C 
BRANCH   8   9
ATOM      9  C3' N4B d   1       0.548  -3.281  -1.389  0.00  0.00     0.004 C 
ATOM     10  C4' N4B d   1      -0.283  -4.529  -1.431  0.00  0.00     0.003 C 
ENDBRANCH   8   9
ENDBRANCH   7   8
ENDBRANCH   1   7
TORSDOF 3
ENDMDL
