MODEL 1
REMARK minimizedAffinity -1.6122942
REMARK minimizedRMSD -1
REMARK  3 active torsions:
REMARK  status: ('A' for Active; 'I' for Inactive)
REMARK    1  A    between atoms: C3'_2  and  C2'_3 
REMARK    2  A    between atoms: C2'_3  and  C1'_4 
REMARK    3  A    between atoms: C1'_4  and  C1_5 
ROOT
ATOM      1  C1  N4B d   1       0.131  -4.673  -1.283  0.00  0.00    -0.075 A 
ATOM      2  C2  N4B d   1      -0.159  -4.899  -2.646  0.00  0.00     0.002 A 
ATOM      3  C3  N4B d   1      -1.172  -4.202  -3.257  0.00  0.00     0.002 A 
ATOM      4  C4  N4B d   1      -1.919  -3.292  -2.523  0.00  0.00    -0.004 A 
ATOM      5  C5  N4B d   1      -1.617  -3.062  -1.213  0.00  0.00     0.002 A 
ATOM      6  C6  N4B d   1      -0.598  -3.752  -0.587  0.00  0.00     0.002 A 
ENDROOT
BRANCH   1   7
ATOM      7  C1' N4B d   1       1.173  -5.473  -0.549  0.00  0.00     0.057 C 
BRANCH   7   8
ATOM      8  C2' N4B d   1       2.546  -4.858  -0.802  0.00  0.00     0.009 C 
BRANCH   8   9
ATOM      9  C3' N4B d   1       3.648  -5.610  -0.077  0.00  0.00     0.004 C 
ATOM     10  C4' N4B d   1       4.779  -5.998  -0.982  0.00  0.00     0.003 C 
ENDBRANCH   8   9
ENDBRANCH   7   8
ENDBRANCH   1   7
TORSDOF 3
ENDMDL
