MODEL 1
REMARK minimizedAffinity 10.1234732
REMARK minimizedRMSD -1
REMARK  0 active torsions:
REMARK  status: ('A' for Active; 'I' for Inactive)
ROOT
ATOM      1  C   UNL d   1       3.899  -1.770  -2.736  0.00  0.00     0.124 A 
ATOM      2  C1  UNL d   1       3.580  -2.850  -3.548  0.00  0.00     0.062 A 
ATOM      3  C2  UNL d   1       2.898  -3.943  -3.022  0.00  0.00     0.162 A 
ATOM      4  C3  UNL d   1       2.530  -3.962  -1.677  0.00  0.00    -0.034 A 
ATOM      5  C4  UNL d   1       2.854  -2.873  -0.867  0.00  0.00     0.162 A 
ATOM      6  C5  UNL d   1       3.536  -1.782  -1.397  0.00  0.00     0.062 A 
ATOM      7  F   UNL d   1       3.843  -0.740  -0.611  0.00  0.00    -0.097 F 
ATOM      8  F1  UNL d   1       2.515  -2.859   0.431  0.00  0.00    -0.096 F 
ATOM      9  I   UNL d   1       1.510  -5.596  -0.887  0.00  0.00    -0.060 I 
ATOM     10  F2  UNL d   1       2.603  -4.973  -3.830  0.00  0.00    -0.096 F 
ATOM     11  F3  UNL d   1       3.930  -2.840  -4.842  0.00  0.00    -0.097 F 
ATOM     12  F4  UNL d   1       4.556  -0.719  -3.244  0.00  0.00    -0.092 F 
ENDROOT
TORSDOF 0
ENDMDL
