MODEL 1
REMARK minimizedAffinity 11.7564268
REMARK minimizedRMSD -1
REMARK  0 active torsions:
REMARK  status: ('A' for Active; 'I' for Inactive)
ROOT
ATOM      1  C   UNL d   1       3.236  -2.248  -1.482  0.00  0.00     0.124 A 
ATOM      2  C1  UNL d   1       3.657  -2.046  -2.789  0.00  0.00     0.062 A 
ATOM      3  C2  UNL d   1       4.125  -3.115  -3.546  0.00  0.00     0.162 A 
ATOM      4  C3  UNL d   1       4.175  -4.397  -2.999  0.00  0.00    -0.034 A 
ATOM      5  C4  UNL d   1       3.751  -4.592  -1.683  0.00  0.00     0.162 A 
ATOM      6  C5  UNL d   1       3.284  -3.520  -0.930  0.00  0.00     0.062 A 
ATOM      7  F   UNL d   1       2.878  -3.717   0.333  0.00  0.00    -0.097 F 
ATOM      8  F1  UNL d   1       3.786  -5.812  -1.125  0.00  0.00    -0.096 F 
ATOM      9  I   UNL d   1       4.875  -5.999  -4.128  0.00  0.00    -0.060 I 
ATOM     10  F2  UNL d   1       4.525  -2.891  -4.807  0.00  0.00    -0.096 F 
ATOM     11  F3  UNL d   1       3.612  -0.817  -3.324  0.00  0.00    -0.097 F 
ATOM     12  F4  UNL d   1       2.787  -1.216  -0.755  0.00  0.00    -0.092 F 
ENDROOT
TORSDOF 0
ENDMDL
