MODEL 1
REMARK minimizedAffinity 13.6291828
REMARK minimizedRMSD -1
REMARK  0 active torsions:
REMARK  status: ('A' for Active; 'I' for Inactive)
ROOT
ATOM      1  C   UNL d   1       4.058  -2.602  -0.610  0.00  0.00     0.124 A 
ATOM      2  C1  UNL d   1       2.991  -3.271  -0.026  0.00  0.00     0.062 A 
ATOM      3  C2  UNL d   1       2.297  -4.241  -0.743  0.00  0.00     0.162 A 
ATOM      4  C3  UNL d   1       2.668  -4.549  -2.052  0.00  0.00    -0.034 A 
ATOM      5  C4  UNL d   1       3.741  -3.871  -2.633  0.00  0.00     0.162 A 
ATOM      6  C5  UNL d   1       4.432  -2.902  -1.912  0.00  0.00     0.062 A 
ATOM      7  F   UNL d   1       5.462  -2.257  -2.478  0.00  0.00    -0.097 F 
ATOM      8  F1  UNL d   1       4.124  -4.143  -3.889  0.00  0.00    -0.096 F 
ATOM      9  I   UNL d   1       1.633  -6.000  -3.127  0.00  0.00    -0.060 I 
ATOM     10  F2  UNL d   1       1.271  -4.872  -0.154  0.00  0.00    -0.096 F 
ATOM     11  F3  UNL d   1       2.628  -2.982   1.231  0.00  0.00    -0.097 F 
ATOM     12  F4  UNL d   1       4.724  -1.668   0.081  0.00  0.00    -0.092 F 
ENDROOT
TORSDOF 0
ENDMDL
