MODEL 1
REMARK minimizedAffinity 10.0079088
REMARK minimizedRMSD -1
REMARK  0 active torsions:
REMARK  status: ('A' for Active; 'I' for Inactive)
ROOT
ATOM      1  C   UNL d   1       4.577  -2.301  -0.324  0.00  0.00     0.124 A 
ATOM      2  C1  UNL d   1       4.828  -2.608  -1.654  0.00  0.00     0.062 A 
ATOM      3  C2  UNL d   1       4.124  -3.631  -2.282  0.00  0.00     0.162 A 
ATOM      4  C3  UNL d   1       3.161  -4.356  -1.580  0.00  0.00    -0.034 A 
ATOM      5  C4  UNL d   1       2.914  -4.042  -0.242  0.00  0.00     0.162 A 
ATOM      6  C5  UNL d   1       3.620  -3.018   0.381  0.00  0.00     0.062 A 
ATOM      7  F   UNL d   1       3.376  -2.723   1.666  0.00  0.00    -0.097 F 
ATOM      8  F1  UNL d   1       1.995  -4.719   0.463  0.00  0.00    -0.096 F 
ATOM      9  I   UNL d   1       2.106  -5.887  -2.514  0.00  0.00    -0.060 I 
ATOM     10  F2  UNL d   1       4.387  -3.906  -3.568  0.00  0.00    -0.096 F 
ATOM     11  F3  UNL d   1       5.752  -1.917  -2.337  0.00  0.00    -0.097 F 
ATOM     12  F4  UNL d   1       5.256  -1.316   0.277  0.00  0.00    -0.092 F 
ENDROOT
TORSDOF 0
ENDMDL
