MODEL 1
REMARK minimizedAffinity 4.23199749
REMARK minimizedRMSD -1
REMARK  0 active torsions:
REMARK  status: ('A' for Active; 'I' for Inactive)
ROOT
ATOM      1  C   UNL d   1       4.164  -2.581  -1.462  0.00  0.00     0.124 A 
ATOM      2  C1  UNL d   1       3.832  -2.312  -2.783  0.00  0.00     0.062 A 
ATOM      3  C2  UNL d   1       4.008  -3.285  -3.761  0.00  0.00     0.162 A 
ATOM      4  C3  UNL d   1       4.518  -4.539  -3.423  0.00  0.00    -0.034 A 
ATOM      5  C4  UNL d   1       4.851  -4.802  -2.093  0.00  0.00     0.162 A 
ATOM      6  C5  UNL d   1       4.673  -3.826  -1.119  0.00  0.00     0.062 A 
ATOM      7  F   UNL d   1       4.995  -4.088   0.156  0.00  0.00    -0.097 F 
ATOM      8  F1  UNL d   1       5.344  -5.997  -1.734  0.00  0.00    -0.096 F 
ATOM      9  I   UNL d   1       4.783  -5.998  -4.884  0.00  0.00    -0.060 I 
ATOM     10  F2  UNL d   1       3.679  -2.998  -5.029  0.00  0.00    -0.096 F 
ATOM     11  F3  UNL d   1       3.341  -1.110  -3.117  0.00  0.00    -0.097 F 
ATOM     12  F4  UNL d   1       3.995  -1.642  -0.523  0.00  0.00    -0.092 F 
ENDROOT
TORSDOF 0
ENDMDL
