MODEL 1
REMARK minimizedAffinity 5.73447752
REMARK minimizedRMSD -1
REMARK  0 active torsions:
REMARK  status: ('A' for Active; 'I' for Inactive)
ROOT
ATOM      1  C   UNL d   1       4.221  -2.617  -0.755  0.00  0.00     0.124 A 
ATOM      2  C1  UNL d   1       3.602  -2.413  -1.981  0.00  0.00     0.062 A 
ATOM      3  C2  UNL d   1       3.695  -3.377  -2.980  0.00  0.00     0.162 A 
ATOM      4  C3  UNL d   1       4.407  -4.555  -2.758  0.00  0.00    -0.034 A 
ATOM      5  C4  UNL d   1       5.027  -4.753  -1.523  0.00  0.00     0.162 A 
ATOM      6  C5  UNL d   1       4.932  -3.786  -0.527  0.00  0.00     0.062 A 
ATOM      7  F   UNL d   1       5.530  -3.985   0.657  0.00  0.00    -0.097 F 
ATOM      8  F1  UNL d   1       5.720  -5.874  -1.275  0.00  0.00    -0.096 F 
ATOM      9  I   UNL d   1       4.547  -6.000  -4.250  0.00  0.00    -0.060 I 
ATOM     10  F2  UNL d   1       3.087  -3.153  -4.155  0.00  0.00    -0.096 F 
ATOM     11  F3  UNL d   1       2.915  -1.283  -2.204  0.00  0.00    -0.097 F 
ATOM     12  F4  UNL d   1       4.131  -1.687   0.205  0.00  0.00    -0.092 F 
ENDROOT
TORSDOF 0
ENDMDL
