MODEL 1
REMARK minimizedAffinity 1.93141556
REMARK minimizedRMSD -1
REMARK  0 active torsions:
REMARK  status: ('A' for Active; 'I' for Inactive)
ROOT
ATOM      1  C   UNL d   1       1.891   0.766   2.560  0.00  0.00     0.077 C 
ATOM      2  C1  UNL d   1       2.367   0.702   1.139  0.00  0.00    -0.074 A 
ATOM      3  C2  UNL d   1       1.567   0.140   0.138  0.00  0.00    -0.005 A 
ATOM      4  C3  UNL d   1       2.019   0.096  -1.181  0.00  0.00     0.006 A 
ATOM      5  C4  UNL d   1       3.273   0.612  -1.512  0.00  0.00    -0.005 A 
ATOM      6  C5  UNL d   1       4.086   1.178  -0.525  0.00  0.00    -0.074 A 
ATOM      7  C6  UNL d   1       5.431   1.746  -0.865  0.00  0.00     0.077 C 
ATOM      8  C7  UNL d   1       3.622   1.225   0.797  0.00  0.00    -0.001 A 
ENDROOT
TORSDOF 0
ENDMDL
