MODEL 1
REMARK minimizedAffinity 0.735284805
REMARK minimizedRMSD -1
REMARK  0 active torsions:
REMARK  status: ('A' for Active; 'I' for Inactive)
ROOT
ATOM      1  C   UNL d   1       4.066   2.122  -1.371  0.00  0.00     0.077 C 
ATOM      2  C1  UNL d   1       3.388   0.789  -1.486  0.00  0.00    -0.074 A 
ATOM      3  C2  UNL d   1       3.506   0.020  -2.648  0.00  0.00    -0.005 A 
ATOM      4  C3  UNL d   1       2.877  -1.222  -2.737  0.00  0.00     0.006 A 
ATOM      5  C4  UNL d   1       2.126  -1.707  -1.666  0.00  0.00    -0.005 A 
ATOM      6  C5  UNL d   1       1.997  -0.952  -0.495  0.00  0.00    -0.074 A 
ATOM      7  C6  UNL d   1       1.201  -1.463   0.669  0.00  0.00     0.077 C 
ATOM      8  C7  UNL d   1       2.638   0.292  -0.411  0.00  0.00    -0.001 A 
ENDROOT
TORSDOF 0
ENDMDL
