MODEL 1
REMARK minimizedAffinity 4.52022362
REMARK minimizedRMSD -1
REMARK  0 active torsions:
REMARK  status: ('A' for Active; 'I' for Inactive)
ROOT
ATOM      1  C   UNL d   1       1.509  -1.482   0.005  0.00  0.00     0.077 C 
ATOM      2  C1  UNL d   1       2.368  -0.328  -0.420  0.00  0.00    -0.074 A 
ATOM      3  C2  UNL d   1       1.829   0.742  -1.142  0.00  0.00    -0.005 A 
ATOM      4  C3  UNL d   1       2.638   1.813  -1.522  0.00  0.00     0.006 A 
ATOM      5  C4  UNL d   1       3.992   1.825  -1.184  0.00  0.00    -0.005 A 
ATOM      6  C5  UNL d   1       4.548   0.765  -0.461  0.00  0.00    -0.074 A 
ATOM      7  C6  UNL d   1       5.999   0.767  -0.082  0.00  0.00     0.077 C 
ATOM      8  C7  UNL d   1       3.727  -0.304  -0.077  0.00  0.00    -0.001 A 
ENDROOT
TORSDOF 0
ENDMDL
