MODEL 1
REMARK minimizedAffinity -1.50448382
REMARK minimizedRMSD -1
REMARK  0 active torsions:
REMARK  status: ('A' for Active; 'I' for Inactive)
ROOT
ATOM      1  C   UNL d   1       1.234  -1.287  -0.122  0.00  0.00     0.077 C 
ATOM      2  C1  UNL d   1       2.107  -0.073  -0.244  0.00  0.00    -0.074 A 
ATOM      3  C2  UNL d   1       1.552   1.209  -0.303  0.00  0.00    -0.005 A 
ATOM      4  C3  UNL d   1       2.377   2.329  -0.407  0.00  0.00     0.006 A 
ATOM      5  C4  UNL d   1       3.764   2.178  -0.452  0.00  0.00    -0.005 A 
ATOM      6  C5  UNL d   1       4.337   0.904  -0.393  0.00  0.00    -0.074 A 
ATOM      7  C6  UNL d   1       5.826   0.724  -0.431  0.00  0.00     0.077 C 
ATOM      8  C7  UNL d   1       3.502  -0.216  -0.282  0.00  0.00    -0.001 A 
ENDROOT
TORSDOF 0
ENDMDL
