MODEL 1
REMARK minimizedAffinity 1.38720262
REMARK minimizedRMSD -1
REMARK  0 active torsions:
REMARK  status: ('A' for Active; 'I' for Inactive)
ROOT
ATOM      1  C   UNL d   1       3.332   1.865  -0.949  0.00  0.00     0.077 C 
ATOM      2  C1  UNL d   1       2.800   0.469  -1.086  0.00  0.00    -0.074 A 
ATOM      3  C2  UNL d   1       2.800  -0.181  -2.324  0.00  0.00    -0.005 A 
ATOM      4  C3  UNL d   1       2.310  -1.483  -2.434  0.00  0.00     0.006 A 
ATOM      5  C4  UNL d   1       1.817  -2.146  -1.310  0.00  0.00    -0.005 A 
ATOM      6  C5  UNL d   1       1.810  -1.511  -0.064  0.00  0.00    -0.074 A 
ATOM      7  C6  UNL d   1       1.292  -2.213   1.157  0.00  0.00     0.077 C 
ATOM      8  C7  UNL d   1       2.310  -0.206   0.040  0.00  0.00    -0.001 A 
ENDROOT
TORSDOF 0
ENDMDL
