MODEL 1
REMARK minimizedAffinity 5.20847178
REMARK minimizedRMSD -1
REMARK  0 active torsions:
REMARK  status: ('A' for Active; 'I' for Inactive)
ROOT
ATOM      1  C   UNL d   1       4.872   3.524  -1.123  0.00  0.00     0.077 C 
ATOM      2  C1  UNL d   1       4.891   2.027  -1.024  0.00  0.00    -0.074 A 
ATOM      3  C2  UNL d   1       5.999   1.356  -0.499  0.00  0.00    -0.005 A 
ATOM      4  C3  UNL d   1       5.999  -0.036  -0.404  0.00  0.00     0.006 A 
ATOM      5  C4  UNL d   1       4.891  -0.769  -0.832  0.00  0.00    -0.005 A 
ATOM      6  C5  UNL d   1       3.773  -0.114  -1.359  0.00  0.00    -0.074 A 
ATOM      7  C6  UNL d   1       2.570  -0.886  -1.814  0.00  0.00     0.077 C 
ATOM      8  C7  UNL d   1       3.778   1.285  -1.444  0.00  0.00    -0.001 A 
ENDROOT
TORSDOF 0
ENDMDL
