MODEL 1
REMARK minimizedAffinity 2.95680237
REMARK minimizedRMSD -1
REMARK  0 active torsions:
REMARK  status: ('A' for Active; 'I' for Inactive)
ROOT
ATOM      1  C   UNL d   1      -5.961   1.794   0.972  0.00  0.00     0.077 C 
ATOM      2  C1  UNL d   1      -5.754   3.257   1.230  0.00  0.00    -0.074 A 
ATOM      3  C2  UNL d   1      -5.375   4.122   0.199  0.00  0.00    -0.005 A 
ATOM      4  C3  UNL d   1      -5.195   5.482   0.453  0.00  0.00     0.006 A 
ATOM      5  C4  UNL d   1      -5.393   5.989   1.738  0.00  0.00    -0.005 A 
ATOM      6  C5  UNL d   1      -5.773   5.139   2.781  0.00  0.00    -0.074 A 
ATOM      7  C6  UNL d   1      -5.999   5.670   4.166  0.00  0.00     0.077 C 
ATOM      8  C7  UNL d   1      -5.958   3.775   2.517  0.00  0.00    -0.001 A 
ENDROOT
TORSDOF 0
ENDMDL
