MODEL 1
REMARK minimizedAffinity -1.17595828
REMARK minimizedRMSD -1
REMARK  0 active torsions:
REMARK  status: ('A' for Active; 'I' for Inactive)
ROOT
ATOM      1  C   UNL d   1       4.605   2.352  -1.240  0.00  0.00     0.077 C 
ATOM      2  C1  UNL d   1       3.559   1.294  -1.055  0.00  0.00    -0.074 A 
ATOM      3  C2  UNL d   1       2.423   1.534  -0.276  0.00  0.00    -0.005 A 
ATOM      4  C3  UNL d   1       1.454   0.543  -0.120  0.00  0.00     0.006 A 
ATOM      5  C4  UNL d   1       1.611  -0.696  -0.741  0.00  0.00    -0.005 A 
ATOM      6  C5  UNL d   1       2.740  -0.955  -1.525  0.00  0.00    -0.074 A 
ATOM      7  C6  UNL d   1       2.919  -2.278  -2.208  0.00  0.00     0.077 C 
ATOM      8  C7  UNL d   1       3.706   0.049  -1.682  0.00  0.00    -0.001 A 
ENDROOT
TORSDOF 0
ENDMDL
