MODEL 1
REMARK minimizedAffinity 10.5259218
REMARK minimizedRMSD -1
REMARK  0 active torsions:
REMARK  status: ('A' for Active; 'I' for Inactive)
ROOT
ATOM      1  C   UNL d   1       6.000   3.754   1.492  0.00  0.00     0.077 C 
ATOM      2  C1  UNL d   1       5.357   3.240   0.239  0.00  0.00    -0.074 A 
ATOM      3  C2  UNL d   1       5.990   3.375  -1.001  0.00  0.00    -0.005 A 
ATOM      4  C3  UNL d   1       5.384   2.883  -2.157  0.00  0.00     0.006 A 
ATOM      5  C4  UNL d   1       4.142   2.252  -2.085  0.00  0.00    -0.005 A 
ATOM      6  C5  UNL d   1       3.494   2.107  -0.854  0.00  0.00    -0.074 A 
ATOM      7  C6  UNL d   1       2.163   1.422  -0.758  0.00  0.00     0.077 C 
ATOM      8  C7  UNL d   1       4.113   2.597   0.304  0.00  0.00    -0.001 A 
ENDROOT
TORSDOF 0
ENDMDL
