MODEL 1
REMARK minimizedAffinity 2.80635691
REMARK minimizedRMSD -1
REMARK  0 active torsions:
REMARK  status: ('A' for Active; 'I' for Inactive)
ROOT
ATOM      1  C   UNL d   1       5.039   1.365  -2.618  0.00  0.00     0.077 C 
ATOM      2  C1  UNL d   1       3.864   1.149  -1.711  0.00  0.00    -0.074 A 
ATOM      3  C2  UNL d   1       3.248   2.224  -1.063  0.00  0.00    -0.005 A 
ATOM      4  C3  UNL d   1       2.150   2.008  -0.230  0.00  0.00     0.006 A 
ATOM      5  C4  UNL d   1       1.657   0.717  -0.038  0.00  0.00    -0.005 A 
ATOM      6  C5  UNL d   1       2.259  -0.371  -0.679  0.00  0.00    -0.074 A 
ATOM      7  C6  UNL d   1       1.736  -1.764  -0.491  0.00  0.00     0.077 C 
ATOM      8  C7  UNL d   1       3.358  -0.145  -1.519  0.00  0.00    -0.001 A 
ENDROOT
TORSDOF 0
ENDMDL
