MODEL 1
REMARK minimizedAffinity 6.23702812
REMARK minimizedRMSD -1
REMARK  0 active torsions:
REMARK  status: ('A' for Active; 'I' for Inactive)
ROOT
ATOM      1  C   UNL d   1       0.379  -0.871   5.621  0.00  0.00     0.077 C 
ATOM      2  C1  UNL d   1      -0.230  -2.239   5.704  0.00  0.00    -0.074 A 
ATOM      3  C2  UNL d   1      -1.617  -2.412   5.660  0.00  0.00    -0.005 A 
ATOM      4  C3  UNL d   1      -2.169  -3.692   5.729  0.00  0.00     0.006 A 
ATOM      5  C4  UNL d   1      -1.340  -4.809   5.843  0.00  0.00    -0.005 A 
ATOM      6  C5  UNL d   1       0.049  -4.655   5.888  0.00  0.00    -0.074 A 
ATOM      7  C6  UNL d   1       0.954  -5.846   6.000  0.00  0.00     0.077 C 
ATOM      8  C7  UNL d   1       0.596  -3.367   5.811  0.00  0.00    -0.001 A 
ENDROOT
TORSDOF 0
ENDMDL
