MODEL 1
REMARK minimizedAffinity 2.59739304
REMARK minimizedRMSD -1
REMARK  0 active torsions:
REMARK  status: ('A' for Active; 'I' for Inactive)
ROOT
ATOM      1  C   UNL d   1      -1.886   1.878  -5.543  0.00  0.00     0.020 A 
ATOM      2  C1  UNL d   1      -1.086   3.020  -5.530  0.00  0.00     0.020 A 
ATOM      3  C2  UNL d   1      -1.667   4.282  -5.663  0.00  0.00     0.034 A 
ATOM      4  C3  UNL d   1      -3.054   4.406  -5.810  0.00  0.00     0.017 A 
ATOM      5  C4  UNL d   1      -3.857   3.260  -5.823  0.00  0.00     0.017 A 
ATOM      6  C5  UNL d   1      -3.269   1.998  -5.689  0.00  0.00     0.034 A 
ATOM      7 Cl   UNL d   1      -5.574   3.334  -6.000  0.00  0.00    -0.070 Cl
ATOM      8 Cl1  UNL d   1      -3.705   5.999  -5.969  0.00  0.00    -0.070 Cl
ENDROOT
TORSDOF 0
ENDMDL
