MODEL 1
REMARK minimizedAffinity 0.166391745
REMARK minimizedRMSD -1
REMARK  0 active torsions:
REMARK  status: ('A' for Active; 'I' for Inactive)
ROOT
ATOM      1  C   UNL d   1      -0.836   3.130   1.132  0.00  0.00     0.020 A 
ATOM      2  C1  UNL d   1      -1.965   2.315   1.209  0.00  0.00     0.020 A 
ATOM      3  C2  UNL d   1      -1.838   0.931   1.071  0.00  0.00     0.034 A 
ATOM      4  C3  UNL d   1      -0.580   0.358   0.854  0.00  0.00     0.017 A 
ATOM      5  C4  UNL d   1       0.553   1.177   0.777  0.00  0.00     0.017 A 
ATOM      6  C5  UNL d   1       0.420   2.562   0.916  0.00  0.00     0.034 A 
ATOM      7 Cl   UNL d   1       2.139   0.542   0.511  0.00  0.00    -0.070 Cl
ATOM      8 Cl1  UNL d   1      -0.497  -1.360   0.692  0.00  0.00    -0.070 Cl
ENDROOT
TORSDOF 0
ENDMDL
