MODEL 1
REMARK minimizedAffinity 1.42091346
REMARK minimizedRMSD -1
REMARK  0 active torsions:
REMARK  status: ('A' for Active; 'I' for Inactive)
ROOT
ATOM      1  C   UNL d   1      -1.722   1.251   0.495  0.00  0.00     0.020 A 
ATOM      2  C1  UNL d   1      -1.411   2.517   0.990  0.00  0.00     0.020 A 
ATOM      3  C2  UNL d   1      -0.099   2.819   1.360  0.00  0.00     0.034 A 
ATOM      4  C3  UNL d   1       0.907   1.854   1.235  0.00  0.00     0.017 A 
ATOM      5  C4  UNL d   1       0.594   0.584   0.738  0.00  0.00     0.017 A 
ATOM      6  C5  UNL d   1      -0.722   0.287   0.369  0.00  0.00     0.034 A 
ATOM      7 Cl   UNL d   1       1.782  -0.658   0.555  0.00  0.00    -0.070 Cl
ATOM      8 Cl1  UNL d   1       2.508   2.297   1.711  0.00  0.00    -0.070 Cl
ENDROOT
TORSDOF 0
ENDMDL
