MODEL 1
REMARK minimizedAffinity -0.649586201
REMARK minimizedRMSD -1
REMARK  0 active torsions:
REMARK  status: ('A' for Active; 'I' for Inactive)
ROOT
ATOM      1  C   UNL d   1      -1.135   2.287   1.219  0.00  0.00     0.020 A 
ATOM      2  C1  UNL d   1      -2.067   1.619   0.426  0.00  0.00     0.020 A 
ATOM      3  C2  UNL d   1      -1.685   0.488  -0.298  0.00  0.00     0.034 A 
ATOM      4  C3  UNL d   1      -0.368   0.021  -0.231  0.00  0.00     0.017 A 
ATOM      5  C4  UNL d   1       0.567   0.692   0.566  0.00  0.00     0.017 A 
ATOM      6  C5  UNL d   1       0.179   1.824   1.288  0.00  0.00     0.034 A 
ATOM      7 Cl   UNL d   1       2.211   0.175   0.700  0.00  0.00    -0.070 Cl
ATOM      8 Cl1  UNL d   1       0.035  -1.384  -1.152  0.00  0.00    -0.070 Cl
ENDROOT
TORSDOF 0
ENDMDL
