MODEL 1
REMARK minimizedAffinity -1.08826196
REMARK minimizedRMSD -1
REMARK  0 active torsions:
REMARK  status: ('A' for Active; 'I' for Inactive)
ROOT
ATOM      1  C   UNL d   1       1.541   0.151   0.670  0.00  0.00     0.020 A 
ATOM      2  C1  UNL d   1       0.708  -0.964   0.760  0.00  0.00     0.020 A 
ATOM      3  C2  UNL d   1      -0.669  -0.795   0.923  0.00  0.00     0.034 A 
ATOM      4  C3  UNL d   1      -1.217   0.491   0.997  0.00  0.00     0.017 A 
ATOM      5  C4  UNL d   1      -0.379   1.609   0.906  0.00  0.00     0.017 A 
ATOM      6  C5  UNL d   1       0.998   1.434   0.743  0.00  0.00     0.034 A 
ATOM      7 Cl   UNL d   1      -0.982   3.227   0.989  0.00  0.00    -0.070 Cl
ATOM      8 Cl1  UNL d   1      -2.927   0.626   1.198  0.00  0.00    -0.070 Cl
ENDROOT
TORSDOF 0
ENDMDL
