MODEL 1
REMARK minimizedAffinity 2.83244109
REMARK minimizedRMSD -1
REMARK  0 active torsions:
REMARK  status: ('A' for Active; 'I' for Inactive)
ROOT
ATOM      1  C   UNL d   1      -2.183  -0.313   1.111  0.00  0.00     0.020 A 
ATOM      2  C1  UNL d   1      -3.005   0.799   0.931  0.00  0.00     0.020 A 
ATOM      3  C2  UNL d   1      -2.441   2.048   0.664  0.00  0.00     0.034 A 
ATOM      4  C3  UNL d   1      -1.052   2.189   0.576  0.00  0.00     0.017 A 
ATOM      5  C4  UNL d   1      -0.227   1.073   0.757  0.00  0.00     0.017 A 
ATOM      6  C5  UNL d   1      -0.797  -0.176   1.025  0.00  0.00     0.034 A 
ATOM      7 Cl   UNL d   1       1.496   1.168   0.664  0.00  0.00    -0.070 Cl
ATOM      8 Cl1  UNL d   1      -0.423   3.763   0.242  0.00  0.00    -0.070 Cl
ENDROOT
TORSDOF 0
ENDMDL
