MODEL 1
REMARK minimizedAffinity 1.34824955
REMARK minimizedRMSD -1
REMARK  0 active torsions:
REMARK  status: ('A' for Active; 'I' for Inactive)
ROOT
ATOM      1  C   UNL d   1      -2.127   0.028   0.834  0.00  0.00     0.020 A 
ATOM      2  C1  UNL d   1      -2.598   1.299   1.158  0.00  0.00     0.020 A 
ATOM      3  C2  UNL d   1      -1.698   2.350   1.349  0.00  0.00     0.034 A 
ATOM      4  C3  UNL d   1      -0.322   2.131   1.215  0.00  0.00     0.017 A 
ATOM      5  C4  UNL d   1       0.150   0.855   0.889  0.00  0.00     0.017 A 
ATOM      6  C5  UNL d   1      -0.756  -0.194   0.700  0.00  0.00     0.034 A 
ATOM      7 Cl   UNL d   1       1.833   0.508   0.707  0.00  0.00    -0.070 Cl
ATOM      8 Cl1  UNL d   1       0.733   3.477   1.464  0.00  0.00    -0.070 Cl
ENDROOT
TORSDOF 0
ENDMDL
