MODEL 1
REMARK minimizedAffinity 2.72928715
REMARK minimizedRMSD -1
REMARK  0 active torsions:
REMARK  status: ('A' for Active; 'I' for Inactive)
ROOT
ATOM      1  C   UNL d   1      -4.209   3.447  -5.987  0.00  0.00     0.020 A 
ATOM      2  C1  UNL d   1      -3.560   2.213  -6.000  0.00  0.00     0.020 A 
ATOM      3  C2  UNL d   1      -2.204   2.134  -5.677  0.00  0.00     0.034 A 
ATOM      4  C3  UNL d   1      -1.492   3.291  -5.339  0.00  0.00     0.017 A 
ATOM      5  C4  UNL d   1      -2.145   4.529  -5.326  0.00  0.00     0.017 A 
ATOM      6  C5  UNL d   1      -3.503   4.602  -5.650  0.00  0.00     0.034 A 
ATOM      7 Cl   UNL d   1      -1.333   6.000  -4.919  0.00  0.00    -0.070 Cl
ATOM      8 Cl1  UNL d   1       0.183   3.119  -4.950  0.00  0.00    -0.070 Cl
ENDROOT
TORSDOF 0
ENDMDL
