MODEL 1
REMARK minimizedAffinity 4.15372944
REMARK minimizedRMSD -1
REMARK  0 active torsions:
REMARK  status: ('A' for Active; 'I' for Inactive)
ROOT
ATOM      1  C   UNL d   1      -1.652   2.780   1.104  0.00  0.00     0.020 A 
ATOM      2  C1  UNL d   1      -2.651   1.826   1.294  0.00  0.00     0.020 A 
ATOM      3  C2  UNL d   1      -2.332   0.467   1.272  0.00  0.00     0.034 A 
ATOM      4  C3  UNL d   1      -1.011   0.057   1.060  0.00  0.00     0.017 A 
ATOM      5  C4  UNL d   1      -0.008   1.015   0.869  0.00  0.00     0.017 A 
ATOM      6  C5  UNL d   1      -0.333   2.375   0.893  0.00  0.00     0.034 A 
ATOM      7 Cl   UNL d   1       1.645   0.586   0.602  0.00  0.00    -0.070 Cl
ATOM      8 Cl1  UNL d   1      -0.688  -1.640   1.045  0.00  0.00    -0.070 Cl
ENDROOT
TORSDOF 0
ENDMDL
