MODEL 1
REMARK minimizedAffinity 1.76595128
REMARK minimizedRMSD -1
REMARK  0 active torsions:
REMARK  status: ('A' for Active; 'I' for Inactive)
ROOT
ATOM      1  C   UNL d   1      -1.153   2.348   1.098  0.00  0.00     0.020 A 
ATOM      2  C1  UNL d   1      -2.230   1.472   1.225  0.00  0.00     0.020 A 
ATOM      3  C2  UNL d   1      -2.022   0.094   1.145  0.00  0.00     0.034 A 
ATOM      4  C3  UNL d   1      -0.734  -0.413   0.937  0.00  0.00     0.017 A 
ATOM      5  C4  UNL d   1       0.347   0.468   0.810  0.00  0.00     0.017 A 
ATOM      6  C5  UNL d   1       0.133   1.847   0.891  0.00  0.00     0.034 A 
ATOM      7 Cl   UNL d   1       1.965  -0.082   0.553  0.00  0.00    -0.070 Cl
ATOM      8 Cl1  UNL d   1      -0.549  -2.128   0.849  0.00  0.00    -0.070 Cl
ENDROOT
TORSDOF 0
ENDMDL
