MODEL 1
REMARK minimizedAffinity 1.50294197
REMARK minimizedRMSD -1
REMARK  0 active torsions:
REMARK  status: ('A' for Active; 'I' for Inactive)
ROOT
ATOM      1  C   UNL d   1      -0.549   1.838   0.313  0.00  0.00     0.020 A 
ATOM      2  C1  UNL d   1       0.825   1.623   0.210  0.00  0.00     0.020 A 
ATOM      3  C2  UNL d   1       1.663   1.937   1.281  0.00  0.00     0.034 A 
ATOM      4  C3  UNL d   1       1.129   2.469   2.460  0.00  0.00     0.017 A 
ATOM      5  C4  UNL d   1      -0.250   2.685   2.563  0.00  0.00     0.017 A 
ATOM      6  C5  UNL d   1      -1.085   2.368   1.488  0.00  0.00     0.034 A 
ATOM      7 Cl   UNL d   1      -0.982   3.338   3.986  0.00  0.00    -0.070 Cl
ATOM      8 Cl1  UNL d   1       2.225   2.835   3.745  0.00  0.00    -0.070 Cl
ENDROOT
TORSDOF 0
ENDMDL
