MODEL 1
REMARK minimizedAffinity -0.642391264
REMARK minimizedRMSD -1
REMARK  0 active torsions:
REMARK  status: ('A' for Active; 'I' for Inactive)
ROOT
ATOM      1  C   UNL d   1      -5.201   4.862  -5.380  0.00  0.00     0.020 A 
ATOM      2  C1  UNL d   1      -5.104   3.542  -5.820  0.00  0.00     0.020 A 
ATOM      3  C2  UNL d   1      -3.848   2.957  -6.000  0.00  0.00     0.034 A 
ATOM      4  C3  UNL d   1      -2.686   3.692  -5.741  0.00  0.00     0.017 A 
ATOM      5  C4  UNL d   1      -2.785   5.017  -5.300  0.00  0.00     0.017 A 
ATOM      6  C5  UNL d   1      -4.045   5.597  -5.121  0.00  0.00     0.034 A 
ATOM      7 Cl   UNL d   1      -1.396   5.987  -4.959  0.00  0.00    -0.070 Cl
ATOM      8 Cl1  UNL d   1      -1.167   2.906  -5.985  0.00  0.00    -0.070 Cl
ENDROOT
TORSDOF 0
ENDMDL
