MODEL 1
REMARK minimizedAffinity 15.4141464
REMARK minimizedRMSD -1
REMARK  0 active torsions:
REMARK  status: ('A' for Active; 'I' for Inactive)
ROOT
ATOM      1  C   UNL d   1       2.320   0.447  -3.478  0.00  0.00     0.020 A 
ATOM      2  C1  UNL d   1       1.547  -0.224  -2.532  0.00  0.00     0.020 A 
ATOM      3  C2  UNL d   1       2.140  -1.159  -1.681  0.00  0.00     0.034 A 
ATOM      4  C3  UNL d   1       3.511  -1.425  -1.774  0.00  0.00     0.017 A 
ATOM      5  C4  UNL d   1       4.287  -0.751  -2.724  0.00  0.00     0.017 A 
ATOM      6  C5  UNL d   1       3.688   0.184  -3.574  0.00  0.00     0.034 A 
ATOM      7 Cl   UNL d   1       5.984  -1.026  -2.899  0.00  0.00    -0.070 Cl
ATOM      8 Cl1  UNL d   1       4.179  -2.593  -0.690  0.00  0.00    -0.070 Cl
ENDROOT
TORSDOF 0
ENDMDL
