MODEL 1
REMARK minimizedAffinity 3.491853
REMARK minimizedRMSD -1
REMARK  0 active torsions:
REMARK  status: ('A' for Active; 'I' for Inactive)
ROOT
ATOM      1  C   UNL d   1       1.791   0.499  -3.064  0.00  0.00     0.020 A 
ATOM      2  C1  UNL d   1       2.714  -0.205  -3.836  0.00  0.00     0.020 A 
ATOM      3  C2  UNL d   1       3.528  -1.172  -3.243  0.00  0.00     0.034 A 
ATOM      4  C3  UNL d   1       3.420  -1.438  -1.873  0.00  0.00     0.017 A 
ATOM      5  C4  UNL d   1       2.493  -0.731  -1.098  0.00  0.00     0.017 A 
ATOM      6  C5  UNL d   1       1.681   0.236  -1.698  0.00  0.00     0.034 A 
ATOM      7 Cl   UNL d   1       2.303  -1.005   0.598  0.00  0.00    -0.070 Cl
ATOM      8 Cl1  UNL d   1       4.458  -2.648  -1.206  0.00  0.00    -0.070 Cl
ENDROOT
TORSDOF 0
ENDMDL
