MODEL 1
REMARK minimizedAffinity 8.19343853
REMARK minimizedRMSD -1
REMARK  0 active torsions:
REMARK  status: ('A' for Active; 'I' for Inactive)
ROOT
ATOM      1  C   UNL d   1      -1.814   3.121   0.946  0.00  0.00     0.020 A 
ATOM      2  C1  UNL d   1      -2.939   2.308   1.077  0.00  0.00     0.020 A 
ATOM      3  C2  UNL d   1      -2.804   0.919   1.039  0.00  0.00     0.034 A 
ATOM      4  C3  UNL d   1      -1.542   0.338   0.870  0.00  0.00     0.017 A 
ATOM      5  C4  UNL d   1      -0.413   1.156   0.738  0.00  0.00     0.017 A 
ATOM      6  C5  UNL d   1      -0.554   2.546   0.777  0.00  0.00     0.034 A 
ATOM      7 Cl   UNL d   1       1.177   0.513   0.526  0.00  0.00    -0.070 Cl
ATOM      8 Cl1  UNL d   1      -1.449  -1.387   0.833  0.00  0.00    -0.070 Cl
ENDROOT
TORSDOF 0
ENDMDL
