MODEL 1
REMARK minimizedAffinity 12.571064
REMARK minimizedRMSD -1
REMARK  0 active torsions:
REMARK  status: ('A' for Active; 'I' for Inactive)
ROOT
ATOM      1  C   UNL d   1       0.189   2.090  -3.820  0.00  0.00     0.020 A 
ATOM      2  C1  UNL d   1       1.398   2.308  -4.479  0.00  0.00     0.020 A 
ATOM      3  C2  UNL d   1       2.511   1.520  -4.176  0.00  0.00     0.034 A 
ATOM      4  C3  UNL d   1       2.416   0.511  -3.211  0.00  0.00     0.017 A 
ATOM      5  C4  UNL d   1       1.202   0.293  -2.550  0.00  0.00     0.017 A 
ATOM      6  C5  UNL d   1       0.091   1.084  -2.858  0.00  0.00     0.034 A 
ATOM      7 Cl   UNL d   1       1.008  -0.934  -1.348  0.00  0.00    -0.070 Cl
ATOM      8 Cl1  UNL d   1       3.832  -0.425  -2.886  0.00  0.00    -0.070 Cl
ENDROOT
TORSDOF 0
ENDMDL
