MODEL 1
REMARK minimizedAffinity -0.78189671
REMARK minimizedRMSD -1
REMARK  0 active torsions:
REMARK  status: ('A' for Active; 'I' for Inactive)
ROOT
ATOM      1  C   UNL d   1      -0.968   1.647  -0.644  0.00  0.00     0.124 A 
ATOM      2  C1  UNL d   1      -1.329   2.004   0.648  0.00  0.00     0.062 A 
ATOM      3  C2  UNL d   1      -0.713   1.398   1.739  0.00  0.00     0.162 A 
ATOM      4  C3  UNL d   1       0.272   0.430   1.543  0.00  0.00    -0.034 A 
ATOM      5  C4  UNL d   1       0.629   0.076   0.241  0.00  0.00     0.162 A 
ATOM      6  C5  UNL d   1       0.010   0.684  -0.847  0.00  0.00     0.062 A 
ATOM      7  F   UNL d   1       0.360   0.339  -2.094  0.00  0.00    -0.097 F 
ATOM      8  F1  UNL d   1       1.572  -0.850   0.016  0.00  0.00    -0.096 F 
ATOM      9  I   UNL d   1       1.196  -0.477   3.172  0.00  0.00    -0.060 I 
ATOM     10  F2  UNL d   1      -1.082   1.762   2.976  0.00  0.00    -0.096 F 
ATOM     11  F3  UNL d   1      -2.275   2.933   0.846  0.00  0.00    -0.097 F 
ATOM     12  F4  UNL d   1      -1.564   2.231  -1.692  0.00  0.00    -0.092 F 
ENDROOT
TORSDOF 0
ENDMDL
