MODEL 1
REMARK minimizedAffinity -3.07785153
REMARK minimizedRMSD -1
REMARK  0 active torsions:
REMARK  status: ('A' for Active; 'I' for Inactive)
ROOT
ATOM      1  C   UNL d   1      -1.013   3.078   0.696  0.00  0.00     0.124 A 
ATOM      2  C1  UNL d   1      -0.961   2.061   1.639  0.00  0.00     0.062 A 
ATOM      3  C2  UNL d   1      -0.530   0.789   1.272  0.00  0.00     0.162 A 
ATOM      4  C3  UNL d   1      -0.147   0.527  -0.044  0.00  0.00    -0.034 A 
ATOM      5  C4  UNL d   1      -0.204   1.556  -0.986  0.00  0.00     0.162 A 
ATOM      6  C5  UNL d   1      -0.635   2.825  -0.615  0.00  0.00     0.062 A 
ATOM      7  F   UNL d   1      -0.686   3.807  -1.527  0.00  0.00    -0.097 F 
ATOM      8  F1  UNL d   1       0.157   1.339  -2.260  0.00  0.00    -0.096 F 
ATOM      9  I   UNL d   1       0.497  -1.373  -0.596  0.00  0.00    -0.060 I 
ATOM     10  F2  UNL d   1      -0.489  -0.175   2.204  0.00  0.00    -0.096 F 
ATOM     11  F3  UNL d   1      -1.326   2.303   2.906  0.00  0.00    -0.097 F 
ATOM     12  F4  UNL d   1      -1.429   4.301   1.051  0.00  0.00    -0.092 F 
ENDROOT
TORSDOF 0
ENDMDL
