MODEL 1
REMARK minimizedAffinity 3.1352551
REMARK minimizedRMSD -1
REMARK  0 active torsions:
REMARK  status: ('A' for Active; 'I' for Inactive)
ROOT
ATOM      1  C   UNL d   1       0.650   1.558   0.842  0.00  0.00     0.124 A 
ATOM      2  C1  UNL d   1       0.361   0.457   1.637  0.00  0.00     0.062 A 
ATOM      3  C2  UNL d   1      -0.058  -0.736   1.054  0.00  0.00     0.162 A 
ATOM      4  C3  UNL d   1      -0.190  -0.835  -0.331  0.00  0.00    -0.034 A 
ATOM      5  C4  UNL d   1       0.102   0.277  -1.123  0.00  0.00     0.162 A 
ATOM      6  C5  UNL d   1       0.520   1.467  -0.536  0.00  0.00     0.062 A 
ATOM      7  F   UNL d   1       0.799   2.530  -1.305  0.00  0.00    -0.097 F 
ATOM      8  F1  UNL d   1      -0.014   0.217  -2.458  0.00  0.00    -0.096 F 
ATOM      9  I   UNL d   1      -0.816  -2.616  -1.205  0.00  0.00    -0.060 I 
ATOM     10  F2  UNL d   1      -0.330  -1.784   1.846  0.00  0.00    -0.096 F 
ATOM     11  F3  UNL d   1       0.485   0.542   2.969  0.00  0.00    -0.097 F 
ATOM     12  F4  UNL d   1       1.052   2.705   1.405  0.00  0.00    -0.092 F 
ENDROOT
TORSDOF 0
ENDMDL
