MODEL 1
REMARK minimizedAffinity -4.28850651
REMARK minimizedRMSD -1
REMARK  0 active torsions:
REMARK  status: ('A' for Active; 'I' for Inactive)
ROOT
ATOM      1  C   UNL d   1      -0.369   2.311   0.990  0.00  0.00     0.124 A 
ATOM      2  C1  UNL d   1      -0.084   1.180   1.742  0.00  0.00     0.062 A 
ATOM      3  C2  UNL d   1       0.188  -0.030   1.111  0.00  0.00     0.162 A 
ATOM      4  C3  UNL d   1       0.178  -0.116  -0.281  0.00  0.00    -0.034 A 
ATOM      5  C4  UNL d   1      -0.110   1.025  -1.031  0.00  0.00     0.162 A 
ATOM      6  C5  UNL d   1      -0.382   2.233  -0.395  0.00  0.00     0.062 A 
ATOM      7  F   UNL d   1      -0.657   3.324  -1.124  0.00  0.00    -0.097 F 
ATOM      8  F1  UNL d   1      -0.128   0.978  -2.371  0.00  0.00    -0.096 F 
ATOM      9  I   UNL d   1       0.585  -1.924  -1.228  0.00  0.00    -0.060 I 
ATOM     10  F2  UNL d   1       0.460  -1.107   1.864  0.00  0.00    -0.096 F 
ATOM     11  F3  UNL d   1      -0.072   1.252   3.081  0.00  0.00    -0.097 F 
ATOM     12  F4  UNL d   1      -0.632   3.474   1.600  0.00  0.00    -0.092 F 
ENDROOT
TORSDOF 0
ENDMDL
