MODEL 1
REMARK minimizedAffinity -3.22031856
REMARK minimizedRMSD -1
REMARK  0 active torsions:
REMARK  status: ('A' for Active; 'I' for Inactive)
ROOT
ATOM      1  C   UNL d   1      -0.964   1.250  -0.741  0.00  0.00     0.124 A 
ATOM      2  C1  UNL d   1      -1.078   1.700   0.567  0.00  0.00     0.062 A 
ATOM      3  C2  UNL d   1      -0.270   1.164   1.565  0.00  0.00     0.162 A 
ATOM      4  C3  UNL d   1       0.661   0.171   1.259  0.00  0.00    -0.034 A 
ATOM      5  C4  UNL d   1       0.770  -0.277  -0.059  0.00  0.00     0.162 A 
ATOM      6  C5  UNL d   1      -0.041   0.262  -1.053  0.00  0.00     0.062 A 
ATOM      7  F   UNL d   1       0.071  -0.174  -2.316  0.00  0.00    -0.097 F 
ATOM      8  F1  UNL d   1       1.654  -1.230  -0.388  0.00  0.00    -0.096 F 
ATOM      9  I   UNL d   1       1.872  -0.633   2.748  0.00  0.00    -0.060 I 
ATOM     10  F2  UNL d   1      -0.402   1.618   2.820  0.00  0.00    -0.096 F 
ATOM     11  F3  UNL d   1      -1.971   2.654   0.871  0.00  0.00    -0.097 F 
ATOM     12  F4  UNL d   1      -1.744   1.767  -1.699  0.00  0.00    -0.092 F 
ENDROOT
TORSDOF 0
ENDMDL
