MODEL 1
REMARK minimizedAffinity 0.986851692
REMARK minimizedRMSD -1
REMARK  0 active torsions:
REMARK  status: ('A' for Active; 'I' for Inactive)
ROOT
ATOM      1  C   UNL d   1       0.971   0.062   0.981  0.00  0.00     0.124 A 
ATOM      2  C1  UNL d   1       0.679  -0.131  -0.362  0.00  0.00     0.062 A 
ATOM      3  C2  UNL d   1      -0.556   0.257  -0.873  0.00  0.00     0.162 A 
ATOM      4  C3  UNL d   1      -1.509   0.843  -0.040  0.00  0.00    -0.034 A 
ATOM      5  C4  UNL d   1      -1.209   1.033   1.310  0.00  0.00     0.162 A 
ATOM      6  C5  UNL d   1       0.027   0.644   1.816  0.00  0.00     0.062 A 
ATOM      7  F   UNL d   1       0.307   0.831   3.114  0.00  0.00    -0.097 F 
ATOM      8  F1  UNL d   1      -2.102   1.594   2.138  0.00  0.00    -0.096 F 
ATOM      9  I   UNL d   1      -3.357   1.425  -0.800  0.00  0.00    -0.060 I 
ATOM     10  F2  UNL d   1      -0.811   0.059  -2.175  0.00  0.00    -0.096 F 
ATOM     11  F3  UNL d   1       1.589  -0.694  -1.170  0.00  0.00    -0.097 F 
ATOM     12  F4  UNL d   1       2.160  -0.314   1.470  0.00  0.00    -0.092 F 
ENDROOT
TORSDOF 0
ENDMDL
