MODEL 1
REMARK minimizedAffinity 11.2345886
REMARK minimizedRMSD -1
REMARK  0 active torsions:
REMARK  status: ('A' for Active; 'I' for Inactive)
ROOT
ATOM      1  C   UNL d   1       1.035   1.600   2.856  0.00  0.00     0.124 A 
ATOM      2  C1  UNL d   1       1.039   1.710   1.472  0.00  0.00     0.062 A 
ATOM      3  C2  UNL d   1       0.939   0.572   0.678  0.00  0.00     0.162 A 
ATOM      4  C3  UNL d   1       0.833  -0.689   1.266  0.00  0.00    -0.034 A 
ATOM      5  C4  UNL d   1       0.832  -0.793   2.658  0.00  0.00     0.162 A 
ATOM      6  C5  UNL d   1       0.932   0.349   3.447  0.00  0.00     0.062 A 
ATOM      7  F   UNL d   1       0.929   0.239   4.784  0.00  0.00    -0.097 F 
ATOM      8  F1  UNL d   1       0.732  -1.989   3.257  0.00  0.00    -0.096 F 
ATOM      9  I   UNL d   1       0.684  -2.395   0.083  0.00  0.00    -0.060 I 
ATOM     10  F2  UNL d   1       0.944   0.708  -0.656  0.00  0.00    -0.096 F 
ATOM     11  F3  UNL d   1       1.139   2.918   0.898  0.00  0.00    -0.097 F 
ATOM     12  F4  UNL d   1       1.133   2.697   3.617  0.00  0.00    -0.092 F 
ENDROOT
TORSDOF 0
ENDMDL
