MODEL 1
REMARK minimizedAffinity -1.57809532
REMARK minimizedRMSD -1
REMARK  0 active torsions:
REMARK  status: ('A' for Active; 'I' for Inactive)
ROOT
ATOM      1  C   UNL d   1       1.286   0.503   3.344  0.00  0.00     0.124 A 
ATOM      2  C1  UNL d   1       1.565  -0.378   2.307  0.00  0.00     0.062 A 
ATOM      3  C2  UNL d   1       1.245  -0.039   0.996  0.00  0.00     0.162 A 
ATOM      4  C3  UNL d   1       0.643   1.188   0.713  0.00  0.00    -0.034 A 
ATOM      5  C4  UNL d   1       0.365   2.067   1.760  0.00  0.00     0.162 A 
ATOM      6  C5  UNL d   1       0.686   1.724   3.069  0.00  0.00     0.062 A 
ATOM      7  F   UNL d   1       0.416   2.575   4.069  0.00  0.00    -0.097 F 
ATOM      8  F1  UNL d   1      -0.213   3.254   1.524  0.00  0.00    -0.096 F 
ATOM      9  I   UNL d   1       0.163   1.698  -1.247  0.00  0.00    -0.060 I 
ATOM     10  F2  UNL d   1       1.526  -0.908   0.014  0.00  0.00    -0.096 F 
ATOM     11  F3  UNL d   1       2.143  -1.558   2.570  0.00  0.00    -0.097 F 
ATOM     12  F4  UNL d   1       1.594   0.173   4.605  0.00  0.00    -0.092 F 
ENDROOT
TORSDOF 0
ENDMDL
