MODEL 1
REMARK minimizedAffinity 9.44663811
REMARK minimizedRMSD -1
REMARK  1 active torsions:
REMARK  status: ('A' for Active; 'I' for Inactive)
REMARK    1  A    between atoms: C1_2  and  C2_3 
ROOT
ATOM      1  C2  UNL d   1      -5.307   5.230   3.523  0.00  0.00    -0.076 A 
ATOM      2  C3  UNL d   1      -5.584   5.989   4.673  0.00  0.00     0.004 A 
ATOM      3  C4  UNL d   1      -5.928   5.371   5.875  0.00  0.00    -0.003 A 
ATOM      4  C5  UNL d   1      -5.999   3.984   5.946  0.00  0.00     0.000 A 
ATOM      5  C6  UNL d   1      -5.710   3.215   4.819  0.00  0.00     0.000 A 
ATOM      6  C7  UNL d   1      -5.346   3.821   3.605  0.00  0.00    -0.073 A 
ATOM      7  C8  UNL d   1      -5.050   2.943   2.420  0.00  0.00     0.078 C 
ENDROOT
BRANCH   1   8
ATOM      8  C1  UNL d   1      -4.966   5.955   2.241  0.00  0.00     0.053 C 
ATOM      9  C   UNL d   1      -3.474   5.948   1.947  0.00  0.00     0.018 C 
ENDBRANCH   1   8
TORSDOF 1
ENDMDL
