MODEL 1
REMARK minimizedAffinity 1.52534652
REMARK minimizedRMSD -1
REMARK  1 active torsions:
REMARK  status: ('A' for Active; 'I' for Inactive)
REMARK    1  A    between atoms: C1_2  and  C2_3 
ROOT
ATOM      1  C2  UNL d   1      -0.381  -3.035   4.732  0.00  0.00    -0.076 A 
ATOM      2  C3  UNL d   1      -0.864  -1.779   4.326  0.00  0.00     0.004 A 
ATOM      3  C4  UNL d   1      -0.060  -0.642   4.402  0.00  0.00    -0.003 A 
ATOM      4  C5  UNL d   1       1.240  -0.743   4.884  0.00  0.00     0.000 A 
ATOM      5  C6  UNL d   1       1.741  -1.985   5.275  0.00  0.00     0.000 A 
ATOM      6  C7  UNL d   1       0.950  -3.143   5.189  0.00  0.00    -0.073 A 
ATOM      7  C8  UNL d   1       1.540  -4.454   5.630  0.00  0.00     0.078 C 
ENDROOT
BRANCH   1   8
ATOM      8  C1  UNL d   1      -1.307  -4.227   4.652  0.00  0.00     0.053 C 
ATOM      9  C   UNL d   1      -1.504  -4.903   6.000  0.00  0.00     0.018 C 
ENDBRANCH   1   8
TORSDOF 1
ENDMDL
