MODEL 1
REMARK minimizedAffinity 11.0978184
REMARK minimizedRMSD -1
REMARK  1 active torsions:
REMARK  status: ('A' for Active; 'I' for Inactive)
REMARK    1  A    between atoms: C1_2  and  C2_3 
ROOT
ATOM      1  C2  UNL d   1       3.417   1.559  -0.036  0.00  0.00    -0.076 A 
ATOM      2  C3  UNL d   1       4.528   1.138  -0.788  0.00  0.00     0.004 A 
ATOM      3  C4  UNL d   1       5.809   1.603  -0.496  0.00  0.00    -0.003 A 
ATOM      4  C5  UNL d   1       6.000   2.496   0.552  0.00  0.00     0.000 A 
ATOM      5  C6  UNL d   1       4.911   2.911   1.319  0.00  0.00     0.000 A 
ATOM      6  C7  UNL d   1       3.616   2.438   1.049  0.00  0.00    -0.073 A 
ATOM      7  C8  UNL d   1       2.477   2.923   1.905  0.00  0.00     0.078 C 
ENDROOT
BRANCH   1   8
ATOM      8  C1  UNL d   1       2.048   1.041  -0.416  0.00  0.00     0.053 C 
ATOM      9  C   UNL d   1       1.983  -0.478  -0.433  0.00  0.00     0.018 C 
ENDBRANCH   1   8
TORSDOF 1
ENDMDL
