MODEL 1
REMARK minimizedAffinity 0.219023824
REMARK minimizedRMSD -1
REMARK  1 active torsions:
REMARK  status: ('A' for Active; 'I' for Inactive)
REMARK    1  A    between atoms: C1_2  and  C2_3 
ROOT
ATOM      1  C2  UNL d   1      -4.594   5.987   2.155  0.00  0.00    -0.076 A 
ATOM      2  C3  UNL d   1      -5.864   5.984   2.759  0.00  0.00     0.004 A 
ATOM      3  C4  UNL d   1      -5.998   5.948   4.146  0.00  0.00    -0.003 A 
ATOM      4  C5  UNL d   1      -4.865   5.913   4.952  0.00  0.00     0.000 A 
ATOM      5  C6  UNL d   1      -3.598   5.933   4.370  0.00  0.00     0.000 A 
ATOM      6  C7  UNL d   1      -3.445   5.986   2.974  0.00  0.00    -0.073 A 
ATOM      7  C8  UNL d   1      -2.054   5.999   2.400  0.00  0.00     0.078 C 
ENDROOT
BRANCH   1   8
ATOM      8  C1  UNL d   1      -4.511   6.000   0.645  0.00  0.00     0.053 C 
ATOM      9  C   UNL d   1      -5.881   5.988  -0.014  0.00  0.00     0.018 C 
ENDBRANCH   1   8
TORSDOF 1
ENDMDL
