MODEL 1
REMARK minimizedAffinity 2.45642996
REMARK minimizedRMSD -1
REMARK  1 active torsions:
REMARK  status: ('A' for Active; 'I' for Inactive)
REMARK    1  A    between atoms: C1_2  and  C2_3 
ROOT
ATOM      1  C2  UNL d   1      -3.663   5.977   3.901  0.00  0.00    -0.076 A 
ATOM      2  C3  UNL d   1      -3.309   6.000   2.541  0.00  0.00     0.004 A 
ATOM      3  C4  UNL d   1      -4.284   5.988   1.546  0.00  0.00    -0.003 A 
ATOM      4  C5  UNL d   1      -5.630   5.954   1.894  0.00  0.00     0.000 A 
ATOM      5  C6  UNL d   1      -6.000   5.949   3.238  0.00  0.00     0.000 A 
ATOM      6  C7  UNL d   1      -5.030   5.977   4.255  0.00  0.00    -0.073 A 
ATOM      7  C8  UNL d   1      -5.485   5.963   5.688  0.00  0.00     0.078 C 
ENDROOT
BRANCH   1   8
ATOM      8  C1  UNL d   1      -2.562   5.963   4.937  0.00  0.00     0.053 C 
ATOM      9  C   UNL d   1      -1.175   6.000   4.313  0.00  0.00     0.018 C 
ENDBRANCH   1   8
TORSDOF 1
ENDMDL
