MODEL 1
REMARK minimizedAffinity -0.635542572
REMARK minimizedRMSD -1
REMARK  1 active torsions:
REMARK  status: ('A' for Active; 'I' for Inactive)
REMARK    1  A    between atoms: C1_2  and  C2_3 
ROOT
ATOM      1  C2  UNL d   1      -3.841   5.931   3.400  0.00  0.00    -0.076 A 
ATOM      2  C3  UNL d   1      -3.223   6.000   4.661  0.00  0.00     0.004 A 
ATOM      3  C4  UNL d   1      -3.980   5.993   5.831  0.00  0.00    -0.003 A 
ATOM      4  C5  UNL d   1      -5.366   5.918   5.761  0.00  0.00     0.000 A 
ATOM      5  C6  UNL d   1      -5.995   5.831   4.519  0.00  0.00     0.000 A 
ATOM      6  C7  UNL d   1      -5.246   5.819   3.329  0.00  0.00    -0.073 A 
ATOM      7  C8  UNL d   1      -5.977   5.730   2.018  0.00  0.00     0.078 C 
ENDROOT
BRANCH   1   8
ATOM      8  C1  UNL d   1      -2.971   5.969   2.164  0.00  0.00     0.053 C 
ATOM      9  C   UNL d   1      -3.783   5.942   0.878  0.00  0.00     0.018 C 
ENDBRANCH   1   8
TORSDOF 1
ENDMDL
