MODEL 1
REMARK minimizedAffinity 3.77380204
REMARK minimizedRMSD -1
REMARK  1 active torsions:
REMARK  status: ('A' for Active; 'I' for Inactive)
REMARK    1  A    between atoms: C1_2  and  C2_3 
ROOT
ATOM      1  C2  UNL d   1      -4.814   5.930   2.843  0.00  0.00    -0.076 A 
ATOM      2  C3  UNL d   1      -5.999   5.922   3.601  0.00  0.00     0.004 A 
ATOM      3  C4  UNL d   1      -5.959   5.924   4.994  0.00  0.00    -0.003 A 
ATOM      4  C5  UNL d   1      -4.735   5.935   5.653  0.00  0.00     0.000 A 
ATOM      5  C6  UNL d   1      -3.550   5.961   4.918  0.00  0.00     0.000 A 
ATOM      6  C7  UNL d   1      -3.572   5.975   3.512  0.00  0.00    -0.073 A 
ATOM      7  C8  UNL d   1      -2.264   5.997   2.770  0.00  0.00     0.078 C 
ENDROOT
BRANCH   1   8
ATOM      8  C1  UNL d   1      -4.918   5.899   1.335  0.00  0.00     0.053 C 
ATOM      9  C   UNL d   1      -3.896   4.970   0.699  0.00  0.00     0.018 C 
ENDBRANCH   1   8
TORSDOF 1
ENDMDL
