MODEL 1
REMARK minimizedAffinity 6.4961071
REMARK minimizedRMSD -1
REMARK  1 active torsions:
REMARK  status: ('A' for Active; 'I' for Inactive)
REMARK    1  A    between atoms: C1_2  and  C2_3 
ROOT
ATOM      1  C2  UNL d   1      -3.760   5.803   2.640  0.00  0.00    -0.076 A 
ATOM      2  C3  UNL d   1      -3.246   5.630   1.343  0.00  0.00     0.004 A 
ATOM      3  C4  UNL d   1      -4.095   5.431   0.256  0.00  0.00    -0.003 A 
ATOM      4  C5  UNL d   1      -5.472   5.404   0.447  0.00  0.00     0.000 A 
ATOM      5  C6  UNL d   1      -6.000   5.591   1.724  0.00  0.00     0.000 A 
ATOM      6  C7  UNL d   1      -5.159   5.809   2.829  0.00  0.00    -0.073 A 
ATOM      7  C8  UNL d   1      -5.782   6.000   4.184  0.00  0.00     0.078 C 
ENDROOT
BRANCH   1   8
ATOM      8  C1  UNL d   1      -2.790   5.988   3.785  0.00  0.00     0.053 C 
ATOM      9  C   UNL d   1      -1.340   6.000   3.324  0.00  0.00     0.018 C 
ENDBRANCH   1   8
TORSDOF 1
ENDMDL
