MODEL 1
REMARK minimizedAffinity -2.08937454
REMARK minimizedRMSD -1
REMARK  0 active torsions:
REMARK  status: ('A' for Active; 'I' for Inactive)
ROOT
ATOM      1  C   UNL d   1       0.301   0.911  -0.661  0.00  0.00     0.023 A 
ATOM      2  C1  UNL d   1      -0.677   0.162  -0.007  0.00  0.00     0.003 A 
ATOM      3  C2  UNL d   1      -0.723   0.137   1.388  0.00  0.00     0.048 A 
ATOM      4  C3  UNL d   1       0.211   0.865   2.124  0.00  0.00     0.023 A 
ATOM      5  C4  UNL d   1       1.191   1.617   1.474  0.00  0.00     0.048 A 
ATOM      6  C5  UNL d   1       1.234   1.638   0.079  0.00  0.00     0.003 A 
ATOM      7  I   UNL d   1       0.145   0.829   4.201  0.00  0.00    -0.146 I 
ENDROOT
TORSDOF 0
ENDMDL
