MODEL 1
REMARK minimizedAffinity -1.34618092
REMARK minimizedRMSD -1
REMARK  0 active torsions:
REMARK  status: ('A' for Active; 'I' for Inactive)
ROOT
ATOM      1  C   UNL d   1      -3.147  -1.804  -3.427  0.00  0.00     0.023 A 
ATOM      2  C1  UNL d   1      -2.068  -0.992  -3.777  0.00  0.00     0.003 A 
ATOM      3  C2  UNL d   1      -1.166  -0.568  -2.799  0.00  0.00     0.048 A 
ATOM      4  C3  UNL d   1      -1.348  -0.961  -1.474  0.00  0.00     0.023 A 
ATOM      5  C4  UNL d   1      -2.426  -1.774  -1.119  0.00  0.00     0.048 A 
ATOM      6  C5  UNL d   1      -3.326  -2.194  -2.100  0.00  0.00     0.003 A 
ATOM      7  I   UNL d   1      -0.006  -0.332  -0.016  0.00  0.00    -0.146 I 
ENDROOT
TORSDOF 0
ENDMDL
