MODEL 1
REMARK minimizedAffinity -1.39121962
REMARK minimizedRMSD -1
REMARK  0 active torsions:
REMARK  status: ('A' for Active; 'I' for Inactive)
ROOT
ATOM      1  C   UNL d   1      -3.442  -1.276  -3.471  0.00  0.00     0.023 A 
ATOM      2  C1  UNL d   1      -2.214  -0.782  -3.912  0.00  0.00     0.003 A 
ATOM      3  C2  UNL d   1      -1.089  -0.868  -3.089  0.00  0.00     0.048 A 
ATOM      4  C3  UNL d   1      -1.199  -1.450  -1.827  0.00  0.00     0.023 A 
ATOM      5  C4  UNL d   1      -2.425  -1.946  -1.382  0.00  0.00     0.048 A 
ATOM      6  C5  UNL d   1      -3.547  -1.857  -2.208  0.00  0.00     0.003 A 
ATOM      7  I   UNL d   1       0.474  -1.580  -0.601  0.00  0.00    -0.146 I 
ENDROOT
TORSDOF 0
ENDMDL
