MODEL 1
REMARK minimizedAffinity -3.17053819
REMARK minimizedRMSD -1
REMARK  0 active torsions:
REMARK  status: ('A' for Active; 'I' for Inactive)
ROOT
ATOM      1  C   UNL d   1       0.353   1.854   1.415  0.00  0.00     0.023 A 
ATOM      2  C1  UNL d   1       0.540   1.963   0.037  0.00  0.00     0.003 A 
ATOM      3  C2  UNL d   1       0.133   0.929  -0.808  0.00  0.00     0.048 A 
ATOM      4  C3  UNL d   1      -0.462  -0.212  -0.269  0.00  0.00     0.023 A 
ATOM      5  C4  UNL d   1      -0.652  -0.325   1.109  0.00  0.00     0.048 A 
ATOM      6  C5  UNL d   1      -0.243   0.711   1.951  0.00  0.00     0.003 A 
ATOM      7  I   UNL d   1      -1.069  -1.752  -1.525  0.00  0.00    -0.146 I 
ENDROOT
TORSDOF 0
ENDMDL
