MODEL 1
REMARK minimizedAffinity -1.74076188
REMARK minimizedRMSD -1
REMARK  0 active torsions:
REMARK  status: ('A' for Active; 'I' for Inactive)
ROOT
ATOM      1  C   UNL d   1       0.393   1.781   2.089  0.00  0.00     0.023 A 
ATOM      2  C1  UNL d   1       1.397   1.429   1.186  0.00  0.00     0.003 A 
ATOM      3  C2  UNL d   1       1.128   0.519   0.161  0.00  0.00     0.048 A 
ATOM      4  C3  UNL d   1      -0.146  -0.034   0.044  0.00  0.00     0.023 A 
ATOM      5  C4  UNL d   1      -1.154   0.315   0.944  0.00  0.00     0.048 A 
ATOM      6  C5  UNL d   1      -0.881   1.225   1.968  0.00  0.00     0.003 A 
ATOM      7  I   UNL d   1      -0.548  -1.389  -1.481  0.00  0.00    -0.146 I 
ENDROOT
TORSDOF 0
ENDMDL
