MODEL 1
REMARK minimizedAffinity -1.8835901
REMARK minimizedRMSD -1
REMARK  0 active torsions:
REMARK  status: ('A' for Active; 'I' for Inactive)
ROOT
ATOM      1  C   UNL d   1      -3.476  -2.696  -3.507  0.00  0.00     0.023 A 
ATOM      2  C1  UNL d   1      -2.381  -2.044  -4.075  0.00  0.00     0.003 A 
ATOM      3  C2  UNL d   1      -1.208  -1.876  -3.337  0.00  0.00     0.048 A 
ATOM      4  C3  UNL d   1      -1.135  -2.362  -2.032  0.00  0.00     0.023 A 
ATOM      5  C4  UNL d   1      -2.228  -3.016  -1.460  0.00  0.00     0.048 A 
ATOM      6  C5  UNL d   1      -3.400  -3.181  -2.201  0.00  0.00     0.003 A 
ATOM      7  I   UNL d   1       0.610  -2.113  -0.932  0.00  0.00    -0.146 I 
ENDROOT
TORSDOF 0
ENDMDL
