MODEL 1
REMARK minimizedAffinity -3.12279963
REMARK minimizedRMSD -1
REMARK  0 active torsions:
REMARK  status: ('A' for Active; 'I' for Inactive)
ROOT
ATOM      1  C   UNL d   1       1.123   2.592   1.753  0.00  0.00     0.023 A 
ATOM      2  C1  UNL d   1       1.369   2.463   0.386  0.00  0.00     0.003 A 
ATOM      3  C2  UNL d   1       0.900   1.345  -0.307  0.00  0.00     0.048 A 
ATOM      4  C3  UNL d   1       0.184   0.360   0.373  0.00  0.00     0.023 A 
ATOM      5  C4  UNL d   1      -0.065   0.485   1.741  0.00  0.00     0.048 A 
ATOM      6  C5  UNL d   1       0.407   1.605   2.429  0.00  0.00     0.003 A 
ATOM      7  I   UNL d   1      -0.516  -1.305  -0.655  0.00  0.00    -0.146 I 
ENDROOT
TORSDOF 0
ENDMDL
