MODEL 1
REMARK minimizedAffinity 3.39595819
REMARK minimizedRMSD -1
REMARK  0 active torsions:
REMARK  status: ('A' for Active; 'I' for Inactive)
ROOT
ATOM      1  C   UNL d   1      -0.358  -0.229   1.349  0.00  0.00     0.023 A 
ATOM      2  C1  UNL d   1       0.193  -0.540   0.106  0.00  0.00     0.003 A 
ATOM      3  C2  UNL d   1      -0.632  -0.961  -0.940  0.00  0.00     0.048 A 
ATOM      4  C3  UNL d   1      -2.007  -1.069  -0.735  0.00  0.00     0.023 A 
ATOM      5  C4  UNL d   1      -2.563  -0.758   0.507  0.00  0.00     0.048 A 
ATOM      6  C5  UNL d   1      -1.735  -0.338   1.549  0.00  0.00     0.003 A 
ATOM      7  I   UNL d   1      -3.236  -1.695  -2.289  0.00  0.00    -0.146 I 
ENDROOT
TORSDOF 0
ENDMDL
