MODEL 1
REMARK minimizedAffinity -1.20093429
REMARK minimizedRMSD -1
REMARK  0 active torsions:
REMARK  status: ('A' for Active; 'I' for Inactive)
ROOT
ATOM      1  C   UNL d   1       0.573   1.890   2.147  0.00  0.00     0.023 A 
ATOM      2  C1  UNL d   1      -0.396   0.889   2.217  0.00  0.00     0.003 A 
ATOM      3  C2  UNL d   1      -0.590   0.026   1.136  0.00  0.00     0.048 A 
ATOM      4  C3  UNL d   1       0.190   0.168  -0.011  0.00  0.00     0.023 A 
ATOM      5  C4  UNL d   1       1.162   1.167  -0.085  0.00  0.00     0.048 A 
ATOM      6  C5  UNL d   1       1.351   2.029   0.998  0.00  0.00     0.003 A 
ATOM      7  I   UNL d   1      -0.096  -1.116  -1.620  0.00  0.00    -0.146 I 
ENDROOT
TORSDOF 0
ENDMDL
