MODEL 1
REMARK minimizedAffinity -1.03930438
REMARK minimizedRMSD -1
REMARK  0 active torsions:
REMARK  status: ('A' for Active; 'I' for Inactive)
ROOT
ATOM      1  C   UNL d   1      -1.833  -1.134  -3.065  0.00  0.00     0.023 A 
ATOM      2  C1  UNL d   1      -3.114  -1.169  -3.617  0.00  0.00     0.003 A 
ATOM      3  C2  UNL d   1      -4.131  -1.883  -2.980  0.00  0.00     0.048 A 
ATOM      4  C3  UNL d   1      -3.860  -2.560  -1.791  0.00  0.00     0.023 A 
ATOM      5  C4  UNL d   1      -2.580  -2.528  -1.235  0.00  0.00     0.048 A 
ATOM      6  C5  UNL d   1      -1.566  -1.813  -1.876  0.00  0.00     0.003 A 
ATOM      7  I   UNL d   1      -5.372  -3.624  -0.842  0.00  0.00    -0.146 I 
ENDROOT
TORSDOF 0
ENDMDL
