MODEL 1
REMARK minimizedAffinity -2.5622828
REMARK minimizedRMSD -1
REMARK  0 active torsions:
REMARK  status: ('A' for Active; 'I' for Inactive)
ROOT
ATOM      1  C   UNL d   1       0.955   2.093   1.648  0.00  0.00     0.023 A 
ATOM      2  C1  UNL d   1       1.701   1.279   0.795  0.00  0.00     0.003 A 
ATOM      3  C2  UNL d   1       1.074   0.261   0.073  0.00  0.00     0.048 A 
ATOM      4  C3  UNL d   1      -0.300   0.063   0.209  0.00  0.00     0.023 A 
ATOM      5  C4  UNL d   1      -1.051   0.875   1.060  0.00  0.00     0.048 A 
ATOM      6  C5  UNL d   1      -0.419   1.891   1.780  0.00  0.00     0.003 A 
ATOM      7  I   UNL d   1      -1.236  -1.451  -0.864  0.00  0.00    -0.146 I 
ENDROOT
TORSDOF 0
ENDMDL
