MODEL 1
REMARK minimizedAffinity -2.25960374
REMARK minimizedRMSD -1
REMARK  0 active torsions:
REMARK  status: ('A' for Active; 'I' for Inactive)
ROOT
ATOM      1  C   UNL d   1      -2.848  -2.409  -3.441  0.00  0.00     0.023 A 
ATOM      2  C1  UNL d   1      -2.906  -2.845  -2.117  0.00  0.00     0.003 A 
ATOM      3  C2  UNL d   1      -2.112  -2.234  -1.144  0.00  0.00     0.048 A 
ATOM      4  C3  UNL d   1      -1.264  -1.187  -1.501  0.00  0.00     0.023 A 
ATOM      5  C4  UNL d   1      -1.204  -0.746  -2.824  0.00  0.00     0.048 A 
ATOM      6  C5  UNL d   1      -1.998  -1.361  -3.794  0.00  0.00     0.003 A 
ATOM      7  I   UNL d   1      -0.082  -0.275  -0.054  0.00  0.00    -0.146 I 
ENDROOT
TORSDOF 0
ENDMDL
