MODEL 1
REMARK minimizedAffinity -3.53880167
REMARK minimizedRMSD -1
REMARK  0 active torsions:
REMARK  status: ('A' for Active; 'I' for Inactive)
ROOT
ATOM      1  C   UNL d   1      -2.073  -1.838  -3.097  0.00  0.00     0.023 A 
ATOM      2  C1  UNL d   1      -3.229  -2.335  -3.698  0.00  0.00     0.003 A 
ATOM      3  C2  UNL d   1      -4.081  -3.179  -2.984  0.00  0.00     0.048 A 
ATOM      4  C3  UNL d   1      -3.772  -3.522  -1.668  0.00  0.00     0.023 A 
ATOM      5  C4  UNL d   1      -2.616  -3.027  -1.062  0.00  0.00     0.048 A 
ATOM      6  C5  UNL d   1      -1.767  -2.183  -1.781  0.00  0.00     0.003 A 
ATOM      7  I   UNL d   1      -5.039  -4.779  -0.603  0.00  0.00    -0.146 I 
ENDROOT
TORSDOF 0
ENDMDL
