MODEL 1
REMARK minimizedAffinity -3.50910163
REMARK minimizedRMSD -1
REMARK  0 active torsions:
REMARK  status: ('A' for Active; 'I' for Inactive)
ROOT
ATOM      1  C   UNL d   1       1.468   1.305   1.462  0.00  0.00     0.023 A 
ATOM      2  C1  UNL d   1       2.012   0.406   0.545  0.00  0.00     0.003 A 
ATOM      3  C2  UNL d   1       1.173  -0.385  -0.242  0.00  0.00     0.048 A 
ATOM      4  C3  UNL d   1      -0.211  -0.270  -0.109  0.00  0.00     0.023 A 
ATOM      5  C4  UNL d   1      -0.760   0.629   0.807  0.00  0.00     0.048 A 
ATOM      6  C5  UNL d   1       0.083   1.417   1.592  0.00  0.00     0.003 A 
ATOM      7  I   UNL d   1      -1.462  -1.445  -1.280  0.00  0.00    -0.146 I 
ENDROOT
TORSDOF 0
ENDMDL
