MODEL 1
REMARK minimizedAffinity -1.48149693
REMARK minimizedRMSD -1
REMARK  2 active torsions:
REMARK  status: ('A' for Active; 'I' for Inactive)
REMARK    1  A    between atoms: C1_2  and  C2_3 
REMARK    2  A    between atoms: C2_3  and  C3_4 
ROOT
ATOM      1  C3  UNL d   1       3.612   0.931  -1.018  0.00  0.00    -0.075 A 
ATOM      2  C4  UNL d   1       2.753   1.875  -0.437  0.00  0.00     0.002 A 
ATOM      3  C5  UNL d   1       1.613   1.465   0.255  0.00  0.00     0.002 A 
ATOM      4  C6  UNL d   1       1.311   0.110   0.365  0.00  0.00    -0.004 A 
ATOM      5  C7  UNL d   1       2.148  -0.837  -0.223  0.00  0.00     0.002 A 
ATOM      6  C8  UNL d   1       3.292  -0.430  -0.911  0.00  0.00     0.002 A 
ENDROOT
BRANCH   1   7
ATOM      7  C2  UNL d   1       4.863   1.366  -1.742  0.00  0.00     0.056 C 
BRANCH   7   8
ATOM      8  C1  UNL d   1       5.233   2.837  -1.519  0.00  0.00     0.007 C 
ATOM      9  C   UNL d   1       5.922   3.086  -0.185  0.00  0.00     0.009 C 
ENDBRANCH   7   8
ENDBRANCH   1   7
TORSDOF 2
ENDMDL
