MODEL 1
REMARK minimizedAffinity 5.79655457
REMARK minimizedRMSD -1
REMARK  3 active torsions:
REMARK  status: ('A' for Active; 'I' for Inactive)
REMARK    1  A    between atoms: C3'_2  and  C2'_3 
REMARK    2  A    between atoms: C2'_3  and  C1'_4 
REMARK    3  A    between atoms: C1'_4  and  C1_5 
ROOT
ATOM      1  C1  N4B d   1      -1.435   0.059   0.577  0.00  0.00    -0.075 A 
ATOM      2  C2  N4B d   1      -0.802  -0.512  -0.549  0.00  0.00     0.002 A 
ATOM      3  C3  N4B d   1       0.414  -0.030  -0.970  0.00  0.00     0.002 A 
ATOM      4  C4  N4B d   1       1.003   1.028  -0.295  0.00  0.00    -0.004 A 
ATOM      5  C5  N4B d   1       0.397   1.557   0.806  0.00  0.00     0.002 A 
ATOM      6  C6  N4B d   1      -0.823   1.080   1.243  0.00  0.00     0.002 A 
ENDROOT
BRANCH   1   7
ATOM      7  C1' N4B d   1      -2.804  -0.377   1.023  0.00  0.00     0.057 C 
BRANCH   7   8
ATOM      8  C2' N4B d   1      -3.853   0.506   0.354  0.00  0.00     0.009 C 
BRANCH   8   9
ATOM      9  C3' N4B d   1      -4.482  -0.173  -0.851  0.00  0.00     0.004 C 
ATOM     10  C4' N4B d   1      -5.623  -1.073  -0.482  0.00  0.00     0.003 C 
ENDBRANCH   8   9
ENDBRANCH   7   8
ENDBRANCH   1   7
TORSDOF 3
ENDMDL
