MODEL 1
REMARK minimizedAffinity 4.1578474
REMARK minimizedRMSD -1
REMARK  3 active torsions:
REMARK  status: ('A' for Active; 'I' for Inactive)
REMARK    1  A    between atoms: C3'_2  and  C2'_3 
REMARK    2  A    between atoms: C2'_3  and  C1'_4 
REMARK    3  A    between atoms: C1'_4  and  C1_5 
ROOT
ATOM      1  C1  N4B d   1      -1.328   0.380  -0.455  0.00  0.00    -0.075 A 
ATOM      2  C2  N4B d   1      -0.372   1.291   0.047  0.00  0.00     0.002 A 
ATOM      3  C3  N4B d   1       0.870   0.843   0.426  0.00  0.00     0.002 A 
ATOM      4  C4  N4B d   1       1.171  -0.507   0.330  0.00  0.00    -0.004 A 
ATOM      5  C5  N4B d   1       0.251  -1.376  -0.179  0.00  0.00     0.002 A 
ATOM      6  C6  N4B d   1      -1.000  -0.940  -0.568  0.00  0.00     0.002 A 
ENDROOT
BRANCH   1   7
ATOM      7  C1' N4B d   1      -2.727   0.809  -0.802  0.00  0.00     0.057 C 
BRANCH   7   8
ATOM      8  C2' N4B d   1      -3.705  -0.282  -0.375  0.00  0.00     0.009 C 
BRANCH   8   9
ATOM      9  C3' N4B d   1      -5.140   0.074  -0.723  0.00  0.00     0.004 C 
ATOM     10  C4' N4B d   1      -5.825  -0.993  -1.525  0.00  0.00     0.003 C 
ENDBRANCH   8   9
ENDBRANCH   7   8
ENDBRANCH   1   7
TORSDOF 3
ENDMDL
