MODEL 1
REMARK minimizedAffinity -0.506468773
REMARK minimizedRMSD -1
REMARK  0 active torsions:
REMARK  status: ('A' for Active; 'I' for Inactive)
ROOT
ATOM      1  C   UNL d   1       0.480   0.155  -0.791  0.00  0.00    -0.002 A 
ATOM      2  C1  UNL d   1      -0.718   0.496  -0.179  0.00  0.00     0.010 A 
ATOM      3  C2  UNL d   1      -1.005   0.056   1.115  0.00  0.00     0.041 A 
ATOM      4  C3  UNL d   1      -0.057  -0.738   1.791  0.00  0.00    -0.075 A 
ATOM      5  S   UNL d   1      -0.192  -1.390   3.381  0.00  0.00     0.015 SA
ATOM      6  C4  UNL d   1       1.338  -2.135   3.286  0.00  0.00     0.022 A 
ATOM      7  C5  UNL d   1       1.950  -1.903   2.078  0.00  0.00     0.026 A 
ATOM      8  C6  UNL d   1       1.157  -1.094   1.196  0.00  0.00    -0.082 A 
ATOM      9  C7  UNL d   1       1.418  -0.633  -0.117  0.00  0.00     0.045 A 
ENDROOT
TORSDOF 0
ENDMDL
