MODEL 1
REMARK minimizedAffinity 4.98721409
REMARK minimizedRMSD -1
REMARK  0 active torsions:
REMARK  status: ('A' for Active; 'I' for Inactive)
ROOT
ATOM      1  C   UNL d   1       4.609  -5.998  -1.024  0.00  0.00    -0.002 A 
ATOM      2  C1  UNL d   1       5.267  -4.837  -0.644  0.00  0.00     0.010 A 
ATOM      3  C2  UNL d   1       5.070  -3.647  -1.347  0.00  0.00     0.041 A 
ATOM      4  C3  UNL d   1       4.191  -3.643  -2.447  0.00  0.00    -0.075 A 
ATOM      5  S   UNL d   1       3.794  -2.302  -3.456  0.00  0.00     0.015 SA
ATOM      6  C4  UNL d   1       2.742  -3.239  -4.415  0.00  0.00     0.022 A 
ATOM      7  C5  UNL d   1       2.683  -4.545  -3.990  0.00  0.00     0.026 A 
ATOM      8  C6  UNL d   1       3.516  -4.799  -2.849  0.00  0.00    -0.082 A 
ATOM      9  C7  UNL d   1       3.738  -5.990  -2.117  0.00  0.00     0.045 A 
ENDROOT
TORSDOF 0
ENDMDL
