MODEL 1
REMARK minimizedAffinity 3.87933564
REMARK minimizedRMSD -1
REMARK  0 active torsions:
REMARK  status: ('A' for Active; 'I' for Inactive)
ROOT
ATOM      1  C   UNL d   1       5.674  -3.000  -1.392  0.00  0.00    -0.002 A 
ATOM      2  C1  UNL d   1       4.841  -2.103  -0.738  0.00  0.00     0.010 A 
ATOM      3  C2  UNL d   1       3.561  -2.488  -0.334  0.00  0.00     0.041 A 
ATOM      4  C3  UNL d   1       3.128  -3.802  -0.600  0.00  0.00    -0.075 A 
ATOM      5  S   UNL d   1       1.602  -4.495  -0.197  0.00  0.00     0.015 SA
ATOM      6  C4  UNL d   1       2.020  -5.998  -0.884  0.00  0.00     0.022 A 
ATOM      7  C5  UNL d   1       3.289  -5.989  -1.412  0.00  0.00     0.026 A 
ATOM      8  C6  UNL d   1       3.949  -4.723  -1.257  0.00  0.00    -0.082 A 
ATOM      9  C7  UNL d   1       5.241  -4.302  -1.654  0.00  0.00     0.045 A 
ENDROOT
TORSDOF 0
ENDMDL
