MODEL 1
REMARK minimizedAffinity 5.77915573
REMARK minimizedRMSD -1
REMARK  0 active torsions:
REMARK  status: ('A' for Active; 'I' for Inactive)
ROOT
ATOM      1  C   UNL d   1      -2.412   0.415  -1.432  0.00  0.00    -0.002 A 
ATOM      2  C1  UNL d   1      -3.320   0.973  -2.320  0.00  0.00     0.010 A 
ATOM      3  C2  UNL d   1      -3.206   2.309  -2.707  0.00  0.00     0.041 A 
ATOM      4  C3  UNL d   1      -2.152   3.083  -2.182  0.00  0.00    -0.075 A 
ATOM      5  S   UNL d   1      -1.815   4.741  -2.514  0.00  0.00     0.015 SA
ATOM      6  C4  UNL d   1      -0.456   4.748  -1.485  0.00  0.00     0.022 A 
ATOM      7  C5  UNL d   1      -0.251   3.523  -0.894  0.00  0.00     0.026 A 
ATOM      8  C6  UNL d   1      -1.225   2.544  -1.287  0.00  0.00    -0.082 A 
ATOM      9  C7  UNL d   1      -1.368   1.186  -0.913  0.00  0.00     0.045 A 
ENDROOT
TORSDOF 0
ENDMDL
