MODEL 1
REMARK minimizedAffinity 2.83296108
REMARK minimizedRMSD -1
REMARK  1 active torsions:
REMARK  status: ('A' for Active; 'I' for Inactive)
REMARK    1  A    between atoms: C3_4  and  O_7 
ROOT
ATOM      1  C   UNL d   1      -4.852  -5.297  -5.999  0.00  0.00    -0.033 A 
ATOM      2  C1  UNL d   1      -3.671  -4.561  -5.889  0.00  0.00     0.039 A 
ATOM      3  C2  UNL d   1      -3.634  -3.410  -5.099  0.00  0.00    -0.080 A 
ATOM      4  C3  UNL d   1      -4.783  -3.008  -4.424  0.00  0.00     0.150 A 
ATOM      5  C4  UNL d   1      -5.962  -3.739  -4.526  0.00  0.00    -0.007 A 
ATOM      6  C5  UNL d   1      -5.997  -4.887  -5.316  0.00  0.00     0.039 A 
ENDROOT
BRANCH   4   7
ATOM      7  O   UNL d   1      -4.797  -1.889  -3.645  0.00  0.00    -0.526 OA
ATOM      8  H5  UNL d   1      -3.922  -1.470  -3.692  0.00  0.00     0.418 HD
ENDBRANCH   4   7
TORSDOF 1
ENDMDL
