MODEL 1
REMARK minimizedAffinity 7.841115
REMARK minimizedRMSD -1
REMARK  1 active torsions:
REMARK  status: ('A' for Active; 'I' for Inactive)
REMARK    1  A    between atoms: C3_4  and  O_7 
ROOT
ATOM      1  C   UNL d   1       2.857  -0.881   1.629  0.00  0.00    -0.033 A 
ATOM      2  C1  UNL d   1       3.409  -1.849   2.469  0.00  0.00     0.039 A 
ATOM      3  C2  UNL d   1       2.655  -2.379   3.517  0.00  0.00    -0.080 A 
ATOM      4  C3  UNL d   1       1.350  -1.935   3.713  0.00  0.00     0.150 A 
ATOM      5  C4  UNL d   1       0.792  -0.974   2.877  0.00  0.00    -0.007 A 
ATOM      6  C5  UNL d   1       1.547  -0.444   1.832  0.00  0.00     0.039 A 
ENDROOT
BRANCH   4   7
ATOM      7  O   UNL d   1       0.576  -2.419   4.725  0.00  0.00    -0.526 OA
ATOM      8  H5  UNL d   1       1.103  -3.055   5.238  0.00  0.00     0.418 HD
ENDBRANCH   4   7
TORSDOF 1
ENDMDL
