MODEL 1
REMARK minimizedAffinity 4.21723938
REMARK minimizedRMSD -1
REMARK  1 active torsions:
REMARK  status: ('A' for Active; 'I' for Inactive)
REMARK    1  A    between atoms: C3_4  and  O_7 
ROOT
ATOM      1  C   UNL d   1       2.880  -4.443   4.365  0.00  0.00    -0.033 A 
ATOM      2  C1  UNL d   1       1.746  -4.529   3.555  0.00  0.00     0.039 A 
ATOM      3  C2  UNL d   1       1.220  -3.380   2.962  0.00  0.00    -0.080 A 
ATOM      4  C3  UNL d   1       1.837  -2.152   3.185  0.00  0.00     0.150 A 
ATOM      5  C4  UNL d   1       2.969  -2.059   3.988  0.00  0.00    -0.007 A 
ATOM      6  C5  UNL d   1       3.492  -3.208   4.580  0.00  0.00     0.039 A 
ENDROOT
BRANCH   4   7
ATOM      7  O   UNL d   1       1.357  -1.003   2.632  0.00  0.00    -0.526 OA
ATOM      8  H5  UNL d   1       0.555  -1.216   2.126  0.00  0.00     0.418 HD
ENDBRANCH   4   7
TORSDOF 1
ENDMDL
