MODEL 1
REMARK minimizedAffinity -3.86388206
REMARK minimizedRMSD -1
REMARK  1 active torsions:
REMARK  status: ('A' for Active; 'I' for Inactive)
REMARK    1  A    between atoms: C3_4  and  O_7 
ROOT
ATOM      1  C   UNL d   1       1.136  -2.706   3.348  0.00  0.00    -0.033 A 
ATOM      2  C1  UNL d   1       1.611  -1.416   3.594  0.00  0.00     0.039 A 
ATOM      3  C2  UNL d   1       2.780  -0.971   2.974  0.00  0.00    -0.080 A 
ATOM      4  C3  UNL d   1       3.463  -1.824   2.110  0.00  0.00     0.150 A 
ATOM      5  C4  UNL d   1       2.993  -3.108   1.858  0.00  0.00    -0.007 A 
ATOM      6  C5  UNL d   1       1.826  -3.551   2.479  0.00  0.00     0.039 A 
ENDROOT
BRANCH   4   7
ATOM      7  O   UNL d   1       4.611  -1.435   1.486  0.00  0.00    -0.526 OA
ATOM      8  H5  UNL d   1       4.831  -0.535   1.777  0.00  0.00     0.418 HD
ENDBRANCH   4   7
TORSDOF 1
ENDMDL
