MODEL 1
REMARK minimizedAffinity -2.53557944
REMARK minimizedRMSD -1
REMARK  1 active torsions:
REMARK  status: ('A' for Active; 'I' for Inactive)
REMARK    1  A    between atoms: C3_4  and  O_7 
ROOT
ATOM      1  C   UNL d   1       1.070  -2.370   2.462  0.00  0.00    -0.033 A 
ATOM      2  C1  UNL d   1       1.379  -3.214   3.531  0.00  0.00     0.039 A 
ATOM      3  C2  UNL d   1       2.671  -3.231   4.059  0.00  0.00    -0.080 A 
ATOM      4  C3  UNL d   1       3.644  -2.399   3.512  0.00  0.00     0.150 A 
ATOM      5  C4  UNL d   1       3.342  -1.553   2.450  0.00  0.00    -0.007 A 
ATOM      6  C5  UNL d   1       2.052  -1.538   1.923  0.00  0.00     0.039 A 
ENDROOT
BRANCH   4   7
ATOM      7  O   UNL d   1       4.920  -2.384   3.990  0.00  0.00    -0.526 OA
ATOM      8  H5  UNL d   1       4.989  -3.040   4.704  0.00  0.00     0.418 HD
ENDBRANCH   4   7
TORSDOF 1
ENDMDL
