MODEL 1
REMARK minimizedAffinity 14.8082523
REMARK minimizedRMSD -1
REMARK  0 active torsions:
REMARK  status: ('A' for Active; 'I' for Inactive)
ROOT
ATOM      1  C   UNL d   1       0.033   1.382   0.272  0.00  0.00     0.124 A 
ATOM      2  C1  UNL d   1       0.994   2.344  -0.006  0.00  0.00     0.062 A 
ATOM      3  C2  UNL d   1       1.680   2.318  -1.217  0.00  0.00     0.162 A 
ATOM      4  C3  UNL d   1       1.406   1.327  -2.160  0.00  0.00    -0.034 A 
ATOM      5  C4  UNL d   1       0.439   0.363  -1.873  0.00  0.00     0.162 A 
ATOM      6  C5  UNL d   1      -0.244   0.393  -0.661  0.00  0.00     0.062 A 
ATOM      7  F   UNL d   1      -1.172  -0.537  -0.394  0.00  0.00    -0.097 F 
ATOM      8  F1  UNL d   1       0.151  -0.604  -2.757  0.00  0.00    -0.096 F 
ATOM      9  I   UNL d   1       2.430   1.286  -3.972  0.00  0.00    -0.060 I 
ATOM     10  F2  UNL d   1       2.603   3.260  -1.459  0.00  0.00    -0.096 F 
ATOM     11  F3  UNL d   1       1.264   3.300   0.894  0.00  0.00    -0.097 F 
ATOM     12  F4  UNL d   1      -0.625   1.408   1.438  0.00  0.00    -0.092 F 
ENDROOT
TORSDOF 0
ENDMDL
