MODEL 1
REMARK minimizedAffinity 21.7762909
REMARK minimizedRMSD -1
REMARK  0 active torsions:
REMARK  status: ('A' for Active; 'I' for Inactive)
ROOT
ATOM      1  C   UNL d   1       1.699   2.153   0.867  0.00  0.00     0.124 A 
ATOM      2  C1  UNL d   1       0.832   2.029  -0.210  0.00  0.00     0.062 A 
ATOM      3  C2  UNL d   1       0.012   3.093  -0.575  0.00  0.00     0.162 A 
ATOM      4  C3  UNL d   1       0.057   4.292   0.137  0.00  0.00    -0.034 A 
ATOM      5  C4  UNL d   1       0.931   4.409   1.219  0.00  0.00     0.162 A 
ATOM      6  C5  UNL d   1       1.748   3.343   1.580  0.00  0.00     0.062 A 
ATOM      7  F   UNL d   1       2.585   3.465   2.620  0.00  0.00    -0.097 F 
ATOM      8  F1  UNL d   1       0.998   5.548   1.925  0.00  0.00    -0.096 F 
ATOM      9  I   UNL d   1      -1.167   5.885  -0.406  0.00  0.00    -0.060 I 
ATOM     10  F2  UNL d   1      -0.816   2.945  -1.620  0.00  0.00    -0.096 F 
ATOM     11  F3  UNL d   1       0.783   0.881  -0.900  0.00  0.00    -0.097 F 
ATOM     12  F4  UNL d   1       2.486   1.128   1.216  0.00  0.00    -0.092 F 
ENDROOT
TORSDOF 0
ENDMDL
