MODEL 1
REMARK minimizedAffinity 8.23651886
REMARK minimizedRMSD -1
REMARK  0 active torsions:
REMARK  status: ('A' for Active; 'I' for Inactive)
ROOT
ATOM      1  C   UNL d   1       4.914   3.457  -3.153  0.00  0.00     0.124 A 
ATOM      2  C1  UNL d   1       4.385   2.323  -3.754  0.00  0.00     0.062 A 
ATOM      3  C2  UNL d   1       3.257   2.422  -4.563  0.00  0.00     0.162 A 
ATOM      4  C3  UNL d   1       2.649   3.659  -4.775  0.00  0.00    -0.034 A 
ATOM      5  C4  UNL d   1       3.186   4.795  -4.166  0.00  0.00     0.162 A 
ATOM      6  C5  UNL d   1       4.314   4.691  -3.359  0.00  0.00     0.062 A 
ATOM      7  F   UNL d   1       4.823   5.788  -2.778  0.00  0.00    -0.097 F 
ATOM      8  F1  UNL d   1       2.626   6.000  -4.349  0.00  0.00    -0.096 F 
ATOM      9  I   UNL d   1       0.961   3.810  -5.984  0.00  0.00    -0.060 I 
ATOM     10  F2  UNL d   1       2.768   1.310  -5.131  0.00  0.00    -0.096 F 
ATOM     11  F3  UNL d   1       4.963   1.130  -3.556  0.00  0.00    -0.097 F 
ATOM     12  F4  UNL d   1       5.999   3.360  -2.374  0.00  0.00    -0.092 F 
ENDROOT
TORSDOF 0
ENDMDL
