MODEL 1
REMARK minimizedAffinity 21.0180416
REMARK minimizedRMSD -1
REMARK  0 active torsions:
REMARK  status: ('A' for Active; 'I' for Inactive)
ROOT
ATOM      1  C   UNL d   1       1.444   1.643  -3.674  0.00  0.00     0.124 A 
ATOM      2  C1  UNL d   1       1.731   0.465  -4.350  0.00  0.00     0.062 A 
ATOM      3  C2  UNL d   1       1.665  -0.756  -3.687  0.00  0.00     0.162 A 
ATOM      4  C3  UNL d   1       1.308  -0.807  -2.339  0.00  0.00    -0.034 A 
ATOM      5  C4  UNL d   1       1.022   0.382  -1.666  0.00  0.00     0.162 A 
ATOM      6  C5  UNL d   1       1.089   1.600  -2.333  0.00  0.00     0.062 A 
ATOM      7  F   UNL d   1       0.812   2.737  -1.678  0.00  0.00    -0.097 F 
ATOM      8  F1  UNL d   1       0.676   0.369  -0.370  0.00  0.00    -0.096 F 
ATOM      9  I   UNL d   1       1.208  -2.632  -1.343  0.00  0.00    -0.060 I 
ATOM     10  F2  UNL d   1       1.947  -1.879  -4.364  0.00  0.00    -0.096 F 
ATOM     11  F3  UNL d   1       2.074   0.504  -5.645  0.00  0.00    -0.097 F 
ATOM     12  F4  UNL d   1       1.509   2.817  -4.315  0.00  0.00    -0.092 F 
ENDROOT
TORSDOF 0
ENDMDL
