MODEL 1
REMARK minimizedAffinity 1.94588971
REMARK minimizedRMSD -1
REMARK  0 active torsions:
REMARK  status: ('A' for Active; 'I' for Inactive)
ROOT
ATOM      1  C   UNL d   1       1.757   0.335  -4.636  0.00  0.00     0.124 A 
ATOM      2  C1  UNL d   1       1.000  -0.826  -4.564  0.00  0.00     0.062 A 
ATOM      3  C2  UNL d   1       0.678  -1.376  -3.327  0.00  0.00     0.162 A 
ATOM      4  C3  UNL d   1       1.113  -0.766  -2.150  0.00  0.00    -0.034 A 
ATOM      5  C4  UNL d   1       1.875   0.401  -2.230  0.00  0.00     0.162 A 
ATOM      6  C5  UNL d   1       2.194   0.947  -3.469  0.00  0.00     0.062 A 
ATOM      7  F   UNL d   1       2.926   2.068  -3.537  0.00  0.00    -0.097 F 
ATOM      8  F1  UNL d   1       2.309   1.014  -1.119  0.00  0.00    -0.096 F 
ATOM      9  I   UNL d   1       0.633  -1.586  -0.298  0.00  0.00    -0.060 I 
ATOM     10  F2  UNL d   1      -0.056  -2.499  -3.287  0.00  0.00    -0.096 F 
ATOM     11  F3  UNL d   1       0.578  -1.420  -5.689  0.00  0.00    -0.097 F 
ATOM     12  F4  UNL d   1       2.067   0.862  -5.827  0.00  0.00    -0.092 F 
ENDROOT
TORSDOF 0
ENDMDL
