MODEL 1
REMARK minimizedAffinity -0.270931453
REMARK minimizedRMSD -1
REMARK  0 active torsions:
REMARK  status: ('A' for Active; 'I' for Inactive)
ROOT
ATOM      1  C   UNL d   1       1.307  -1.100  -1.838  0.00  0.00     0.124 A 
ATOM      2  C1  UNL d   1       0.567   0.074  -1.849  0.00  0.00     0.062 A 
ATOM      3  C2  UNL d   1      -0.449   0.271  -0.918  0.00  0.00     0.162 A 
ATOM      4  C3  UNL d   1      -0.731  -0.709   0.033  0.00  0.00    -0.034 A 
ATOM      5  C4  UNL d   1       0.017  -1.888   0.038  0.00  0.00     0.162 A 
ATOM      6  C5  UNL d   1       1.031  -2.080  -0.895  0.00  0.00     0.062 A 
ATOM      7  F   UNL d   1       1.744  -3.216  -0.882  0.00  0.00    -0.097 F 
ATOM      8  F1  UNL d   1      -0.228  -2.851   0.939  0.00  0.00    -0.096 F 
ATOM      9  I   UNL d   1      -2.249  -0.419   1.427  0.00  0.00    -0.060 I 
ATOM     10  F2  UNL d   1      -1.147   1.416  -0.953  0.00  0.00    -0.096 F 
ATOM     11  F3  UNL d   1       0.831   1.022  -2.760  0.00  0.00    -0.097 F 
ATOM     12  F4  UNL d   1       2.283  -1.287  -2.736  0.00  0.00    -0.092 F 
ENDROOT
TORSDOF 0
ENDMDL
