MODEL 1
REMARK minimizedAffinity -0.358926624
REMARK minimizedRMSD -1
REMARK  0 active torsions:
REMARK  status: ('A' for Active; 'I' for Inactive)
ROOT
ATOM      1  C   UNL d   1       1.499  -2.611  -2.034  0.00  0.00     0.124 A 
ATOM      2  C1  UNL d   1       1.542  -1.301  -1.578  0.00  0.00     0.062 A 
ATOM      3  C2  UNL d   1       1.668  -0.249  -2.481  0.00  0.00     0.162 A 
ATOM      4  C3  UNL d   1       1.751  -0.503  -3.850  0.00  0.00    -0.034 A 
ATOM      5  C4  UNL d   1       1.708  -1.824  -4.301  0.00  0.00     0.162 A 
ATOM      6  C5  UNL d   1       1.582  -2.871  -3.394  0.00  0.00     0.062 A 
ATOM      7  F   UNL d   1       1.542  -4.137  -3.837  0.00  0.00    -0.097 F 
ATOM      8  F1  UNL d   1       1.786  -2.104  -5.610  0.00  0.00    -0.096 F 
ATOM      9  I   UNL d   1       1.939   1.067  -5.203  0.00  0.00    -0.060 I 
ATOM     10  F2  UNL d   1       1.706   1.007  -2.012  0.00  0.00    -0.096 F 
ATOM     11  F3  UNL d   1       1.462  -1.047  -0.264  0.00  0.00    -0.097 F 
ATOM     12  F4  UNL d   1       1.379  -3.621  -1.163  0.00  0.00    -0.092 F 
ENDROOT
TORSDOF 0
ENDMDL
