MODEL 1
REMARK minimizedAffinity 6.04496288
REMARK minimizedRMSD -1
REMARK  0 active torsions:
REMARK  status: ('A' for Active; 'I' for Inactive)
ROOT
ATOM      1  C   UNL d   1       0.611  -1.301  -0.138  0.00  0.00     0.124 A 
ATOM      2  C1  UNL d   1       0.338   0.021  -0.461  0.00  0.00     0.062 A 
ATOM      3  C2  UNL d   1       0.600   0.496  -1.742  0.00  0.00     0.162 A 
ATOM      4  C3  UNL d   1       1.137  -0.351  -2.712  0.00  0.00    -0.034 A 
ATOM      5  C4  UNL d   1       1.409  -1.679  -2.379  0.00  0.00     0.162 A 
ATOM      6  C5  UNL d   1       1.145  -2.150  -1.097  0.00  0.00     0.062 A 
ATOM      7  F   UNL d   1       1.409  -3.428  -0.786  0.00  0.00    -0.097 F 
ATOM      8  F1  UNL d   1       1.925  -2.521  -3.287  0.00  0.00    -0.096 F 
ATOM      9  I   UNL d   1       1.530   0.356  -4.629  0.00  0.00    -0.060 I 
ATOM     10  F2  UNL d   1       0.327   1.778  -2.027  0.00  0.00    -0.096 F 
ATOM     11  F3  UNL d   1      -0.178   0.843   0.464  0.00  0.00    -0.097 F 
ATOM     12  F4  UNL d   1       0.359  -1.756   1.096  0.00  0.00    -0.092 F 
ENDROOT
TORSDOF 0
ENDMDL
