MODEL 1
REMARK minimizedAffinity 1.14019418
REMARK minimizedRMSD -1
REMARK  0 active torsions:
REMARK  status: ('A' for Active; 'I' for Inactive)
ROOT
ATOM      1  C   UNL d   1      -0.782   1.977  -1.065  0.00  0.00     0.124 A 
ATOM      2  C1  UNL d   1       0.107   1.403  -1.964  0.00  0.00     0.062 A 
ATOM      3  C2  UNL d   1       0.583   0.113  -1.750  0.00  0.00     0.162 A 
ATOM      4  C3  UNL d   1       0.171  -0.613  -0.632  0.00  0.00    -0.034 A 
ATOM      5  C4  UNL d   1      -0.722  -0.029   0.268  0.00  0.00     0.162 A 
ATOM      6  C5  UNL d   1      -1.195   1.261   0.050  0.00  0.00     0.062 A 
ATOM      7  F   UNL d   1      -2.053   1.814   0.919  0.00  0.00    -0.097 F 
ATOM      8  F1  UNL d   1      -1.138  -0.699   1.352  0.00  0.00    -0.096 F 
ATOM      9  I   UNL d   1       0.881  -2.543  -0.309  0.00  0.00    -0.060 I 
ATOM     10  F2  UNL d   1       1.440  -0.417  -2.635  0.00  0.00    -0.096 F 
ATOM     11  F3  UNL d   1       0.508   2.093  -3.041  0.00  0.00    -0.097 F 
ATOM     12  F4  UNL d   1      -1.238   3.219  -1.273  0.00  0.00    -0.092 F 
ENDROOT
TORSDOF 0
ENDMDL
