MODEL 1
REMARK minimizedAffinity -3.12212706
REMARK minimizedRMSD -1
REMARK  0 active torsions:
REMARK  status: ('A' for Active; 'I' for Inactive)
ROOT
ATOM      1  C   UNL d   1       1.325  -0.316  -2.441  0.00  0.00     0.124 A 
ATOM      2  C1  UNL d   1       1.074  -1.252  -1.447  0.00  0.00     0.062 A 
ATOM      3  C2  UNL d   1       0.098  -1.008  -0.486  0.00  0.00     0.162 A 
ATOM      4  C3  UNL d   1      -0.636   0.178  -0.513  0.00  0.00    -0.034 A 
ATOM      5  C4  UNL d   1      -0.377   1.115  -1.514  0.00  0.00     0.162 A 
ATOM      6  C5  UNL d   1       0.599   0.867  -2.473  0.00  0.00     0.062 A 
ATOM      7  F   UNL d   1       0.840   1.773  -3.432  0.00  0.00    -0.097 F 
ATOM      8  F1  UNL d   1      -1.064   2.266  -1.570  0.00  0.00    -0.096 F 
ATOM      9  I   UNL d   1      -2.096   0.546   0.924  0.00  0.00    -0.060 I 
ATOM     10  F2  UNL d   1      -0.124  -1.931   0.462  0.00  0.00    -0.096 F 
ATOM     11  F3  UNL d   1       1.774  -2.395  -1.413  0.00  0.00    -0.097 F 
ATOM     12  F4  UNL d   1       2.265  -0.553  -3.364  0.00  0.00    -0.092 F 
ENDROOT
TORSDOF 0
ENDMDL
