MODEL 1
REMARK minimizedAffinity 2.58725166
REMARK minimizedRMSD -1
REMARK  0 active torsions:
REMARK  status: ('A' for Active; 'I' for Inactive)
ROOT
ATOM      1  C   UNL d   1       1.312  -0.942  -2.611  0.00  0.00     0.124 A 
ATOM      2  C1  UNL d   1       0.700   0.303  -2.635  0.00  0.00     0.062 A 
ATOM      3  C2  UNL d   1      -0.179   0.671  -1.619  0.00  0.00     0.162 A 
ATOM      4  C3  UNL d   1      -0.449  -0.208  -0.571  0.00  0.00    -0.034 A 
ATOM      5  C4  UNL d   1       0.169  -1.459  -0.554  0.00  0.00     0.162 A 
ATOM      6  C5  UNL d   1       1.046  -1.822  -1.571  0.00  0.00     0.062 A 
ATOM      7  F   UNL d   1       1.637  -3.026  -1.546  0.00  0.00    -0.097 F 
ATOM      8  F1  UNL d   1      -0.068  -2.328   0.439  0.00  0.00    -0.096 F 
ATOM      9  I   UNL d   1      -1.762   0.339   0.949  0.00  0.00    -0.060 I 
ATOM     10  F2  UNL d   1      -0.756   1.881  -1.668  0.00  0.00    -0.096 F 
ATOM     11  F3  UNL d   1       0.954   1.155  -3.639  0.00  0.00    -0.097 F 
ATOM     12  F4  UNL d   1       2.156  -1.294  -3.590  0.00  0.00    -0.092 F 
ENDROOT
TORSDOF 0
ENDMDL
