MODEL 1
REMARK minimizedAffinity 10.5275774
REMARK minimizedRMSD -1
REMARK  0 active torsions:
REMARK  status: ('A' for Active; 'I' for Inactive)
ROOT
ATOM      1  C   UNL d   1      -3.915   1.365   1.887  0.00  0.00     0.124 A 
ATOM      2  C1  UNL d   1      -2.897   0.832   2.665  0.00  0.00     0.062 A 
ATOM      3  C2  UNL d   1      -1.903   0.053   2.080  0.00  0.00     0.162 A 
ATOM      4  C3  UNL d   1      -1.922  -0.197   0.707  0.00  0.00    -0.034 A 
ATOM      5  C4  UNL d   1      -2.949   0.342  -0.069  0.00  0.00     0.162 A 
ATOM      6  C5  UNL d   1      -3.941   1.120   0.521  0.00  0.00     0.062 A 
ATOM      7  F   UNL d   1      -4.924   1.634  -0.232  0.00  0.00    -0.097 F 
ATOM      8  F1  UNL d   1      -2.997   0.122  -1.391  0.00  0.00    -0.096 F 
ATOM      9  I   UNL d   1      -0.437  -1.360  -0.172  0.00  0.00    -0.060 I 
ATOM     10  F2  UNL d   1      -0.931  -0.449   2.856  0.00  0.00    -0.096 F 
ATOM     11  F3  UNL d   1      -2.871   1.066   3.985  0.00  0.00    -0.097 F 
ATOM     12  F4  UNL d   1      -4.871   2.113   2.453  0.00  0.00    -0.092 F 
ENDROOT
TORSDOF 0
ENDMDL
