MODEL 1
REMARK minimizedAffinity -0.76534164
REMARK minimizedRMSD -1
REMARK  0 active torsions:
REMARK  status: ('A' for Active; 'I' for Inactive)
ROOT
ATOM      1  C   UNL d   1       1.238  -0.717  -2.385  0.00  0.00     0.124 A 
ATOM      2  C1  UNL d   1       1.100  -1.648  -1.365  0.00  0.00     0.062 A 
ATOM      3  C2  UNL d   1       0.320  -1.356  -0.250  0.00  0.00     0.162 A 
ATOM      4  C3  UNL d   1      -0.331  -0.126  -0.149  0.00  0.00    -0.034 A 
ATOM      5  C4  UNL d   1      -0.187   0.806  -1.179  0.00  0.00     0.162 A 
ATOM      6  C5  UNL d   1       0.594   0.509  -2.291  0.00  0.00     0.062 A 
ATOM      7  F   UNL d   1       0.725   1.410  -3.275  0.00  0.00    -0.097 F 
ATOM      8  F1  UNL d   1      -0.799   1.998  -1.114  0.00  0.00    -0.096 F 
ATOM      9  I   UNL d   1      -1.499   0.315   1.516  0.00  0.00    -0.060 I 
ATOM     10  F2  UNL d   1       0.205  -2.275   0.720  0.00  0.00    -0.096 F 
ATOM     11  F3  UNL d   1       1.722  -2.833  -1.453  0.00  0.00    -0.097 F 
ATOM     12  F4  UNL d   1       1.990  -1.000  -3.456  0.00  0.00    -0.092 F 
ENDROOT
TORSDOF 0
ENDMDL
