MODEL 1
REMARK minimizedAffinity -3.67928267
REMARK minimizedRMSD -1
REMARK  0 active torsions:
REMARK  status: ('A' for Active; 'I' for Inactive)
ROOT
ATOM      1  C   UNL d   1       1.315  -0.242  -1.921  0.00  0.00     0.124 A 
ATOM      2  C1  UNL d   1       1.084  -1.325  -1.085  0.00  0.00     0.062 A 
ATOM      3  C2  UNL d   1       0.177  -1.217  -0.034  0.00  0.00     0.162 A 
ATOM      4  C3  UNL d   1      -0.506  -0.021   0.185  0.00  0.00    -0.034 A 
ATOM      5  C4  UNL d   1      -0.267   1.064  -0.660  0.00  0.00     0.162 A 
ATOM      6  C5  UNL d   1       0.640   0.951  -1.708  0.00  0.00     0.062 A 
ATOM      7  F   UNL d   1       0.862   1.999  -2.515  0.00  0.00    -0.097 F 
ATOM      8  F1  UNL d   1      -0.907   2.229  -0.477  0.00  0.00    -0.096 F 
ATOM      9  I   UNL d   1      -1.863   0.145   1.755  0.00  0.00    -0.060 I 
ATOM     10  F2  UNL d   1      -0.027  -2.280   0.758  0.00  0.00    -0.096 F 
ATOM     11  F3  UNL d   1       1.736  -2.479  -1.288  0.00  0.00    -0.097 F 
ATOM     12  F4  UNL d   1       2.189  -0.348  -2.931  0.00  0.00    -0.092 F 
ENDROOT
TORSDOF 0
ENDMDL
