MODEL 1
REMARK minimizedAffinity -2.61484385
REMARK minimizedRMSD -1
REMARK  0 active torsions:
REMARK  status: ('A' for Active; 'I' for Inactive)
ROOT
ATOM      1  C4' PXY d   1       0.814  -1.935  -0.770  0.00  0.00     0.077 C 
ATOM      2  C1' PXY d   1      -1.241   2.713   1.984  0.00  0.00     0.077 C 
ATOM      3  C1  PXY d   1      -0.691   1.495   1.269  0.00  0.00    -0.082 A 
ATOM      4  C2  PXY d   1      -1.132   1.192   0.059  0.00  0.00     0.003 A 
ATOM      5  C3  PXY d   1      -0.669   0.076  -0.589  0.00  0.00     0.003 A 
ATOM      6  C4  PXY d   1       0.294  -0.709  -0.014  0.00  0.00    -0.082 A 
ATOM      7  C5  PXY d   1       0.757  -0.401   1.216  0.00  0.00     0.003 A 
ATOM      8  C6  PXY d   1       0.244   0.713   1.873  0.00  0.00     0.003 A 
ENDROOT
TORSDOF 0
ENDMDL
