MODEL 1
REMARK minimizedAffinity -4.05873442
REMARK minimizedRMSD -1
REMARK  0 active torsions:
REMARK  status: ('A' for Active; 'I' for Inactive)
ROOT
ATOM      1  C4' PXY d   1      -1.029   2.655  -1.751  0.00  0.00     0.077 C 
ATOM      2  C1' PXY d   1       0.467  -0.225   3.033  0.00  0.00     0.077 C 
ATOM      3  C1  PXY d   1       0.067   0.538   1.786  0.00  0.00    -0.082 A 
ATOM      4  C2  PXY d   1       0.164  -0.045   0.602  0.00  0.00     0.003 A 
ATOM      5  C3  PXY d   1      -0.163   0.641  -0.539  0.00  0.00     0.003 A 
ATOM      6  C4  PXY d   1      -0.646   1.920  -0.464  0.00  0.00    -0.082 A 
ATOM      7  C5  PXY d   1      -0.758   2.519   0.741  0.00  0.00     0.003 A 
ATOM      8  C6  PXY d   1      -0.382   1.819   1.884  0.00  0.00     0.003 A 
ENDROOT
TORSDOF 0
ENDMDL
