MODEL 1
REMARK minimizedAffinity -2.53684402
REMARK minimizedRMSD -1
REMARK  0 active torsions:
REMARK  status: ('A' for Active; 'I' for Inactive)
ROOT
ATOM      1  C4' PXY d   1       0.030   3.649   0.701  0.00  0.00     0.077 C 
ATOM      2  C1' PXY d   1       0.103  -1.984  -0.591  0.00  0.00     0.077 C 
ATOM      3  C1  PXY d   1       0.079  -0.510  -0.240  0.00  0.00    -0.082 A 
ATOM      4  C2  PXY d   1       0.019   0.392  -1.207  0.00  0.00     0.003 A 
ATOM      5  C3  PXY d   1       0.029   1.730  -0.909  0.00  0.00     0.003 A 
ATOM      6  C4  PXY d   1       0.047   2.149   0.394  0.00  0.00    -0.082 A 
ATOM      7  C5  PXY d   1       0.097   1.236   1.386  0.00  0.00     0.003 A 
ATOM      8  C6  PXY d   1       0.128  -0.117   1.061  0.00  0.00     0.003 A 
ENDROOT
TORSDOF 0
ENDMDL
