MODEL 1
REMARK minimizedAffinity -4.75957584
REMARK minimizedRMSD -1
REMARK  0 active torsions:
REMARK  status: ('A' for Active; 'I' for Inactive)
ROOT
ATOM      1  C4' PXY d   1       1.187  -1.955  -0.760  0.00  0.00     0.077 C 
ATOM      2  C1' PXY d   1      -1.139   2.735   1.690  0.00  0.00     0.077 C 
ATOM      3  C1  PXY d   1      -0.519   1.506   1.056  0.00  0.00    -0.082 A 
ATOM      4  C2  PXY d   1      -0.804   1.204  -0.201  0.00  0.00     0.003 A 
ATOM      5  C3  PXY d   1      -0.277   0.078  -0.780  0.00  0.00     0.003 A 
ATOM      6  C4  PXY d   1       0.591  -0.718  -0.082  0.00  0.00    -0.082 A 
ATOM      7  C5  PXY d   1       0.895  -0.411   1.197  0.00  0.00     0.003 A 
ATOM      8  C6  PXY d   1       0.317   0.713   1.780  0.00  0.00     0.003 A 
ENDROOT
TORSDOF 0
ENDMDL
