MODEL 1
REMARK minimizedAffinity -4.2915163
REMARK minimizedRMSD -1
REMARK  0 active torsions:
REMARK  status: ('A' for Active; 'I' for Inactive)
ROOT
ATOM      1  C4' PXY d   1      -0.263   1.844   2.586  0.00  0.00     0.077 C 
ATOM      2  C1' PXY d   1       0.614  -1.796  -1.819  0.00  0.00     0.077 C 
ATOM      3  C1  PXY d   1       0.388  -0.851  -0.655  0.00  0.00    -0.082 A 
ATOM      4  C2  PXY d   1      -0.480   0.141  -0.777  0.00  0.00     0.003 A 
ATOM      5  C3  PXY d   1      -0.673   1.024   0.254  0.00  0.00     0.003 A 
ATOM      6  C4  PXY d   1      -0.010   0.859   1.441  0.00  0.00    -0.082 A 
ATOM      7  C5  PXY d   1       0.870  -0.156   1.576  0.00  0.00     0.003 A 
ATOM      8  C6  PXY d   1       1.082  -1.017   0.504  0.00  0.00     0.003 A 
ENDROOT
TORSDOF 0
ENDMDL
