MODEL 1
REMARK minimizedAffinity -5.36670542
REMARK minimizedRMSD -1
REMARK  0 active torsions:
REMARK  status: ('A' for Active; 'I' for Inactive)
ROOT
ATOM      1  C4' PXY d   1       0.478  -1.919  -0.523  0.00  0.00     0.077 C 
ATOM      2  C1' PXY d   1      -1.056   3.129   1.839  0.00  0.00     0.077 C 
ATOM      3  C1  PXY d   1      -0.641   1.807   1.224  0.00  0.00    -0.082 A 
ATOM      4  C2  PXY d   1      -1.320   1.322   0.197  0.00  0.00     0.003 A 
ATOM      5  C3  PXY d   1      -0.978   0.112  -0.351  0.00  0.00     0.003 A 
ATOM      6  C4  PXY d   1       0.101  -0.583   0.123  0.00  0.00    -0.082 A 
ATOM      7  C5  PXY d   1       0.805  -0.091   1.165  0.00  0.00     0.003 A 
ATOM      8  C6  PXY d   1       0.417   1.119   1.733  0.00  0.00     0.003 A 
ENDROOT
TORSDOF 0
ENDMDL
