MODEL 1
REMARK minimizedAffinity -2.99359298
REMARK minimizedRMSD -1
REMARK  0 active torsions:
REMARK  status: ('A' for Active; 'I' for Inactive)
ROOT
ATOM      1  C4' PXY d   1       0.519  -1.026  -1.455  0.00  0.00     0.077 C 
ATOM      2  C1' PXY d   1      -1.875   3.137   1.762  0.00  0.00     0.077 C 
ATOM      3  C1  PXY d   1      -1.258   2.046   0.910  0.00  0.00    -0.082 A 
ATOM      4  C2  PXY d   1      -0.369   1.224   1.444  0.00  0.00     0.003 A 
ATOM      5  C3  PXY d   1       0.224   0.251   0.680  0.00  0.00     0.003 A 
ATOM      6  C4  PXY d   1      -0.137   0.085  -0.631  0.00  0.00    -0.082 A 
ATOM      7  C5  PXY d   1      -1.051   0.912  -1.180  0.00  0.00     0.003 A 
ATOM      8  C6  PXY d   1      -1.610   1.919  -0.398  0.00  0.00     0.003 A 
ENDROOT
TORSDOF 0
ENDMDL
