MODEL 1
REMARK minimizedAffinity -3.47147989
REMARK minimizedRMSD -1
REMARK  0 active torsions:
REMARK  status: ('A' for Active; 'I' for Inactive)
ROOT
ATOM      1  C4' PXY d   1      -0.027   1.718   2.219  0.00  0.00     0.077 C 
ATOM      2  C1' PXY d   1       0.105  -2.792  -1.394  0.00  0.00     0.077 C 
ATOM      3  C1  PXY d   1       0.071  -1.618  -0.437  0.00  0.00    -0.082 A 
ATOM      4  C2  PXY d   1      -0.420  -0.458  -0.842  0.00  0.00     0.003 A 
ATOM      5  C3  PXY d   1      -0.429   0.624   0.001  0.00  0.00     0.003 A 
ATOM      6  C4  PXY d   1       0.019   0.502   1.289  0.00  0.00    -0.082 A 
ATOM      7  C5  PXY d   1       0.512  -0.681   1.713  0.00  0.00     0.003 A 
ATOM      8  C6  PXY d   1       0.551  -1.755   0.829  0.00  0.00     0.003 A 
ENDROOT
TORSDOF 0
ENDMDL
