MODEL 1
REMARK minimizedAffinity 0.313823104
REMARK minimizedRMSD -1
REMARK  0 active torsions:
REMARK  status: ('A' for Active; 'I' for Inactive)
ROOT
ATOM      1  C4' PXY d   1      -1.645   3.033   1.808  0.00  0.00     0.077 C 
ATOM      2  C1' PXY d   1       0.436  -1.502  -1.111  0.00  0.00     0.077 C 
ATOM      3  C1  PXY d   1      -0.107  -0.319  -0.335  0.00  0.00    -0.082 A 
ATOM      4  C2  PXY d   1      -0.989   0.487  -0.903  0.00  0.00     0.003 A 
ATOM      5  C3  PXY d   1      -1.467   1.580  -0.226  0.00  0.00     0.003 A 
ATOM      6  C4  PXY d   1      -1.077   1.821   1.064  0.00  0.00    -0.082 A 
ATOM      7  C5  PXY d   1      -0.185   0.997   1.655  0.00  0.00     0.003 A 
ATOM      8  C6  PXY d   1       0.318  -0.084   0.936  0.00  0.00     0.003 A 
ENDROOT
TORSDOF 0
ENDMDL
