MODEL 1
REMARK minimizedAffinity -3.56239796
REMARK minimizedRMSD -1
REMARK  0 active torsions:
REMARK  status: ('A' for Active; 'I' for Inactive)
ROOT
ATOM      1  C4' PXY d   1       0.024   1.095  -2.932  0.00  0.00     0.077 C 
ATOM      2  C1' PXY d   1       0.511   1.317   2.824  0.00  0.00     0.077 C 
ATOM      3  C1  PXY d   1       0.395   1.255   1.314  0.00  0.00    -0.082 A 
ATOM      4  C2  PXY d   1      -0.492   2.016   0.693  0.00  0.00     0.003 A 
ATOM      5  C3  PXY d   1      -0.631   1.948  -0.669  0.00  0.00     0.003 A 
ATOM      6  C4  PXY d   1       0.182   1.132  -1.409  0.00  0.00    -0.082 A 
ATOM      7  C5  PXY d   1       1.096   0.361  -0.785  0.00  0.00     0.003 A 
ATOM      8  C6  PXY d   1       1.194   0.414   0.603  0.00  0.00     0.003 A 
ENDROOT
TORSDOF 0
ENDMDL
