MODEL 1
REMARK minimizedAffinity -2.23549104
REMARK minimizedRMSD -1
REMARK  0 active torsions:
REMARK  status: ('A' for Active; 'I' for Inactive)
ROOT
ATOM      1  C   UNL d   1       0.453  -3.161   0.235  0.00  0.00     0.078 C 
ATOM      2  C1  UNL d   1       0.225  -1.794  -0.337  0.00  0.00    -0.077 A 
ATOM      3  C2  UNL d   1       0.649  -1.474  -1.632  0.00  0.00    -0.001 A 
ATOM      4  C3  UNL d   1       0.439  -0.194  -2.148  0.00  0.00     0.003 A 
ATOM      5  C4  UNL d   1      -0.195   0.777  -1.375  0.00  0.00    -0.005 A 
ATOM      6  C5  UNL d   1      -0.619   0.468  -0.084  0.00  0.00     0.003 A 
ATOM      7  C6  UNL d   1      -0.409  -0.811   0.434  0.00  0.00    -0.001 A 
ENDROOT
TORSDOF 0
ENDMDL
