MODEL 1
REMARK minimizedAffinity -3.70956206
REMARK minimizedRMSD -1
REMARK  0 active torsions:
REMARK  status: ('A' for Active; 'I' for Inactive)
ROOT
ATOM      1  C   UNL d   1       0.192  -0.602   0.275  0.00  0.00     0.078 C 
ATOM      2  C1  UNL d   1       0.715   0.802   0.344  0.00  0.00    -0.077 A 
ATOM      3  C2  UNL d   1       1.984   1.074   0.869  0.00  0.00    -0.001 A 
ATOM      4  C3  UNL d   1       2.454   2.386   0.935  0.00  0.00     0.003 A 
ATOM      5  C4  UNL d   1       1.662   3.437   0.479  0.00  0.00    -0.005 A 
ATOM      6  C5  UNL d   1       0.396   3.177  -0.043  0.00  0.00     0.003 A 
ATOM      7  C6  UNL d   1      -0.076   1.865  -0.110  0.00  0.00    -0.001 A 
ENDROOT
TORSDOF 0
ENDMDL
