MODEL 1
REMARK minimizedAffinity -2.322577
REMARK minimizedRMSD -1
REMARK  0 active torsions:
REMARK  status: ('A' for Active; 'I' for Inactive)
ROOT
ATOM      1  C   UNL d   1      -0.000  -0.753   1.136  0.00  0.00     0.078 C 
ATOM      2  C1  UNL d   1       0.242   0.467   0.298  0.00  0.00    -0.077 A 
ATOM      3  C2  UNL d   1       0.692   1.660   0.875  0.00  0.00    -0.001 A 
ATOM      4  C3  UNL d   1       0.905   2.791   0.084  0.00  0.00     0.003 A 
ATOM      5  C4  UNL d   1       0.668   2.739  -1.289  0.00  0.00    -0.005 A 
ATOM      6  C5  UNL d   1       0.218   1.556  -1.871  0.00  0.00     0.003 A 
ATOM      7  C6  UNL d   1       0.005   0.425  -1.082  0.00  0.00    -0.001 A 
ENDROOT
TORSDOF 0
ENDMDL
