MODEL 1
REMARK minimizedAffinity -5.11227322
REMARK minimizedRMSD -1
REMARK  0 active torsions:
REMARK  status: ('A' for Active; 'I' for Inactive)
ROOT
ATOM      1  C   UNL d   1      -0.990  -0.530   1.148  0.00  0.00     0.078 C 
ATOM      2  C1  UNL d   1      -0.781  -1.251  -0.150  0.00  0.00    -0.077 A 
ATOM      3  C2  UNL d   1      -1.200  -2.578  -0.314  0.00  0.00    -0.001 A 
ATOM      4  C3  UNL d   1      -0.990  -3.240  -1.524  0.00  0.00     0.003 A 
ATOM      5  C4  UNL d   1      -0.360  -2.584  -2.580  0.00  0.00    -0.005 A 
ATOM      6  C5  UNL d   1       0.061  -1.265  -2.426  0.00  0.00     0.003 A 
ATOM      7  C6  UNL d   1      -0.147  -0.601  -1.216  0.00  0.00    -0.001 A 
ENDROOT
TORSDOF 0
ENDMDL
