MODEL 1
REMARK minimizedAffinity -5.18593645
REMARK minimizedRMSD -1
REMARK  0 active torsions:
REMARK  status: ('A' for Active; 'I' for Inactive)
ROOT
ATOM      1  C   UNL d   1      -0.039  -3.077  -3.190  0.00  0.00     0.078 C 
ATOM      2  C1  UNL d   1      -0.235  -2.519  -1.812  0.00  0.00    -0.077 A 
ATOM      3  C2  UNL d   1      -0.456  -1.151  -1.612  0.00  0.00    -0.001 A 
ATOM      4  C3  UNL d   1      -0.628  -0.644  -0.323  0.00  0.00     0.003 A 
ATOM      5  C4  UNL d   1      -0.578  -1.499   0.777  0.00  0.00    -0.005 A 
ATOM      6  C5  UNL d   1      -0.357  -2.861   0.588  0.00  0.00     0.003 A 
ATOM      7  C6  UNL d   1      -0.185  -3.370  -0.701  0.00  0.00    -0.001 A 
ENDROOT
TORSDOF 0
ENDMDL
