MODEL 1
REMARK minimizedAffinity -4.1136837
REMARK minimizedRMSD -1
REMARK  0 active torsions:
REMARK  status: ('A' for Active; 'I' for Inactive)
ROOT
ATOM      1  C   UNL d   1       2.382   2.698   1.271  0.00  0.00     0.078 C 
ATOM      2  C1  UNL d   1       1.307   1.685   1.009  0.00  0.00    -0.077 A 
ATOM      3  C2  UNL d   1       1.155   0.564   1.834  0.00  0.00    -0.001 A 
ATOM      4  C3  UNL d   1       0.156  -0.375   1.572  0.00  0.00     0.003 A 
ATOM      5  C4  UNL d   1      -0.698  -0.203   0.484  0.00  0.00    -0.005 A 
ATOM      6  C5  UNL d   1      -0.553   0.908  -0.343  0.00  0.00     0.003 A 
ATOM      7  C6  UNL d   1       0.445   1.848  -0.083  0.00  0.00    -0.001 A 
ENDROOT
TORSDOF 0
ENDMDL
