MODEL 1
REMARK minimizedAffinity -3.24319196
REMARK minimizedRMSD -1
REMARK  0 active torsions:
REMARK  status: ('A' for Active; 'I' for Inactive)
ROOT
ATOM      1  C   UNL d   1      -0.724  -2.754  -2.527  0.00  0.00     0.078 C 
ATOM      2  C1  UNL d   1      -0.709  -1.979  -1.243  0.00  0.00    -0.077 A 
ATOM      3  C2  UNL d   1      -0.291  -0.643  -1.212  0.00  0.00    -0.001 A 
ATOM      4  C3  UNL d   1      -0.273   0.063  -0.008  0.00  0.00     0.003 A 
ATOM      5  C4  UNL d   1      -0.669  -0.559   1.174  0.00  0.00    -0.005 A 
ATOM      6  C5  UNL d   1      -1.084  -1.889   1.153  0.00  0.00     0.003 A 
ATOM      7  C6  UNL d   1      -1.103  -2.596  -0.050  0.00  0.00    -0.001 A 
ENDROOT
TORSDOF 0
ENDMDL
