MODEL 1
REMARK minimizedAffinity -5.20301771
REMARK minimizedRMSD -1
REMARK  0 active torsions:
REMARK  status: ('A' for Active; 'I' for Inactive)
ROOT
ATOM      1  C   UNL d   1       0.096  -3.618   0.053  0.00  0.00     0.078 C 
ATOM      2  C1  UNL d   1      -0.088  -2.135   0.178  0.00  0.00    -0.077 A 
ATOM      3  C2  UNL d   1       0.412  -1.263  -0.797  0.00  0.00    -0.001 A 
ATOM      4  C3  UNL d   1       0.242   0.116  -0.663  0.00  0.00     0.003 A 
ATOM      5  C4  UNL d   1      -0.427   0.635   0.444  0.00  0.00    -0.005 A 
ATOM      6  C5  UNL d   1      -0.926  -0.226   1.419  0.00  0.00     0.003 A 
ATOM      7  C6  UNL d   1      -0.757  -1.605   1.287  0.00  0.00    -0.001 A 
ENDROOT
TORSDOF 0
ENDMDL
