MODEL 1
REMARK minimizedAffinity -5.31348228
REMARK minimizedRMSD -1
REMARK  0 active torsions:
REMARK  status: ('A' for Active; 'I' for Inactive)
ROOT
ATOM      1  C   UNL d   1      -0.741  -0.394   1.135  0.00  0.00     0.078 C 
ATOM      2  C1  UNL d   1      -0.492  -1.265  -0.060  0.00  0.00    -0.077 A 
ATOM      3  C2  UNL d   1      -0.087  -0.715  -1.282  0.00  0.00    -0.001 A 
ATOM      4  C3  UNL d   1       0.132  -1.537  -2.388  0.00  0.00     0.003 A 
ATOM      5  C4  UNL d   1      -0.052  -2.914  -2.284  0.00  0.00    -0.005 A 
ATOM      6  C5  UNL d   1      -0.457  -3.471  -1.072  0.00  0.00     0.003 A 
ATOM      7  C6  UNL d   1      -0.677  -2.650   0.035  0.00  0.00    -0.001 A 
ENDROOT
TORSDOF 0
ENDMDL
