MODEL 1
REMARK minimizedAffinity -3.19455767
REMARK minimizedRMSD -1
REMARK  0 active torsions:
REMARK  status: ('A' for Active; 'I' for Inactive)
ROOT
ATOM      1  C   UNL d   1      -0.655  -2.497  -2.589  0.00  0.00     0.078 C 
ATOM      2  C1  UNL d   1      -0.617  -1.322  -1.658  0.00  0.00    -0.077 A 
ATOM      3  C2  UNL d   1      -0.299  -0.041  -2.125  0.00  0.00    -0.001 A 
ATOM      4  C3  UNL d   1      -0.258   1.041  -1.245  0.00  0.00     0.003 A 
ATOM      5  C4  UNL d   1      -0.532   0.854   0.108  0.00  0.00    -0.005 A 
ATOM      6  C5  UNL d   1      -0.847  -0.417   0.583  0.00  0.00     0.003 A 
ATOM      7  C6  UNL d   1      -0.888  -1.501  -0.295  0.00  0.00    -0.001 A 
ENDROOT
TORSDOF 0
ENDMDL
