MODEL 1
REMARK minimizedAffinity -4.21680593
REMARK minimizedRMSD -1
REMARK  0 active torsions:
REMARK  status: ('A' for Active; 'I' for Inactive)
ROOT
ATOM      1  C   UNL d   1       1.765   2.586   0.364  0.00  0.00     0.078 C 
ATOM      2  C1  UNL d   1       0.769   1.489   0.595  0.00  0.00    -0.077 A 
ATOM      3  C2  UNL d   1      -0.160   1.139  -0.392  0.00  0.00    -0.001 A 
ATOM      4  C3  UNL d   1      -1.089   0.123  -0.159  0.00  0.00     0.003 A 
ATOM      5  C4  UNL d   1      -1.097  -0.551   1.061  0.00  0.00    -0.005 A 
ATOM      6  C5  UNL d   1      -0.178  -0.208   2.050  0.00  0.00     0.003 A 
ATOM      7  C6  UNL d   1       0.751   0.808   1.819  0.00  0.00    -0.001 A 
ENDROOT
TORSDOF 0
ENDMDL
