MODEL 1
REMARK minimizedAffinity 1.07536101
REMARK minimizedRMSD -1
REMARK  0 active torsions:
REMARK  status: ('A' for Active; 'I' for Inactive)
ROOT
ATOM      1  C   UNL d   1       2.307  -1.066   0.192  0.00  0.00    -0.002 A 
ATOM      2  C1  UNL d   1       1.446  -1.588   1.146  0.00  0.00     0.010 A 
ATOM      3  C2  UNL d   1       0.144  -1.100   1.270  0.00  0.00     0.041 A 
ATOM      4  C3  UNL d   1      -0.283  -0.069   0.410  0.00  0.00    -0.075 A 
ATOM      5  S   UNL d   1      -1.834   0.684   0.380  0.00  0.00     0.015 SA
ATOM      6  C4  UNL d   1      -1.389   1.716  -0.902  0.00  0.00     0.022 A 
ATOM      7  C5  UNL d   1      -0.093   1.505  -1.308  0.00  0.00     0.026 A 
ATOM      8  C6  UNL d   1       0.566   0.472  -0.559  0.00  0.00    -0.082 A 
ATOM      9  C7  UNL d   1       1.881  -0.043  -0.660  0.00  0.00     0.045 A 
ENDROOT
TORSDOF 0
ENDMDL
