MODEL 1
REMARK minimizedAffinity 1.31688821
REMARK minimizedRMSD -1
REMARK  0 active torsions:
REMARK  status: ('A' for Active; 'I' for Inactive)
ROOT
ATOM      1  C   UNL d   1      -2.328   2.143  -3.224  0.00  0.00    -0.002 A 
ATOM      2  C1  UNL d   1      -2.864   0.913  -2.867  0.00  0.00     0.010 A 
ATOM      3  C2  UNL d   1      -2.288   0.159  -1.842  0.00  0.00     0.041 A 
ATOM      4  C3  UNL d   1      -1.155   0.666  -1.176  0.00  0.00    -0.075 A 
ATOM      5  S   UNL d   1      -0.283  -0.082   0.109  0.00  0.00     0.015 SA
ATOM      6  C4  UNL d   1       0.820   1.213   0.214  0.00  0.00     0.022 A 
ATOM      7  C5  UNL d   1       0.545   2.200  -0.702  0.00  0.00     0.026 A 
ATOM      8  C6  UNL d   1      -0.598   1.902  -1.518  0.00  0.00    -0.082 A 
ATOM      9  C7  UNL d   1      -1.205   2.643  -2.561  0.00  0.00     0.045 A 
ENDROOT
TORSDOF 0
ENDMDL
