MODEL 1
REMARK minimizedAffinity -0.362104833
REMARK minimizedRMSD -1
REMARK  0 active torsions:
REMARK  status: ('A' for Active; 'I' for Inactive)
ROOT
ATOM      1  C   UNL d   1      -0.313  -1.589   3.287  0.00  0.00    -0.002 A 
ATOM      2  C1  UNL d   1       0.989  -1.827   2.872  0.00  0.00     0.010 A 
ATOM      3  C2  UNL d   1       1.496  -1.204   1.729  0.00  0.00     0.041 A 
ATOM      4  C3  UNL d   1       0.663  -0.329   1.005  0.00  0.00    -0.075 A 
ATOM      5  S   UNL d   1       1.068   0.546  -0.425  0.00  0.00     0.015 SA
ATOM      6  C4  UNL d   1      -0.478   1.257  -0.518  0.00  0.00     0.022 A 
ATOM      7  C5  UNL d   1      -1.297   0.847   0.508  0.00  0.00     0.026 A 
ATOM      8  C6  UNL d   1      -0.652  -0.073   1.403  0.00  0.00    -0.082 A 
ATOM      9  C7  UNL d   1      -1.136  -0.720   2.565  0.00  0.00     0.045 A 
ENDROOT
TORSDOF 0
ENDMDL
