MODEL 1
REMARK minimizedAffinity 1.73788691
REMARK minimizedRMSD -1
REMARK  0 active torsions:
REMARK  status: ('A' for Active; 'I' for Inactive)
ROOT
ATOM      1  C   UNL d   1      -2.447   2.266  -2.844  0.00  0.00    -0.002 A 
ATOM      2  C1  UNL d   1      -3.394   1.412  -2.297  0.00  0.00     0.010 A 
ATOM      3  C2  UNL d   1      -3.072   0.596  -1.211  0.00  0.00     0.041 A 
ATOM      4  C3  UNL d   1      -1.769   0.654  -0.678  0.00  0.00    -0.075 A 
ATOM      5  S   UNL d   1      -1.148  -0.252   0.651  0.00  0.00     0.015 SA
ATOM      6  C4  UNL d   1       0.389   0.473   0.524  0.00  0.00     0.022 A 
ATOM      7  C5  UNL d   1       0.445   1.387  -0.502  0.00  0.00     0.026 A 
ATOM      8  C6  UNL d   1      -0.798   1.507  -1.211  0.00  0.00    -0.082 A 
ATOM      9  C7  UNL d   1      -1.156   2.321  -2.313  0.00  0.00     0.045 A 
ENDROOT
TORSDOF 0
ENDMDL
