MODEL 1
REMARK minimizedAffinity -2.85895395
REMARK minimizedRMSD -1
REMARK  0 active torsions:
REMARK  status: ('A' for Active; 'I' for Inactive)
ROOT
ATOM      1  C   UNL d   1       0.843   0.754   0.599  0.00  0.00    -0.002 A 
ATOM      2  C1  UNL d   1       0.665  -0.506   0.044  0.00  0.00     0.010 A 
ATOM      3  C2  UNL d   1      -0.201  -0.690  -1.035  0.00  0.00     0.041 A 
ATOM      4  C3  UNL d   1      -0.892   0.423  -1.553  0.00  0.00    -0.075 A 
ATOM      5  S   UNL d   1      -2.004   0.436  -2.871  0.00  0.00     0.015 SA
ATOM      6  C4  UNL d   1      -2.269   2.113  -2.729  0.00  0.00     0.022 A 
ATOM      7  C5  UNL d   1      -1.535   2.666  -1.706  0.00  0.00     0.026 A 
ATOM      8  C6  UNL d   1      -0.729   1.701  -1.012  0.00  0.00    -0.082 A 
ATOM      9  C7  UNL d   1       0.156   1.856   0.082  0.00  0.00     0.045 A 
ENDROOT
TORSDOF 0
ENDMDL
