MODEL 1
REMARK minimizedAffinity -3.0325582
REMARK minimizedRMSD -1
REMARK  0 active torsions:
REMARK  status: ('A' for Active; 'I' for Inactive)
ROOT
ATOM      1  C   UNL d   1       0.626  -2.311   3.077  0.00  0.00    -0.002 A 
ATOM      2  C1  UNL d   1      -0.611  -1.683   3.044  0.00  0.00     0.010 A 
ATOM      3  C2  UNL d   1      -0.959  -0.856   1.974  0.00  0.00     0.041 A 
ATOM      4  C3  UNL d   1      -0.035  -0.671   0.926  0.00  0.00    -0.075 A 
ATOM      5  S   UNL d   1      -0.245   0.296  -0.486  0.00  0.00     0.015 SA
ATOM      6  C4  UNL d   1       1.302  -0.103  -1.079  0.00  0.00     0.022 A 
ATOM      7  C5  UNL d   1       1.976  -0.952  -0.233  0.00  0.00     0.026 A 
ATOM      8  C6  UNL d   1       1.216  -1.294   0.937  0.00  0.00    -0.082 A 
ATOM      9  C7  UNL d   1       1.540  -2.125   2.036  0.00  0.00     0.045 A 
ENDROOT
TORSDOF 0
ENDMDL
