MODEL 1
REMARK minimizedAffinity -1.54593086
REMARK minimizedRMSD -1
REMARK  0 active torsions:
REMARK  status: ('A' for Active; 'I' for Inactive)
ROOT
ATOM      1  C   UNL d   1      -2.615   1.765  -2.468  0.00  0.00    -0.002 A 
ATOM      2  C1  UNL d   1      -1.736   2.838  -2.462  0.00  0.00     0.010 A 
ATOM      3  C2  UNL d   1      -0.509   2.746  -1.801  0.00  0.00     0.041 A 
ATOM      4  C3  UNL d   1      -0.178   1.546  -1.142  0.00  0.00    -0.075 A 
ATOM      5  S   UNL d   1       1.269   1.205  -0.268  0.00  0.00     0.015 SA
ATOM      6  C4  UNL d   1       0.753  -0.373   0.116  0.00  0.00     0.022 A 
ATOM      7  C5  UNL d   1      -0.490  -0.650  -0.401  0.00  0.00     0.026 A 
ATOM      8  C6  UNL d   1      -1.047   0.451  -1.135  0.00  0.00    -0.082 A 
ATOM      9  C7  UNL d   1      -2.283   0.576  -1.814  0.00  0.00     0.045 A 
ENDROOT
TORSDOF 0
ENDMDL
