MODEL 1
REMARK minimizedAffinity -1.73854554
REMARK minimizedRMSD -1
REMARK  0 active torsions:
REMARK  status: ('A' for Active; 'I' for Inactive)
ROOT
ATOM      1  C   UNL d   1       1.129  -2.235   2.614  0.00  0.00    -0.002 A 
ATOM      2  C1  UNL d   1      -0.144  -1.913   3.061  0.00  0.00     0.010 A 
ATOM      3  C2  UNL d   1      -0.909  -0.953   2.395  0.00  0.00     0.041 A 
ATOM      4  C3  UNL d   1      -0.368  -0.318   1.259  0.00  0.00    -0.075 A 
ATOM      5  S   UNL d   1      -1.122   0.887   0.284  0.00  0.00     0.015 SA
ATOM      6  C4  UNL d   1       0.228   1.001  -0.750  0.00  0.00     0.022 A 
ATOM      7  C5  UNL d   1       1.238   0.148  -0.374  0.00  0.00     0.026 A 
ATOM      8  C6  UNL d   1       0.911  -0.627   0.789  0.00  0.00    -0.082 A 
ATOM      9  C7  UNL d   1       1.662  -1.603   1.487  0.00  0.00     0.045 A 
ENDROOT
TORSDOF 0
ENDMDL
