MODEL 1
REMARK minimizedAffinity 0.486588478
REMARK minimizedRMSD -1
REMARK  0 active torsions:
REMARK  status: ('A' for Active; 'I' for Inactive)
ROOT
ATOM      1  C   UNL d   1       2.248  -1.481   0.642  0.00  0.00    -0.002 A 
ATOM      2  C1  UNL d   1       2.238  -0.471  -0.309  0.00  0.00     0.010 A 
ATOM      3  C2  UNL d   1       1.134   0.374  -0.437  0.00  0.00     0.041 A 
ATOM      4  C3  UNL d   1       0.029   0.185   0.416  0.00  0.00    -0.075 A 
ATOM      5  S   UNL d   1      -1.432   1.099   0.442  0.00  0.00     0.015 SA
ATOM      6  C4  UNL d   1      -2.078   0.171   1.717  0.00  0.00     0.022 A 
ATOM      7  C5  UNL d   1      -1.213  -0.817   2.125  0.00  0.00     0.026 A 
ATOM      8  C6  UNL d   1       0.016  -0.824   1.383  0.00  0.00    -0.082 A 
ATOM      9  C7  UNL d   1       1.150  -1.665   1.487  0.00  0.00     0.045 A 
ENDROOT
TORSDOF 0
ENDMDL
