MODEL 1
REMARK minimizedAffinity -2.94983435
REMARK minimizedRMSD -1
REMARK  0 active torsions:
REMARK  status: ('A' for Active; 'I' for Inactive)
ROOT
ATOM      1  C   UNL d   1      -0.149   0.912   0.305  0.00  0.00    -0.002 A 
ATOM      2  C1  UNL d   1       0.026  -0.269  -0.401  0.00  0.00     0.010 A 
ATOM      3  C2  UNL d   1      -0.620  -0.469  -1.623  0.00  0.00     0.041 A 
ATOM      4  C3  UNL d   1      -1.450   0.550  -2.129  0.00  0.00    -0.075 A 
ATOM      5  S   UNL d   1      -2.341   0.529  -3.605  0.00  0.00     0.015 SA
ATOM      6  C4  UNL d   1      -2.973   2.088  -3.333  0.00  0.00     0.022 A 
ATOM      7  C5  UNL d   1      -2.527   2.626  -2.150  0.00  0.00     0.026 A 
ATOM      8  C6  UNL d   1      -1.641   1.750  -1.437  0.00  0.00    -0.082 A 
ATOM      9  C7  UNL d   1      -0.974   1.921  -0.200  0.00  0.00     0.045 A 
ENDROOT
TORSDOF 0
ENDMDL
