MODEL 1
REMARK minimizedAffinity -2.69267869
REMARK minimizedRMSD -1
REMARK  0 active torsions:
REMARK  status: ('A' for Active; 'I' for Inactive)
ROOT
ATOM      1  C   UNL d   1       2.399  -1.365  -0.101  0.00  0.00    -0.002 A 
ATOM      2  C1  UNL d   1       2.012  -1.290   1.229  0.00  0.00     0.010 A 
ATOM      3  C2  UNL d   1       0.899  -0.535   1.603  0.00  0.00     0.041 A 
ATOM      4  C3  UNL d   1       0.173   0.149   0.608  0.00  0.00    -0.075 A 
ATOM      5  S   UNL d   1      -1.224   1.134   0.832  0.00  0.00     0.015 SA
ATOM      6  C4  UNL d   1      -1.341   1.477  -0.833  0.00  0.00     0.022 A 
ATOM      7  C5  UNL d   1      -0.346   0.864  -1.557  0.00  0.00     0.026 A 
ATOM      8  C6  UNL d   1       0.543   0.088  -0.739  0.00  0.00    -0.082 A 
ATOM      9  C7  UNL d   1       1.676  -0.686  -1.086  0.00  0.00     0.045 A 
ENDROOT
TORSDOF 0
ENDMDL
