MODEL 1
REMARK minimizedAffinity -2.74953008
REMARK minimizedRMSD -1
REMARK  0 active torsions:
REMARK  status: ('A' for Active; 'I' for Inactive)
ROOT
ATOM      1  C   UNL d   1       1.911  -0.135  -0.472  0.00  0.00    -0.002 A 
ATOM      2  C1  UNL d   1       0.890   0.798  -0.358  0.00  0.00     0.010 A 
ATOM      3  C2  UNL d   1      -0.152   0.602   0.550  0.00  0.00     0.041 A 
ATOM      4  C3  UNL d   1      -0.150  -0.557   1.351  0.00  0.00    -0.075 A 
ATOM      5  S   UNL d   1      -1.322  -1.006   2.533  0.00  0.00     0.015 SA
ATOM      6  C4  UNL d   1      -0.495  -2.446   2.915  0.00  0.00     0.022 A 
ATOM      7  C5  UNL d   1       0.650  -2.597   2.169  0.00  0.00     0.026 A 
ATOM      8  C6  UNL d   1       0.868  -1.510   1.255  0.00  0.00    -0.082 A 
ATOM      9  C7  UNL d   1       1.910  -1.284   0.324  0.00  0.00     0.045 A 
ENDROOT
TORSDOF 0
ENDMDL
