MODEL 1
REMARK minimizedAffinity -0.750845313
REMARK minimizedRMSD -1
REMARK  0 active torsions:
REMARK  status: ('A' for Active; 'I' for Inactive)
ROOT
ATOM      1  C   UNL d   1       2.193  -1.552   1.148  0.00  0.00    -0.002 A 
ATOM      2  C1  UNL d   1       1.454  -1.846   2.286  0.00  0.00     0.010 A 
ATOM      3  C2  UNL d   1       0.173  -1.317   2.457  0.00  0.00     0.041 A 
ATOM      4  C3  UNL d   1      -0.359  -0.482   1.455  0.00  0.00    -0.075 A 
ATOM      5  S   UNL d   1      -1.906   0.278   1.449  0.00  0.00     0.015 SA
ATOM      6  C4  UNL d   1      -1.623   1.010  -0.064  0.00  0.00     0.022 A 
ATOM      7  C5  UNL d   1      -0.383   0.694  -0.566  0.00  0.00     0.026 A 
ATOM      8  C6  UNL d   1       0.366  -0.172   0.301  0.00  0.00    -0.082 A 
ATOM      9  C7  UNL d   1       1.662  -0.722   0.157  0.00  0.00     0.045 A 
ENDROOT
TORSDOF 0
ENDMDL
