MODEL 1
REMARK minimizedAffinity -1.01109886
REMARK minimizedRMSD -1
REMARK  0 active torsions:
REMARK  status: ('A' for Active; 'I' for Inactive)
ROOT
ATOM      1  C   UNL d   1      -2.984   1.863  -2.463  0.00  0.00    -0.002 A 
ATOM      2  C1  UNL d   1      -1.764   2.480  -2.705  0.00  0.00     0.010 A 
ATOM      3  C2  UNL d   1      -0.630   2.122  -1.972  0.00  0.00     0.041 A 
ATOM      4  C3  UNL d   1      -0.743   1.124  -0.985  0.00  0.00    -0.075 A 
ATOM      5  S   UNL d   1       0.511   0.523   0.034  0.00  0.00     0.015 SA
ATOM      6  C4  UNL d   1      -0.543  -0.566   0.814  0.00  0.00     0.022 A 
ATOM      7  C5  UNL d   1      -1.824  -0.487   0.322  0.00  0.00     0.026 A 
ATOM      8  C6  UNL d   1      -1.961   0.488  -0.723  0.00  0.00    -0.082 A 
ATOM      9  C7  UNL d   1      -3.092   0.874  -1.482  0.00  0.00     0.045 A 
ENDROOT
TORSDOF 0
ENDMDL
