MODEL 1
REMARK minimizedAffinity 3.06057811
REMARK minimizedRMSD -1
REMARK  0 active torsions:
REMARK  status: ('A' for Active; 'I' for Inactive)
ROOT
ATOM      1  O1  BZF d   1      -0.988  -0.740   0.597  0.00  0.00    -0.204 OA
ATOM      2  C2  BZF d   1      -2.369  -0.764   0.568  0.00  0.00     0.174 A 
ATOM      3  C3  BZF d   1      -2.874   0.469   0.775  0.00  0.00    -0.012 A 
ATOM      4  C3A BZF d   1      -1.736   1.333   0.853  0.00  0.00    -0.107 A 
ATOM      5  C4  BZF d   1      -1.590   2.679   1.033  0.00  0.00     0.055 A 
ATOM      6  C5  BZF d   1      -0.339   3.200   1.134  0.00  0.00    -0.016 A 
ATOM      7  C6  BZF d   1       0.786   2.405   1.066  0.00  0.00     0.022 A 
ATOM      8  C7  BZF d   1       0.692   1.065   0.883  0.00  0.00     0.029 A 
ATOM      9  C7A BZF d   1      -0.570   0.540   0.747  0.00  0.00     0.058 A 
ENDROOT
TORSDOF 0
ENDMDL
