MODEL 1
REMARK minimizedAffinity 2.04791403
REMARK minimizedRMSD -1
REMARK  0 active torsions:
REMARK  status: ('A' for Active; 'I' for Inactive)
ROOT
ATOM      1  O1  BZF d   1       0.219  -0.765   0.867  0.00  0.00    -0.204 OA
ATOM      2  C2  BZF d   1       1.362  -0.019   0.652  0.00  0.00     0.174 A 
ATOM      3  C3  BZF d   1       1.069   1.296   0.586  0.00  0.00    -0.012 A 
ATOM      4  C3A BZF d   1      -0.332   1.384   0.864  0.00  0.00    -0.107 A 
ATOM      5  C4  BZF d   1      -1.206   2.429   0.958  0.00  0.00     0.055 A 
ATOM      6  C5  BZF d   1      -2.523   2.170   1.170  0.00  0.00    -0.016 A 
ATOM      7  C6  BZF d   1      -3.001   0.881   1.287  0.00  0.00     0.022 A 
ATOM      8  C7  BZF d   1      -2.171  -0.187   1.206  0.00  0.00     0.029 A 
ATOM      9  C7A BZF d   1      -0.834   0.072   1.025  0.00  0.00     0.058 A 
ENDROOT
TORSDOF 0
ENDMDL
