MODEL 1
REMARK minimizedAffinity 9.8958931
REMARK minimizedRMSD -1
REMARK  0 active torsions:
REMARK  status: ('A' for Active; 'I' for Inactive)
ROOT
ATOM      1  O1  BZF d   1       2.180   0.795   0.351  0.00  0.00    -0.204 OA
ATOM      2  C2  BZF d   1       1.237  -0.001  -0.270  0.00  0.00     0.174 A 
ATOM      3  C3  BZF d   1      -0.005   0.307   0.156  0.00  0.00    -0.012 A 
ATOM      4  C3A BZF d   1       0.165   1.424   1.034  0.00  0.00    -0.107 A 
ATOM      5  C4  BZF d   1      -0.704   2.190   1.757  0.00  0.00     0.055 A 
ATOM      6  C5  BZF d   1      -0.210   3.159   2.571  0.00  0.00    -0.016 A 
ATOM      7  C6  BZF d   1       1.146   3.386   2.691  0.00  0.00     0.022 A 
ATOM      8  C7  BZF d   1       2.046   2.655   1.990  0.00  0.00     0.029 A 
ATOM      9  C7A BZF d   1       1.548   1.697   1.141  0.00  0.00     0.058 A 
ENDROOT
TORSDOF 0
ENDMDL
