MODEL 1
REMARK minimizedAffinity 1.13323629
REMARK minimizedRMSD -1
REMARK  0 active torsions:
REMARK  status: ('A' for Active; 'I' for Inactive)
ROOT
ATOM      1  O1  BZF d   1       2.459   1.283   1.127  0.00  0.00    -0.204 OA
ATOM      2  C2  BZF d   1       2.748   2.433   1.836  0.00  0.00     0.174 A 
ATOM      3  C3  BZF d   1       1.623   3.127   2.101  0.00  0.00    -0.012 A 
ATOM      4  C3A BZF d   1       0.554   2.318   1.601  0.00  0.00    -0.107 A 
ATOM      5  C4  BZF d   1      -0.804   2.462   1.583  0.00  0.00     0.055 A 
ATOM      6  C5  BZF d   1      -1.559   1.524   0.953  0.00  0.00    -0.016 A 
ATOM      7  C6  BZF d   1      -0.990   0.434   0.328  0.00  0.00     0.022 A 
ATOM      8  C7  BZF d   1       0.352   0.245   0.324  0.00  0.00     0.029 A 
ATOM      9  C7A BZF d   1       1.116   1.174   0.988  0.00  0.00     0.058 A 
ENDROOT
TORSDOF 0
ENDMDL
