MODEL 1
REMARK minimizedAffinity 10.7880421
REMARK minimizedRMSD -1
REMARK  0 active torsions:
REMARK  status: ('A' for Active; 'I' for Inactive)
ROOT
ATOM      1  O1  BZF d   1       2.530   1.186  -0.146  0.00  0.00    -0.204 OA
ATOM      2  C2  BZF d   1       1.393   0.616  -0.686  0.00  0.00     0.174 A 
ATOM      3  C3  BZF d   1       0.287   1.072  -0.064  0.00  0.00    -0.012 A 
ATOM      4  C3A BZF d   1       0.756   2.054   0.865  0.00  0.00    -0.107 A 
ATOM      5  C4  BZF d   1       0.131   2.871   1.763  0.00  0.00     0.055 A 
ATOM      6  C5  BZF d   1       0.884   3.661   2.572  0.00  0.00    -0.016 A 
ATOM      7  C6  BZF d   1       2.262   3.657   2.514  0.00  0.00     0.022 A 
ATOM      8  C7  BZF d   1       2.927   2.867   1.636  0.00  0.00     0.029 A 
ATOM      9  C7A BZF d   1       2.168   2.091   0.794  0.00  0.00     0.058 A 
ENDROOT
TORSDOF 0
ENDMDL
