MODEL 1
REMARK minimizedAffinity 0.0914889351
REMARK minimizedRMSD -1
REMARK  0 active torsions:
REMARK  status: ('A' for Active; 'I' for Inactive)
ROOT
ATOM      1  O1  BZF d   1       1.852   1.046   1.118  0.00  0.00    -0.204 OA
ATOM      2  C2  BZF d   1       2.077   2.381   1.394  0.00  0.00     0.174 A 
ATOM      3  C3  BZF d   1       0.925   3.081   1.344  0.00  0.00    -0.012 A 
ATOM      4  C3A BZF d   1      -0.096   2.108   1.107  0.00  0.00    -0.107 A 
ATOM      5  C4  BZF d   1      -1.453   2.185   0.973  0.00  0.00     0.055 A 
ATOM      6  C5  BZF d   1      -2.152   1.058   0.675  0.00  0.00    -0.016 A 
ATOM      7  C6  BZF d   1      -1.527  -0.159   0.499  0.00  0.00     0.022 A 
ATOM      8  C7  BZF d   1      -0.184  -0.286   0.627  0.00  0.00     0.029 A 
ATOM      9  C7A BZF d   1       0.521   0.844   0.961  0.00  0.00     0.058 A 
ENDROOT
TORSDOF 0
ENDMDL
