MODEL 1
REMARK minimizedAffinity 10.1754179
REMARK minimizedRMSD -1
REMARK  0 active torsions:
REMARK  status: ('A' for Active; 'I' for Inactive)
ROOT
ATOM      1  O1  BZF d   1      -1.563   3.153   0.689  0.00  0.00    -0.204 OA
ATOM      2  C2  BZF d   1      -0.184   3.082   0.663  0.00  0.00     0.174 A 
ATOM      3  C3  BZF d   1       0.230   1.800   0.729  0.00  0.00    -0.012 A 
ATOM      4  C3A BZF d   1      -0.967   1.016   0.707  0.00  0.00    -0.107 A 
ATOM      5  C4  BZF d   1      -1.210  -0.327   0.733  0.00  0.00     0.055 A 
ATOM      6  C5  BZF d   1      -2.496  -0.765   0.775  0.00  0.00    -0.016 A 
ATOM      7  C6  BZF d   1      -3.561   0.111   0.797  0.00  0.00     0.022 A 
ATOM      8  C7  BZF d   1      -3.370   1.453   0.768  0.00  0.00     0.029 A 
ATOM      9  C7A BZF d   1      -2.072   1.898   0.693  0.00  0.00     0.058 A 
ENDROOT
TORSDOF 0
ENDMDL
