MODEL 1
REMARK minimizedAffinity 1.81144989
REMARK minimizedRMSD -1
REMARK  0 active torsions:
REMARK  status: ('A' for Active; 'I' for Inactive)
ROOT
ATOM      1  O1  BZF d   1       1.347   3.347   4.238  0.00  0.00    -0.204 OA
ATOM      2  C2  BZF d   1       2.525   3.375   3.515  0.00  0.00     0.174 A 
ATOM      3  C3  BZF d   1       2.276   3.295   2.192  0.00  0.00    -0.012 A 
ATOM      4  C3A BZF d   1       0.850   3.305   2.076  0.00  0.00    -0.107 A 
ATOM      5  C4  BZF d   1      -0.005   3.263   1.012  0.00  0.00     0.055 A 
ATOM      6  C5  BZF d   1      -1.344   3.214   1.242  0.00  0.00    -0.016 A 
ATOM      7  C6  BZF d   1      -1.860   3.200   2.521  0.00  0.00     0.022 A 
ATOM      8  C7  BZF d   1      -1.052   3.245   3.608  0.00  0.00     0.029 A 
ATOM      9  C7A BZF d   1       0.300   3.328   3.378  0.00  0.00     0.058 A 
ENDROOT
TORSDOF 0
ENDMDL
