MODEL 1
REMARK minimizedAffinity 5.48008966
REMARK minimizedRMSD -1
REMARK  0 active torsions:
REMARK  status: ('A' for Active; 'I' for Inactive)
ROOT
ATOM      1  O1  BZF d   1       1.238  -1.205   0.247  0.00  0.00    -0.204 OA
ATOM      2  C2  BZF d   1       1.983  -0.119  -0.170  0.00  0.00     0.174 A 
ATOM      3  C3  BZF d   1       1.248   1.011  -0.124  0.00  0.00    -0.012 A 
ATOM      4  C3A BZF d   1      -0.008   0.621   0.438  0.00  0.00    -0.107 A 
ATOM      5  C4  BZF d   1      -1.150   1.302   0.749  0.00  0.00     0.055 A 
ATOM      6  C5  BZF d   1      -2.224   0.613   1.216  0.00  0.00    -0.016 A 
ATOM      7  C6  BZF d   1      -2.193  -0.756   1.380  0.00  0.00     0.022 A 
ATOM      8  C7  BZF d   1      -1.081  -1.475   1.090  0.00  0.00     0.029 A 
ATOM      9  C7A BZF d   1       0.017  -0.777   0.649  0.00  0.00     0.058 A 
ENDROOT
TORSDOF 0
ENDMDL
