MODEL 1
REMARK minimizedAffinity 4.41255331
REMARK minimizedRMSD -1
REMARK  0 active torsions:
REMARK  status: ('A' for Active; 'I' for Inactive)
ROOT
ATOM      1  O1  BZF d   1      -2.984  -5.998  -0.260  0.00  0.00    -0.204 OA
ATOM      2  C2  BZF d   1      -4.186  -5.685   0.346  0.00  0.00     0.174 A 
ATOM      3  C3  BZF d   1      -4.371  -4.350   0.381  0.00  0.00    -0.012 A 
ATOM      4  C3A BZF d   1      -3.256  -3.797  -0.325  0.00  0.00    -0.107 A 
ATOM      5  C4  BZF d   1      -2.884  -2.521  -0.641  0.00  0.00     0.055 A 
ATOM      6  C5  BZF d   1      -1.699  -2.317  -1.275  0.00  0.00    -0.016 A 
ATOM      7  C6  BZF d   1      -0.862  -3.363  -1.603  0.00  0.00     0.022 A 
ATOM      8  C7  BZF d   1      -1.190  -4.645  -1.315  0.00  0.00     0.029 A 
ATOM      9  C7A BZF d   1      -2.402  -4.858  -0.704  0.00  0.00     0.058 A 
ENDROOT
TORSDOF 0
ENDMDL
