MODEL 1
REMARK minimizedAffinity 8.76012039
REMARK minimizedRMSD -1
REMARK  0 active torsions:
REMARK  status: ('A' for Active; 'I' for Inactive)
ROOT
ATOM      1  O1  BZF d   1       1.552   0.790   1.159  0.00  0.00    -0.204 OA
ATOM      2  C2  BZF d   1       1.996   1.943   1.777  0.00  0.00     0.174 A 
ATOM      3  C3  BZF d   1       0.975   2.801   1.978  0.00  0.00    -0.012 A 
ATOM      4  C3A BZF d   1      -0.195   2.105   1.538  0.00  0.00    -0.107 A 
ATOM      5  C4  BZF d   1      -1.521   2.428   1.499  0.00  0.00     0.055 A 
ATOM      6  C5  BZF d   1      -2.398   1.553   0.941  0.00  0.00    -0.016 A 
ATOM      7  C6  BZF d   1      -1.983   0.350   0.408  0.00  0.00     0.022 A 
ATOM      8  C7  BZF d   1      -0.679  -0.017   0.428  0.00  0.00     0.029 A 
ATOM      9  C7A BZF d   1       0.206   0.851   1.021  0.00  0.00     0.058 A 
ENDROOT
TORSDOF 0
ENDMDL
