MODEL 1
REMARK minimizedAffinity 3.89947653
REMARK minimizedRMSD -1
REMARK  0 active torsions:
REMARK  status: ('A' for Active; 'I' for Inactive)
ROOT
ATOM      1  O1  BZF d   1       1.002   0.045   1.229  0.00  0.00    -0.204 OA
ATOM      2  C2  BZF d   1       1.797   1.171   1.334  0.00  0.00     0.174 A 
ATOM      3  C3  BZF d   1       1.084   2.285   1.073  0.00  0.00    -0.012 A 
ATOM      4  C3A BZF d   1      -0.260   1.835   0.876  0.00  0.00    -0.107 A 
ATOM      5  C4  BZF d   1      -1.434   2.476   0.600  0.00  0.00     0.055 A 
ATOM      6  C5  BZF d   1      -2.557   1.739   0.396  0.00  0.00    -0.016 A 
ATOM      7  C6  BZF d   1      -2.541   0.361   0.457  0.00  0.00     0.022 A 
ATOM      8  C7  BZF d   1      -1.402  -0.319   0.733  0.00  0.00     0.029 A 
ATOM      9  C7A BZF d   1      -0.272   0.424   0.972  0.00  0.00     0.058 A 
ENDROOT
TORSDOF 0
ENDMDL
