MODEL 1
REMARK minimizedAffinity 5.20332432
REMARK minimizedRMSD -1
REMARK  0 active torsions:
REMARK  status: ('A' for Active; 'I' for Inactive)
ROOT
ATOM      1  O1  BZF d   1       3.058   2.139   1.800  0.00  0.00    -0.204 OA
ATOM      2  C2  BZF d   1       3.132   3.110   2.780  0.00  0.00     0.174 A 
ATOM      3  C3  BZF d   1       1.919   3.655   3.006  0.00  0.00    -0.012 A 
ATOM      4  C3A BZF d   1       1.015   2.917   2.178  0.00  0.00    -0.107 A 
ATOM      5  C4  BZF d   1      -0.334   2.977   1.974  0.00  0.00     0.055 A 
ATOM      6  C5  BZF d   1      -0.898   2.164   1.043  0.00  0.00    -0.016 A 
ATOM      7  C6  BZF d   1      -0.144   1.284   0.295  0.00  0.00     0.022 A 
ATOM      8  C7  BZF d   1       1.196   1.184   0.465  0.00  0.00     0.029 A 
ATOM      9  C7A BZF d   1       1.765   1.981   1.428  0.00  0.00     0.058 A 
ENDROOT
TORSDOF 0
ENDMDL
