MODEL 1
REMARK minimizedAffinity -2.5189724
REMARK minimizedRMSD -1
REMARK  0 active torsions:
REMARK  status: ('A' for Active; 'I' for Inactive)
ROOT
ATOM      1  O1  BZF d   1       2.090   1.577   1.595  0.00  0.00    -0.204 OA
ATOM      2  C2  BZF d   1       2.224   2.904   1.954  0.00  0.00     0.174 A 
ATOM      3  C3  BZF d   1       1.051   3.556   1.824  0.00  0.00    -0.012 A 
ATOM      4  C3A BZF d   1       0.103   2.553   1.445  0.00  0.00    -0.107 A 
ATOM      5  C4  BZF d   1      -1.237   2.579   1.183  0.00  0.00     0.055 A 
ATOM      6  C5  BZF d   1      -1.850   1.441   0.766  0.00  0.00    -0.016 A 
ATOM      7  C6  BZF d   1      -1.154   0.262   0.595  0.00  0.00     0.022 A 
ATOM      8  C7  BZF d   1       0.175   0.186   0.847  0.00  0.00     0.029 A 
ATOM      9  C7A BZF d   1       0.791   1.327   1.300  0.00  0.00     0.058 A 
ENDROOT
TORSDOF 0
ENDMDL
