MODEL 1
REMARK minimizedAffinity 8.87980938
REMARK minimizedRMSD -1
REMARK  0 active torsions:
REMARK  status: ('A' for Active; 'I' for Inactive)
ROOT
ATOM      1  O1  BZF d   1      -1.138   3.193   0.461  0.00  0.00    -0.204 OA
ATOM      2  C2  BZF d   1      -1.155   2.371  -0.650  0.00  0.00     0.174 A 
ATOM      3  C3  BZF d   1      -1.548   1.125  -0.318  0.00  0.00    -0.012 A 
ATOM      4  C3A BZF d   1      -1.882   1.193   1.072  0.00  0.00    -0.107 A 
ATOM      5  C4  BZF d   1      -2.352   0.279   1.971  0.00  0.00     0.055 A 
ATOM      6  C5  BZF d   1      -2.503   0.648   3.270  0.00  0.00    -0.016 A 
ATOM      7  C6  BZF d   1      -2.191   1.919   3.705  0.00  0.00     0.022 A 
ATOM      8  C7  BZF d   1      -1.726   2.862   2.850  0.00  0.00     0.029 A 
ATOM      9  C7A BZF d   1      -1.603   2.502   1.530  0.00  0.00     0.058 A 
ENDROOT
TORSDOF 0
ENDMDL
