MODEL 1
REMARK minimizedAffinity 8.01440811
REMARK minimizedRMSD -1
REMARK  0 active torsions:
REMARK  status: ('A' for Active; 'I' for Inactive)
ROOT
ATOM      1  O1  BZF d   1       1.926   1.721   1.248  0.00  0.00    -0.204 OA
ATOM      2  C2  BZF d   1       2.627   0.623   0.788  0.00  0.00     0.174 A 
ATOM      3  C3  BZF d   1       1.783  -0.333   0.349  0.00  0.00    -0.012 A 
ATOM      4  C3A BZF d   1       0.476   0.238   0.461  0.00  0.00    -0.107 A 
ATOM      5  C4  BZF d   1      -0.776  -0.219   0.166  0.00  0.00     0.055 A 
ATOM      6  C5  BZF d   1      -1.850   0.559   0.463  0.00  0.00    -0.016 A 
ATOM      7  C6  BZF d   1      -1.709   1.795   1.060  0.00  0.00     0.022 A 
ATOM      8  C7  BZF d   1      -0.486   2.293   1.368  0.00  0.00     0.029 A 
ATOM      9  C7A BZF d   1       0.603   1.523   1.038  0.00  0.00     0.058 A 
ENDROOT
TORSDOF 0
ENDMDL
