MODEL 1
REMARK minimizedAffinity 3.44796085
REMARK minimizedRMSD -1
REMARK  0 active torsions:
REMARK  status: ('A' for Active; 'I' for Inactive)
ROOT
ATOM      1  O1  BZF d   1       2.021   1.337  -0.007  0.00  0.00    -0.204 OA
ATOM      2  C2  BZF d   1       2.875   0.864  -0.984  0.00  0.00     0.174 A 
ATOM      3  C3  BZF d   1       4.130   1.318  -0.784  0.00  0.00    -0.012 A 
ATOM      4  C3A BZF d   1       4.074   2.049   0.445  0.00  0.00    -0.107 A 
ATOM      5  C4  BZF d   1       5.006   2.724   1.179  0.00  0.00     0.055 A 
ATOM      6  C5  BZF d   1       4.612   3.393   2.294  0.00  0.00    -0.016 A 
ATOM      7  C6  BZF d   1       3.294   3.412   2.701  0.00  0.00     0.022 A 
ATOM      8  C7  BZF d   1       2.333   2.753   2.008  0.00  0.00     0.029 A 
ATOM      9  C7A BZF d   1       2.734   2.049   0.899  0.00  0.00     0.058 A 
ENDROOT
TORSDOF 0
ENDMDL
