MODEL 1
REMARK minimizedAffinity 7.68608379
REMARK minimizedRMSD -1
REMARK  0 active torsions:
REMARK  status: ('A' for Active; 'I' for Inactive)
ROOT
ATOM      1  O1  BZF d   1      -1.556   3.134   1.264  0.00  0.00    -0.204 OA
ATOM      2  C2  BZF d   1      -0.256   3.570   1.434  0.00  0.00     0.174 A 
ATOM      3  C3  BZF d   1       0.619   2.572   1.197  0.00  0.00    -0.012 A 
ATOM      4  C3A BZF d   1      -0.181   1.465   0.767  0.00  0.00    -0.107 A 
ATOM      5  C4  BZF d   1       0.113   0.192   0.372  0.00  0.00     0.055 A 
ATOM      6  C5  BZF d   1      -0.904  -0.663   0.086  0.00  0.00    -0.016 A 
ATOM      7  C6  BZF d   1      -2.225  -0.279   0.190  0.00  0.00     0.022 A 
ATOM      8  C7  BZF d   1      -2.566   0.975   0.574  0.00  0.00     0.029 A 
ATOM      9  C7A BZF d   1      -1.540   1.851   0.831  0.00  0.00     0.058 A 
ENDROOT
TORSDOF 0
ENDMDL
