MODEL 1
REMARK minimizedAffinity -2.85000157
REMARK minimizedRMSD -1
REMARK  2 active torsions:
REMARK  status: ('A' for Active; 'I' for Inactive)
REMARK    1  A    between atoms: C2'_3  and  C1'_4 
REMARK    2  A    between atoms: C1'_4  and  C1_5 
ROOT
ATOM      1  C1  I4B d   1      -0.057   0.540   0.635  0.00  0.00    -0.075 A 
ATOM      2  C2  I4B d   1      -1.117  -0.212   0.193  0.00  0.00     0.003 A 
ATOM      3  C3  I4B d   1      -1.543  -1.344   0.929  0.00  0.00     0.002 A 
ATOM      4  C4  I4B d   1      -0.854  -1.715   2.065  0.00  0.00    -0.004 A 
ATOM      5  C5  I4B d   1       0.206  -0.939   2.524  0.00  0.00     0.002 A 
ATOM      6  C6  I4B d   1       0.600   0.203   1.812  0.00  0.00     0.003 A 
ENDROOT
BRANCH   1   7
ATOM      7  C1' I4B d   1       0.388   1.710  -0.184  0.00  0.00     0.060 C 
BRANCH   7   8
ATOM      8  C2' I4B d   1       1.369   2.515   0.645  0.00  0.00    -0.013 C 
ATOM      9  C4' I4B d   1       2.503   3.030  -0.200  0.00  0.00     0.013 C 
ATOM     10  C3' I4B d   1       0.616   3.642   1.288  0.00  0.00     0.013 C 
ENDBRANCH   7   8
ENDBRANCH   1   7
TORSDOF 2
ENDMDL
