MODEL 1
REMARK minimizedAffinity -2.55566382
REMARK minimizedRMSD -1
REMARK  2 active torsions:
REMARK  status: ('A' for Active; 'I' for Inactive)
REMARK    1  A    between atoms: C2'_3  and  C1'_4 
REMARK    2  A    between atoms: C1'_4  and  C1_5 
ROOT
ATOM      1  C1  I4B d   1      -0.078   0.999   0.065  0.00  0.00    -0.075 A 
ATOM      2  C2  I4B d   1      -0.349   0.996   1.410  0.00  0.00     0.003 A 
ATOM      3  C3  I4B d   1      -0.652  -0.219   2.073  0.00  0.00     0.002 A 
ATOM      4  C4  I4B d   1      -0.721  -1.390   1.347  0.00  0.00    -0.004 A 
ATOM      5  C5  I4B d   1      -0.423  -1.388  -0.013  0.00  0.00     0.002 A 
ATOM      6  C6  I4B d   1      -0.087  -0.188  -0.656  0.00  0.00     0.003 A 
ENDROOT
BRANCH   1   7
ATOM      7  C1' I4B d   1       0.206   2.304  -0.610  0.00  0.00     0.060 C 
BRANCH   7   8
ATOM      8  C2' I4B d   1       1.182   3.075   0.255  0.00  0.00    -0.013 C 
ATOM      9  C4' I4B d   1       2.377   3.528  -0.542  0.00  0.00     0.013 C 
ATOM     10  C3' I4B d   1       0.453   4.242   0.850  0.00  0.00     0.013 C 
ENDBRANCH   7   8
ENDBRANCH   1   7
TORSDOF 2
ENDMDL
