MODEL 1
REMARK minimizedAffinity -2.28769135
REMARK minimizedRMSD -1
REMARK  2 active torsions:
REMARK  status: ('A' for Active; 'I' for Inactive)
REMARK    1  A    between atoms: C2'_3  and  C1'_4 
REMARK    2  A    between atoms: C1'_4  and  C1_5 
ROOT
ATOM      1  C1  I4B d   1       0.119   0.386   0.102  0.00  0.00    -0.075 A 
ATOM      2  C2  I4B d   1      -0.136  -0.527  -0.890  0.00  0.00     0.003 A 
ATOM      3  C3  I4B d   1      -0.738  -1.770  -0.577  0.00  0.00     0.002 A 
ATOM      4  C4  I4B d   1      -1.020  -2.076   0.738  0.00  0.00    -0.004 A 
ATOM      5  C5  I4B d   1      -0.782  -1.140   1.740  0.00  0.00     0.002 A 
ATOM      6  C6  I4B d   1      -0.221   0.104   1.419  0.00  0.00     0.003 A 
ENDROOT
BRANCH   1   7
ATOM      7  C1' I4B d   1       0.785   1.676  -0.259  0.00  0.00     0.060 C 
BRANCH   7   8
ATOM      8  C2' I4B d   1       0.610   2.633   0.902  0.00  0.00    -0.013 C 
ATOM      9  C4' I4B d   1       1.836   3.487   1.095  0.00  0.00     0.013 C 
ATOM     10  C3' I4B d   1      -0.599   3.477   0.628  0.00  0.00     0.013 C 
ENDBRANCH   7   8
ENDBRANCH   1   7
TORSDOF 2
ENDMDL
