MODEL 1
REMARK minimizedAffinity -4.04490232
REMARK minimizedRMSD -1
REMARK  2 active torsions:
REMARK  status: ('A' for Active; 'I' for Inactive)
REMARK    1  A    between atoms: C2'_3  and  C1'_4 
REMARK    2  A    between atoms: C1'_4  and  C1_5 
ROOT
ATOM      1  C1  I4B d   1       0.197   0.295   0.355  0.00  0.00    -0.075 A 
ATOM      2  C2  I4B d   1       0.733   0.145   1.610  0.00  0.00     0.003 A 
ATOM      3  C3  I4B d   1       0.383  -0.973   2.406  0.00  0.00     0.002 A 
ATOM      4  C4  I4B d   1      -0.539  -1.883   1.931  0.00  0.00    -0.004 A 
ATOM      5  C5  I4B d   1      -1.064  -1.742   0.650  0.00  0.00     0.002 A 
ATOM      6  C6  I4B d   1      -0.685  -0.653  -0.148  0.00  0.00     0.003 A 
ENDROOT
BRANCH   1   7
ATOM      7  C1' I4B d   1       0.563   1.504  -0.445  0.00  0.00     0.060 C 
BRANCH   7   8
ATOM      8  C2' I4B d   1       1.151   2.530   0.502  0.00  0.00    -0.013 C 
ATOM      9  C4' I4B d   1       2.477   3.039  -0.000  0.00  0.00     0.013 C 
ATOM     10  C3' I4B d   1       0.162   3.648   0.647  0.00  0.00     0.013 C 
ENDBRANCH   7   8
ENDBRANCH   1   7
TORSDOF 2
ENDMDL
