MODEL 1
REMARK minimizedAffinity -4.15730429
REMARK minimizedRMSD -1
REMARK  2 active torsions:
REMARK  status: ('A' for Active; 'I' for Inactive)
REMARK    1  A    between atoms: C2'_3  and  C1'_4 
REMARK    2  A    between atoms: C1'_4  and  C1_5 
ROOT
ATOM      1  C1  I4B d   1       1.206   1.119   0.723  0.00  0.00    -0.075 A 
ATOM      2  C2  I4B d   1       0.176   1.826   0.156  0.00  0.00     0.003 A 
ATOM      3  C3  I4B d   1       0.191   3.242   0.169  0.00  0.00     0.002 A 
ATOM      4  C4  I4B d   1       1.223   3.905   0.799  0.00  0.00    -0.004 A 
ATOM      5  C5  I4B d   1       2.279   3.187   1.354  0.00  0.00     0.002 A 
ATOM      6  C6  I4B d   1       2.277   1.785   1.305  0.00  0.00     0.003 A 
ENDROOT
BRANCH   1   7
ATOM      7  C1' I4B d   1       1.142  -0.376   0.721  0.00  0.00     0.060 C 
BRANCH   7   8
ATOM      8  C2' I4B d   1      -0.256  -0.782   0.301  0.00  0.00    -0.013 C 
ATOM      9  C4' I4B d   1      -0.234  -1.556  -0.991  0.00  0.00     0.013 C 
ATOM     10  C3' I4B d   1      -0.854  -1.596   1.410  0.00  0.00     0.013 C 
ENDBRANCH   7   8
ENDBRANCH   1   7
TORSDOF 2
ENDMDL
