MODEL 1
REMARK minimizedAffinity -5.55227995
REMARK minimizedRMSD -1
REMARK  2 active torsions:
REMARK  status: ('A' for Active; 'I' for Inactive)
REMARK    1  A    between atoms: C2'_3  and  C1'_4 
REMARK    2  A    between atoms: C1'_4  and  C1_5 
ROOT
ATOM      1  C1  I4B d   1       0.316   0.990   0.026  0.00  0.00    -0.075 A 
ATOM      2  C2  I4B d   1       1.522   1.236   0.633  0.00  0.00     0.003 A 
ATOM      3  C3  I4B d   1       1.950   2.568   0.855  0.00  0.00     0.002 A 
ATOM      4  C4  I4B d   1       1.169   3.615   0.411  0.00  0.00    -0.004 A 
ATOM      5  C5  I4B d   1      -0.064   3.364  -0.184  0.00  0.00     0.002 A 
ATOM      6  C6  I4B d   1      -0.499   2.044  -0.367  0.00  0.00     0.003 A 
ENDROOT
BRANCH   1   7
ATOM      7  C1' I4B d   1      -0.089  -0.428  -0.223  0.00  0.00     0.060 C 
BRANCH   7   8
ATOM      8  C2' I4B d   1      -0.941  -0.881   0.945  0.00  0.00    -0.013 C 
ATOM      9  C4' I4B d   1      -2.320  -0.280   0.880  0.00  0.00     0.013 C 
ATOM     10  C3' I4B d   1      -1.002  -2.379   0.920  0.00  0.00     0.013 C 
ENDBRANCH   7   8
ENDBRANCH   1   7
TORSDOF 2
ENDMDL
