MODEL 1
REMARK minimizedAffinity -2.87357473
REMARK minimizedRMSD -1
REMARK  2 active torsions:
REMARK  status: ('A' for Active; 'I' for Inactive)
REMARK    1  A    between atoms: C2'_3  and  C1'_4 
REMARK    2  A    between atoms: C1'_4  and  C1_5 
ROOT
ATOM      1  C1  I4B d   1      -0.012   0.510   0.312  0.00  0.00    -0.075 A 
ATOM      2  C2  I4B d   1       0.582   0.311   1.533  0.00  0.00     0.003 A 
ATOM      3  C3  I4B d   1       0.135  -0.731   2.381  0.00  0.00     0.002 A 
ATOM      4  C4  I4B d   1      -0.934  -1.513   1.993  0.00  0.00    -0.004 A 
ATOM      5  C5  I4B d   1      -1.520  -1.324   0.744  0.00  0.00     0.002 A 
ATOM      6  C6  I4B d   1      -1.048  -0.314  -0.107  0.00  0.00     0.003 A 
ENDROOT
BRANCH   1   7
ATOM      7  C1' I4B d   1       0.463   1.641  -0.545  0.00  0.00     0.060 C 
BRANCH   7   8
ATOM      8  C2' I4B d   1       1.090   2.681   0.361  0.00  0.00    -0.013 C 
ATOM      9  C4' I4B d   1       2.447   3.095  -0.142  0.00  0.00     0.013 C 
ATOM     10  C3' I4B d   1       0.158   3.854   0.433  0.00  0.00     0.013 C 
ENDBRANCH   7   8
ENDBRANCH   1   7
TORSDOF 2
ENDMDL
