MODEL 1
REMARK minimizedAffinity -3.43412685
REMARK minimizedRMSD -1
REMARK  2 active torsions:
REMARK  status: ('A' for Active; 'I' for Inactive)
REMARK    1  A    between atoms: C2'_3  and  C1'_4 
REMARK    2  A    between atoms: C1'_4  and  C1_5 
ROOT
ATOM      1  C1  I4B d   1      -0.118   0.932   0.345  0.00  0.00    -0.075 A 
ATOM      2  C2  I4B d   1      -0.124   2.199  -0.182  0.00  0.00     0.003 A 
ATOM      3  C3  I4B d   1       0.722   3.200   0.355  0.00  0.00     0.002 A 
ATOM      4  C4  I4B d   1       1.515   2.905   1.445  0.00  0.00    -0.004 A 
ATOM      5  C5  I4B d   1       1.537   1.614   1.965  0.00  0.00     0.002 A 
ATOM      6  C6  I4B d   1       0.725   0.618   1.404  0.00  0.00     0.003 A 
ENDROOT
BRANCH   1   7
ATOM      7  C1' I4B d   1      -1.048  -0.091  -0.225  0.00  0.00     0.060 C 
BRANCH   7   8
ATOM      8  C2' I4B d   1      -0.310  -1.413  -0.280  0.00  0.00    -0.013 C 
ATOM      9  C4' I4B d   1      -0.986  -2.450   0.577  0.00  0.00     0.013 C 
ATOM     10  C3' I4B d   1      -0.250  -1.850  -1.713  0.00  0.00     0.013 C 
ENDBRANCH   7   8
ENDBRANCH   1   7
TORSDOF 2
ENDMDL
