MODEL 1
REMARK minimizedAffinity -2.13115621
REMARK minimizedRMSD -1
REMARK  2 active torsions:
REMARK  status: ('A' for Active; 'I' for Inactive)
REMARK    1  A    between atoms: C2'_3  and  C1'_4 
REMARK    2  A    between atoms: C1'_4  and  C1_5 
ROOT
ATOM      1  C1  I4B d   1      -0.323   0.206  -0.275  0.00  0.00    -0.075 A 
ATOM      2  C2  I4B d   1      -0.763  -0.042   1.001  0.00  0.00     0.003 A 
ATOM      3  C3  I4B d   1      -1.004  -1.371   1.427  0.00  0.00     0.002 A 
ATOM      4  C4  I4B d   1      -0.841  -2.410   0.535  0.00  0.00    -0.004 A 
ATOM      5  C5  I4B d   1      -0.373  -2.160  -0.752  0.00  0.00     0.002 A 
ATOM      6  C6  I4B d   1      -0.100  -0.845  -1.156  0.00  0.00     0.003 A 
ENDROOT
BRANCH   1   7
ATOM      7  C1' I4B d   1      -0.110   1.623  -0.702  0.00  0.00     0.060 C 
BRANCH   7   8
ATOM      8  C2' I4B d   1       0.762   2.298   0.337  0.00  0.00    -0.013 C 
ATOM      9  C4' I4B d   1       2.050   2.791  -0.268  0.00  0.00     0.013 C 
ATOM     10  C3' I4B d   1      -0.021   3.427   0.938  0.00  0.00     0.013 C 
ENDBRANCH   7   8
ENDBRANCH   1   7
TORSDOF 2
ENDMDL
