MODEL 1
REMARK minimizedAffinity -4.12007856
REMARK minimizedRMSD -1
REMARK  2 active torsions:
REMARK  status: ('A' for Active; 'I' for Inactive)
REMARK    1  A    between atoms: C2'_3  and  C1'_4 
REMARK    2  A    between atoms: C1'_4  and  C1_5 
ROOT
ATOM      1  C1  I4B d   1       0.139   1.441   0.585  0.00  0.00    -0.075 A 
ATOM      2  C2  I4B d   1       0.374   0.930   1.838  0.00  0.00     0.003 A 
ATOM      3  C3  I4B d   1       0.016  -0.406   2.141  0.00  0.00     0.002 A 
ATOM      4  C4  I4B d   1      -0.615  -1.174   1.184  0.00  0.00    -0.004 A 
ATOM      5  C5  I4B d   1      -0.832  -0.662  -0.092  0.00  0.00     0.002 A 
ATOM      6  C6  I4B d   1      -0.441   0.650  -0.398  0.00  0.00     0.003 A 
ENDROOT
BRANCH   1   7
ATOM      7  C1' I4B d   1       0.499   2.867   0.310  0.00  0.00     0.060 C 
BRANCH   7   8
ATOM      8  C2' I4B d   1       1.936   3.077   0.742  0.00  0.00    -0.013 C 
ATOM      9  C4' I4B d   1       2.851   3.199  -0.449  0.00  0.00     0.013 C 
ATOM     10  C3' I4B d   1       1.988   4.310   1.593  0.00  0.00     0.013 C 
ENDBRANCH   7   8
ENDBRANCH   1   7
TORSDOF 2
ENDMDL
