MODEL 1
REMARK minimizedAffinity -4.10264063
REMARK minimizedRMSD -1
REMARK  2 active torsions:
REMARK  status: ('A' for Active; 'I' for Inactive)
REMARK    1  A    between atoms: C2'_3  and  C1'_4 
REMARK    2  A    between atoms: C1'_4  and  C1_5 
ROOT
ATOM      1  C1  I4B d   1      -0.485   0.426   0.458  0.00  0.00    -0.075 A 
ATOM      2  C2  I4B d   1      -0.262  -0.313  -0.677  0.00  0.00     0.003 A 
ATOM      3  C3  I4B d   1      -0.558  -1.698  -0.696  0.00  0.00     0.002 A 
ATOM      4  C4  I4B d   1      -1.025  -2.308   0.450  0.00  0.00    -0.004 A 
ATOM      5  C5  I4B d   1      -1.272  -1.553   1.593  0.00  0.00     0.002 A 
ATOM      6  C6  I4B d   1      -1.012  -0.175   1.594  0.00  0.00     0.003 A 
ENDROOT
BRANCH   1   7
ATOM      7  C1' I4B d   1      -0.130   1.879   0.453  0.00  0.00     0.060 C 
BRANCH   7   8
ATOM      8  C2' I4B d   1       1.345   2.000   0.779  0.00  0.00    -0.013 C 
ATOM      9  C4' I4B d   1       1.747   3.441   0.957  0.00  0.00     0.013 C 
ATOM     10  C3' I4B d   1       1.611   1.206   2.023  0.00  0.00     0.013 C 
ENDBRANCH   7   8
ENDBRANCH   1   7
TORSDOF 2
ENDMDL
