MODEL 1
REMARK minimizedAffinity -2.35065055
REMARK minimizedRMSD -1
REMARK  2 active torsions:
REMARK  status: ('A' for Active; 'I' for Inactive)
REMARK    1  A    between atoms: C2'_3  and  C1'_4 
REMARK    2  A    between atoms: C1'_4  and  C1_5 
ROOT
ATOM      1  C1  I4B d   1      -0.205   0.807   0.367  0.00  0.00    -0.075 A 
ATOM      2  C2  I4B d   1      -1.488   0.541   0.775  0.00  0.00     0.003 A 
ATOM      3  C3  I4B d   1      -1.899  -0.793   1.012  0.00  0.00     0.002 A 
ATOM      4  C4  I4B d   1      -1.014  -1.827   0.783  0.00  0.00    -0.004 A 
ATOM      5  C5  I4B d   1       0.293  -1.554   0.392  0.00  0.00     0.002 A 
ATOM      6  C6  I4B d   1       0.705  -0.228   0.194  0.00  0.00     0.003 A 
ENDROOT
BRANCH   1   7
ATOM      7  C1' I4B d   1       0.185   2.225   0.094  0.00  0.00     0.060 C 
BRANCH   7   8
ATOM      8  C2' I4B d   1       1.593   2.430   0.615  0.00  0.00    -0.013 C 
ATOM      9  C4' I4B d   1       2.580   2.560  -0.515  0.00  0.00     0.013 C 
ATOM     10  C3' I4B d   1       1.593   3.658   1.477  0.00  0.00     0.013 C 
ENDBRANCH   7   8
ENDBRANCH   1   7
TORSDOF 2
ENDMDL
