MODEL 1
REMARK minimizedAffinity -3.34951544
REMARK minimizedRMSD -1
REMARK  2 active torsions:
REMARK  status: ('A' for Active; 'I' for Inactive)
REMARK    1  A    between atoms: C2'_3  and  C1'_4 
REMARK    2  A    between atoms: C1'_4  and  C1_5 
ROOT
ATOM      1  C1  I4B d   1       0.459   0.837   0.463  0.00  0.00    -0.075 A 
ATOM      2  C2  I4B d   1       0.451  -0.152   1.414  0.00  0.00     0.003 A 
ATOM      3  C3  I4B d   1      -0.774  -0.722   1.840  0.00  0.00     0.002 A 
ATOM      4  C4  I4B d   1      -1.961  -0.240   1.328  0.00  0.00    -0.004 A 
ATOM      5  C5  I4B d   1      -1.949   0.748   0.347  0.00  0.00     0.002 A 
ATOM      6  C6  I4B d   1      -0.731   1.281  -0.097  0.00  0.00     0.003 A 
ENDROOT
BRANCH   1   7
ATOM      7  C1' I4B d   1       1.768   1.439   0.062  0.00  0.00     0.060 C 
BRANCH   7   8
ATOM      8  C2' I4B d   1       1.689   2.933   0.303  0.00  0.00    -0.013 C 
ATOM      9  C4' I4B d   1       1.790   3.254   1.771  0.00  0.00     0.013 C 
ATOM     10  C3' I4B d   1       2.794   3.587  -0.472  0.00  0.00     0.013 C 
ENDBRANCH   7   8
ENDBRANCH   1   7
TORSDOF 2
ENDMDL
