MODEL 1
REMARK minimizedAffinity -5.06660604
REMARK minimizedRMSD -1
REMARK  2 active torsions:
REMARK  status: ('A' for Active; 'I' for Inactive)
REMARK    1  A    between atoms: C2'_3  and  C1'_4 
REMARK    2  A    between atoms: C1'_4  and  C1_5 
ROOT
ATOM      1  C1  I4B d   1       0.061   0.415   0.139  0.00  0.00    -0.075 A 
ATOM      2  C2  I4B d   1       0.753   0.180   1.301  0.00  0.00     0.003 A 
ATOM      3  C3  I4B d   1       0.546  -1.019   2.024  0.00  0.00     0.002 A 
ATOM      4  C4  I4B d   1      -0.394  -1.927   1.580  0.00  0.00    -0.004 A 
ATOM      5  C5  I4B d   1      -1.078  -1.698   0.390  0.00  0.00     0.002 A 
ATOM      6  C6  I4B d   1      -0.841  -0.525  -0.342  0.00  0.00     0.003 A 
ENDROOT
BRANCH   1   7
ATOM      7  C1' I4B d   1       0.280   1.707  -0.582  0.00  0.00     0.060 C 
BRANCH   7   8
ATOM      8  C2' I4B d   1       0.912   2.683   0.389  0.00  0.00    -0.013 C 
ATOM      9  C4' I4B d   1       2.265   3.133  -0.093  0.00  0.00     0.013 C 
ATOM     10  C3' I4B d   1      -0.021   3.846   0.549  0.00  0.00     0.013 C 
ENDBRANCH   7   8
ENDBRANCH   1   7
TORSDOF 2
ENDMDL
