MODEL 1
REMARK minimizedAffinity -2.30292463
REMARK minimizedRMSD -1
REMARK  2 active torsions:
REMARK  status: ('A' for Active; 'I' for Inactive)
REMARK    1  A    between atoms: C2'_3  and  C1'_4 
REMARK    2  A    between atoms: C1'_4  and  C1_5 
ROOT
ATOM      1  C1  I4B d   1      -0.083   1.976   0.006  0.00  0.00    -0.075 A 
ATOM      2  C2  I4B d   1       1.071   1.866   0.740  0.00  0.00     0.003 A 
ATOM      3  C3  I4B d   1       2.019   2.918   0.741  0.00  0.00     0.002 A 
ATOM      4  C4  I4B d   1       1.797   4.033  -0.041  0.00  0.00    -0.004 A 
ATOM      5  C5  I4B d   1       0.616   4.153  -0.767  0.00  0.00     0.002 A 
ATOM      6  C6  I4B d   1      -0.336   3.124  -0.734  0.00  0.00     0.003 A 
ENDROOT
BRANCH   1   7
ATOM      7  C1' I4B d   1      -1.047   0.833   0.002  0.00  0.00     0.060 C 
BRANCH   7   8
ATOM      8  C2' I4B d   1      -0.281  -0.425   0.357  0.00  0.00    -0.013 C 
ATOM      9  C4' I4B d   1      -0.832  -1.066   1.604  0.00  0.00     0.013 C 
ATOM     10  C3' I4B d   1      -0.358  -1.361  -0.812  0.00  0.00     0.013 C 
ENDBRANCH   7   8
ENDBRANCH   1   7
TORSDOF 2
ENDMDL
