MODEL 1
REMARK minimizedAffinity -4.23336697
REMARK minimizedRMSD -1
REMARK  2 active torsions:
REMARK  status: ('A' for Active; 'I' for Inactive)
REMARK    1  A    between atoms: C2'_3  and  C1'_4 
REMARK    2  A    between atoms: C1'_4  and  C1_5 
ROOT
ATOM      1  C1  I4B d   1       0.157   0.118   0.964  0.00  0.00    -0.075 A 
ATOM      2  C2  I4B d   1      -0.908   0.486   1.748  0.00  0.00     0.003 A 
ATOM      3  C3  I4B d   1      -1.988  -0.409   1.948  0.00  0.00     0.002 A 
ATOM      4  C4  I4B d   1      -1.984  -1.632   1.309  0.00  0.00    -0.004 A 
ATOM      5  C5  I4B d   1      -0.893  -2.012   0.533  0.00  0.00     0.002 A 
ATOM      6  C6  I4B d   1       0.191  -1.136   0.369  0.00  0.00     0.003 A 
ENDROOT
BRANCH   1   7
ATOM      7  C1' I4B d   1       1.265   1.100   0.747  0.00  0.00     0.060 C 
BRANCH   7   8
ATOM      8  C2' I4B d   1       0.655   2.382   0.216  0.00  0.00    -0.013 C 
ATOM      9  C4' I4B d   1       1.652   3.510   0.240  0.00  0.00     0.013 C 
ATOM     10  C3' I4B d   1       0.167   2.120  -1.177  0.00  0.00     0.013 C 
ENDBRANCH   7   8
ENDBRANCH   1   7
TORSDOF 2
ENDMDL
