MODEL 1
REMARK minimizedAffinity 12.4522533
REMARK minimizedRMSD -1
REMARK  1 active torsions:
REMARK  status: ('A' for Active; 'I' for Inactive)
REMARK    1  A    between atoms: C1_2  and  C2_3 
ROOT
ATOM      1  C2  UNL d   1      -1.552  -3.705  -4.889  0.00  0.00    -0.081 A 
ATOM      2  C3  UNL d   1      -0.913  -3.139  -5.999  0.00  0.00     0.006 A 
ATOM      3  C4  UNL d   1      -0.311  -1.882  -5.905  0.00  0.00     0.002 A 
ATOM      4  C5  UNL d   1      -0.330  -1.174  -4.698  0.00  0.00    -0.080 A 
ATOM      5  C6  UNL d   1       0.339   0.162  -4.575  0.00  0.00     0.076 C 
ATOM      6  C7  UNL d   1      -0.983  -1.732  -3.594  0.00  0.00     0.002 A 
ATOM      7  C8  UNL d   1      -1.586  -2.989  -3.688  0.00  0.00     0.006 A 
ENDROOT
BRANCH   1   8
ATOM      8  C1  UNL d   1      -2.146  -5.088  -4.970  0.00  0.00     0.054 C 
ATOM      9  C   UNL d   1      -1.578  -5.998  -3.890  0.00  0.00     0.018 C 
ENDBRANCH   1   8
TORSDOF 1
ENDMDL
