MODEL 1
REMARK minimizedAffinity 14.4648552
REMARK minimizedRMSD -1
REMARK  1 active torsions:
REMARK  status: ('A' for Active; 'I' for Inactive)
REMARK    1  A    between atoms: C1_2  and  C2_3 
ROOT
ATOM      1  C2  UNL d   1       0.624  -0.590   2.703  0.00  0.00    -0.081 A 
ATOM      2  C3  UNL d   1       0.411   0.764   2.985  0.00  0.00     0.006 A 
ATOM      3  C4  UNL d   1      -0.771   1.393   2.586  0.00  0.00     0.002 A 
ATOM      4  C5  UNL d   1      -1.762   0.677   1.907  0.00  0.00    -0.080 A 
ATOM      5  C6  UNL d   1      -3.048   1.332   1.500  0.00  0.00     0.076 C 
ATOM      6  C7  UNL d   1      -1.542  -0.672   1.610  0.00  0.00     0.002 A 
ATOM      7  C8  UNL d   1      -0.360  -1.301   2.007  0.00  0.00     0.006 A 
ENDROOT
BRANCH   1   8
ATOM      8  C1  UNL d   1       1.870  -1.288   3.188  0.00  0.00     0.054 C 
ATOM      9  C   UNL d   1       1.532  -2.420   4.148  0.00  0.00     0.018 C 
ENDBRANCH   1   8
TORSDOF 1
ENDMDL
