MODEL 1
REMARK minimizedAffinity 5.15368557
REMARK minimizedRMSD -1
REMARK  1 active torsions:
REMARK  status: ('A' for Active; 'I' for Inactive)
REMARK    1  A    between atoms: C1_2  and  C2_3 
ROOT
ATOM      1  C2  UNL d   1       1.202  -1.382   3.282  0.00  0.00    -0.081 A 
ATOM      2  C3  UNL d   1       1.257  -0.096   3.832  0.00  0.00     0.006 A 
ATOM      3  C4  UNL d   1       0.362   0.892   3.413  0.00  0.00     0.002 A 
ATOM      4  C5  UNL d   1      -0.606   0.608   2.444  0.00  0.00    -0.080 A 
ATOM      5  C6  UNL d   1      -1.592   1.651   2.008  0.00  0.00     0.076 C 
ATOM      6  C7  UNL d   1      -0.650  -0.672   1.882  0.00  0.00     0.002 A 
ATOM      7  C8  UNL d   1       0.245  -1.660   2.300  0.00  0.00     0.006 A 
ENDROOT
BRANCH   1   8
ATOM      8  C1  UNL d   1       2.123  -2.468   3.777  0.00  0.00     0.054 C 
ATOM      9  C   UNL d   1       1.422  -3.373   4.781  0.00  0.00     0.018 C 
ENDBRANCH   1   8
TORSDOF 1
ENDMDL
