MODEL 1
REMARK minimizedAffinity 16.0365486
REMARK minimizedRMSD -1
REMARK  1 active torsions:
REMARK  status: ('A' for Active; 'I' for Inactive)
REMARK    1  A    between atoms: C1_2  and  C2_3 
ROOT
ATOM      1  C2  UNL d   1       5.342   2.281   1.862  0.00  0.00    -0.081 A 
ATOM      2  C3  UNL d   1       5.438   2.919   3.105  0.00  0.00     0.006 A 
ATOM      3  C4  UNL d   1       4.779   4.129   3.333  0.00  0.00     0.002 A 
ATOM      4  C5  UNL d   1       4.006   4.717   2.326  0.00  0.00    -0.080 A 
ATOM      5  C6  UNL d   1       3.268   6.000   2.568  0.00  0.00     0.076 C 
ATOM      6  C7  UNL d   1       3.923   4.088   1.079  0.00  0.00     0.002 A 
ATOM      7  C8  UNL d   1       4.583   2.879   0.850  0.00  0.00     0.006 A 
ENDROOT
BRANCH   1   8
ATOM      8  C1  UNL d   1       5.999   0.944   1.634  0.00  0.00     0.054 C 
ATOM      9  C   UNL d   1       5.998   0.572   0.158  0.00  0.00     0.018 C 
ENDBRANCH   1   8
TORSDOF 1
ENDMDL
