MODEL 1
REMARK minimizedAffinity 20.8418579
REMARK minimizedRMSD -1
REMARK  1 active torsions:
REMARK  status: ('A' for Active; 'I' for Inactive)
REMARK    1  A    between atoms: C1_2  and  C2_3 
ROOT
ATOM      1  C2  UNL d   1       1.785  -0.720  -3.960  0.00  0.00    -0.081 A 
ATOM      2  C3  UNL d   1       0.990  -0.990  -5.081  0.00  0.00     0.006 A 
ATOM      3  C4  UNL d   1      -0.385  -1.196  -4.940  0.00  0.00     0.002 A 
ATOM      4  C5  UNL d   1      -0.988  -1.128  -3.680  0.00  0.00    -0.080 A 
ATOM      5  C6  UNL d   1      -2.467  -1.316  -3.520  0.00  0.00     0.076 C 
ATOM      6  C7  UNL d   1      -0.190  -0.875  -2.558  0.00  0.00     0.002 A 
ATOM      7  C8  UNL d   1       1.184  -0.670  -2.698  0.00  0.00     0.006 A 
ENDROOT
BRANCH   1   8
ATOM      8  C1  UNL d   1       3.257  -0.434  -4.116  0.00  0.00     0.054 C 
ATOM      9  C   UNL d   1       4.104  -1.569  -3.558  0.00  0.00     0.018 C 
ENDBRANCH   1   8
TORSDOF 1
ENDMDL
