MODEL 1
REMARK minimizedAffinity 12.4910564
REMARK minimizedRMSD -1
REMARK  1 active torsions:
REMARK  status: ('A' for Active; 'I' for Inactive)
REMARK    1  A    between atoms: C1_2  and  C2_3 
ROOT
ATOM      1  C2  UNL d   1      -0.152  -2.558   3.004  0.00  0.00    -0.081 A 
ATOM      2  C3  UNL d   1       1.147  -2.961   3.335  0.00  0.00     0.006 A 
ATOM      3  C4  UNL d   1       1.359  -3.936   4.313  0.00  0.00     0.002 A 
ATOM      4  C5  UNL d   1       0.276  -4.531   4.968  0.00  0.00    -0.080 A 
ATOM      5  C6  UNL d   1       0.489  -5.601   5.998  0.00  0.00     0.076 C 
ATOM      6  C7  UNL d   1      -1.022  -4.117   4.650  0.00  0.00     0.002 A 
ATOM      7  C8  UNL d   1      -1.234  -3.141   3.673  0.00  0.00     0.006 A 
ENDROOT
BRANCH   1   8
ATOM      8  C1  UNL d   1      -0.387  -1.554   1.905  0.00  0.00     0.054 C 
ATOM      9  C   UNL d   1      -1.668  -1.857   1.142  0.00  0.00     0.018 C 
ENDBRANCH   1   8
TORSDOF 1
ENDMDL
