MODEL 1
REMARK minimizedAffinity -4.1601944
REMARK minimizedRMSD -1
REMARK  0 active torsions:
REMARK  status: ('A' for Active; 'I' for Inactive)
ROOT
ATOM      1  C   UNL d   1      -2.466   1.117   1.495  0.00  0.00     0.077 C 
ATOM      2  C1  UNL d   1      -1.415   0.424   0.680  0.00  0.00    -0.074 A 
ATOM      3  C2  UNL d   1      -0.690   1.116  -0.296  0.00  0.00    -0.005 A 
ATOM      4  C3  UNL d   1       0.292   0.460  -1.040  0.00  0.00     0.006 A 
ATOM      5  C4  UNL d   1       0.558  -0.891  -0.815  0.00  0.00    -0.005 A 
ATOM      6  C5  UNL d   1      -0.156  -1.599   0.157  0.00  0.00    -0.074 A 
ATOM      7  C6  UNL d   1       0.124  -3.049   0.418  0.00  0.00     0.077 C 
ATOM      8  C7  UNL d   1      -1.136  -0.931   0.905  0.00  0.00    -0.001 A 
ENDROOT
TORSDOF 0
ENDMDL
