MODEL 1
REMARK minimizedAffinity -2.7948904
REMARK minimizedRMSD -1
REMARK  0 active torsions:
REMARK  status: ('A' for Active; 'I' for Inactive)
ROOT
ATOM      1  C   UNL d   1       0.529   1.106  -2.014  0.00  0.00     0.077 C 
ATOM      2  C1  UNL d   1       0.185   0.145  -0.915  0.00  0.00    -0.074 A 
ATOM      3  C2  UNL d   1      -0.675   0.518   0.123  0.00  0.00    -0.005 A 
ATOM      4  C3  UNL d   1      -0.993  -0.389   1.134  0.00  0.00     0.006 A 
ATOM      5  C4  UNL d   1      -0.455  -1.676   1.117  0.00  0.00    -0.005 A 
ATOM      6  C5  UNL d   1       0.406  -2.067   0.087  0.00  0.00    -0.074 A 
ATOM      7  C6  UNL d   1       0.986  -3.450   0.049  0.00  0.00     0.077 C 
ATOM      8  C7  UNL d   1       0.716  -1.152  -0.929  0.00  0.00    -0.001 A 
ENDROOT
TORSDOF 0
ENDMDL
