MODEL 1
REMARK minimizedAffinity -1.70334423
REMARK minimizedRMSD -1
REMARK  0 active torsions:
REMARK  status: ('A' for Active; 'I' for Inactive)
ROOT
ATOM      1  C   UNL d   1       0.257  -3.275   0.073  0.00  0.00     0.077 C 
ATOM      2  C1  UNL d   1      -0.077  -1.813   0.101  0.00  0.00    -0.074 A 
ATOM      3  C2  UNL d   1       0.433  -0.940  -0.865  0.00  0.00    -0.005 A 
ATOM      4  C3  UNL d   1       0.105   0.415  -0.831  0.00  0.00     0.006 A 
ATOM      5  C4  UNL d   1      -0.734   0.911   0.167  0.00  0.00    -0.005 A 
ATOM      6  C5  UNL d   1      -1.255   0.053   1.141  0.00  0.00    -0.074 A 
ATOM      7  C6  UNL d   1      -2.166   0.567   2.216  0.00  0.00     0.077 C 
ATOM      8  C7  UNL d   1      -0.926  -1.309   1.097  0.00  0.00    -0.001 A 
ENDROOT
TORSDOF 0
ENDMDL
