MODEL 1
REMARK minimizedAffinity -3.51833105
REMARK minimizedRMSD -1
REMARK  0 active torsions:
REMARK  status: ('A' for Active; 'I' for Inactive)
ROOT
ATOM      1  C   UNL d   1       0.398  -3.508   0.033  0.00  0.00     0.077 C 
ATOM      2  C1  UNL d   1      -0.109  -2.126   0.320  0.00  0.00    -0.074 A 
ATOM      3  C2  UNL d   1      -1.280  -1.928   1.060  0.00  0.00    -0.005 A 
ATOM      4  C3  UNL d   1      -1.733  -0.637   1.327  0.00  0.00     0.006 A 
ATOM      5  C4  UNL d   1      -1.022   0.469   0.859  0.00  0.00    -0.005 A 
ATOM      6  C5  UNL d   1       0.151   0.291   0.118  0.00  0.00    -0.074 A 
ATOM      7  C6  UNL d   1       0.932   1.468  -0.384  0.00  0.00     0.077 C 
ATOM      8  C7  UNL d   1       0.604  -1.010  -0.140  0.00  0.00    -0.001 A 
ENDROOT
TORSDOF 0
ENDMDL
