MODEL 1
REMARK minimizedAffinity -2.95383096
REMARK minimizedRMSD -1
REMARK  0 active torsions:
REMARK  status: ('A' for Active; 'I' for Inactive)
ROOT
ATOM      1  C   UNL d   1      -2.922  -2.762   1.103  0.00  0.00     0.077 C 
ATOM      2  C1  UNL d   1      -1.603  -2.227   0.630  0.00  0.00    -0.074 A 
ATOM      3  C2  UNL d   1      -0.678  -3.058  -0.010  0.00  0.00    -0.005 A 
ATOM      4  C3  UNL d   1       0.540  -2.544  -0.453  0.00  0.00     0.006 A 
ATOM      5  C4  UNL d   1       0.846  -1.196  -0.261  0.00  0.00    -0.005 A 
ATOM      6  C5  UNL d   1      -0.066  -0.350   0.377  0.00  0.00    -0.074 A 
ATOM      7  C6  UNL d   1       0.243   1.103   0.583  0.00  0.00     0.077 C 
ATOM      8  C7  UNL d   1      -1.292  -0.872   0.813  0.00  0.00    -0.001 A 
ENDROOT
TORSDOF 0
ENDMDL
