MODEL 1
REMARK minimizedAffinity -3.13652611
REMARK minimizedRMSD -1
REMARK  0 active torsions:
REMARK  status: ('A' for Active; 'I' for Inactive)
ROOT
ATOM      1  C   UNL d   1       0.711   0.343  -2.601  0.00  0.00     0.077 C 
ATOM      2  C1  UNL d   1       0.302  -0.223  -1.274  0.00  0.00    -0.074 A 
ATOM      3  C2  UNL d   1      -0.432   0.543  -0.362  0.00  0.00    -0.005 A 
ATOM      4  C3  UNL d   1      -0.814  -0.000   0.865  0.00  0.00     0.006 A 
ATOM      5  C4  UNL d   1      -0.468  -1.312   1.192  0.00  0.00    -0.005 A 
ATOM      6  C5  UNL d   1       0.265  -2.093   0.292  0.00  0.00    -0.074 A 
ATOM      7  C6  UNL d   1       0.637  -3.507   0.623  0.00  0.00     0.077 C 
ATOM      8  C7  UNL d   1       0.639  -1.542  -0.942  0.00  0.00    -0.001 A 
ENDROOT
TORSDOF 0
ENDMDL
