MODEL 1
REMARK minimizedAffinity -4.00874567
REMARK minimizedRMSD -1
REMARK  0 active torsions:
REMARK  status: ('A' for Active; 'I' for Inactive)
ROOT
ATOM      1  C   UNL d   1       1.087   2.818   0.701  0.00  0.00     0.077 C 
ATOM      2  C1  UNL d   1       0.640   1.389   0.613  0.00  0.00    -0.074 A 
ATOM      3  C2  UNL d   1      -0.120   0.809   1.635  0.00  0.00    -0.005 A 
ATOM      4  C3  UNL d   1      -0.536  -0.518   1.535  0.00  0.00     0.006 A 
ATOM      5  C4  UNL d   1      -0.198  -1.279   0.415  0.00  0.00    -0.005 A 
ATOM      6  C5  UNL d   1       0.560  -0.716  -0.616  0.00  0.00    -0.074 A 
ATOM      7  C6  UNL d   1       0.925  -1.517  -1.831  0.00  0.00     0.077 C 
ATOM      8  C7  UNL d   1       0.969   0.620  -0.512  0.00  0.00    -0.001 A 
ENDROOT
TORSDOF 0
ENDMDL
