MODEL 1
REMARK minimizedAffinity -4.1361475
REMARK minimizedRMSD -1
REMARK  0 active torsions:
REMARK  status: ('A' for Active; 'I' for Inactive)
ROOT
ATOM      1  C   UNL d   1       0.344   2.144   0.039  0.00  0.00     0.077 C 
ATOM      2  C1  UNL d   1       0.306   0.771  -0.564  0.00  0.00    -0.074 A 
ATOM      3  C2  UNL d   1       0.247   0.596  -1.950  0.00  0.00    -0.005 A 
ATOM      4  C3  UNL d   1       0.222  -0.687  -2.497  0.00  0.00     0.006 A 
ATOM      5  C4  UNL d   1       0.256  -1.806  -1.664  0.00  0.00    -0.005 A 
ATOM      6  C5  UNL d   1       0.316  -1.651  -0.276  0.00  0.00    -0.074 A 
ATOM      7  C6  UNL d   1       0.364  -2.843   0.633  0.00  0.00     0.077 C 
ATOM      8  C7  UNL d   1       0.348  -0.359   0.266  0.00  0.00    -0.001 A 
ENDROOT
TORSDOF 0
ENDMDL
