MODEL 1
REMARK minimizedAffinity -2.89878726
REMARK minimizedRMSD -1
REMARK  0 active torsions:
REMARK  status: ('A' for Active; 'I' for Inactive)
ROOT
ATOM      1  C   UNL d   1       0.358  -3.854  -0.276  0.00  0.00     0.077 C 
ATOM      2  C1  UNL d   1       0.136  -2.371  -0.313  0.00  0.00    -0.074 A 
ATOM      3  C2  UNL d   1       0.754  -1.575  -1.283  0.00  0.00    -0.005 A 
ATOM      4  C3  UNL d   1       0.531  -0.199  -1.310  0.00  0.00     0.006 A 
ATOM      5  C4  UNL d   1      -0.310   0.396  -0.369  0.00  0.00    -0.005 A 
ATOM      6  C5  UNL d   1      -0.937  -0.384   0.608  0.00  0.00    -0.074 A 
ATOM      7  C6  UNL d   1      -1.852   0.238   1.621  0.00  0.00     0.077 C 
ATOM      8  C7  UNL d   1      -0.714  -1.767   0.625  0.00  0.00    -0.001 A 
ENDROOT
TORSDOF 0
ENDMDL
