MODEL 1
REMARK minimizedAffinity -4.56740808
REMARK minimizedRMSD -1
REMARK  0 active torsions:
REMARK  status: ('A' for Active; 'I' for Inactive)
ROOT
ATOM      1  C   UNL d   1      -1.621  -0.774   2.987  0.00  0.00     0.077 C 
ATOM      2  C1  UNL d   1      -0.836  -1.013   1.732  0.00  0.00    -0.074 A 
ATOM      3  C2  UNL d   1      -0.346  -2.286   1.422  0.00  0.00    -0.005 A 
ATOM      4  C3  UNL d   1       0.374  -2.495   0.246  0.00  0.00     0.006 A 
ATOM      5  C4  UNL d   1       0.611  -1.436  -0.631  0.00  0.00    -0.005 A 
ATOM      6  C5  UNL d   1       0.128  -0.156  -0.339  0.00  0.00    -0.074 A 
ATOM      7  C6  UNL d   1       0.365   0.991  -1.275  0.00  0.00     0.077 C 
ATOM      8  C7  UNL d   1      -0.601   0.045   0.842  0.00  0.00    -0.001 A 
ENDROOT
TORSDOF 0
ENDMDL
