MODEL 1
REMARK minimizedAffinity -4.77746153
REMARK minimizedRMSD -1
REMARK  0 active torsions:
REMARK  status: ('A' for Active; 'I' for Inactive)
ROOT
ATOM      1  C   UNL d   1      -1.458  -0.375   2.092  0.00  0.00     0.077 C 
ATOM      2  C1  UNL d   1      -0.667  -1.136   1.070  0.00  0.00    -0.074 A 
ATOM      3  C2  UNL d   1      -0.285  -2.462   1.298  0.00  0.00    -0.005 A 
ATOM      4  C3  UNL d   1       0.442  -3.161   0.334  0.00  0.00     0.006 A 
ATOM      5  C4  UNL d   1       0.794  -2.541  -0.865  0.00  0.00    -0.005 A 
ATOM      6  C5  UNL d   1       0.420  -1.216  -1.112  0.00  0.00    -0.074 A 
ATOM      7  C6  UNL d   1       0.782  -0.539  -2.400  0.00  0.00     0.077 C 
ATOM      8  C7  UNL d   1      -0.317  -0.524  -0.141  0.00  0.00    -0.001 A 
ENDROOT
TORSDOF 0
ENDMDL
