MODEL 1
REMARK minimizedAffinity -0.196640909
REMARK minimizedRMSD -1
REMARK  0 active torsions:
REMARK  status: ('A' for Active; 'I' for Inactive)
ROOT
ATOM      1  C   UNL d   1      -2.595  -3.352   0.668  0.00  0.00     0.077 C 
ATOM      2  C1  UNL d   1      -1.232  -2.744   0.519  0.00  0.00    -0.074 A 
ATOM      3  C2  UNL d   1      -0.078  -3.519   0.675  0.00  0.00    -0.005 A 
ATOM      4  C3  UNL d   1       1.182  -2.941   0.524  0.00  0.00     0.006 A 
ATOM      5  C4  UNL d   1       1.302  -1.586   0.214  0.00  0.00    -0.005 A 
ATOM      6  C5  UNL d   1       0.159  -0.796   0.053  0.00  0.00    -0.074 A 
ATOM      7  C6  UNL d   1       0.270   0.660  -0.290  0.00  0.00     0.077 C 
ATOM      8  C7  UNL d   1      -1.104  -1.385   0.200  0.00  0.00    -0.001 A 
ENDROOT
TORSDOF 0
ENDMDL
