MODEL 1
REMARK minimizedAffinity -2.52012324
REMARK minimizedRMSD -1
REMARK  0 active torsions:
REMARK  status: ('A' for Active; 'I' for Inactive)
ROOT
ATOM      1  C   UNL d   1       0.421   0.046  -2.972  0.00  0.00     0.077 C 
ATOM      2  C1  UNL d   1       0.056  -0.199  -1.538  0.00  0.00    -0.074 A 
ATOM      3  C2  UNL d   1       0.097   0.836  -0.599  0.00  0.00    -0.005 A 
ATOM      4  C3  UNL d   1      -0.254   0.595   0.729  0.00  0.00     0.006 A 
ATOM      5  C4  UNL d   1      -0.649  -0.682   1.131  0.00  0.00    -0.005 A 
ATOM      6  C5  UNL d   1      -0.697  -1.729   0.205  0.00  0.00    -0.074 A 
ATOM      7  C6  UNL d   1      -1.129  -3.105   0.618  0.00  0.00     0.077 C 
ATOM      8  C7  UNL d   1      -0.350  -1.477  -1.129  0.00  0.00    -0.001 A 
ENDROOT
TORSDOF 0
ENDMDL
