MODEL 1
REMARK minimizedAffinity -2.9942112
REMARK minimizedRMSD -1
REMARK  0 active torsions:
REMARK  status: ('A' for Active; 'I' for Inactive)
ROOT
ATOM      1  C   UNL d   1      -1.439  -2.236   1.572  0.00  0.00     0.077 C 
ATOM      2  C1  UNL d   1      -0.746  -1.294   0.632  0.00  0.00    -0.074 A 
ATOM      3  C2  UNL d   1       0.020  -1.777  -0.434  0.00  0.00    -0.005 A 
ATOM      4  C3  UNL d   1       0.651  -0.890  -1.305  0.00  0.00     0.006 A 
ATOM      5  C4  UNL d   1       0.522   0.488  -1.120  0.00  0.00    -0.005 A 
ATOM      6  C5  UNL d   1      -0.241   0.989  -0.061  0.00  0.00    -0.074 A 
ATOM      7  C6  UNL d   1      -0.398   2.466   0.146  0.00  0.00     0.077 C 
ATOM      8  C7  UNL d   1      -0.877   0.090   0.807  0.00  0.00    -0.001 A 
ENDROOT
TORSDOF 0
ENDMDL
