MODEL 1
REMARK minimizedAffinity 9.16250801
REMARK minimizedRMSD -1
REMARK  0 active torsions:
REMARK  status: ('A' for Active; 'I' for Inactive)
ROOT
ATOM      1  C   UNL d   1       0.269  -0.314  -1.270  0.00  0.00     0.124 A 
ATOM      2  C1  UNL d   1       1.584   0.103  -1.427  0.00  0.00     0.062 A 
ATOM      3  C2  UNL d   1       2.096   1.120  -0.626  0.00  0.00     0.162 A 
ATOM      4  C3  UNL d   1       1.294   1.726   0.341  0.00  0.00    -0.034 A 
ATOM      5  C4  UNL d   1      -0.027   1.302   0.492  0.00  0.00     0.162 A 
ATOM      6  C5  UNL d   1      -0.535   0.285  -0.310  0.00  0.00     0.062 A 
ATOM      7  F   UNL d   1      -1.805  -0.117  -0.157  0.00  0.00    -0.097 F 
ATOM      8  F1  UNL d   1      -0.826   1.863   1.412  0.00  0.00    -0.096 F 
ATOM      9  I   UNL d   1       2.056   3.246   1.540  0.00  0.00    -0.060 I 
ATOM     10  F2  UNL d   1       3.370   1.503  -0.800  0.00  0.00    -0.096 F 
ATOM     11  F3  UNL d   1       2.362  -0.474  -2.354  0.00  0.00    -0.097 F 
ATOM     12  F4  UNL d   1      -0.221  -1.292  -2.042  0.00  0.00    -0.092 F 
ENDROOT
TORSDOF 0
ENDMDL
