MODEL 1
REMARK minimizedAffinity 8.21741199
REMARK minimizedRMSD -1
REMARK  0 active torsions:
REMARK  status: ('A' for Active; 'I' for Inactive)
ROOT
ATOM      1  C   UNL d   1      -0.904  -2.204  -0.526  0.00  0.00     0.124 A 
ATOM      2  C1  UNL d   1      -0.946  -1.689   0.763  0.00  0.00     0.062 A 
ATOM      3  C2  UNL d   1      -0.474  -0.405   1.019  0.00  0.00     0.162 A 
ATOM      4  C3  UNL d   1       0.043   0.374  -0.016  0.00  0.00    -0.034 A 
ATOM      5  C4  UNL d   1       0.083  -0.151  -1.309  0.00  0.00     0.162 A 
ATOM      6  C5  UNL d   1      -0.390  -1.434  -1.560  0.00  0.00     0.062 A 
ATOM      7  F   UNL d   1      -0.349  -1.930  -2.805  0.00  0.00    -0.097 F 
ATOM      8  F1  UNL d   1       0.574   0.572  -2.327  0.00  0.00    -0.096 F 
ATOM      9  I   UNL d   1       0.750   2.294   0.364  0.00  0.00    -0.060 I 
ATOM     10  F2  UNL d   1      -0.527   0.066   2.274  0.00  0.00    -0.096 F 
ATOM     11  F3  UNL d   1      -1.442  -2.431   1.763  0.00  0.00    -0.097 F 
ATOM     12  F4  UNL d   1      -1.358  -3.440  -0.770  0.00  0.00    -0.092 F 
ENDROOT
TORSDOF 0
ENDMDL
