MODEL 1
REMARK minimizedAffinity 0.709219992
REMARK minimizedRMSD -1
REMARK  0 active torsions:
REMARK  status: ('A' for Active; 'I' for Inactive)
ROOT
ATOM      1  C   UNL d   1       2.365   3.218   0.956  0.00  0.00     0.124 A 
ATOM      2  C1  UNL d   1       1.056   3.477   1.337  0.00  0.00     0.062 A 
ATOM      3  C2  UNL d   1       0.046   2.568   1.034  0.00  0.00     0.162 A 
ATOM      4  C3  UNL d   1       0.342   1.390   0.348  0.00  0.00    -0.034 A 
ATOM      5  C4  UNL d   1       1.661   1.137  -0.033  0.00  0.00     0.162 A 
ATOM      6  C5  UNL d   1       2.666   2.049   0.272  0.00  0.00     0.062 A 
ATOM      7  F   UNL d   1       3.931   1.796  -0.097  0.00  0.00    -0.097 F 
ATOM      8  F1  UNL d   1       1.980   0.015  -0.694  0.00  0.00    -0.096 F 
ATOM      9  I   UNL d   1      -1.166   0.029  -0.106  0.00  0.00    -0.060 I 
ATOM     10  F2  UNL d   1      -1.210   2.845   1.414  0.00  0.00    -0.096 F 
ATOM     11  F3  UNL d   1       0.762   4.607   1.997  0.00  0.00    -0.097 F 
ATOM     12  F4  UNL d   1       3.335   4.094   1.247  0.00  0.00    -0.092 F 
ENDROOT
TORSDOF 0
ENDMDL
