MODEL 1
REMARK minimizedAffinity 8.14871693
REMARK minimizedRMSD -1
REMARK  0 active torsions:
REMARK  status: ('A' for Active; 'I' for Inactive)
ROOT
ATOM      1  C   UNL d   1      -1.292  -0.403   0.552  0.00  0.00     0.124 A 
ATOM      2  C1  UNL d   1      -1.242   0.752  -0.216  0.00  0.00     0.062 A 
ATOM      3  C2  UNL d   1      -0.428   1.814   0.168  0.00  0.00     0.162 A 
ATOM      4  C3  UNL d   1       0.344   1.725   1.327  0.00  0.00    -0.034 A 
ATOM      5  C4  UNL d   1       0.288   0.561   2.095  0.00  0.00     0.162 A 
ATOM      6  C5  UNL d   1      -0.528  -0.497   1.706  0.00  0.00     0.062 A 
ATOM      7  F   UNL d   1      -0.575  -1.612   2.450  0.00  0.00    -0.097 F 
ATOM      8  F1  UNL d   1       1.017   0.442   3.214  0.00  0.00    -0.096 F 
ATOM      9  I   UNL d   1       1.563   3.310   1.904  0.00  0.00    -0.060 I 
ATOM     10  F2  UNL d   1      -0.399   2.918  -0.593  0.00  0.00    -0.096 F 
ATOM     11  F3  UNL d   1      -1.980   0.847  -1.331  0.00  0.00    -0.097 F 
ATOM     12  F4  UNL d   1      -2.078  -1.422   0.181  0.00  0.00    -0.092 F 
ENDROOT
TORSDOF 0
ENDMDL
