MODEL 1
REMARK minimizedAffinity 3.04954767
REMARK minimizedRMSD -1
REMARK  0 active torsions:
REMARK  status: ('A' for Active; 'I' for Inactive)
ROOT
ATOM      1  C   UNL d   1       2.201   3.758   1.150  0.00  0.00     0.124 A 
ATOM      2  C1  UNL d   1       0.835   3.924   1.337  0.00  0.00     0.062 A 
ATOM      3  C2  UNL d   1      -0.044   2.888   1.033  0.00  0.00     0.162 A 
ATOM      4  C3  UNL d   1       0.440   1.677   0.540  0.00  0.00    -0.034 A 
ATOM      5  C4  UNL d   1       1.814   1.517   0.354  0.00  0.00     0.162 A 
ATOM      6  C5  UNL d   1       2.689   2.555   0.659  0.00  0.00     0.062 A 
ATOM      7  F   UNL d   1       4.008   2.393   0.478  0.00  0.00    -0.097 F 
ATOM      8  F1  UNL d   1       2.313   0.365  -0.118  0.00  0.00    -0.096 F 
ATOM      9  I   UNL d   1      -0.871   0.126   0.085  0.00  0.00    -0.060 I 
ATOM     10  F2  UNL d   1      -1.358   3.077   1.224  0.00  0.00    -0.096 F 
ATOM     11  F3  UNL d   1       0.361   5.085   1.810  0.00  0.00    -0.097 F 
ATOM     12  F4  UNL d   1       3.044   4.757   1.442  0.00  0.00    -0.092 F 
ENDROOT
TORSDOF 0
ENDMDL
