MODEL 1
REMARK minimizedAffinity 11.6704836
REMARK minimizedRMSD -1
REMARK  0 active torsions:
REMARK  status: ('A' for Active; 'I' for Inactive)
ROOT
ATOM      1  C   UNL d   1       2.194   2.924   1.044  0.00  0.00     0.124 A 
ATOM      2  C1  UNL d   1       2.506   1.789   0.309  0.00  0.00     0.062 A 
ATOM      3  C2  UNL d   1       1.546   0.802   0.103  0.00  0.00     0.162 A 
ATOM      4  C3  UNL d   1       0.264   0.947   0.632  0.00  0.00    -0.034 A 
ATOM      5  C4  UNL d   1      -0.043   2.091   1.371  0.00  0.00     0.162 A 
ATOM      6  C5  UNL d   1       0.920   3.074   1.574  0.00  0.00     0.062 A 
ATOM      7  F   UNL d   1       0.617   4.170   2.284  0.00  0.00    -0.097 F 
ATOM      8  F1  UNL d   1      -1.266   2.262   1.894  0.00  0.00    -0.096 F 
ATOM      9  I   UNL d   1      -1.174  -0.526   0.326  0.00  0.00    -0.060 I 
ATOM     10  F2  UNL d   1       1.876  -0.284  -0.611  0.00  0.00    -0.096 F 
ATOM     11  F3  UNL d   1       3.737   1.641  -0.203  0.00  0.00    -0.097 F 
ATOM     12  F4  UNL d   1       3.120   3.871   1.242  0.00  0.00    -0.092 F 
ENDROOT
TORSDOF 0
ENDMDL
