MODEL 1
REMARK minimizedAffinity 2.3618238
REMARK minimizedRMSD -1
REMARK  0 active torsions:
REMARK  status: ('A' for Active; 'I' for Inactive)
ROOT
ATOM      1  C   UNL d   1       2.867   3.148   1.007  0.00  0.00     0.124 A 
ATOM      2  C1  UNL d   1       3.491   2.098   0.348  0.00  0.00     0.062 A 
ATOM      3  C2  UNL d   1       2.733   1.143  -0.323  0.00  0.00     0.162 A 
ATOM      4  C3  UNL d   1       1.341   1.233  -0.339  0.00  0.00    -0.034 A 
ATOM      5  C4  UNL d   1       0.720   2.291   0.327  0.00  0.00     0.162 A 
ATOM      6  C5  UNL d   1       1.482   3.244   0.996  0.00  0.00     0.062 A 
ATOM      7  F   UNL d   1       0.877   4.257   1.632  0.00  0.00    -0.097 F 
ATOM      8  F1  UNL d   1      -0.616   2.408   0.332  0.00  0.00    -0.096 F 
ATOM      9  I   UNL d   1       0.204  -0.194  -1.340  0.00  0.00    -0.060 I 
ATOM     10  F2  UNL d   1       3.363   0.139  -0.951  0.00  0.00    -0.096 F 
ATOM     11  F3  UNL d   1       4.829   2.004   0.357  0.00  0.00    -0.097 F 
ATOM     12  F4  UNL d   1       3.598   4.066   1.652  0.00  0.00    -0.092 F 
ENDROOT
TORSDOF 0
ENDMDL
