MODEL 1
REMARK minimizedAffinity -3.58445191
REMARK minimizedRMSD -1
REMARK  0 active torsions:
REMARK  status: ('A' for Active; 'I' for Inactive)
ROOT
ATOM      1  C   UNL d   1      -0.527  -2.727  -0.952  0.00  0.00     0.124 A 
ATOM      2  C1  UNL d   1       0.110  -1.995  -1.944  0.00  0.00     0.062 A 
ATOM      3  C2  UNL d   1       0.251  -0.616  -1.817  0.00  0.00     0.162 A 
ATOM      4  C3  UNL d   1      -0.246   0.040  -0.691  0.00  0.00    -0.034 A 
ATOM      5  C4  UNL d   1      -0.886  -0.702   0.303  0.00  0.00     0.162 A 
ATOM      6  C5  UNL d   1      -1.024  -2.080   0.171  0.00  0.00     0.062 A 
ATOM      7  F   UNL d   1      -1.640  -2.785   1.131  0.00  0.00    -0.097 F 
ATOM      8  F1  UNL d   1      -1.376  -0.102   1.399  0.00  0.00    -0.096 F 
ATOM      9  I   UNL d   1      -0.038   2.102  -0.496  0.00  0.00    -0.060 I 
ATOM     10  F2  UNL d   1       0.871   0.065  -2.791  0.00  0.00    -0.096 F 
ATOM     11  F3  UNL d   1       0.591  -2.618  -3.030  0.00  0.00    -0.097 F 
ATOM     12  F4  UNL d   1      -0.661  -4.053  -1.077  0.00  0.00    -0.092 F 
ENDROOT
TORSDOF 0
ENDMDL
