MODEL 1
REMARK minimizedAffinity 4.95818233
REMARK minimizedRMSD -1
REMARK  0 active torsions:
REMARK  status: ('A' for Active; 'I' for Inactive)
ROOT
ATOM      1  C   UNL d   1      -0.934  -2.433  -0.539  0.00  0.00     0.124 A 
ATOM      2  C1  UNL d   1      -1.128  -1.962   0.752  0.00  0.00     0.062 A 
ATOM      3  C2  UNL d   1      -0.728  -0.673   1.094  0.00  0.00     0.162 A 
ATOM      4  C3  UNL d   1      -0.131   0.155   0.143  0.00  0.00    -0.034 A 
ATOM      5  C4  UNL d   1       0.062  -0.327  -1.153  0.00  0.00     0.162 A 
ATOM      6  C5  UNL d   1      -0.340  -1.616  -1.490  0.00  0.00     0.062 A 
ATOM      7  F   UNL d   1      -0.151  -2.070  -2.737  0.00  0.00    -0.097 F 
ATOM      8  F1  UNL d   1       0.633   0.442  -2.092  0.00  0.00    -0.096 F 
ATOM      9  I   UNL d   1       0.468   2.082   0.651  0.00  0.00    -0.060 I 
ATOM     10  F2  UNL d   1      -0.928  -0.244   2.349  0.00  0.00    -0.096 F 
ATOM     11  F3  UNL d   1      -1.701  -2.750   1.673  0.00  0.00    -0.097 F 
ATOM     12  F4  UNL d   1      -1.318  -3.674  -0.865  0.00  0.00    -0.092 F 
ENDROOT
TORSDOF 0
ENDMDL
