MODEL 1
REMARK minimizedAffinity 1.99955499
REMARK minimizedRMSD -1
REMARK  0 active torsions:
REMARK  status: ('A' for Active; 'I' for Inactive)
ROOT
ATOM      1  C   UNL d   1      -0.549  -0.238   1.611  0.00  0.00     0.124 A 
ATOM      2  C1  UNL d   1      -0.356   0.563   0.493  0.00  0.00     0.062 A 
ATOM      3  C2  UNL d   1      -0.264  -0.011  -0.771  0.00  0.00     0.162 A 
ATOM      4  C3  UNL d   1      -0.367  -1.394  -0.926  0.00  0.00    -0.034 A 
ATOM      5  C4  UNL d   1      -0.561  -2.192   0.203  0.00  0.00     0.162 A 
ATOM      6  C5  UNL d   1      -0.651  -1.614   1.465  0.00  0.00     0.062 A 
ATOM      7  F   UNL d   1      -0.838  -2.389   2.543  0.00  0.00    -0.097 F 
ATOM      8  F1  UNL d   1      -0.664  -3.525   0.090  0.00  0.00    -0.096 F 
ATOM      9  I   UNL d   1      -0.231  -2.256  -2.815  0.00  0.00    -0.060 I 
ATOM     10  F2  UNL d   1      -0.077   0.786  -1.834  0.00  0.00    -0.096 F 
ATOM     11  F3  UNL d   1      -0.256   1.893   0.632  0.00  0.00    -0.097 F 
ATOM     12  F4  UNL d   1      -0.635   0.317   2.827  0.00  0.00    -0.092 F 
ENDROOT
TORSDOF 0
ENDMDL
