MODEL 1
REMARK minimizedAffinity -3.24506116
REMARK minimizedRMSD -1
REMARK  0 active torsions:
REMARK  status: ('A' for Active; 'I' for Inactive)
ROOT
ATOM      1  C   UNL d   1       0.533  -0.019  -1.166  0.00  0.00     0.124 A 
ATOM      2  C1  UNL d   1       1.896   0.242  -1.195  0.00  0.00     0.062 A 
ATOM      3  C2  UNL d   1       2.419   1.315  -0.480  0.00  0.00     0.162 A 
ATOM      4  C3  UNL d   1       1.579   2.136   0.272  0.00  0.00    -0.034 A 
ATOM      5  C4  UNL d   1       0.209   1.868   0.296  0.00  0.00     0.162 A 
ATOM      6  C5  UNL d   1      -0.309   0.794  -0.420  0.00  0.00     0.062 A 
ATOM      7  F   UNL d   1      -1.626   0.544  -0.390  0.00  0.00    -0.097 F 
ATOM      8  F1  UNL d   1      -0.628   2.638   1.009  0.00  0.00    -0.096 F 
ATOM      9  I   UNL d   1       2.357   3.743   1.342  0.00  0.00    -0.060 I 
ATOM     10  F2  UNL d   1       3.740   1.544  -0.527  0.00  0.00    -0.096 F 
ATOM     11  F3  UNL d   1       2.711  -0.542  -1.915  0.00  0.00    -0.097 F 
ATOM     12  F4  UNL d   1       0.032  -1.052  -1.855  0.00  0.00    -0.092 F 
ENDROOT
TORSDOF 0
ENDMDL
