MODEL 1
REMARK minimizedAffinity -1.91516376
REMARK minimizedRMSD -1
REMARK  0 active torsions:
REMARK  status: ('A' for Active; 'I' for Inactive)
ROOT
ATOM      1  C   UNL d   1      -0.857  -2.224  -0.673  0.00  0.00     0.124 A 
ATOM      2  C1  UNL d   1      -0.522  -1.337  -1.686  0.00  0.00     0.062 A 
ATOM      3  C2  UNL d   1      -0.184  -0.021  -1.382  0.00  0.00     0.162 A 
ATOM      4  C3  UNL d   1      -0.178   0.415  -0.057  0.00  0.00    -0.034 A 
ATOM      5  C4  UNL d   1      -0.517  -0.483   0.957  0.00  0.00     0.162 A 
ATOM      6  C5  UNL d   1      -0.854  -1.797   0.647  0.00  0.00     0.062 A 
ATOM      7  F   UNL d   1      -1.178  -2.653   1.627  0.00  0.00    -0.097 F 
ATOM      8  F1  UNL d   1      -0.522  -0.097   2.242  0.00  0.00    -0.096 F 
ATOM      9  I   UNL d   1       0.328   2.380   0.404  0.00  0.00    -0.060 I 
ATOM     10  F2  UNL d   1       0.136   0.814  -2.381  0.00  0.00    -0.096 F 
ATOM     11  F3  UNL d   1      -0.525  -1.747  -2.963  0.00  0.00    -0.097 F 
ATOM     12  F4  UNL d   1      -1.183  -3.489  -0.970  0.00  0.00    -0.092 F 
ENDROOT
TORSDOF 0
ENDMDL
