MODEL 1
REMARK minimizedAffinity 15.2442627
REMARK minimizedRMSD -1
REMARK  0 active torsions:
REMARK  status: ('A' for Active; 'I' for Inactive)
ROOT
ATOM      1  C   UNL d   1       2.214   3.365   0.695  0.00  0.00     0.124 A 
ATOM      2  C1  UNL d   1       0.930   3.506   1.203  0.00  0.00     0.062 A 
ATOM      3  C2  UNL d   1       0.021   2.456   1.109  0.00  0.00     0.162 A 
ATOM      4  C3  UNL d   1       0.393   1.255   0.504  0.00  0.00    -0.034 A 
ATOM      5  C4  UNL d   1       1.685   1.122  -0.007  0.00  0.00     0.162 A 
ATOM      6  C5  UNL d   1       2.590   2.174   0.090  0.00  0.00     0.062 A 
ATOM      7  F   UNL d   1       3.830   2.037  -0.402  0.00  0.00    -0.097 F 
ATOM      8  F1  UNL d   1       2.076  -0.018  -0.595  0.00  0.00    -0.096 F 
ATOM      9  I   UNL d   1      -0.963  -0.317   0.360  0.00  0.00    -0.060 I 
ATOM     10  F2  UNL d   1      -1.213   2.619   1.609  0.00  0.00    -0.096 F 
ATOM     11  F3  UNL d   1       0.563   4.656   1.787  0.00  0.00    -0.097 F 
ATOM     12  F4  UNL d   1       3.086   4.378   0.786  0.00  0.00    -0.092 F 
ENDROOT
TORSDOF 0
ENDMDL
