MODEL 1
REMARK minimizedAffinity -2.71915913
REMARK minimizedRMSD -1
REMARK  0 active torsions:
REMARK  status: ('A' for Active; 'I' for Inactive)
ROOT
ATOM      1  C   UNL d   1       0.439   1.150  -1.205  0.00  0.00     0.124 A 
ATOM      2  C1  UNL d   1       0.405   0.140  -2.157  0.00  0.00     0.062 A 
ATOM      3  C2  UNL d   1      -0.058  -1.128  -1.816  0.00  0.00     0.162 A 
ATOM      4  C3  UNL d   1      -0.492  -1.393  -0.517  0.00  0.00    -0.034 A 
ATOM      5  C4  UNL d   1      -0.453  -0.373   0.435  0.00  0.00     0.162 A 
ATOM      6  C5  UNL d   1       0.010   0.892   0.090  0.00  0.00     0.062 A 
ATOM      7  F   UNL d   1       0.043   1.867   1.011  0.00  0.00    -0.097 F 
ATOM      8  F1  UNL d   1      -0.863  -0.594   1.693  0.00  0.00    -0.096 F 
ATOM      9  I   UNL d   1      -1.185  -3.287  -0.004  0.00  0.00    -0.060 I 
ATOM     10  F2  UNL d   1      -0.080  -2.084  -2.756  0.00  0.00    -0.096 F 
ATOM     11  F3  UNL d   1       0.819   0.386  -3.408  0.00  0.00    -0.097 F 
ATOM     12  F4  UNL d   1       0.886   2.368  -1.535  0.00  0.00    -0.092 F 
ENDROOT
TORSDOF 0
ENDMDL
