MODEL 1
REMARK minimizedAffinity 3.71405911
REMARK minimizedRMSD -1
REMARK  0 active torsions:
REMARK  status: ('A' for Active; 'I' for Inactive)
ROOT
ATOM      1  C2' OXE d   1       1.484   4.867  -5.982  0.00  0.00     0.078 C 
ATOM      2  C1' OXE d   1       1.010   3.776  -3.440  0.00  0.00     0.078 C 
ATOM      3  C1  OXE d   1      -0.113   4.537  -4.099  0.00  0.00    -0.078 A 
ATOM      4  C2  OXE d   1       0.143   5.107  -5.323  0.00  0.00    -0.078 A 
ATOM      5  C3  OXE d   1      -0.875   5.773  -6.000  0.00  0.00     0.003 A 
ATOM      6  C4  OXE d   1      -2.109   5.999  -5.379  0.00  0.00    -0.002 A 
ATOM      7  C5  OXE d   1      -2.377   5.461  -4.116  0.00  0.00    -0.002 A 
ATOM      8  C6  OXE d   1      -1.407   4.693  -3.482  0.00  0.00     0.003 A 
ENDROOT
TORSDOF 0
ENDMDL
