MODEL 1
REMARK minimizedAffinity 10.613595
REMARK minimizedRMSD -1
REMARK  0 active torsions:
REMARK  status: ('A' for Active; 'I' for Inactive)
ROOT
ATOM      1  C2' OXE d   1      -1.721  -1.217   0.725  0.00  0.00     0.078 C 
ATOM      2  C1' OXE d   1      -1.295  -3.710  -0.493  0.00  0.00     0.078 C 
ATOM      3  C1  OXE d   1      -2.592  -3.501   0.248  0.00  0.00    -0.078 A 
ATOM      4  C2  OXE d   1      -2.772  -2.294   0.881  0.00  0.00    -0.078 A 
ATOM      5  C3  OXE d   1      -3.973  -2.030   1.532  0.00  0.00     0.003 A 
ATOM      6  C4  OXE d   1      -4.936  -3.036   1.680  0.00  0.00    -0.002 A 
ATOM      7  C5  OXE d   1      -4.756  -4.285   1.077  0.00  0.00    -0.002 A 
ATOM      8  C6  OXE d   1      -3.611  -4.519   0.324  0.00  0.00     0.003 A 
ENDROOT
TORSDOF 0
ENDMDL
