MODEL 1
REMARK minimizedAffinity 4.22812033
REMARK minimizedRMSD -1
REMARK  0 active torsions:
REMARK  status: ('A' for Active; 'I' for Inactive)
ROOT
ATOM      1  C2' OXE d   1       1.790   3.923  -5.977  0.00  0.00     0.078 C 
ATOM      2  C1' OXE d   1       1.847   4.140  -3.179  0.00  0.00     0.078 C 
ATOM      3  C1  OXE d   1       0.675   4.749  -3.908  0.00  0.00    -0.078 A 
ATOM      4  C2  OXE d   1       0.679   4.679  -5.281  0.00  0.00    -0.078 A 
ATOM      5  C3  OXE d   1      -0.404   5.176  -5.999  0.00  0.00     0.003 A 
ATOM      6  C4  OXE d   1      -1.423   5.882  -5.348  0.00  0.00    -0.002 A 
ATOM      7  C5  OXE d   1      -1.426   6.000  -3.954  0.00  0.00    -0.002 A 
ATOM      8  C6  OXE d   1      -0.409   5.403  -3.218  0.00  0.00     0.003 A 
ENDROOT
TORSDOF 0
ENDMDL
