MODEL 1
REMARK minimizedAffinity 7.13156748
REMARK minimizedRMSD -1
REMARK  0 active torsions:
REMARK  status: ('A' for Active; 'I' for Inactive)
ROOT
ATOM      1  C2' OXE d   1      -2.995   0.969   5.837  0.00  0.00     0.078 C 
ATOM      2  C1' OXE d   1      -1.651   0.980   3.372  0.00  0.00     0.078 C 
ATOM      3  C1  OXE d   1      -2.961   0.237   3.456  0.00  0.00    -0.078 A 
ATOM      4  C2  OXE d   1      -3.588   0.198   4.678  0.00  0.00    -0.078 A 
ATOM      5  C3  OXE d   1      -4.826  -0.427   4.797  0.00  0.00     0.003 A 
ATOM      6  C4  OXE d   1      -5.364  -1.147   3.723  0.00  0.00    -0.002 A 
ATOM      7  C5  OXE d   1      -4.721  -1.153   2.480  0.00  0.00    -0.002 A 
ATOM      8  C6  OXE d   1      -3.543  -0.432   2.319  0.00  0.00     0.003 A 
ENDROOT
TORSDOF 0
ENDMDL
