MODEL 1
REMARK minimizedAffinity 11.1953793
REMARK minimizedRMSD -1
REMARK  0 active torsions:
REMARK  status: ('A' for Active; 'I' for Inactive)
ROOT
ATOM      1  C2' OXE d   1       1.375  -3.016   3.805  0.00  0.00     0.078 C 
ATOM      2  C1' OXE d   1      -0.057  -1.049   2.405  0.00  0.00     0.078 C 
ATOM      3  C1  OXE d   1       1.448  -1.024   2.312  0.00  0.00    -0.078 A 
ATOM      4  C2  OXE d   1       2.142  -1.961   3.038  0.00  0.00    -0.078 A 
ATOM      5  C3  OXE d   1       3.530  -2.017   2.944  0.00  0.00     0.003 A 
ATOM      6  C4  OXE d   1       4.233  -1.031   2.239  0.00  0.00    -0.002 A 
ATOM      7  C5  OXE d   1       3.546  -0.044   1.525  0.00  0.00    -0.002 A 
ATOM      8  C6  OXE d   1       2.156  -0.051   1.516  0.00  0.00     0.003 A 
ENDROOT
TORSDOF 0
ENDMDL
