MODEL 1
REMARK minimizedAffinity 13.3726664
REMARK minimizedRMSD -1
REMARK  0 active torsions:
REMARK  status: ('A' for Active; 'I' for Inactive)
ROOT
ATOM      1  C2' OXE d   1      -3.598   5.955  -5.339  0.00  0.00     0.078 C 
ATOM      2  C1' OXE d   1      -2.874   4.861  -2.857  0.00  0.00     0.078 C 
ATOM      3  C1  OXE d   1      -1.772   5.161  -3.842  0.00  0.00    -0.078 A 
ATOM      4  C2  OXE d   1      -2.139   5.652  -5.071  0.00  0.00    -0.078 A 
ATOM      5  C3  OXE d   1      -1.158   5.997  -5.997  0.00  0.00     0.003 A 
ATOM      6  C4  OXE d   1       0.188   5.704  -5.746  0.00  0.00    -0.002 A 
ATOM      7  C5  OXE d   1       0.580   5.167  -4.515  0.00  0.00    -0.002 A 
ATOM      8  C6  OXE d   1      -0.381   4.929  -3.538  0.00  0.00     0.003 A 
ENDROOT
TORSDOF 0
ENDMDL
