MODEL 1
REMARK minimizedAffinity 6.00607824
REMARK minimizedRMSD -1
REMARK  0 active torsions:
REMARK  status: ('A' for Active; 'I' for Inactive)
ROOT
ATOM      1  C2' OXE d   1       4.801  -1.428   2.253  0.00  0.00     0.078 C 
ATOM      2  C1' OXE d   1       2.382  -0.003   2.244  0.00  0.00     0.078 C 
ATOM      3  C1  OXE d   1       3.635   0.740   2.636  0.00  0.00    -0.078 A 
ATOM      4  C2  OXE d   1       4.806   0.023   2.683  0.00  0.00    -0.078 A 
ATOM      5  C3  OXE d   1       6.000   0.672   2.985  0.00  0.00     0.003 A 
ATOM      6  C4  OXE d   1       5.995   2.012   3.391  0.00  0.00    -0.002 A 
ATOM      7  C5  OXE d   1       4.806   2.750   3.389  0.00  0.00    -0.002 A 
ATOM      8  C6  OXE d   1       3.627   2.142   2.973  0.00  0.00     0.003 A 
ENDROOT
TORSDOF 0
ENDMDL
