MODEL 1
REMARK minimizedAffinity 7.01892424
REMARK minimizedRMSD -1
REMARK  0 active torsions:
REMARK  status: ('A' for Active; 'I' for Inactive)
ROOT
ATOM      1  C2' OXE d   1       2.681   0.412   1.178  0.00  0.00     0.078 C 
ATOM      2  C1' OXE d   1       2.472   3.180   1.600  0.00  0.00     0.078 C 
ATOM      3  C1  OXE d   1       3.732   2.491   2.061  0.00  0.00    -0.078 A 
ATOM      4  C2  OXE d   1       3.806   1.129   1.893  0.00  0.00    -0.078 A 
ATOM      5  C3  OXE d   1       4.968   0.453   2.251  0.00  0.00     0.003 A 
ATOM      6  C4  OXE d   1       6.000   1.122   2.921  0.00  0.00    -0.002 A 
ATOM      7  C5  OXE d   1       5.928   2.502   3.138  0.00  0.00    -0.002 A 
ATOM      8  C6  OXE d   1       4.822   3.207   2.677  0.00  0.00     0.003 A 
ENDROOT
TORSDOF 0
ENDMDL
