MODEL 1
REMARK minimizedAffinity 5.7528019
REMARK minimizedRMSD -1
REMARK  0 active torsions:
REMARK  status: ('A' for Active; 'I' for Inactive)
ROOT
ATOM      1  C2' OXE d   1       0.666  -1.797   2.015  0.00  0.00     0.078 C 
ATOM      2  C1' OXE d   1       1.025  -3.822   0.104  0.00  0.00     0.078 C 
ATOM      3  C1  OXE d   1      -0.387  -3.399   0.424  0.00  0.00    -0.078 A 
ATOM      4  C2  OXE d   1      -0.555  -2.440   1.395  0.00  0.00    -0.078 A 
ATOM      5  C3  OXE d   1      -1.834  -1.975   1.690  0.00  0.00     0.003 A 
ATOM      6  C4  OXE d   1      -2.958  -2.583   1.119  0.00  0.00    -0.002 A 
ATOM      7  C5  OXE d   1      -2.811  -3.588   0.158  0.00  0.00    -0.002 A 
ATOM      8  C6  OXE d   1      -1.534  -3.978  -0.231  0.00  0.00     0.003 A 
ENDROOT
TORSDOF 0
ENDMDL
