MODEL 1
REMARK minimizedAffinity 4.09798956
REMARK minimizedRMSD -1
REMARK  0 active torsions:
REMARK  status: ('A' for Active; 'I' for Inactive)
ROOT
ATOM      1  C2' OXE d   1      -1.904  -0.023   2.878  0.00  0.00     0.078 C 
ATOM      2  C1' OXE d   1      -1.750  -2.011   0.902  0.00  0.00     0.078 C 
ATOM      3  C1  OXE d   1      -2.656  -0.833   0.646  0.00  0.00    -0.078 A 
ATOM      4  C2  OXE d   1      -2.761   0.112   1.638  0.00  0.00    -0.078 A 
ATOM      5  C3  OXE d   1      -3.540   1.247   1.430  0.00  0.00     0.003 A 
ATOM      6  C4  OXE d   1      -4.337   1.359   0.284  0.00  0.00    -0.002 A 
ATOM      7  C5  OXE d   1      -4.275   0.388  -0.721  0.00  0.00    -0.002 A 
ATOM      8  C6  OXE d   1      -3.410  -0.690  -0.576  0.00  0.00     0.003 A 
ENDROOT
TORSDOF 0
ENDMDL
