MODEL 1
REMARK minimizedAffinity 9.63309193
REMARK minimizedRMSD -1
REMARK  0 active torsions:
REMARK  status: ('A' for Active; 'I' for Inactive)
ROOT
ATOM      1  C2' OXE d   1      -1.616   5.926  -5.938  0.00  0.00     0.078 C 
ATOM      2  C1' OXE d   1      -0.743   5.986  -3.271  0.00  0.00     0.078 C 
ATOM      3  C1  OXE d   1      -2.230   5.967  -3.524  0.00  0.00    -0.078 A 
ATOM      4  C2  OXE d   1      -2.648   5.984  -4.833  0.00  0.00    -0.078 A 
ATOM      5  C3  OXE d   1      -4.008   5.912  -5.123  0.00  0.00     0.003 A 
ATOM      6  C4  OXE d   1      -4.956   5.976  -4.095  0.00  0.00    -0.002 A 
ATOM      7  C5  OXE d   1      -4.551   5.999  -2.756  0.00  0.00    -0.002 A 
ATOM      8  C6  OXE d   1      -3.195   5.952  -2.453  0.00  0.00     0.003 A 
ENDROOT
TORSDOF 0
ENDMDL
