MODEL 1
REMARK minimizedAffinity 13.6329432
REMARK minimizedRMSD -1
REMARK  0 active torsions:
REMARK  status: ('A' for Active; 'I' for Inactive)
ROOT
ATOM      1  C2' OXE d   1      -0.636  -3.624   0.709  0.00  0.00     0.078 C 
ATOM      2  C1' OXE d   1      -1.704  -1.032   0.842  0.00  0.00     0.078 C 
ATOM      3  C1  OXE d   1      -0.931  -1.536   2.034  0.00  0.00    -0.078 A 
ATOM      4  C2  OXE d   1      -0.452  -2.823   1.980  0.00  0.00    -0.078 A 
ATOM      5  C3  OXE d   1       0.315  -3.318   3.030  0.00  0.00     0.003 A 
ATOM      6  C4  OXE d   1       0.472  -2.573   4.206  0.00  0.00    -0.002 A 
ATOM      7  C5  OXE d   1      -0.042  -1.276   4.298  0.00  0.00    -0.002 A 
ATOM      8  C6  OXE d   1      -0.708  -0.727   3.208  0.00  0.00     0.003 A 
ENDROOT
TORSDOF 0
ENDMDL
