MODEL 1
REMARK minimizedAffinity 4.05759525
REMARK minimizedRMSD -1
REMARK  0 active torsions:
REMARK  status: ('A' for Active; 'I' for Inactive)
ROOT
ATOM      1  C2' OXE d   1      -3.801   4.542  -1.828  0.00  0.00     0.078 C 
ATOM      2  C1' OXE d   1      -5.996   5.989  -2.812  0.00  0.00     0.078 C 
ATOM      3  C1  OXE d   1      -4.893   5.640  -3.780  0.00  0.00    -0.078 A 
ATOM      4  C2  OXE d   1      -3.801   4.973  -3.279  0.00  0.00    -0.078 A 
ATOM      5  C3  OXE d   1      -2.781   4.578  -4.140  0.00  0.00     0.003 A 
ATOM      6  C4  OXE d   1      -2.784   4.989  -5.478  0.00  0.00    -0.002 A 
ATOM      7  C5  OXE d   1      -3.867   5.704  -5.999  0.00  0.00    -0.002 A 
ATOM      8  C6  OXE d   1      -4.948   6.000  -5.175  0.00  0.00     0.003 A 
ENDROOT
TORSDOF 0
ENDMDL
