MODEL 1
REMARK minimizedAffinity 4.29717731
REMARK minimizedRMSD -1
REMARK  0 active torsions:
REMARK  status: ('A' for Active; 'I' for Inactive)
ROOT
ATOM      1  C2' OXE d   1      -0.568  -5.252  -5.304  0.00  0.00     0.078 C 
ATOM      2  C1' OXE d   1      -1.727  -3.294  -3.660  0.00  0.00     0.078 C 
ATOM      3  C1  OXE d   1      -2.651  -4.185  -4.451  0.00  0.00    -0.078 A 
ATOM      4  C2  OXE d   1      -2.075  -5.110  -5.288  0.00  0.00    -0.078 A 
ATOM      5  C3  OXE d   1      -2.882  -5.994  -5.999  0.00  0.00     0.003 A 
ATOM      6  C4  OXE d   1      -4.274  -5.849  -5.987  0.00  0.00    -0.002 A 
ATOM      7  C5  OXE d   1      -4.881  -4.888  -5.171  0.00  0.00    -0.002 A 
ATOM      8  C6  OXE d   1      -4.087  -4.078  -4.366  0.00  0.00     0.003 A 
ENDROOT
TORSDOF 0
ENDMDL
