MODEL 1
REMARK minimizedAffinity 7.74462986
REMARK minimizedRMSD -1
REMARK  0 active torsions:
REMARK  status: ('A' for Active; 'I' for Inactive)
ROOT
ATOM      1  C2' OXE d   1      -4.515   5.932  -5.604  0.00  0.00     0.078 C 
ATOM      2  C1' OXE d   1      -4.075   5.364  -2.891  0.00  0.00     0.078 C 
ATOM      3  C1  OXE d   1      -2.871   5.449  -3.796  0.00  0.00    -0.078 A 
ATOM      4  C2  OXE d   1      -3.099   5.681  -5.131  0.00  0.00    -0.078 A 
ATOM      5  C3  OXE d   1      -2.021   5.823  -6.000  0.00  0.00     0.003 A 
ATOM      6  C4  OXE d   1      -0.716   5.580  -5.556  0.00  0.00    -0.002 A 
ATOM      7  C5  OXE d   1      -0.465   5.303  -4.208  0.00  0.00    -0.002 A 
ATOM      8  C6  OXE d   1      -1.525   5.276  -3.309  0.00  0.00     0.003 A 
ENDROOT
TORSDOF 0
ENDMDL
