MODEL 1
REMARK minimizedAffinity 11.4830885
REMARK minimizedRMSD -1
REMARK  0 active torsions:
REMARK  status: ('A' for Active; 'I' for Inactive)
ROOT
ATOM      1  C2' OXE d   1      -2.281  -2.192   0.680  0.00  0.00     0.078 C 
ATOM      2  C1' OXE d   1      -1.147  -0.325   2.444  0.00  0.00     0.078 C 
ATOM      3  C1  OXE d   1      -2.256   0.147   1.537  0.00  0.00    -0.078 A 
ATOM      4  C2  OXE d   1      -2.773  -0.762   0.645  0.00  0.00    -0.078 A 
ATOM      5  C3  OXE d   1      -3.835  -0.394  -0.177  0.00  0.00     0.003 A 
ATOM      6  C4  OXE d   1      -4.277   0.934  -0.211  0.00  0.00    -0.002 A 
ATOM      7  C5  OXE d   1      -3.737   1.885   0.661  0.00  0.00    -0.002 A 
ATOM      8  C6  OXE d   1      -2.757   1.498   1.569  0.00  0.00     0.003 A 
ENDROOT
TORSDOF 0
ENDMDL
