MODEL 1
REMARK minimizedAffinity 5.57197571
REMARK minimizedRMSD -1
REMARK  0 active torsions:
REMARK  status: ('A' for Active; 'I' for Inactive)
ROOT
ATOM      1  C2' OXE d   1      -3.507  -0.076  -1.664  0.00  0.00     0.078 C 
ATOM      2  C1' OXE d   1      -4.216   1.992   0.097  0.00  0.00     0.078 C 
ATOM      3  C1  OXE d   1      -3.395   0.852   0.646  0.00  0.00    -0.078 A 
ATOM      4  C2  OXE d   1      -3.092  -0.179  -0.212  0.00  0.00    -0.078 A 
ATOM      5  C3  OXE d   1      -2.291  -1.228   0.228  0.00  0.00     0.003 A 
ATOM      6  C4  OXE d   1      -1.920  -1.321   1.575  0.00  0.00    -0.002 A 
ATOM      7  C5  OXE d   1      -2.251  -0.302   2.474  0.00  0.00    -0.002 A 
ATOM      8  C6  OXE d   1      -2.951   0.810   2.017  0.00  0.00     0.003 A 
ENDROOT
TORSDOF 0
ENDMDL
