MODEL 1
REMARK minimizedAffinity -0.29699415
REMARK minimizedRMSD -1
REMARK  0 active torsions:
REMARK  status: ('A' for Active; 'I' for Inactive)
ROOT
ATOM      1  C   UNL d   1       1.653  -0.467  -1.903  0.00  0.00     0.124 A 
ATOM      2  C1  UNL d   1       1.069  -1.557  -1.273  0.00  0.00     0.062 A 
ATOM      3  C2  UNL d   1       0.474  -1.407  -0.023  0.00  0.00     0.162 A 
ATOM      4  C3  UNL d   1       0.460  -0.161   0.604  0.00  0.00    -0.034 A 
ATOM      5  C4  UNL d   1       1.051   0.930  -0.035  0.00  0.00     0.162 A 
ATOM      6  C5  UNL d   1       1.644   0.775  -1.284  0.00  0.00     0.062 A 
ATOM      7  F   UNL d   1       2.208   1.829  -1.891  0.00  0.00    -0.097 F 
ATOM      8  F1  UNL d   1       1.055   2.142   0.540  0.00  0.00    -0.096 F 
ATOM      9  I   UNL d   1      -0.429   0.068   2.472  0.00  0.00    -0.060 I 
ATOM     10  F2  UNL d   1      -0.084  -2.477   0.562  0.00  0.00    -0.096 F 
ATOM     11  F3  UNL d   1       1.077  -2.758  -1.868  0.00  0.00    -0.097 F 
ATOM     12  F4  UNL d   1       2.226  -0.614  -3.104  0.00  0.00    -0.092 F 
ENDROOT
TORSDOF 0
ENDMDL
