MODEL 1
REMARK minimizedAffinity 3.85665369
REMARK minimizedRMSD -1
REMARK  0 active torsions:
REMARK  status: ('A' for Active; 'I' for Inactive)
ROOT
ATOM      1  C   UNL d   1       1.879  -0.474  -0.885  0.00  0.00     0.124 A 
ATOM      2  C1  UNL d   1       1.083  -1.483  -0.363  0.00  0.00     0.062 A 
ATOM      3  C2  UNL d   1       0.051  -1.176   0.519  0.00  0.00     0.162 A 
ATOM      4  C3  UNL d   1      -0.190   0.149   0.885  0.00  0.00    -0.034 A 
ATOM      5  C4  UNL d   1       0.616   1.159   0.356  0.00  0.00     0.162 A 
ATOM      6  C5  UNL d   1       1.645   0.846  -0.525  0.00  0.00     0.062 A 
ATOM      7  F   UNL d   1       2.414   1.822  -1.028  0.00  0.00    -0.097 F 
ATOM      8  F1  UNL d   1       0.411   2.442   0.687  0.00  0.00    -0.096 F 
ATOM      9  I   UNL d   1      -1.732   0.613   2.204  0.00  0.00    -0.060 I 
ATOM     10  F2  UNL d   1      -0.703  -2.171   1.008  0.00  0.00    -0.096 F 
ATOM     11  F3  UNL d   1       1.308  -2.759  -0.709  0.00  0.00    -0.097 F 
ATOM     12  F4  UNL d   1       2.872  -0.773  -1.733  0.00  0.00    -0.092 F 
ENDROOT
TORSDOF 0
ENDMDL
