MODEL 1
REMARK minimizedAffinity 1.98902702
REMARK minimizedRMSD -1
REMARK  0 active torsions:
REMARK  status: ('A' for Active; 'I' for Inactive)
ROOT
ATOM      1  C   UNL d   1      -1.159   0.670  -0.926  0.00  0.00     0.124 A 
ATOM      2  C1  UNL d   1      -0.356  -0.434  -1.175  0.00  0.00     0.062 A 
ATOM      3  C2  UNL d   1       1.030  -0.307  -1.168  0.00  0.00     0.162 A 
ATOM      4  C3  UNL d   1       1.623   0.929  -0.910  0.00  0.00    -0.034 A 
ATOM      5  C4  UNL d   1       0.808   2.035  -0.661  0.00  0.00     0.162 A 
ATOM      6  C5  UNL d   1      -0.576   1.903  -0.669  0.00  0.00     0.062 A 
ATOM      7  F   UNL d   1      -1.351   2.972  -0.428  0.00  0.00    -0.097 F 
ATOM      8  F1  UNL d   1       1.345   3.238  -0.409  0.00  0.00    -0.096 F 
ATOM      9  I   UNL d   1       3.695   1.122  -0.898  0.00  0.00    -0.060 I 
ATOM     10  F2  UNL d   1       1.781  -1.392  -1.412  0.00  0.00    -0.096 F 
ATOM     11  F3  UNL d   1      -0.917  -1.626  -1.424  0.00  0.00    -0.097 F 
ATOM     12  F4  UNL d   1      -2.492   0.546  -0.934  0.00  0.00    -0.092 F 
ENDROOT
TORSDOF 0
ENDMDL
