MODEL 1
REMARK minimizedAffinity 1.95727539
REMARK minimizedRMSD -1
REMARK  0 active torsions:
REMARK  status: ('A' for Active; 'I' for Inactive)
ROOT
ATOM      1  C   UNL d   1       0.350  -1.295  -1.857  0.00  0.00     0.124 A 
ATOM      2  C1  UNL d   1       1.137  -0.342  -2.488  0.00  0.00     0.062 A 
ATOM      3  C2  UNL d   1       1.568   0.783  -1.791  0.00  0.00     0.162 A 
ATOM      4  C3  UNL d   1       1.214   0.961  -0.454  0.00  0.00    -0.034 A 
ATOM      5  C4  UNL d   1       0.421  -0.002   0.174  0.00  0.00     0.162 A 
ATOM      6  C5  UNL d   1      -0.007  -1.124  -0.527  0.00  0.00     0.062 A 
ATOM      7  F   UNL d   1      -0.767  -2.045   0.085  0.00  0.00    -0.097 F 
ATOM      8  F1  UNL d   1       0.063   0.138   1.459  0.00  0.00    -0.096 F 
ATOM      9  I   UNL d   1       1.856   2.642   0.592  0.00  0.00    -0.060 I 
ATOM     10  F2  UNL d   1       2.327   1.688  -2.426  0.00  0.00    -0.096 F 
ATOM     11  F3  UNL d   1       1.482  -0.504  -3.773  0.00  0.00    -0.097 F 
ATOM     12  F4  UNL d   1      -0.064  -2.376  -2.530  0.00  0.00    -0.092 F 
ENDROOT
TORSDOF 0
ENDMDL
