MODEL 1
REMARK minimizedAffinity 16.3664646
REMARK minimizedRMSD -1
REMARK  0 active torsions:
REMARK  status: ('A' for Active; 'I' for Inactive)
ROOT
ATOM      1  C   UNL d   1      -2.196   0.344  -5.992  0.00  0.00     0.124 A 
ATOM      2  C1  UNL d   1      -1.681   1.633  -5.991  0.00  0.00     0.062 A 
ATOM      3  C2  UNL d   1      -2.539   2.729  -5.991  0.00  0.00     0.162 A 
ATOM      4  C3  UNL d   1      -3.921   2.541  -5.992  0.00  0.00    -0.034 A 
ATOM      5  C4  UNL d   1      -4.431   1.241  -5.994  0.00  0.00     0.162 A 
ATOM      6  C5  UNL d   1      -3.570   0.149  -5.994  0.00  0.00     0.062 A 
ATOM      7  F   UNL d   1      -4.069  -1.095  -5.996  0.00  0.00    -0.097 F 
ATOM      8  F1  UNL d   1      -5.755   1.025  -5.995  0.00  0.00    -0.096 F 
ATOM      9  I   UNL d   1      -5.207   4.177  -5.992  0.00  0.00    -0.060 I 
ATOM     10  F2  UNL d   1      -2.014   3.963  -5.989  0.00  0.00    -0.096 F 
ATOM     11  F3  UNL d   1      -0.354   1.823  -5.990  0.00  0.00    -0.097 F 
ATOM     12  F4  UNL d   1      -1.368  -0.709  -5.993  0.00  0.00    -0.092 F 
ENDROOT
TORSDOF 0
ENDMDL
