MODEL 1
REMARK minimizedAffinity 10.2390614
REMARK minimizedRMSD -1
REMARK  0 active torsions:
REMARK  status: ('A' for Active; 'I' for Inactive)
ROOT
ATOM      1  C   UNL d   1      -4.152   0.550  -5.791  0.00  0.00     0.124 A 
ATOM      2  C1  UNL d   1      -2.777   0.361  -5.776  0.00  0.00     0.062 A 
ATOM      3  C2  UNL d   1      -1.920   1.457  -5.810  0.00  0.00     0.162 A 
ATOM      4  C3  UNL d   1      -2.435   2.753  -5.858  0.00  0.00    -0.034 A 
ATOM      5  C4  UNL d   1      -3.819   2.934  -5.873  0.00  0.00     0.162 A 
ATOM      6  C5  UNL d   1      -4.672   1.835  -5.840  0.00  0.00     0.062 A 
ATOM      7  F   UNL d   1      -6.000   2.019  -5.854  0.00  0.00    -0.097 F 
ATOM      8  F1  UNL d   1      -4.348   4.166  -5.919  0.00  0.00    -0.096 F 
ATOM      9  I   UNL d   1      -1.157   4.394  -5.908  0.00  0.00    -0.060 I 
ATOM     10  F2  UNL d   1      -0.595   1.246  -5.794  0.00  0.00    -0.096 F 
ATOM     11  F3  UNL d   1      -2.272  -0.880  -5.730  0.00  0.00    -0.097 F 
ATOM     12  F4  UNL d   1      -4.974  -0.507  -5.760  0.00  0.00    -0.092 F 
ENDROOT
TORSDOF 0
ENDMDL
