MODEL 1
REMARK minimizedAffinity 6.32230568
REMARK minimizedRMSD -1
REMARK  0 active torsions:
REMARK  status: ('A' for Active; 'I' for Inactive)
ROOT
ATOM      1  C   UNL d   1       0.230  -1.050   0.494  0.00  0.00     0.124 A 
ATOM      2  C1  UNL d   1       0.435  -0.103   1.487  0.00  0.00     0.062 A 
ATOM      3  C2  UNL d   1       0.872   1.176   1.155  0.00  0.00     0.162 A 
ATOM      4  C3  UNL d   1       1.106   1.517  -0.177  0.00  0.00    -0.034 A 
ATOM      5  C4  UNL d   1       0.898   0.558  -1.171  0.00  0.00     0.162 A 
ATOM      6  C5  UNL d   1       0.461  -0.719  -0.834  0.00  0.00     0.062 A 
ATOM      7  F   UNL d   1       0.263  -1.632  -1.795  0.00  0.00    -0.097 F 
ATOM      8  F1  UNL d   1       1.113   0.852  -2.462  0.00  0.00    -0.096 F 
ATOM      9  I   UNL d   1       1.759   3.428  -0.678  0.00  0.00    -0.060 I 
ATOM     10  F2  UNL d   1       1.063   2.072   2.136  0.00  0.00    -0.096 F 
ATOM     11  F3  UNL d   1       0.213  -0.420   2.771  0.00  0.00    -0.097 F 
ATOM     12  F4  UNL d   1      -0.190  -2.280   0.816  0.00  0.00    -0.092 F 
ENDROOT
TORSDOF 0
ENDMDL
