MODEL 1
REMARK minimizedAffinity 7.9843874
REMARK minimizedRMSD -1
REMARK  0 active torsions:
REMARK  status: ('A' for Active; 'I' for Inactive)
ROOT
ATOM      1  C   UNL d   1       0.026  -1.595  -1.335  0.00  0.00     0.124 A 
ATOM      2  C1  UNL d   1       0.864  -0.688  -1.969  0.00  0.00     0.062 A 
ATOM      3  C2  UNL d   1       1.341   0.424  -1.281  0.00  0.00     0.162 A 
ATOM      4  C3  UNL d   1       0.981   0.635   0.050  0.00  0.00    -0.034 A 
ATOM      5  C4  UNL d   1       0.138  -0.281   0.681  0.00  0.00     0.162 A 
ATOM      6  C5  UNL d   1      -0.336  -1.391  -0.011  0.00  0.00     0.062 A 
ATOM      7  F   UNL d   1      -1.145  -2.266   0.603  0.00  0.00    -0.097 F 
ATOM      8  F1  UNL d   1      -0.227  -0.109   1.960  0.00  0.00    -0.096 F 
ATOM      9  I   UNL d   1       1.692   2.297   1.083  0.00  0.00    -0.060 I 
ATOM     10  F2  UNL d   1       2.149   1.284  -1.919  0.00  0.00    -0.096 F 
ATOM     11  F3  UNL d   1       1.215  -0.882  -3.249  0.00  0.00    -0.097 F 
ATOM     12  F4  UNL d   1      -0.431  -2.663  -2.000  0.00  0.00    -0.092 F 
ENDROOT
TORSDOF 0
ENDMDL
