MODEL 1
REMARK minimizedAffinity 14.5324545
REMARK minimizedRMSD -1
REMARK  0 active torsions:
REMARK  status: ('A' for Active; 'I' for Inactive)
ROOT
ATOM      1  C   UNL d   1       0.857   2.509  -0.580  0.00  0.00     0.124 A 
ATOM      2  C1  UNL d   1       1.466   1.888   0.501  0.00  0.00     0.062 A 
ATOM      3  C2  UNL d   1       2.008   2.650   1.532  0.00  0.00     0.162 A 
ATOM      4  C3  UNL d   1       1.942   4.042   1.488  0.00  0.00    -0.034 A 
ATOM      5  C4  UNL d   1       1.328   4.660   0.397  0.00  0.00     0.162 A 
ATOM      6  C5  UNL d   1       0.788   3.894  -0.631  0.00  0.00     0.062 A 
ATOM      7  F   UNL d   1       0.200   4.496  -1.675  0.00  0.00    -0.097 F 
ATOM      8  F1  UNL d   1       1.248   5.997   0.322  0.00  0.00    -0.096 F 
ATOM      9  I   UNL d   1       2.751   5.185   3.027  0.00  0.00    -0.060 I 
ATOM     10  F2  UNL d   1       2.591   2.023   2.565  0.00  0.00    -0.096 F 
ATOM     11  F3  UNL d   1       1.534   0.550   0.553  0.00  0.00    -0.097 F 
ATOM     12  F4  UNL d   1       0.337   1.774  -1.571  0.00  0.00    -0.092 F 
ENDROOT
TORSDOF 0
ENDMDL
