MODEL 1
REMARK minimizedAffinity 34.6839256
REMARK minimizedRMSD -1
REMARK  0 active torsions:
REMARK  status: ('A' for Active; 'I' for Inactive)
ROOT
ATOM      1  C   UNL d   1      -3.669   1.722   2.782  0.00  0.00     0.124 A 
ATOM      2  C1  UNL d   1      -3.507   2.696   1.806  0.00  0.00     0.062 A 
ATOM      3  C2  UNL d   1      -2.923   3.918   2.127  0.00  0.00     0.162 A 
ATOM      4  C3  UNL d   1      -2.496   4.173   3.430  0.00  0.00    -0.034 A 
ATOM      5  C4  UNL d   1      -2.663   3.189   4.406  0.00  0.00     0.162 A 
ATOM      6  C5  UNL d   1      -3.247   1.970   4.081  0.00  0.00     0.062 A 
ATOM      7  F   UNL d   1      -3.404   1.030   5.025  0.00  0.00    -0.097 F 
ATOM      8  F1  UNL d   1      -2.264   3.402   5.669  0.00  0.00    -0.096 F 
ATOM      9  I   UNL d   1      -1.622   5.999   3.914  0.00  0.00    -0.060 I 
ATOM     10  F2  UNL d   1      -2.778   4.841   1.164  0.00  0.00    -0.096 F 
ATOM     11  F3  UNL d   1      -3.914   2.460   0.551  0.00  0.00    -0.097 F 
ATOM     12  F4  UNL d   1      -4.232   0.548   2.470  0.00  0.00    -0.092 F 
ENDROOT
TORSDOF 0
ENDMDL
