MODEL 1
REMARK minimizedAffinity 30.1796551
REMARK minimizedRMSD -1
REMARK  0 active torsions:
REMARK  status: ('A' for Active; 'I' for Inactive)
ROOT
ATOM      1  C   UNL d   1       0.373  -2.441  -0.724  0.00  0.00     0.124 A 
ATOM      2  C1  UNL d   1       1.451  -3.265  -1.021  0.00  0.00     0.062 A 
ATOM      3  C2  UNL d   1       1.316  -4.281  -1.962  0.00  0.00     0.162 A 
ATOM      4  C3  UNL d   1       0.099  -4.480  -2.614  0.00  0.00    -0.034 A 
ATOM      5  C4  UNL d   1      -0.980  -3.649  -2.309  0.00  0.00     0.162 A 
ATOM      6  C5  UNL d   1      -0.841  -2.634  -1.368  0.00  0.00     0.062 A 
ATOM      7  F   UNL d   1      -1.883  -1.840  -1.082  0.00  0.00    -0.097 F 
ATOM      8  F1  UNL d   1      -2.165  -3.813  -2.917  0.00  0.00    -0.096 F 
ATOM      9  I   UNL d   1      -0.106  -6.000  -4.022  0.00  0.00    -0.060 I 
ATOM     10  F2  UNL d   1       2.374  -5.062  -2.230  0.00  0.00    -0.096 F 
ATOM     11  F3  UNL d   1       2.624  -3.081  -0.400  0.00  0.00    -0.097 F 
ATOM     12  F4  UNL d   1       0.505  -1.465   0.183  0.00  0.00    -0.092 F 
ENDROOT
TORSDOF 0
ENDMDL
