MODEL 1
REMARK minimizedAffinity 23.3282681
REMARK minimizedRMSD -1
REMARK  0 active torsions:
REMARK  status: ('A' for Active; 'I' for Inactive)
ROOT
ATOM      1  C   UNL d   1      -4.128   2.048   2.181  0.00  0.00     0.124 A 
ATOM      2  C1  UNL d   1      -3.932   0.784   2.719  0.00  0.00     0.062 A 
ATOM      3  C2  UNL d   1      -3.084   0.611   3.809  0.00  0.00     0.162 A 
ATOM      4  C3  UNL d   1      -2.426   1.705   4.369  0.00  0.00    -0.034 A 
ATOM      5  C4  UNL d   1      -2.627   2.974   3.822  0.00  0.00     0.162 A 
ATOM      6  C5  UNL d   1      -3.476   3.142   2.733  0.00  0.00     0.062 A 
ATOM      7  F   UNL d   1      -3.664   4.364   2.215  0.00  0.00    -0.097 F 
ATOM      8  F1  UNL d   1      -2.010   4.048   4.336  0.00  0.00    -0.096 F 
ATOM      9  I   UNL d   1      -1.156   1.450   5.999  0.00  0.00    -0.060 I 
ATOM     10  F2  UNL d   1      -2.913  -0.622   4.308  0.00  0.00    -0.096 F 
ATOM     11  F3  UNL d   1      -4.561  -0.274   2.188  0.00  0.00    -0.097 F 
ATOM     12  F4  UNL d   1      -4.945   2.212   1.132  0.00  0.00    -0.092 F 
ENDROOT
TORSDOF 0
ENDMDL
