MODEL 1
REMARK minimizedAffinity 24.7037468
REMARK minimizedRMSD -1
REMARK  0 active torsions:
REMARK  status: ('A' for Active; 'I' for Inactive)
ROOT
ATOM      1  C   UNL d   1      -3.970   1.643   2.979  0.00  0.00     0.124 A 
ATOM      2  C1  UNL d   1      -3.989   2.619   1.991  0.00  0.00     0.062 A 
ATOM      3  C2  UNL d   1      -3.373   3.848   2.209  0.00  0.00     0.162 A 
ATOM      4  C3  UNL d   1      -2.731   4.109   3.420  0.00  0.00    -0.034 A 
ATOM      5  C4  UNL d   1      -2.717   3.123   4.408  0.00  0.00     0.162 A 
ATOM      6  C5  UNL d   1      -3.333   1.896   4.186  0.00  0.00     0.062 A 
ATOM      7  F   UNL d   1      -3.313   0.955   5.141  0.00  0.00    -0.097 F 
ATOM      8  F1  UNL d   1      -2.108   3.340   5.584  0.00  0.00    -0.096 F 
ATOM      9  I   UNL d   1      -1.809   5.945   3.749  0.00  0.00    -0.060 I 
ATOM     10  F2  UNL d   1      -3.408   4.772   1.237  0.00  0.00    -0.096 F 
ATOM     11  F3  UNL d   1      -4.604   2.377   0.825  0.00  0.00    -0.097 F 
ATOM     12  F4  UNL d   1      -4.564   0.462   2.767  0.00  0.00    -0.092 F 
ENDROOT
TORSDOF 0
ENDMDL
