MODEL 1
REMARK minimizedAffinity 4.558393
REMARK minimizedRMSD -1
REMARK  0 active torsions:
REMARK  status: ('A' for Active; 'I' for Inactive)
ROOT
ATOM      1  C   UNL d   1      -0.201   1.219   0.227  0.00  0.00     0.124 A 
ATOM      2  C1  UNL d   1       0.550   1.304  -0.937  0.00  0.00     0.062 A 
ATOM      3  C2  UNL d   1       1.560   0.379  -1.187  0.00  0.00     0.162 A 
ATOM      4  C3  UNL d   1       1.824  -0.640  -0.271  0.00  0.00    -0.034 A 
ATOM      5  C4  UNL d   1       1.065  -0.718   0.898  0.00  0.00     0.162 A 
ATOM      6  C5  UNL d   1       0.056   0.209   1.143  0.00  0.00     0.062 A 
ATOM      7  F   UNL d   1      -0.669   0.126   2.267  0.00  0.00    -0.097 F 
ATOM      8  F1  UNL d   1       1.292  -1.684   1.799  0.00  0.00    -0.096 F 
ATOM      9  I   UNL d   1       3.333  -2.024  -0.641  0.00  0.00    -0.060 I 
ATOM     10  F2  UNL d   1       2.271   0.485  -2.320  0.00  0.00    -0.096 F 
ATOM     11  F3  UNL d   1       0.304   2.279  -1.823  0.00  0.00    -0.097 F 
ATOM     12  F4  UNL d   1      -1.172   2.111   0.465  0.00  0.00    -0.092 F 
ENDROOT
TORSDOF 0
ENDMDL
