MODEL 1
REMARK minimizedAffinity -0.935788572
REMARK minimizedRMSD -1
REMARK  0 active torsions:
REMARK  status: ('A' for Active; 'I' for Inactive)
ROOT
ATOM      1  C2' OXE d   1      -2.174   1.215  -5.253  0.00  0.00     0.078 C 
ATOM      2  C1' OXE d   1      -4.863   0.508  -5.637  0.00  0.00     0.078 C 
ATOM      3  C1  OXE d   1      -4.502   1.971  -5.713  0.00  0.00    -0.078 A 
ATOM      4  C2  OXE d   1      -3.192   2.312  -5.478  0.00  0.00    -0.078 A 
ATOM      5  C3  OXE d   1      -2.795   3.641  -5.590  0.00  0.00     0.003 A 
ATOM      6  C4  OXE d   1      -3.745   4.651  -5.788  0.00  0.00    -0.002 A 
ATOM      7  C5  OXE d   1      -5.091   4.329  -5.991  0.00  0.00    -0.002 A 
ATOM      8  C6  OXE d   1      -5.479   2.993  -5.999  0.00  0.00     0.003 A 
ENDROOT
TORSDOF 0
ENDMDL
