MODEL 1
REMARK minimizedAffinity -0.323984981
REMARK minimizedRMSD -1
REMARK  0 active torsions:
REMARK  status: ('A' for Active; 'I' for Inactive)
ROOT
ATOM      1  C2' OXE d   1      -1.610   0.803  -3.923  0.00  0.00     0.078 C 
ATOM      2  C1' OXE d   1      -4.148   0.074  -4.877  0.00  0.00     0.078 C 
ATOM      3  C1  OXE d   1      -3.680   1.486  -5.130  0.00  0.00    -0.078 A 
ATOM      4  C2  OXE d   1      -2.457   1.847  -4.619  0.00  0.00    -0.078 A 
ATOM      5  C3  OXE d   1      -1.954   3.120  -4.871  0.00  0.00     0.003 A 
ATOM      6  C4  OXE d   1      -2.747   4.083  -5.506  0.00  0.00    -0.002 A 
ATOM      7  C5  OXE d   1      -4.013   3.747  -5.999  0.00  0.00    -0.002 A 
ATOM      8  C6  OXE d   1      -4.475   2.444  -5.857  0.00  0.00     0.003 A 
ENDROOT
TORSDOF 0
ENDMDL
