MODEL 1
REMARK minimizedAffinity -4.39034033
REMARK minimizedRMSD -1
REMARK  0 active torsions:
REMARK  status: ('A' for Active; 'I' for Inactive)
ROOT
ATOM      1  C2' OXE d   1       3.557   1.356  -1.095  0.00  0.00     0.078 C 
ATOM      2  C1' OXE d   1       1.242  -0.181  -0.696  0.00  0.00     0.078 C 
ATOM      3  C1  OXE d   1       2.463  -0.877  -1.244  0.00  0.00    -0.078 A 
ATOM      4  C2  OXE d   1       3.576  -0.108  -1.480  0.00  0.00    -0.078 A 
ATOM      5  C3  OXE d   1       4.746  -0.710  -1.934  0.00  0.00     0.003 A 
ATOM      6  C4  OXE d   1       4.753  -2.062  -2.297  0.00  0.00    -0.002 A 
ATOM      7  C5  OXE d   1       3.618  -2.855  -2.102  0.00  0.00    -0.002 A 
ATOM      8  C6  OXE d   1       2.480  -2.289  -1.538  0.00  0.00     0.003 A 
ENDROOT
TORSDOF 0
ENDMDL
