MODEL 1
REMARK minimizedAffinity -0.874341249
REMARK minimizedRMSD -1
REMARK  0 active torsions:
REMARK  status: ('A' for Active; 'I' for Inactive)
ROOT
ATOM      1  C2' OXE d   1      -5.625   5.403  -5.649  0.00  0.00     0.078 C 
ATOM      2  C1' OXE d   1      -5.794   2.622  -5.992  0.00  0.00     0.078 C 
ATOM      3  C1  OXE d   1      -4.430   3.220  -5.750  0.00  0.00    -0.078 A 
ATOM      4  C2  OXE d   1      -4.351   4.586  -5.630  0.00  0.00    -0.078 A 
ATOM      5  C3  OXE d   1      -3.126   5.184  -5.351  0.00  0.00     0.003 A 
ATOM      6  C4  OXE d   1      -1.951   4.422  -5.344  0.00  0.00    -0.002 A 
ATOM      7  C5  OXE d   1      -2.004   3.034  -5.504  0.00  0.00    -0.002 A 
ATOM      8  C6  OXE d   1      -3.238   2.413  -5.665  0.00  0.00     0.003 A 
ENDROOT
TORSDOF 0
ENDMDL
