MODEL 1
REMARK minimizedAffinity -3.12678289
REMARK minimizedRMSD -1
REMARK  0 active torsions:
REMARK  status: ('A' for Active; 'I' for Inactive)
ROOT
ATOM      1  C2' OXE d   1      -1.863   4.337  -4.925  0.00  0.00     0.078 C 
ATOM      2  C1' OXE d   1      -1.741   1.536  -4.792  0.00  0.00     0.078 C 
ATOM      3  C1  OXE d   1      -3.040   2.163  -5.232  0.00  0.00    -0.078 A 
ATOM      4  C2  OXE d   1      -3.106   3.536  -5.249  0.00  0.00    -0.078 A 
ATOM      5  C3  OXE d   1      -4.263   4.165  -5.698  0.00  0.00     0.003 A 
ATOM      6  C4  OXE d   1      -5.410   3.417  -5.987  0.00  0.00    -0.002 A 
ATOM      7  C5  OXE d   1      -5.378   2.019  -5.937  0.00  0.00    -0.002 A 
ATOM      8  C6  OXE d   1      -4.190   1.377  -5.604  0.00  0.00     0.003 A 
ENDROOT
TORSDOF 0
ENDMDL
