MODEL 1
REMARK minimizedAffinity -2.14033699
REMARK minimizedRMSD -1
REMARK  0 active torsions:
REMARK  status: ('A' for Active; 'I' for Inactive)
ROOT
ATOM      1  C2' OXE d   1       2.109   1.129  -1.242  0.00  0.00     0.078 C 
ATOM      2  C1' OXE d   1       0.814   0.428   1.148  0.00  0.00     0.078 C 
ATOM      3  C1  OXE d   1       0.296  -0.172  -0.135  0.00  0.00    -0.078 A 
ATOM      4  C2  OXE d   1       0.906   0.213  -1.305  0.00  0.00    -0.078 A 
ATOM      5  C3  OXE d   1       0.502  -0.353  -2.511  0.00  0.00     0.003 A 
ATOM      6  C4  OXE d   1      -0.618  -1.191  -2.562  0.00  0.00    -0.002 A 
ATOM      7  C5  OXE d   1      -1.278  -1.565  -1.386  0.00  0.00    -0.002 A 
ATOM      8  C6  OXE d   1      -0.809  -1.099  -0.163  0.00  0.00     0.003 A 
ENDROOT
TORSDOF 0
ENDMDL
