MODEL 1
REMARK minimizedAffinity -0.170834228
REMARK minimizedRMSD -1
REMARK  0 active torsions:
REMARK  status: ('A' for Active; 'I' for Inactive)
ROOT
ATOM      1  C2' OXE d   1      -5.988   5.481  -5.999  0.00  0.00     0.078 C 
ATOM      2  C1' OXE d   1      -5.790   2.681  -5.994  0.00  0.00     0.078 C 
ATOM      3  C1  OXE d   1      -4.518   3.477  -5.845  0.00  0.00    -0.078 A 
ATOM      4  C2  OXE d   1      -4.619   4.846  -5.895  0.00  0.00    -0.078 A 
ATOM      5  C3  OXE d   1      -3.483   5.629  -5.708  0.00  0.00     0.003 A 
ATOM      6  C4  OXE d   1      -2.218   5.033  -5.623  0.00  0.00    -0.002 A 
ATOM      7  C5  OXE d   1      -2.089   3.641  -5.609  0.00  0.00    -0.002 A 
ATOM      8  C6  OXE d   1      -3.230   2.849  -5.676  0.00  0.00     0.003 A 
ENDROOT
TORSDOF 0
ENDMDL
