MODEL 1
REMARK minimizedAffinity -1.75082171
REMARK minimizedRMSD -1
REMARK  0 active torsions:
REMARK  status: ('A' for Active; 'I' for Inactive)
ROOT
ATOM      1  C2' OXE d   1      -5.998   4.224  -5.978  0.00  0.00     0.078 C 
ATOM      2  C1' OXE d   1      -4.766   1.744  -5.519  0.00  0.00     0.078 C 
ATOM      3  C1  OXE d   1      -3.879   2.956  -5.651  0.00  0.00    -0.078 A 
ATOM      4  C2  OXE d   1      -4.487   4.158  -5.922  0.00  0.00    -0.078 A 
ATOM      5  C3  OXE d   1      -3.719   5.317  -6.000  0.00  0.00     0.003 A 
ATOM      6  C4  OXE d   1      -2.322   5.246  -5.957  0.00  0.00    -0.002 A 
ATOM      7  C5  OXE d   1      -1.680   4.025  -5.721  0.00  0.00    -0.002 A 
ATOM      8  C6  OXE d   1      -2.444   2.880  -5.524  0.00  0.00     0.003 A 
ENDROOT
TORSDOF 0
ENDMDL
