MODEL 1
REMARK minimizedAffinity -0.505973041
REMARK minimizedRMSD -1
REMARK  0 active torsions:
REMARK  status: ('A' for Active; 'I' for Inactive)
ROOT
ATOM      1  C2' OXE d   1      -4.135   1.669  -5.927  0.00  0.00     0.078 C 
ATOM      2  C1' OXE d   1      -1.674   3.020  -5.953  0.00  0.00     0.078 C 
ATOM      3  C1  OXE d   1      -2.933   3.851  -5.950  0.00  0.00    -0.078 A 
ATOM      4  C2  OXE d   1      -4.132   3.182  -5.985  0.00  0.00    -0.078 A 
ATOM      5  C3  OXE d   1      -5.324   3.899  -5.928  0.00  0.00     0.003 A 
ATOM      6  C4  OXE d   1      -5.313   5.298  -5.991  0.00  0.00    -0.002 A 
ATOM      7  C5  OXE d   1      -4.102   5.999  -5.996  0.00  0.00    -0.002 A 
ATOM      8  C6  OXE d   1      -2.906   5.293  -5.933  0.00  0.00     0.003 A 
ENDROOT
TORSDOF 0
ENDMDL
