MODEL 1
REMARK minimizedAffinity -3.35912514
REMARK minimizedRMSD -1
REMARK  0 active torsions:
REMARK  status: ('A' for Active; 'I' for Inactive)
ROOT
ATOM      1  C2' OXE d   1      -5.993   2.043  -6.000  0.00  0.00     0.078 C 
ATOM      2  C1' OXE d   1      -5.989   4.851  -5.998  0.00  0.00     0.078 C 
ATOM      3  C1  OXE d   1      -4.659   4.145  -5.903  0.00  0.00    -0.078 A 
ATOM      4  C2  OXE d   1      -4.674   2.772  -5.857  0.00  0.00    -0.078 A 
ATOM      5  C3  OXE d   1      -3.472   2.070  -5.824  0.00  0.00     0.003 A 
ATOM      6  C4  OXE d   1      -2.257   2.752  -5.682  0.00  0.00    -0.002 A 
ATOM      7  C5  OXE d   1      -2.223   4.150  -5.687  0.00  0.00    -0.002 A 
ATOM      8  C6  OXE d   1      -3.409   4.861  -5.839  0.00  0.00     0.003 A 
ENDROOT
TORSDOF 0
ENDMDL
