MODEL 1
REMARK minimizedAffinity 5.52961206
REMARK minimizedRMSD -1
REMARK  0 active torsions:
REMARK  status: ('A' for Active; 'I' for Inactive)
ROOT
ATOM      1  C2' OXE d   1      -3.916   1.858  -5.549  0.00  0.00     0.078 C 
ATOM      2  C1' OXE d   1      -5.874   3.843  -5.871  0.00  0.00     0.078 C 
ATOM      3  C1  OXE d   1      -4.431   4.278  -5.837  0.00  0.00    -0.078 A 
ATOM      4  C2  OXE d   1      -3.482   3.306  -5.632  0.00  0.00    -0.078 A 
ATOM      5  C3  OXE d   1      -2.132   3.645  -5.646  0.00  0.00     0.003 A 
ATOM      6  C4  OXE d   1      -1.740   4.987  -5.713  0.00  0.00    -0.002 A 
ATOM      7  C5  OXE d   1      -2.692   5.998  -5.882  0.00  0.00    -0.002 A 
ATOM      8  C6  OXE d   1      -4.036   5.657  -5.988  0.00  0.00     0.003 A 
ENDROOT
TORSDOF 0
ENDMDL
