MODEL 1
REMARK minimizedAffinity 4.13368082
REMARK minimizedRMSD -1
REMARK  0 active torsions:
REMARK  status: ('A' for Active; 'I' for Inactive)
ROOT
ATOM      1  C2' OXE d   1      -5.999   4.143  -5.989  0.00  0.00     0.078 C 
ATOM      2  C1' OXE d   1      -5.078   1.645  -5.099  0.00  0.00     0.078 C 
ATOM      3  C1  OXE d   1      -4.060   2.739  -5.301  0.00  0.00    -0.078 A 
ATOM      4  C2  OXE d   1      -4.513   3.944  -5.781  0.00  0.00    -0.078 A 
ATOM      5  C3  OXE d   1      -3.624   5.004  -5.933  0.00  0.00     0.003 A 
ATOM      6  C4  OXE d   1      -2.250   4.809  -5.749  0.00  0.00    -0.002 A 
ATOM      7  C5  OXE d   1      -1.762   3.577  -5.298  0.00  0.00    -0.002 A 
ATOM      8  C6  OXE d   1      -2.657   2.547  -5.029  0.00  0.00     0.003 A 
ENDROOT
TORSDOF 0
ENDMDL
