MODEL 1
REMARK minimizedAffinity -2.70745087
REMARK minimizedRMSD -1
REMARK  0 active torsions:
REMARK  status: ('A' for Active; 'I' for Inactive)
ROOT
ATOM      1  C2' OXE d   1      -1.504  -1.883  -4.126  0.00  0.00     0.078 C 
ATOM      2  C1' OXE d   1      -3.749  -1.852  -5.811  0.00  0.00     0.078 C 
ATOM      3  C1  OXE d   1      -3.126  -3.189  -5.493  0.00  0.00    -0.078 A 
ATOM      4  C2  OXE d   1      -2.000  -3.190  -4.705  0.00  0.00    -0.078 A 
ATOM      5  C3  OXE d   1      -1.418  -4.399  -4.337  0.00  0.00     0.003 A 
ATOM      6  C4  OXE d   1      -1.877  -5.603  -4.885  0.00  0.00    -0.002 A 
ATOM      7  C5  OXE d   1      -2.998  -5.621  -5.721  0.00  0.00    -0.002 A 
ATOM      8  C6  OXE d   1      -3.659  -4.429  -6.000  0.00  0.00     0.003 A 
ENDROOT
TORSDOF 0
ENDMDL
