MODEL 1
REMARK minimizedAffinity -3.29005313
REMARK minimizedRMSD -1
REMARK  0 active torsions:
REMARK  status: ('A' for Active; 'I' for Inactive)
ROOT
ATOM      1  C2' OXE d   1      -2.579  -3.084  -5.977  0.00  0.00     0.078 C 
ATOM      2  C1' OXE d   1      -5.385  -3.129  -5.957  0.00  0.00     0.078 C 
ATOM      3  C1  OXE d   1      -4.703  -1.784  -5.971  0.00  0.00    -0.078 A 
ATOM      4  C2  OXE d   1      -3.330  -1.771  -5.933  0.00  0.00    -0.078 A 
ATOM      5  C3  OXE d   1      -2.650  -0.558  -5.999  0.00  0.00     0.003 A 
ATOM      6  C4  OXE d   1      -3.352   0.652  -5.948  0.00  0.00    -0.002 A 
ATOM      7  C5  OXE d   1      -4.751   0.662  -5.946  0.00  0.00    -0.002 A 
ATOM      8  C6  OXE d   1      -5.441  -0.544  -6.000  0.00  0.00     0.003 A 
ENDROOT
TORSDOF 0
ENDMDL
