MODEL 1
REMARK minimizedAffinity -4.47823858
REMARK minimizedRMSD -1
REMARK  0 active torsions:
REMARK  status: ('A' for Active; 'I' for Inactive)
ROOT
ATOM      1  C2' OXE d   1       5.628  -3.098  -4.465  0.00  0.00     0.078 C 
ATOM      2  C1' OXE d   1       4.347  -1.121  -5.992  0.00  0.00     0.078 C 
ATOM      3  C1  OXE d   1       3.883  -1.323  -4.571  0.00  0.00    -0.078 A 
ATOM      4  C2  OXE d   1       4.484  -2.324  -3.847  0.00  0.00    -0.078 A 
ATOM      5  C3  OXE d   1       4.131  -2.517  -2.514  0.00  0.00     0.003 A 
ATOM      6  C4  OXE d   1       3.065  -1.804  -1.952  0.00  0.00    -0.002 A 
ATOM      7  C5  OXE d   1       2.413  -0.807  -2.686  0.00  0.00    -0.002 A 
ATOM      8  C6  OXE d   1       2.837  -0.526  -3.980  0.00  0.00     0.003 A 
ENDROOT
TORSDOF 0
ENDMDL
