MODEL 1
REMARK minimizedAffinity -2.66284418
REMARK minimizedRMSD -1
REMARK  0 active torsions:
REMARK  status: ('A' for Active; 'I' for Inactive)
ROOT
ATOM      1  C2' OXE d   1       2.552  -0.342  -2.954  0.00  0.00     0.078 C 
ATOM      2  C1' OXE d   1       3.968  -2.411  -1.689  0.00  0.00     0.078 C 
ATOM      3  C1  OXE d   1       4.212  -2.188  -3.161  0.00  0.00    -0.078 A 
ATOM      4  C2  OXE d   1       3.481  -1.204  -3.782  0.00  0.00    -0.078 A 
ATOM      5  C3  OXE d   1       3.707  -0.921  -5.126  0.00  0.00     0.003 A 
ATOM      6  C4  OXE d   1       4.560  -1.730  -5.887  0.00  0.00    -0.002 A 
ATOM      7  C5  OXE d   1       5.285  -2.763  -5.282  0.00  0.00    -0.002 A 
ATOM      8  C6  OXE d   1       5.155  -2.977  -3.915  0.00  0.00     0.003 A 
ENDROOT
TORSDOF 0
ENDMDL
