MODEL 1
REMARK minimizedAffinity -0.772930324
REMARK minimizedRMSD -1
REMARK  0 active torsions:
REMARK  status: ('A' for Active; 'I' for Inactive)
ROOT
ATOM      1  C2' OXE d   1      -6.000  -2.486  -6.000  0.00  0.00     0.078 C 
ATOM      2  C1' OXE d   1      -4.868   0.083  -6.000  0.00  0.00     0.078 C 
ATOM      3  C1  OXE d   1      -3.949  -1.091  -5.767  0.00  0.00    -0.078 A 
ATOM      4  C2  OXE d   1      -4.519  -2.340  -5.723  0.00  0.00    -0.078 A 
ATOM      5  C3  OXE d   1      -3.710  -3.462  -5.566  0.00  0.00     0.003 A 
ATOM      6  C4  OXE d   1      -2.343  -3.318  -5.300  0.00  0.00    -0.002 A 
ATOM      7  C5  OXE d   1      -1.749  -2.051  -5.301  0.00  0.00    -0.002 A 
ATOM      8  C6  OXE d   1      -2.529  -0.933  -5.575  0.00  0.00     0.003 A 
ENDROOT
TORSDOF 0
ENDMDL
