MODEL 1
REMARK minimizedAffinity 7.6761198
REMARK minimizedRMSD -1
REMARK  0 active torsions:
REMARK  status: ('A' for Active; 'I' for Inactive)
ROOT
ATOM      1  C2' OXE d   1      -2.320   1.723   1.167  0.00  0.00     0.078 C 
ATOM      2  C1' OXE d   1      -4.515   0.451   2.369  0.00  0.00     0.078 C 
ATOM      3  C1  OXE d   1      -3.862   1.585   3.119  0.00  0.00    -0.078 A 
ATOM      4  C2  OXE d   1      -2.759   2.170   2.545  0.00  0.00    -0.078 A 
ATOM      5  C3  OXE d   1      -2.151   3.256   3.170  0.00  0.00     0.003 A 
ATOM      6  C4  OXE d   1      -2.558   3.657   4.448  0.00  0.00    -0.002 A 
ATOM      7  C5  OXE d   1      -3.653   3.047   5.068  0.00  0.00    -0.002 A 
ATOM      8  C6  OXE d   1      -4.341   2.040   4.401  0.00  0.00     0.003 A 
ENDROOT
TORSDOF 0
ENDMDL
