MODEL 1
REMARK minimizedAffinity -3.33394074
REMARK minimizedRMSD -1
REMARK  0 active torsions:
REMARK  status: ('A' for Active; 'I' for Inactive)
ROOT
ATOM      1  C   UNL d   1      -1.547  -1.265  -3.077  0.00  0.00     0.078 C 
ATOM      2  C1  UNL d   1      -1.230  -0.918  -1.653  0.00  0.00    -0.077 A 
ATOM      3  C2  UNL d   1      -1.206  -1.903  -0.659  0.00  0.00    -0.001 A 
ATOM      4  C3  UNL d   1      -0.919  -1.564   0.665  0.00  0.00     0.003 A 
ATOM      5  C4  UNL d   1      -0.656  -0.238   1.006  0.00  0.00    -0.005 A 
ATOM      6  C5  UNL d   1      -0.681   0.749   0.023  0.00  0.00     0.003 A 
ATOM      7  C6  UNL d   1      -0.967   0.412  -1.301  0.00  0.00    -0.001 A 
ENDROOT
TORSDOF 0
ENDMDL
