MODEL 1
REMARK minimizedAffinity 1.35928881
REMARK minimizedRMSD -1
REMARK  0 active torsions:
REMARK  status: ('A' for Active; 'I' for Inactive)
ROOT
ATOM      1  C   UNL d   1       3.689   0.942   1.088  0.00  0.00     0.078 C 
ATOM      2  C1  UNL d   1       2.191   0.912   1.055  0.00  0.00    -0.077 A 
ATOM      3  C2  UNL d   1       1.506   0.192   0.067  0.00  0.00    -0.001 A 
ATOM      4  C3  UNL d   1       0.110   0.181   0.042  0.00  0.00     0.003 A 
ATOM      5  C4  UNL d   1      -0.612   0.888   1.001  0.00  0.00    -0.005 A 
ATOM      6  C5  UNL d   1       0.060   1.608   1.986  0.00  0.00     0.003 A 
ATOM      7  C6  UNL d   1       1.456   1.621   2.013  0.00  0.00    -0.001 A 
ENDROOT
TORSDOF 0
ENDMDL
