MODEL 1
REMARK minimizedAffinity -4.60693073
REMARK minimizedRMSD -1
REMARK  0 active torsions:
REMARK  status: ('A' for Active; 'I' for Inactive)
ROOT
ATOM      1  C   UNL d   1      -0.777  -1.237  -0.982  0.00  0.00     0.078 C 
ATOM      2  C1  UNL d   1      -0.306  -0.240   0.033  0.00  0.00    -0.077 A 
ATOM      3  C2  UNL d   1      -0.928  -0.134   1.283  0.00  0.00    -0.001 A 
ATOM      4  C3  UNL d   1      -0.485   0.806   2.215  0.00  0.00     0.003 A 
ATOM      5  C4  UNL d   1       0.582   1.648   1.907  0.00  0.00    -0.005 A 
ATOM      6  C5  UNL d   1       1.206   1.552   0.665  0.00  0.00     0.003 A 
ATOM      7  C6  UNL d   1       0.764   0.612  -0.268  0.00  0.00    -0.001 A 
ENDROOT
TORSDOF 0
ENDMDL
