MODEL 1
REMARK minimizedAffinity -4.15709782
REMARK minimizedRMSD -1
REMARK  0 active torsions:
REMARK  status: ('A' for Active; 'I' for Inactive)
ROOT
ATOM      1  C   UNL d   1      -0.284  -0.768  -0.916  0.00  0.00     0.078 C 
ATOM      2  C1  UNL d   1      -0.148   0.270   0.157  0.00  0.00    -0.077 A 
ATOM      3  C2  UNL d   1       0.514   1.479  -0.088  0.00  0.00    -0.001 A 
ATOM      4  C3  UNL d   1       0.641   2.432   0.923  0.00  0.00     0.003 A 
ATOM      5  C4  UNL d   1       0.111   2.186   2.188  0.00  0.00    -0.005 A 
ATOM      6  C5  UNL d   1      -0.548   0.984   2.442  0.00  0.00     0.003 A 
ATOM      7  C6  UNL d   1      -0.676   0.030   1.432  0.00  0.00    -0.001 A 
ENDROOT
TORSDOF 0
ENDMDL
