MODEL 1
REMARK minimizedAffinity -5.35353041
REMARK minimizedRMSD -1
REMARK  0 active torsions:
REMARK  status: ('A' for Active; 'I' for Inactive)
ROOT
ATOM      1  C   UNL d   1      -0.887  -0.953  -0.818  0.00  0.00     0.078 C 
ATOM      2  C1  UNL d   1      -0.221   0.050   0.076  0.00  0.00    -0.077 A 
ATOM      3  C2  UNL d   1      -0.658   0.245   1.392  0.00  0.00    -0.001 A 
ATOM      4  C3  UNL d   1      -0.035   1.189   2.210  0.00  0.00     0.003 A 
ATOM      5  C4  UNL d   1       1.027   1.946   1.721  0.00  0.00    -0.005 A 
ATOM      6  C5  UNL d   1       1.467   1.761   0.412  0.00  0.00     0.003 A 
ATOM      7  C6  UNL d   1       0.846   0.817  -0.407  0.00  0.00    -0.001 A 
ENDROOT
TORSDOF 0
ENDMDL
