MODEL 1
REMARK minimizedAffinity -2.76648784
REMARK minimizedRMSD -1
REMARK  0 active torsions:
REMARK  status: ('A' for Active; 'I' for Inactive)
ROOT
ATOM      1  C   UNL d   1      -0.487  -0.615  -0.154  0.00  0.00     0.078 C 
ATOM      2  C1  UNL d   1      -1.286  -1.102  -1.326  0.00  0.00    -0.077 A 
ATOM      3  C2  UNL d   1      -2.035  -2.283  -1.248  0.00  0.00    -0.001 A 
ATOM      4  C3  UNL d   1      -2.766  -2.729  -2.350  0.00  0.00     0.003 A 
ATOM      5  C4  UNL d   1      -2.756  -2.001  -3.538  0.00  0.00    -0.005 A 
ATOM      6  C5  UNL d   1      -2.012  -0.826  -3.625  0.00  0.00     0.003 A 
ATOM      7  C6  UNL d   1      -1.280  -0.378  -2.525  0.00  0.00    -0.001 A 
ENDROOT
TORSDOF 0
ENDMDL
