MODEL 1
REMARK minimizedAffinity -4.44208241
REMARK minimizedRMSD -1
REMARK  0 active torsions:
REMARK  status: ('A' for Active; 'I' for Inactive)
ROOT
ATOM      1  C   UNL d   1      -0.796  -1.051  -0.743  0.00  0.00     0.078 C 
ATOM      2  C1  UNL d   1      -0.299   0.148   0.009  0.00  0.00    -0.077 A 
ATOM      3  C2  UNL d   1      -0.920   0.567   1.191  0.00  0.00    -0.001 A 
ATOM      4  C3  UNL d   1      -0.452   1.690   1.875  0.00  0.00     0.003 A 
ATOM      5  C4  UNL d   1       0.639   2.405   1.383  0.00  0.00    -0.005 A 
ATOM      6  C5  UNL d   1       1.262   1.997   0.206  0.00  0.00     0.003 A 
ATOM      7  C6  UNL d   1       0.796   0.874  -0.479  0.00  0.00    -0.001 A 
ENDROOT
TORSDOF 0
ENDMDL
