MODEL 1
REMARK minimizedAffinity -5.01545763
REMARK minimizedRMSD -1
REMARK  0 active torsions:
REMARK  status: ('A' for Active; 'I' for Inactive)
ROOT
ATOM      1  C   UNL d   1       1.435   2.540   0.784  0.00  0.00     0.078 C 
ATOM      2  C1  UNL d   1       0.733   1.235   0.556  0.00  0.00    -0.077 A 
ATOM      3  C2  UNL d   1      -0.345   0.846   1.361  0.00  0.00    -0.001 A 
ATOM      4  C3  UNL d   1      -0.983  -0.376   1.144  0.00  0.00     0.003 A 
ATOM      5  C4  UNL d   1      -0.551  -1.219   0.122  0.00  0.00    -0.005 A 
ATOM      6  C5  UNL d   1       0.522  -0.841  -0.683  0.00  0.00     0.003 A 
ATOM      7  C6  UNL d   1       1.161   0.380  -0.467  0.00  0.00    -0.001 A 
ENDROOT
TORSDOF 0
ENDMDL
