MODEL 1
REMARK minimizedAffinity -5.55768204
REMARK minimizedRMSD -1
REMARK  0 active torsions:
REMARK  status: ('A' for Active; 'I' for Inactive)
ROOT
ATOM      1  C   UNL d   1       0.017  -1.102  -0.249  0.00  0.00     0.078 C 
ATOM      2  C1  UNL d   1       0.832   0.116   0.067  0.00  0.00    -0.077 A 
ATOM      3  C2  UNL d   1       2.177   0.203  -0.313  0.00  0.00    -0.001 A 
ATOM      4  C3  UNL d   1       2.927   1.339  -0.003  0.00  0.00     0.003 A 
ATOM      5  C4  UNL d   1       2.341   2.396   0.690  0.00  0.00    -0.005 A 
ATOM      6  C5  UNL d   1       1.004   2.318   1.075  0.00  0.00     0.003 A 
ATOM      7  C6  UNL d   1       0.253   1.183   0.765  0.00  0.00    -0.001 A 
ENDROOT
TORSDOF 0
ENDMDL
