MODEL 1
REMARK minimizedAffinity -0.0740401298
REMARK minimizedRMSD -1
REMARK  0 active torsions:
REMARK  status: ('A' for Active; 'I' for Inactive)
ROOT
ATOM      1  C   UNL d   1      -0.066  -0.769  -0.098  0.00  0.00     0.078 C 
ATOM      2  C1  UNL d   1      -0.919  -0.895  -1.325  0.00  0.00    -0.077 A 
ATOM      3  C2  UNL d   1      -0.520  -0.329  -2.542  0.00  0.00    -0.001 A 
ATOM      4  C3  UNL d   1      -1.329  -0.446  -3.673  0.00  0.00     0.003 A 
ATOM      5  C4  UNL d   1      -2.541  -1.128  -3.599  0.00  0.00    -0.005 A 
ATOM      6  C5  UNL d   1      -2.947  -1.694  -2.392  0.00  0.00     0.003 A 
ATOM      7  C6  UNL d   1      -2.140  -1.577  -1.260  0.00  0.00    -0.001 A 
ENDROOT
TORSDOF 0
ENDMDL
