MODEL 1
REMARK minimizedAffinity -4.60276651
REMARK minimizedRMSD -1
REMARK  0 active torsions:
REMARK  status: ('A' for Active; 'I' for Inactive)
ROOT
ATOM      1  C   UNL d   1       0.526  -0.944  -0.577  0.00  0.00     0.078 C 
ATOM      2  C1  UNL d   1       0.706   0.373   0.119  0.00  0.00    -0.077 A 
ATOM      3  C2  UNL d   1       0.095   0.626   1.353  0.00  0.00    -0.001 A 
ATOM      4  C3  UNL d   1       0.263   1.859   1.984  0.00  0.00     0.003 A 
ATOM      5  C4  UNL d   1       1.041   2.850   1.388  0.00  0.00    -0.005 A 
ATOM      6  C5  UNL d   1       1.651   2.608   0.159  0.00  0.00     0.003 A 
ATOM      7  C6  UNL d   1       1.484   1.375  -0.474  0.00  0.00    -0.001 A 
ENDROOT
TORSDOF 0
ENDMDL
