MODEL 1
REMARK minimizedAffinity -4.06606293
REMARK minimizedRMSD -1
REMARK  0 active torsions:
REMARK  status: ('A' for Active; 'I' for Inactive)
ROOT
ATOM      1  C   UNL d   1      -0.258  -0.891  -0.912  0.00  0.00     0.078 C 
ATOM      2  C1  UNL d   1      -0.068   0.133   0.167  0.00  0.00    -0.077 A 
ATOM      3  C2  UNL d   1       0.923   1.117   0.060  0.00  0.00    -0.001 A 
ATOM      4  C3  UNL d   1       1.095   2.058   1.077  0.00  0.00     0.003 A 
ATOM      5  C4  UNL d   1       0.281   2.024   2.207  0.00  0.00    -0.005 A 
ATOM      6  C5  UNL d   1      -0.705   1.047   2.323  0.00  0.00     0.003 A 
ATOM      7  C6  UNL d   1      -0.879   0.105   1.308  0.00  0.00    -0.001 A 
ENDROOT
TORSDOF 0
ENDMDL
