MODEL 1
REMARK minimizedAffinity 5.83426714
REMARK minimizedRMSD -1
REMARK  0 active torsions:
REMARK  status: ('A' for Active; 'I' for Inactive)
ROOT
ATOM      1  N1  IND d   1      -1.736  -0.325   2.252  0.00  0.00    -0.196 N 
ATOM      2  C2  IND d   1      -0.681  -0.799   2.982  0.00  0.00     0.054 A 
ATOM      3  C3  IND d   1       0.348  -1.122   2.167  0.00  0.00    -0.031 A 
ATOM      4  C4  IND d   1       0.557  -0.858  -0.386  0.00  0.00     0.051 A 
ATOM      5  C5  IND d   1      -0.160  -0.503  -1.494  0.00  0.00    -0.031 A 
ATOM      6  C6  IND d   1      -1.464  -0.060  -1.409  0.00  0.00     0.015 A 
ATOM      7  C7  IND d   1      -2.098   0.057  -0.205  0.00  0.00    -0.016 A 
ATOM      8  C8  IND d   1      -1.376  -0.309   0.923  0.00  0.00    -0.047 A 
ATOM      9  C9  IND d   1      -0.067  -0.800   0.838  0.00  0.00    -0.096 A 
ATOM     10  HN1 IND d   1      -2.495  -0.078   2.571  0.00  0.00     0.298 HD
ENDROOT
TORSDOF 0
ENDMDL
