MODEL 1
REMARK minimizedAffinity 1.34888315
REMARK minimizedRMSD -1
REMARK  0 active torsions:
REMARK  status: ('A' for Active; 'I' for Inactive)
ROOT
ATOM      1  N1  IND d   1       0.757  -1.158  -0.292  0.00  0.00    -0.196 N 
ATOM      2  C2  IND d   1       1.639  -2.073   0.213  0.00  0.00     0.054 A 
ATOM      3  C3  IND d   1       1.328  -2.367   1.496  0.00  0.00    -0.031 A 
ATOM      4  C4  IND d   1      -0.642  -1.542   2.932  0.00  0.00     0.051 A 
ATOM      5  C5  IND d   1      -1.694  -0.670   2.919  0.00  0.00    -0.031 A 
ATOM      6  C6  IND d   1      -1.990   0.098   1.811  0.00  0.00     0.015 A 
ATOM      7  C7  IND d   1      -1.249   0.013   0.667  0.00  0.00    -0.016 A 
ATOM      8  C8  IND d   1      -0.176  -0.867   0.679  0.00  0.00    -0.047 A 
ATOM      9  C9  IND d   1       0.155  -1.617   1.815  0.00  0.00    -0.096 A 
ATOM     10  HN1 IND d   1       0.782  -0.822  -1.082  0.00  0.00     0.298 HD
ENDROOT
TORSDOF 0
ENDMDL
