MODEL 1
REMARK minimizedAffinity 3.20000648
REMARK minimizedRMSD -1
REMARK  0 active torsions:
REMARK  status: ('A' for Active; 'I' for Inactive)
ROOT
ATOM      1  N1  IND d   1       1.865  -2.826   1.198  0.00  0.00    -0.196 N 
ATOM      2  C2  IND d   1       1.707  -3.744   2.199  0.00  0.00     0.054 A 
ATOM      3  C3  IND d   1       0.564  -3.505   2.880  0.00  0.00    -0.031 A 
ATOM      4  C4  IND d   1      -1.249  -1.726   2.460  0.00  0.00     0.051 A 
ATOM      5  C5  IND d   1      -1.531  -0.639   1.682  0.00  0.00    -0.031 A 
ATOM      6  C6  IND d   1      -0.680  -0.218   0.681  0.00  0.00     0.015 A 
ATOM      7  C7  IND d   1       0.485  -0.878   0.412  0.00  0.00    -0.016 A 
ATOM      8  C8  IND d   1       0.778  -1.979   1.205  0.00  0.00    -0.047 A 
ATOM      9  C9  IND d   1      -0.061  -2.386   2.250  0.00  0.00    -0.096 A 
ATOM     10  HN1 IND d   1       2.531  -2.785   0.656  0.00  0.00     0.298 HD
ENDROOT
TORSDOF 0
ENDMDL
