MODEL 1
REMARK minimizedAffinity 5.58159971
REMARK minimizedRMSD -1
REMARK  0 active torsions:
REMARK  status: ('A' for Active; 'I' for Inactive)
ROOT
ATOM      1  N1  IND d   1       1.755  -2.950   0.346  0.00  0.00    -0.196 N 
ATOM      2  C2  IND d   1       1.992  -3.922   1.278  0.00  0.00     0.054 A 
ATOM      3  C3  IND d   1       1.258  -3.695   2.391  0.00  0.00    -0.031 A 
ATOM      4  C4  IND d   1      -0.471  -1.847   2.862  0.00  0.00     0.051 A 
ATOM      5  C5  IND d   1      -1.003  -0.707   2.326  0.00  0.00    -0.031 A 
ATOM      6  C6  IND d   1      -0.637  -0.249   1.077  0.00  0.00     0.015 A 
ATOM      7  C7  IND d   1       0.270  -0.923   0.309  0.00  0.00    -0.016 A 
ATOM      8  C8  IND d   1       0.817  -2.077   0.852  0.00  0.00    -0.047 A 
ATOM      9  C9  IND d   1       0.481  -2.523   2.137  0.00  0.00    -0.096 A 
ATOM     10  HN1 IND d   1       2.129  -2.893  -0.426  0.00  0.00     0.298 HD
ENDROOT
TORSDOF 0
ENDMDL
