MODEL 1
REMARK minimizedAffinity -0.867948711
REMARK minimizedRMSD -1
REMARK  0 active torsions:
REMARK  status: ('A' for Active; 'I' for Inactive)
ROOT
ATOM      1  N1  IND d   1       1.509  -3.016   0.430  0.00  0.00    -0.196 N 
ATOM      2  C2  IND d   1       1.680  -3.783   1.549  0.00  0.00     0.054 A 
ATOM      3  C3  IND d   1       0.933  -3.301   2.567  0.00  0.00    -0.031 A 
ATOM      4  C4  IND d   1      -0.721  -1.328   2.592  0.00  0.00     0.051 A 
ATOM      5  C5  IND d   1      -1.188  -0.304   1.816  0.00  0.00    -0.031 A 
ATOM      6  C6  IND d   1      -0.773  -0.130   0.512  0.00  0.00     0.015 A 
ATOM      7  C7  IND d   1       0.119  -0.984  -0.072  0.00  0.00    -0.016 A 
ATOM      8  C8  IND d   1       0.601  -2.021   0.715  0.00  0.00    -0.047 A 
ATOM      9  C9  IND d   1       0.216  -2.178   2.052  0.00  0.00    -0.096 A 
ATOM     10  HN1 IND d   1       1.903  -3.136  -0.325  0.00  0.00     0.298 HD
ENDROOT
TORSDOF 0
ENDMDL
