MODEL 1
REMARK minimizedAffinity -1.3536396
REMARK minimizedRMSD -1
REMARK  0 active torsions:
REMARK  status: ('A' for Active; 'I' for Inactive)
ROOT
ATOM      1  N1  IND d   1       2.238  -3.106   0.804  0.00  0.00    -0.196 N 
ATOM      2  C2  IND d   1       2.447  -3.671   2.032  0.00  0.00     0.054 A 
ATOM      3  C3  IND d   1       1.626  -3.115   2.951  0.00  0.00    -0.031 A 
ATOM      4  C4  IND d   1      -0.207  -1.335   2.644  0.00  0.00     0.051 A 
ATOM      5  C5  IND d   1      -0.746  -0.492   1.712  0.00  0.00    -0.031 A 
ATOM      6  C6  IND d   1      -0.310  -0.480   0.402  0.00  0.00     0.015 A 
ATOM      7  C7  IND d   1       0.677  -1.321  -0.028  0.00  0.00    -0.016 A 
ATOM      8  C8  IND d   1       1.231  -2.173   0.917  0.00  0.00    -0.047 A 
ATOM      9  C9  IND d   1       0.822  -2.160   2.257  0.00  0.00    -0.096 A 
ATOM     10  HN1 IND d   1       2.664  -3.300   0.083  0.00  0.00     0.298 HD
ENDROOT
TORSDOF 0
ENDMDL
