MODEL 1
REMARK minimizedAffinity -0.346566707
REMARK minimizedRMSD -1
REMARK  0 active torsions:
REMARK  status: ('A' for Active; 'I' for Inactive)
ROOT
ATOM      1  N1  IND d   1      -1.930   1.498  -2.560  0.00  0.00    -0.196 N 
ATOM      2  C2  IND d   1      -1.027   2.516  -2.686  0.00  0.00     0.054 A 
ATOM      3  C3  IND d   1      -0.068   2.414  -1.738  0.00  0.00    -0.031 A 
ATOM      4  C4  IND d   1       0.270   0.602   0.058  0.00  0.00     0.051 A 
ATOM      5  C5  IND d   1      -0.318  -0.511   0.589  0.00  0.00    -0.031 A 
ATOM      6  C6  IND d   1      -1.497  -1.024   0.086  0.00  0.00     0.015 A 
ATOM      7  C7  IND d   1      -2.127  -0.446  -0.979  0.00  0.00    -0.016 A 
ATOM      8  C8  IND d   1      -1.536   0.689  -1.517  0.00  0.00    -0.047 A 
ATOM      9  C9  IND d   1      -0.363   1.238  -0.983  0.00  0.00    -0.096 A 
ATOM     10  HN1 IND d   1      -2.628   1.382  -3.049  0.00  0.00     0.298 HD
ENDROOT
TORSDOF 0
ENDMDL
