MODEL 1
REMARK minimizedAffinity 0.160582945
REMARK minimizedRMSD -1
REMARK  0 active torsions:
REMARK  status: ('A' for Active; 'I' for Inactive)
ROOT
ATOM      1  N1  IND d   1       0.762  -0.364  -0.759  0.00  0.00    -0.196 N 
ATOM      2  C2  IND d   1      -0.508  -0.472  -0.263  0.00  0.00     0.054 A 
ATOM      3  C3  IND d   1      -1.251   0.594  -0.638  0.00  0.00    -0.031 A 
ATOM      4  C4  IND d   1      -0.616   2.581  -2.146  0.00  0.00     0.051 A 
ATOM      5  C5  IND d   1       0.444   3.136  -2.807  0.00  0.00    -0.031 A 
ATOM      6  C6  IND d   1       1.688   2.540  -2.821  0.00  0.00     0.015 A 
ATOM      7  C7  IND d   1       1.917   1.355  -2.182  0.00  0.00    -0.016 A 
ATOM      8  C8  IND d   1       0.845   0.791  -1.504  0.00  0.00    -0.047 A 
ATOM      9  C9  IND d   1      -0.409   1.413  -1.451  0.00  0.00    -0.096 A 
ATOM     10  HN1 IND d   1       1.401  -0.924  -0.627  0.00  0.00     0.298 HD
ENDROOT
TORSDOF 0
ENDMDL
