MODEL 1
REMARK minimizedAffinity -4.51281977
REMARK minimizedRMSD -1
REMARK  0 active torsions:
REMARK  status: ('A' for Active; 'I' for Inactive)
ROOT
ATOM      1  C1  BNZ d   1       0.502  -1.038   0.170  0.00  0.00     0.000 A 
ATOM      2  C2  BNZ d   1       0.270   0.294  -0.049  0.00  0.00     0.000 A 
ATOM      3  C3  BNZ d   1       1.236   1.225   0.214  0.00  0.00     0.000 A 
ATOM      4  C4  BNZ d   1       2.416   0.828   0.733  0.00  0.00     0.000 A 
ATOM      5  C5  BNZ d   1       2.661  -0.510   0.968  0.00  0.00     0.000 A 
ATOM      6  C6  BNZ d   1       1.701  -1.448   0.665  0.00  0.00     0.000 A 
ENDROOT
TORSDOF 0
ENDMDL
