MODEL 1
REMARK minimizedAffinity -5.01252031
REMARK minimizedRMSD -1
REMARK  0 active torsions:
REMARK  status: ('A' for Active; 'I' for Inactive)
ROOT
ATOM      1  C1  BNZ d   1       3.550  -0.395   1.557  0.00  0.00     0.000 A 
ATOM      2  C2  BNZ d   1       3.311   0.370   0.447  0.00  0.00     0.000 A 
ATOM      3  C3  BNZ d   1       2.049   0.481  -0.067  0.00  0.00     0.000 A 
ATOM      4  C4  BNZ d   1       1.038  -0.206   0.503  0.00  0.00     0.000 A 
ATOM      5  C5  BNZ d   1       1.265  -0.989   1.617  0.00  0.00     0.000 A 
ATOM      6  C6  BNZ d   1       2.529  -1.066   2.156  0.00  0.00     0.000 A 
ENDROOT
TORSDOF 0
ENDMDL
