MODEL 1
REMARK minimizedAffinity -2.11079025
REMARK minimizedRMSD -1
REMARK  0 active torsions:
REMARK  status: ('A' for Active; 'I' for Inactive)
ROOT
ATOM      1  C1  BNZ d   1      -0.193   0.586   0.096  0.00  0.00     0.000 A 
ATOM      2  C2  BNZ d   1      -0.925  -0.484   0.536  0.00  0.00     0.000 A 
ATOM      3  C3  BNZ d   1      -0.308  -1.591   1.049  0.00  0.00     0.000 A 
ATOM      4  C4  BNZ d   1       1.039  -1.642   1.084  0.00  0.00     0.000 A 
ATOM      5  C5  BNZ d   1       1.791  -0.575   0.636  0.00  0.00     0.000 A 
ATOM      6  C6  BNZ d   1       1.166   0.553   0.156  0.00  0.00     0.000 A 
ENDROOT
TORSDOF 0
ENDMDL
