MODEL 1
REMARK minimizedAffinity -4.57533169
REMARK minimizedRMSD -1
REMARK  0 active torsions:
REMARK  status: ('A' for Active; 'I' for Inactive)
ROOT
ATOM      1  C1  BNZ d   1       2.723   0.743   0.132  0.00  0.00     0.000 A 
ATOM      2  C2  BNZ d   1       1.645   1.490  -0.261  0.00  0.00     0.000 A 
ATOM      3  C3  BNZ d   1       0.372   1.019  -0.103  0.00  0.00     0.000 A 
ATOM      4  C4  BNZ d   1       0.180  -0.214   0.411  0.00  0.00     0.000 A 
ATOM      5  C5  BNZ d   1       1.257  -0.983   0.803  0.00  0.00     0.000 A 
ATOM      6  C6  BNZ d   1       2.536  -0.490   0.678  0.00  0.00     0.000 A 
ENDROOT
TORSDOF 0
ENDMDL
