MODEL 1
REMARK minimizedAffinity -5.17852211
REMARK minimizedRMSD -1
REMARK  0 active torsions:
REMARK  status: ('A' for Active; 'I' for Inactive)
ROOT
ATOM      1  C1  BNZ d   1       1.090   1.697   1.130  0.00  0.00     0.000 A 
ATOM      2  C2  BNZ d   1       0.631   0.782   0.220  0.00  0.00     0.000 A 
ATOM      3  C3  BNZ d   1       1.335  -0.360  -0.040  0.00  0.00     0.000 A 
ATOM      4  C4  BNZ d   1       2.515  -0.567   0.579  0.00  0.00     0.000 A 
ATOM      5  C5  BNZ d   1       2.997   0.351   1.491  0.00  0.00     0.000 A 
ATOM      6  C6  BNZ d   1       2.266   1.481   1.780  0.00  0.00     0.000 A 
ENDROOT
TORSDOF 0
ENDMDL
