MODEL 1
REMARK minimizedAffinity -4.32735968
REMARK minimizedRMSD -1
REMARK  0 active torsions:
REMARK  status: ('A' for Active; 'I' for Inactive)
ROOT
ATOM      1  C1  BNZ d   1       1.595  -1.341   0.715  0.00  0.00     0.000 A 
ATOM      2  C2  BNZ d   1       0.525  -0.921  -0.029  0.00  0.00     0.000 A 
ATOM      3  C3  BNZ d   1       0.490   0.340  -0.555  0.00  0.00     0.000 A 
ATOM      4  C4  BNZ d   1       1.505   1.192  -0.304  0.00  0.00     0.000 A 
ATOM      5  C5  BNZ d   1       2.587   0.786   0.452  0.00  0.00     0.000 A 
ATOM      6  C6  BNZ d   1       2.637  -0.496   0.948  0.00  0.00     0.000 A 
ENDROOT
TORSDOF 0
ENDMDL
