MODEL 1
REMARK minimizedAffinity -3.86929011
REMARK minimizedRMSD -1
REMARK  0 active torsions:
REMARK  status: ('A' for Active; 'I' for Inactive)
ROOT
ATOM      1  C1  BNZ d   1       3.023  -0.248   0.480  0.00  0.00     0.000 A 
ATOM      2  C2  BNZ d   1       2.011  -1.101   0.831  0.00  0.00     0.000 A 
ATOM      3  C3  BNZ d   1       0.704  -0.755   0.632  0.00  0.00     0.000 A 
ATOM      4  C4  BNZ d   1       0.409   0.457   0.120  0.00  0.00     0.000 A 
ATOM      5  C5  BNZ d   1       1.418   1.332  -0.231  0.00  0.00     0.000 A 
ATOM      6  C6  BNZ d   1       2.734   0.965  -0.065  0.00  0.00     0.000 A 
ENDROOT
TORSDOF 0
ENDMDL
