MODEL 1
REMARK minimizedAffinity 18.6178398
REMARK minimizedRMSD -1
REMARK  0 active torsions:
REMARK  status: ('A' for Active; 'I' for Inactive)
ROOT
ATOM      1  C1  DEN d   1      -1.987  -5.786  -5.750  0.00  0.00     0.130 A 
ATOM      2  C2  DEN d   1      -1.114  -5.761  -4.579  0.00  0.00    -0.031 A 
ATOM      3  C3  DEN d   1      -1.966  -5.806  -3.374  0.00  0.00     0.027 A 
ATOM      4  C4  DEN d   1      -4.538  -5.915  -3.208  0.00  0.00     0.027 A 
ATOM      5  C5  DEN d   1      -5.709  -5.944  -3.932  0.00  0.00    -0.003 A 
ATOM      6  C6  DEN d   1      -5.723  -5.889  -5.301  0.00  0.00     0.001 A 
ATOM      7  C7  DEN d   1      -4.540  -5.847  -5.991  0.00  0.00     0.017 A 
ATOM      8  C8  DEN d   1      -3.356  -5.810  -5.267  0.00  0.00    -0.094 A 
ATOM      9  C9  DEN d   1      -3.362  -5.879  -3.885  0.00  0.00    -0.072 A 
ENDROOT
TORSDOF 0
ENDMDL
