MODEL 1
REMARK minimizedAffinity 18.0695248
REMARK minimizedRMSD -1
REMARK  0 active torsions:
REMARK  status: ('A' for Active; 'I' for Inactive)
ROOT
ATOM      1  C1  DEN d   1      -5.351   5.301  -2.193  0.00  0.00     0.130 A 
ATOM      2  C2  DEN d   1      -4.354   4.722  -3.089  0.00  0.00    -0.031 A 
ATOM      3  C3  DEN d   1      -3.116   4.502  -2.314  0.00  0.00     0.027 A 
ATOM      4  C4  DEN d   1      -2.651   4.994   0.175  0.00  0.00     0.027 A 
ATOM      5  C5  DEN d   1      -3.189   5.498   1.339  0.00  0.00    -0.003 A 
ATOM      6  C6  DEN d   1      -4.462   5.999   1.398  0.00  0.00     0.001 A 
ATOM      7  C7  DEN d   1      -5.257   5.965   0.284  0.00  0.00     0.017 A 
ATOM      8  C8  DEN d   1      -4.720   5.466  -0.896  0.00  0.00    -0.094 A 
ATOM      9  C9  DEN d   1      -3.435   4.953  -0.932  0.00  0.00    -0.072 A 
ENDROOT
TORSDOF 0
ENDMDL
