MODEL 1
REMARK minimizedAffinity 14.2120152
REMARK minimizedRMSD -1
REMARK  0 active torsions:
REMARK  status: ('A' for Active; 'I' for Inactive)
ROOT
ATOM      1  C1  DEN d   1       2.439   2.215   1.998  0.00  0.00     0.130 A 
ATOM      2  C2  DEN d   1       2.318   1.718   3.366  0.00  0.00    -0.031 A 
ATOM      3  C3  DEN d   1       0.882   1.638   3.698  0.00  0.00     0.027 A 
ATOM      4  C4  DEN d   1      -1.157   2.226   2.232  0.00  0.00     0.027 A 
ATOM      5  C5  DEN d   1      -1.556   2.698   1.001  0.00  0.00    -0.003 A 
ATOM      6  C6  DEN d   1      -0.658   3.072   0.037  0.00  0.00     0.001 A 
ATOM      7  C7  DEN d   1       0.685   2.937   0.270  0.00  0.00     0.017 A 
ATOM      8  C8  DEN d   1       1.094   2.468   1.511  0.00  0.00    -0.094 A 
ATOM      9  C9  DEN d   1       0.171   2.084   2.469  0.00  0.00    -0.072 A 
ENDROOT
TORSDOF 0
ENDMDL
