MODEL 1
REMARK minimizedAffinity 15.1689434
REMARK minimizedRMSD -1
REMARK  0 active torsions:
REMARK  status: ('A' for Active; 'I' for Inactive)
ROOT
ATOM      1  C1  DEN d   1      -4.595   4.783  -2.074  0.00  0.00     0.130 A 
ATOM      2  C2  DEN d   1      -3.367   4.620  -2.848  0.00  0.00    -0.031 A 
ATOM      3  C3  DEN d   1      -2.227   4.954  -1.971  0.00  0.00     0.027 A 
ATOM      4  C4  DEN d   1      -2.243   5.698   0.498  0.00  0.00     0.027 A 
ATOM      5  C5  DEN d   1      -3.048   5.991   1.577  0.00  0.00    -0.003 A 
ATOM      6  C6  DEN d   1      -4.414   5.934   1.506  0.00  0.00     0.001 A 
ATOM      7  C7  DEN d   1      -5.017   5.533   0.343  0.00  0.00     0.017 A 
ATOM      8  C8  DEN d   1      -4.213   5.244  -0.752  0.00  0.00    -0.094 A 
ATOM      9  C9  DEN d   1      -2.832   5.295  -0.656  0.00  0.00    -0.072 A 
ENDROOT
TORSDOF 0
ENDMDL
