MODEL 1
REMARK minimizedAffinity 8.30531597
REMARK minimizedRMSD -1
REMARK  0 active torsions:
REMARK  status: ('A' for Active; 'I' for Inactive)
ROOT
ATOM      1  C1  DEN d   1       0.378   4.464  -1.944  0.00  0.00     0.130 A 
ATOM      2  C2  DEN d   1       1.784   4.748  -1.667  0.00  0.00    -0.031 A 
ATOM      3  C3  DEN d   1       2.223   3.856  -0.576  0.00  0.00     0.027 A 
ATOM      4  C4  DEN d   1       0.873   2.069   0.702  0.00  0.00     0.027 A 
ATOM      5  C5  DEN d   1      -0.363   1.473   0.830  0.00  0.00    -0.003 A 
ATOM      6  C6  DEN d   1      -1.438   1.853   0.071  0.00  0.00     0.001 A 
ATOM      7  C7  DEN d   1      -1.287   2.826  -0.881  0.00  0.00     0.017 A 
ATOM      8  C8  DEN d   1      -0.046   3.436  -1.010  0.00  0.00    -0.094 A 
ATOM      9  C9  DEN d   1       1.032   3.030  -0.242  0.00  0.00    -0.072 A 
ENDROOT
TORSDOF 0
ENDMDL
