MODEL 1
REMARK minimizedAffinity 13.2952595
REMARK minimizedRMSD -1
REMARK  0 active torsions:
REMARK  status: ('A' for Active; 'I' for Inactive)
ROOT
ATOM      1  C1  DEN d   1       3.352   2.785   1.905  0.00  0.00     0.130 A 
ATOM      2  C2  DEN d   1       2.641   2.017   2.923  0.00  0.00    -0.031 A 
ATOM      3  C3  DEN d   1       1.317   1.654   2.379  0.00  0.00     0.027 A 
ATOM      4  C4  DEN d   1       0.306   2.199   0.069  0.00  0.00     0.027 A 
ATOM      5  C5  DEN d   1       0.529   2.838  -1.131  0.00  0.00    -0.003 A 
ATOM      6  C6  DEN d   1       1.684   3.526  -1.388  0.00  0.00     0.001 A 
ATOM      7  C7  DEN d   1       2.681   3.555  -0.449  0.00  0.00     0.017 A 
ATOM      8  C8  DEN d   1       2.461   2.920   0.766  0.00  0.00    -0.094 A 
ATOM      9  C9  DEN d   1       1.291   2.219   1.003  0.00  0.00    -0.072 A 
ENDROOT
TORSDOF 0
ENDMDL
