MODEL 1
REMARK minimizedAffinity 20.9355526
REMARK minimizedRMSD -1
REMARK  0 active torsions:
REMARK  status: ('A' for Active; 'I' for Inactive)
ROOT
ATOM      1  C1  DEN d   1       2.153  -4.815  -1.859  0.00  0.00     0.130 A 
ATOM      2  C2  DEN d   1       1.617  -4.478  -3.175  0.00  0.00    -0.031 A 
ATOM      3  C3  DEN d   1       2.678  -4.716  -4.175  0.00  0.00     0.027 A 
ATOM      4  C4  DEN d   1       5.083  -5.574  -3.815  0.00  0.00     0.027 A 
ATOM      5  C5  DEN d   1       6.000  -5.982  -2.871  0.00  0.00    -0.003 A 
ATOM      6  C6  DEN d   1       5.712  -5.998  -1.532  0.00  0.00     0.001 A 
ATOM      7  C7  DEN d   1       4.461  -5.641  -1.103  0.00  0.00     0.017 A 
ATOM      8  C8  DEN d   1       3.534  -5.220  -2.047  0.00  0.00    -0.094 A 
ATOM      9  C9  DEN d   1       3.840  -5.223  -3.397  0.00  0.00    -0.072 A 
ENDROOT
TORSDOF 0
ENDMDL
