MODEL 1
REMARK minimizedAffinity 12.7065029
REMARK minimizedRMSD -1
REMARK  0 active torsions:
REMARK  status: ('A' for Active; 'I' for Inactive)
ROOT
ATOM      1  C2' OXE d   1       2.490  -2.941   4.347  0.00  0.00     0.078 C 
ATOM      2  C1' OXE d   1       5.023  -2.236   3.363  0.00  0.00     0.078 C 
ATOM      3  C1  OXE d   1       3.833  -1.450   2.871  0.00  0.00    -0.078 A 
ATOM      4  C2  OXE d   1       2.592  -1.832   3.322  0.00  0.00    -0.078 A 
ATOM      5  C3  OXE d   1       1.467  -1.106   2.942  0.00  0.00     0.003 A 
ATOM      6  C4  OXE d   1       1.570  -0.088   1.986  0.00  0.00    -0.002 A 
ATOM      7  C5  OXE d   1       2.820   0.291   1.484  0.00  0.00    -0.002 A 
ATOM      8  C6  OXE d   1       3.963  -0.350   1.948  0.00  0.00     0.003 A 
ENDROOT
TORSDOF 0
ENDMDL
