MODEL 1
REMARK minimizedAffinity 5.04120874
REMARK minimizedRMSD -1
REMARK  0 active torsions:
REMARK  status: ('A' for Active; 'I' for Inactive)
ROOT
ATOM      1  C2' OXE d   1       5.968  -1.871   3.211  0.00  0.00     0.078 C 
ATOM      2  C1' OXE d   1       5.957  -2.206   5.998  0.00  0.00     0.078 C 
ATOM      3  C1  OXE d   1       4.625  -2.117   5.295  0.00  0.00    -0.078 A 
ATOM      4  C2  OXE d   1       4.641  -1.906   3.937  0.00  0.00    -0.078 A 
ATOM      5  C3  OXE d   1       3.441  -1.872   3.232  0.00  0.00     0.003 A 
ATOM      6  C4  OXE d   1       2.218  -1.895   3.912  0.00  0.00    -0.002 A 
ATOM      7  C5  OXE d   1       2.180  -2.069   5.299  0.00  0.00    -0.002 A 
ATOM      8  C6  OXE d   1       3.372  -2.224   5.999  0.00  0.00     0.003 A 
ENDROOT
TORSDOF 0
ENDMDL
