MODEL 1
REMARK minimizedAffinity 2.615273
REMARK minimizedRMSD -1
REMARK  0 active torsions:
REMARK  status: ('A' for Active; 'I' for Inactive)
ROOT
ATOM      1  C2' OXE d   1       1.565  -2.579   4.970  0.00  0.00     0.078 C 
ATOM      2  C1' OXE d   1       2.862  -1.443   2.755  0.00  0.00     0.078 C 
ATOM      3  C1  OXE d   1       3.720  -1.991   3.868  0.00  0.00    -0.078 A 
ATOM      4  C2  OXE d   1       3.076  -2.503   4.969  0.00  0.00    -0.078 A 
ATOM      5  C3  OXE d   1       3.820  -3.071   5.999  0.00  0.00     0.003 A 
ATOM      6  C4  OXE d   1       5.217  -2.987   5.995  0.00  0.00    -0.002 A 
ATOM      7  C5  OXE d   1       5.892  -2.434   4.901  0.00  0.00    -0.002 A 
ATOM      8  C6  OXE d   1       5.161  -1.971   3.813  0.00  0.00     0.003 A 
ENDROOT
TORSDOF 0
ENDMDL
