MODEL 1
REMARK minimizedAffinity 0.335295498
REMARK minimizedRMSD -1
REMARK  0 active torsions:
REMARK  status: ('A' for Active; 'I' for Inactive)
ROOT
ATOM      1  C2' OXE d   1       4.124  -3.005   5.749  0.00  0.00     0.078 C 
ATOM      2  C1' OXE d   1       6.000  -1.878   3.990  0.00  0.00     0.078 C 
ATOM      3  C1  OXE d   1       4.541  -1.782   3.619  0.00  0.00    -0.078 A 
ATOM      4  C2  OXE d   1       3.634  -2.377   4.462  0.00  0.00    -0.078 A 
ATOM      5  C3  OXE d   1       2.272  -2.270   4.194  0.00  0.00     0.003 A 
ATOM      6  C4  OXE d   1       1.827  -1.696   2.997  0.00  0.00    -0.002 A 
ATOM      7  C5  OXE d   1       2.738  -1.119   2.105  0.00  0.00    -0.002 A 
ATOM      8  C6  OXE d   1       4.092  -1.116   2.421  0.00  0.00     0.003 A 
ENDROOT
TORSDOF 0
ENDMDL
