MODEL 1
REMARK minimizedAffinity 2.65520549
REMARK minimizedRMSD -1
REMARK  0 active torsions:
REMARK  status: ('A' for Active; 'I' for Inactive)
ROOT
ATOM      1  C2' OXE d   1       6.000  -2.315   5.999  0.00  0.00     0.078 C 
ATOM      2  C1' OXE d   1       5.999  -3.903   3.684  0.00  0.00     0.078 C 
ATOM      3  C1  OXE d   1       4.665  -3.497   4.260  0.00  0.00    -0.078 A 
ATOM      4  C2  OXE d   1       4.674  -2.759   5.419  0.00  0.00    -0.078 A 
ATOM      5  C3  OXE d   1       3.473  -2.312   5.961  0.00  0.00     0.003 A 
ATOM      6  C4  OXE d   1       2.252  -2.736   5.424  0.00  0.00    -0.002 A 
ATOM      7  C5  OXE d   1       2.219  -3.521   4.266  0.00  0.00    -0.002 A 
ATOM      8  C6  OXE d   1       3.414  -3.874   3.649  0.00  0.00     0.003 A 
ENDROOT
TORSDOF 0
ENDMDL
