MODEL 1
REMARK minimizedAffinity 9.20584679
REMARK minimizedRMSD -1
REMARK  0 active torsions:
REMARK  status: ('A' for Active; 'I' for Inactive)
ROOT
ATOM      1  C2' OXE d   1      -5.761   5.503  -0.135  0.00  0.00     0.078 C 
ATOM      2  C1' OXE d   1      -6.000   2.952  -1.281  0.00  0.00     0.078 C 
ATOM      3  C1  OXE d   1      -5.926   3.044   0.223  0.00  0.00    -0.078 A 
ATOM      4  C2  OXE d   1      -5.762   4.292   0.773  0.00  0.00    -0.078 A 
ATOM      5  C3  OXE d   1      -5.743   4.439   2.157  0.00  0.00     0.003 A 
ATOM      6  C4  OXE d   1      -5.734   3.313   2.989  0.00  0.00    -0.002 A 
ATOM      7  C5  OXE d   1      -5.861   2.029   2.448  0.00  0.00    -0.002 A 
ATOM      8  C6  OXE d   1      -6.000   1.881   1.072  0.00  0.00     0.003 A 
ENDROOT
TORSDOF 0
ENDMDL
