MODEL 1
REMARK minimizedAffinity 2.93633103
REMARK minimizedRMSD -1
REMARK  0 active torsions:
REMARK  status: ('A' for Active; 'I' for Inactive)
ROOT
ATOM      1  C2' OXE d   1       3.054  -4.732   1.566  0.00  0.00     0.078 C 
ATOM      2  C1' OXE d   1       2.413  -4.785   4.299  0.00  0.00     0.078 C 
ATOM      3  C1  OXE d   1       2.384  -3.451   3.595  0.00  0.00    -0.078 A 
ATOM      4  C2  OXE d   1       2.744  -3.428   2.269  0.00  0.00    -0.078 A 
ATOM      5  C3  OXE d   1       2.681  -2.233   1.558  0.00  0.00     0.003 A 
ATOM      6  C4  OXE d   1       2.404  -1.030   2.218  0.00  0.00    -0.002 A 
ATOM      7  C5  OXE d   1       2.073  -1.025   3.577  0.00  0.00    -0.002 A 
ATOM      8  C6  OXE d   1       2.017  -2.230   4.269  0.00  0.00     0.003 A 
ENDROOT
TORSDOF 0
ENDMDL
