MODEL 1
REMARK minimizedAffinity 9.15711117
REMARK minimizedRMSD -1
REMARK  0 active torsions:
REMARK  status: ('A' for Active; 'I' for Inactive)
ROOT
ATOM      1  O1  BZF d   1      -1.230  -3.259  -2.011  0.00  0.00    -0.204 OA
ATOM      2  C2  BZF d   1      -0.895  -2.023  -2.529  0.00  0.00     0.174 A 
ATOM      3  C3  BZF d   1      -0.926  -2.046  -3.877  0.00  0.00    -0.012 A 
ATOM      4  C3A BZF d   1      -1.394  -3.353  -4.221  0.00  0.00    -0.107 A 
ATOM      5  C4  BZF d   1      -1.651  -3.977  -5.409  0.00  0.00     0.055 A 
ATOM      6  C5  BZF d   1      -2.028  -5.282  -5.402  0.00  0.00    -0.016 A 
ATOM      7  C6  BZF d   1      -2.153  -5.995  -4.227  0.00  0.00     0.022 A 
ATOM      8  C7  BZF d   1      -1.914  -5.419  -3.024  0.00  0.00     0.029 A 
ATOM      9  C7A BZF d   1      -1.565  -4.090  -3.026  0.00  0.00     0.058 A 
ENDROOT
TORSDOF 0
ENDMDL
