MODEL 1
REMARK minimizedAffinity 9.39969921
REMARK minimizedRMSD -1
REMARK  0 active torsions:
REMARK  status: ('A' for Active; 'I' for Inactive)
ROOT
ATOM      1  O1  BZF d   1      -2.488   5.959  -0.097  0.00  0.00    -0.204 OA
ATOM      2  C2  BZF d   1      -1.389   5.967  -0.933  0.00  0.00     0.174 A 
ATOM      3  C3  BZF d   1      -1.771   5.927  -2.226  0.00  0.00    -0.012 A 
ATOM      4  C3A BZF d   1      -3.200   5.986  -2.198  0.00  0.00    -0.107 A 
ATOM      5  C4  BZF d   1      -4.159   5.999  -3.170  0.00  0.00     0.055 A 
ATOM      6  C5  BZF d   1      -5.468   5.987  -2.807  0.00  0.00    -0.016 A 
ATOM      7  C6  BZF d   1      -5.854   5.958  -1.483  0.00  0.00     0.022 A 
ATOM      8  C7  BZF d   1      -4.940   5.950  -0.483  0.00  0.00     0.029 A 
ATOM      9  C7A BZF d   1      -3.616   5.995  -0.846  0.00  0.00     0.058 A 
ENDROOT
TORSDOF 0
ENDMDL
