MODEL 1
REMARK minimizedAffinity 5.9618125
REMARK minimizedRMSD -1
REMARK  0 active torsions:
REMARK  status: ('A' for Active; 'I' for Inactive)
ROOT
ATOM      1  O1  BZF d   1      -0.598   1.548   3.007  0.00  0.00    -0.204 OA
ATOM      2  C2  BZF d   1      -1.600   1.191   2.126  0.00  0.00     0.174 A 
ATOM      3  C3  BZF d   1      -1.414  -0.066   1.674  0.00  0.00    -0.012 A 
ATOM      4  C3A BZF d   1      -0.272  -0.556   2.383  0.00  0.00    -0.107 A 
ATOM      5  C4  BZF d   1       0.395  -1.747   2.381  0.00  0.00     0.055 A 
ATOM      6  C5  BZF d   1       1.518  -1.878   3.136  0.00  0.00    -0.016 A 
ATOM      7  C6  BZF d   1       2.003  -0.837   3.900  0.00  0.00     0.022 A 
ATOM      8  C7  BZF d   1       1.373   0.362   3.939  0.00  0.00     0.029 A 
ATOM      9  C7A BZF d   1       0.221   0.487   3.202  0.00  0.00     0.058 A 
ENDROOT
TORSDOF 0
ENDMDL
