MODEL 1
REMARK minimizedAffinity 21.4766922
REMARK minimizedRMSD -1
REMARK  0 active torsions:
REMARK  status: ('A' for Active; 'I' for Inactive)
ROOT
ATOM      1  O1  BZF d   1      -2.223  -1.920  -3.164  0.00  0.00    -0.204 OA
ATOM      2  C2  BZF d   1      -1.934  -2.145  -1.832  0.00  0.00     0.174 A 
ATOM      3  C3  BZF d   1      -0.631  -1.902  -1.577  0.00  0.00    -0.012 A 
ATOM      4  C3A BZF d   1      -0.092  -1.412  -2.809  0.00  0.00    -0.107 A 
ATOM      5  C4  BZF d   1       1.148  -0.985  -3.187  0.00  0.00     0.055 A 
ATOM      6  C5  BZF d   1       1.362  -0.640  -4.484  0.00  0.00    -0.016 A 
ATOM      7  C6  BZF d   1       0.360  -0.715  -5.429  0.00  0.00     0.022 A 
ATOM      8  C7  BZF d   1      -0.888  -1.129  -5.101  0.00  0.00     0.029 A 
ATOM      9  C7A BZF d   1      -1.116  -1.447  -3.784  0.00  0.00     0.058 A 
ENDROOT
TORSDOF 0
ENDMDL
