MODEL 1
REMARK minimizedAffinity 4.87827444
REMARK minimizedRMSD -1
REMARK  0 active torsions:
REMARK  status: ('A' for Active; 'I' for Inactive)
ROOT
ATOM      1  O1  BZF d   1       4.117  -5.983   5.999  0.00  0.00    -0.204 OA
ATOM      2  C2  BZF d   1       5.179  -5.425   5.313  0.00  0.00     0.174 A 
ATOM      3  C3  BZF d   1       4.748  -4.487   4.446  0.00  0.00    -0.012 A 
ATOM      4  C3A BZF d   1       3.337  -4.390   4.665  0.00  0.00    -0.107 A 
ATOM      5  C4  BZF d   1       2.352  -3.620   4.117  0.00  0.00     0.055 A 
ATOM      6  C5  BZF d   1       1.065  -3.822   4.501  0.00  0.00    -0.016 A 
ATOM      7  C6  BZF d   1       0.726  -4.789   5.425  0.00  0.00     0.022 A 
ATOM      8  C7  BZF d   1       1.669  -5.574   6.000  0.00  0.00     0.029 A 
ATOM      9  C7A BZF d   1       2.975  -5.350   5.639  0.00  0.00     0.058 A 
ENDROOT
TORSDOF 0
ENDMDL
