MODEL 1
REMARK minimizedAffinity 6.21433353
REMARK minimizedRMSD -1
REMARK  0 active torsions:
REMARK  status: ('A' for Active; 'I' for Inactive)
ROOT
ATOM      1  O1  BZF d   1       1.030  -3.794   4.008  0.00  0.00    -0.204 OA
ATOM      2  C2  BZF d   1       0.712  -2.817   3.084  0.00  0.00     0.174 A 
ATOM      3  C3  BZF d   1       1.644  -1.842   3.080  0.00  0.00    -0.012 A 
ATOM      4  C3A BZF d   1       2.652  -2.280   3.996  0.00  0.00    -0.107 A 
ATOM      5  C4  BZF d   1       3.840  -1.748   4.410  0.00  0.00     0.055 A 
ATOM      6  C5  BZF d   1       4.552  -2.392   5.371  0.00  0.00    -0.016 A 
ATOM      7  C6  BZF d   1       4.106  -3.565   5.943  0.00  0.00     0.022 A 
ATOM      8  C7  BZF d   1       2.936  -4.133   5.562  0.00  0.00     0.029 A 
ATOM      9  C7A BZF d   1       2.229  -3.502   4.567  0.00  0.00     0.058 A 
ENDROOT
TORSDOF 0
ENDMDL
