MODEL 1
REMARK minimizedAffinity 20.8677235
REMARK minimizedRMSD -1
REMARK  0 active torsions:
REMARK  status: ('A' for Active; 'I' for Inactive)
ROOT
ATOM      1  O1  BZF d   1      -5.832   5.943  -0.836  0.00  0.00    -0.204 OA
ATOM      2  C2  BZF d   1      -5.803   5.910  -2.217  0.00  0.00     0.174 A 
ATOM      3  C3  BZF d   1      -5.778   4.638  -2.664  0.00  0.00    -0.012 A 
ATOM      4  C3A BZF d   1      -5.886   3.825  -1.492  0.00  0.00    -0.107 A 
ATOM      5  C4  BZF d   1      -5.933   2.475  -1.286  0.00  0.00     0.055 A 
ATOM      6  C5  BZF d   1      -5.966   2.002  -0.012  0.00  0.00    -0.016 A 
ATOM      7  C6  BZF d   1      -5.949   2.848   1.077  0.00  0.00     0.022 A 
ATOM      8  C7  BZF d   1      -5.908   4.194   0.923  0.00  0.00     0.029 A 
ATOM      9  C7A BZF d   1      -5.908   4.676  -0.363  0.00  0.00     0.058 A 
ENDROOT
TORSDOF 0
ENDMDL
