MODEL 1
REMARK minimizedAffinity 13.2201347
REMARK minimizedRMSD -1
REMARK  0 active torsions:
REMARK  status: ('A' for Active; 'I' for Inactive)
ROOT
ATOM      1  O1  BZF d   1       0.713  -2.049   2.895  0.00  0.00    -0.204 OA
ATOM      2  C2  BZF d   1       1.803  -1.442   3.488  0.00  0.00     0.174 A 
ATOM      3  C3  BZF d   1       1.623  -0.108   3.568  0.00  0.00    -0.012 A 
ATOM      4  C3A BZF d   1       0.301   0.124   3.073  0.00  0.00    -0.107 A 
ATOM      5  C4  BZF d   1      -0.460   1.247   2.916  0.00  0.00     0.055 A 
ATOM      6  C5  BZF d   1      -1.684   1.141   2.335  0.00  0.00    -0.016 A 
ATOM      7  C6  BZF d   1      -2.176  -0.071   1.895  0.00  0.00     0.022 A 
ATOM      8  C7  BZF d   1      -1.460  -1.214   2.033  0.00  0.00     0.029 A 
ATOM      9  C7A BZF d   1      -0.237  -1.114   2.650  0.00  0.00     0.058 A 
ENDROOT
TORSDOF 0
ENDMDL
