MODEL 1
REMARK minimizedAffinity 9.62086201
REMARK minimizedRMSD -1
REMARK  0 active torsions:
REMARK  status: ('A' for Active; 'I' for Inactive)
ROOT
ATOM      1  O1  BZF d   1       4.990  -2.515   4.776  0.00  0.00    -0.204 OA
ATOM      2  C2  BZF d   1       5.168  -3.769   5.328  0.00  0.00     0.174 A 
ATOM      3  C3  BZF d   1       3.997  -4.436   5.388  0.00  0.00    -0.012 A 
ATOM      4  C3A BZF d   1       3.043  -3.579   4.754  0.00  0.00    -0.107 A 
ATOM      5  C4  BZF d   1       1.708  -3.693   4.491  0.00  0.00     0.055 A 
ATOM      6  C5  BZF d   1       1.055  -2.646   3.923  0.00  0.00    -0.016 A 
ATOM      7  C6  BZF d   1       1.703  -1.469   3.611  0.00  0.00     0.022 A 
ATOM      8  C7  BZF d   1       3.028  -1.310   3.849  0.00  0.00     0.029 A 
ATOM      9  C7A BZF d   1       3.698  -2.379   4.392  0.00  0.00     0.058 A 
ENDROOT
TORSDOF 0
ENDMDL
