MODEL 1
REMARK minimizedAffinity 16.8573723
REMARK minimizedRMSD -1
REMARK  0 active torsions:
REMARK  status: ('A' for Active; 'I' for Inactive)
ROOT
ATOM      1  O1  BZF d   1       0.424   0.018  -4.321  0.00  0.00    -0.204 OA
ATOM      2  C2  BZF d   1      -0.390  -1.005  -3.874  0.00  0.00     0.174 A 
ATOM      3  C3  BZF d   1       0.331  -1.939  -3.220  0.00  0.00    -0.012 A 
ATOM      4  C3A BZF d   1       1.665  -1.425  -3.179  0.00  0.00    -0.107 A 
ATOM      5  C4  BZF d   1       2.835  -1.889  -2.649  0.00  0.00     0.055 A 
ATOM      6  C5  BZF d   1       3.977  -1.180  -2.847  0.00  0.00    -0.016 A 
ATOM      7  C6  BZF d   1       3.987  -0.007  -3.573  0.00  0.00     0.022 A 
ATOM      8  C7  BZF d   1       2.851   0.496  -4.114  0.00  0.00     0.029 A 
ATOM      9  C7A BZF d   1       1.689  -0.201  -3.888  0.00  0.00     0.058 A 
ENDROOT
TORSDOF 0
ENDMDL
