MODEL 1
REMARK minimizedAffinity 12.1798258
REMARK minimizedRMSD -1
REMARK  0 active torsions:
REMARK  status: ('A' for Active; 'I' for Inactive)
ROOT
ATOM      1  O1  BZF d   1       1.980  -5.955   0.409  0.00  0.00    -0.204 OA
ATOM      2  C2  BZF d   1       3.360  -5.999   0.473  0.00  0.00     0.174 A 
ATOM      3  C3  BZF d   1       3.908  -5.354  -0.577  0.00  0.00    -0.012 A 
ATOM      4  C3A BZF d   1       2.803  -4.798  -1.296  0.00  0.00    -0.107 A 
ATOM      5  C4  BZF d   1       2.705  -4.035  -2.424  0.00  0.00     0.055 A 
ATOM      6  C5  BZF d   1       1.474  -3.720  -2.905  0.00  0.00    -0.016 A 
ATOM      7  C6  BZF d   1       0.320  -4.157  -2.286  0.00  0.00     0.022 A 
ATOM      8  C7  BZF d   1       0.366  -4.912  -1.162  0.00  0.00     0.029 A 
ATOM      9  C7A BZF d   1       1.609  -5.203  -0.655  0.00  0.00     0.058 A 
ENDROOT
TORSDOF 0
ENDMDL
