MODEL 1
REMARK minimizedAffinity 12.0549803
REMARK minimizedRMSD -1
REMARK  0 active torsions:
REMARK  status: ('A' for Active; 'I' for Inactive)
ROOT
ATOM      1  O1  BZF d   1       0.750  -0.428  -1.324  0.00  0.00    -0.204 OA
ATOM      2  C2  BZF d   1      -0.181   0.422  -1.888  0.00  0.00     0.174 A 
ATOM      3  C3  BZF d   1      -0.829   1.123  -0.935  0.00  0.00    -0.012 A 
ATOM      4  C3A BZF d   1      -0.203   0.751   0.296  0.00  0.00    -0.107 A 
ATOM      5  C4  BZF d   1      -0.394   1.122   1.597  0.00  0.00     0.055 A 
ATOM      6  C5  BZF d   1       0.335   0.516   2.570  0.00  0.00    -0.016 A 
ATOM      7  C6  BZF d   1       1.259  -0.466   2.281  0.00  0.00     0.022 A 
ATOM      8  C7  BZF d   1       1.487  -0.864   1.006  0.00  0.00     0.029 A 
ATOM      9  C7A BZF d   1       0.776  -0.231   0.016  0.00  0.00     0.058 A 
ENDROOT
TORSDOF 0
ENDMDL
