MODEL 1
REMARK minimizedAffinity 7.64830828
REMARK minimizedRMSD -1
REMARK  0 active torsions:
REMARK  status: ('A' for Active; 'I' for Inactive)
ROOT
ATOM      1  O1  BZF d   1       0.950  -0.108  -1.440  0.00  0.00    -0.204 OA
ATOM      2  C2  BZF d   1      -0.048   0.676  -1.987  0.00  0.00     0.174 A 
ATOM      3  C3  BZF d   1      -0.840   1.185  -1.022  0.00  0.00    -0.012 A 
ATOM      4  C3A BZF d   1      -0.249   0.763   0.211  0.00  0.00    -0.107 A 
ATOM      5  C4  BZF d   1      -0.568   0.966   1.523  0.00  0.00     0.055 A 
ATOM      6  C5  BZF d   1       0.172   0.354   2.485  0.00  0.00    -0.016 A 
ATOM      7  C6  BZF d   1       1.233  -0.470   2.171  0.00  0.00     0.022 A 
ATOM      8  C7  BZF d   1       1.590  -0.697   0.884  0.00  0.00     0.029 A 
ATOM      9  C7A BZF d   1       0.865  -0.055  -0.089  0.00  0.00     0.058 A 
ENDROOT
TORSDOF 0
ENDMDL
