MODEL 1
REMARK minimizedAffinity 2.99995351
REMARK minimizedRMSD -1
REMARK  0 active torsions:
REMARK  status: ('A' for Active; 'I' for Inactive)
ROOT
ATOM      1  O1  BZF d   1       0.597   0.085  -1.747  0.00  0.00    -0.204 OA
ATOM      2  C2  BZF d   1      -0.315   1.117  -1.862  0.00  0.00     0.174 A 
ATOM      3  C3  BZF d   1      -0.703   1.551  -0.645  0.00  0.00    -0.012 A 
ATOM      4  C3A BZF d   1       0.080   0.801   0.289  0.00  0.00    -0.107 A 
ATOM      5  C4  BZF d   1       0.161   0.792   1.652  0.00  0.00     0.055 A 
ATOM      6  C5  BZF d   1       0.973  -0.112   2.259  0.00  0.00    -0.016 A 
ATOM      7  C6  BZF d   1       1.714  -1.023   1.536  0.00  0.00     0.022 A 
ATOM      8  C7  BZF d   1       1.671  -1.049   0.182  0.00  0.00     0.029 A 
ATOM      9  C7A BZF d   1       0.876  -0.115  -0.436  0.00  0.00     0.058 A 
ENDROOT
TORSDOF 0
ENDMDL
