MODEL 1
REMARK minimizedAffinity 3.57957315
REMARK minimizedRMSD -1
REMARK  0 active torsions:
REMARK  status: ('A' for Active; 'I' for Inactive)
ROOT
ATOM      1  O1  BZF d   1       2.509  -0.614   0.231  0.00  0.00    -0.204 OA
ATOM      2  C2  BZF d   1       2.979  -0.973   1.479  0.00  0.00     0.174 A 
ATOM      3  C3  BZF d   1       2.293  -0.336   2.450  0.00  0.00    -0.012 A 
ATOM      4  C3A BZF d   1       1.275   0.403   1.769  0.00  0.00    -0.107 A 
ATOM      5  C4  BZF d   1       0.267   1.222   2.191  0.00  0.00     0.055 A 
ATOM      6  C5  BZF d   1      -0.509   1.846   1.266  0.00  0.00    -0.016 A 
ATOM      7  C6  BZF d   1      -0.302   1.678  -0.087  0.00  0.00     0.022 A 
ATOM      8  C7  BZF d   1       0.682   0.871  -0.554  0.00  0.00     0.029 A 
ATOM      9  C7A BZF d   1       1.446   0.213   0.378  0.00  0.00     0.058 A 
ENDROOT
TORSDOF 0
ENDMDL
