MODEL 1
REMARK minimizedAffinity 9.35475445
REMARK minimizedRMSD -1
REMARK  0 active torsions:
REMARK  status: ('A' for Active; 'I' for Inactive)
ROOT
ATOM      1  O1  BZF d   1       0.033   0.449  -1.041  0.00  0.00    -0.204 OA
ATOM      2  C2  BZF d   1      -0.680   1.597  -1.329  0.00  0.00     0.174 A 
ATOM      3  C3  BZF d   1      -0.760   2.396  -0.245  0.00  0.00    -0.012 A 
ATOM      4  C3A BZF d   1       0.026   1.746   0.759  0.00  0.00    -0.107 A 
ATOM      5  C4  BZF d   1       0.344   2.059   2.050  0.00  0.00     0.055 A 
ATOM      6  C5  BZF d   1       1.072   1.176   2.783  0.00  0.00    -0.016 A 
ATOM      7  C6  BZF d   1       1.493  -0.029   2.260  0.00  0.00     0.022 A 
ATOM      8  C7  BZF d   1       1.206  -0.381   0.983  0.00  0.00     0.029 A 
ATOM      9  C7A BZF d   1       0.499   0.524   0.229  0.00  0.00     0.058 A 
ENDROOT
TORSDOF 0
ENDMDL
