MODEL 1
REMARK minimizedAffinity -2.84141731
REMARK minimizedRMSD -1
REMARK  0 active torsions:
REMARK  status: ('A' for Active; 'I' for Inactive)
ROOT
ATOM      1  O1  BZF d   1      -0.343   2.233  -0.667  0.00  0.00    -0.204 OA
ATOM      2  C2  BZF d   1      -0.398   1.484  -1.826  0.00  0.00     0.174 A 
ATOM      3  C3  BZF d   1       0.117   0.254  -1.626  0.00  0.00    -0.012 A 
ATOM      4  C3A BZF d   1       0.435   0.202  -0.232  0.00  0.00    -0.107 A 
ATOM      5  C4  BZF d   1       0.963  -0.765   0.576  0.00  0.00     0.055 A 
ATOM      6  C5  BZF d   1       1.216  -0.472   1.878  0.00  0.00    -0.016 A 
ATOM      7  C6  BZF d   1       0.959   0.777   2.405  0.00  0.00     0.022 A 
ATOM      8  C7  BZF d   1       0.430   1.766   1.645  0.00  0.00     0.029 A 
ATOM      9  C7A BZF d   1       0.143   1.464   0.336  0.00  0.00     0.058 A 
ENDROOT
TORSDOF 0
ENDMDL
