MODEL 1
REMARK minimizedAffinity 8.30461025
REMARK minimizedRMSD -1
REMARK  0 active torsions:
REMARK  status: ('A' for Active; 'I' for Inactive)
ROOT
ATOM      1  O1  BZF d   1      -5.883  -1.059   4.059  0.00  0.00    -0.204 OA
ATOM      2  C2  BZF d   1      -5.900  -2.427   4.250  0.00  0.00     0.174 A 
ATOM      3  C3  BZF d   1      -5.997  -3.073   3.070  0.00  0.00    -0.012 A 
ATOM      4  C3A BZF d   1      -5.951  -2.046   2.074  0.00  0.00    -0.107 A 
ATOM      5  C4  BZF d   1      -5.988  -2.060   0.709  0.00  0.00     0.055 A 
ATOM      6  C5  BZF d   1      -5.997  -0.879   0.036  0.00  0.00    -0.016 A 
ATOM      7  C6  BZF d   1      -5.974   0.332   0.696  0.00  0.00     0.022 A 
ATOM      8  C7  BZF d   1      -5.932   0.396   2.049  0.00  0.00     0.029 A 
ATOM      9  C7A BZF d   1      -5.889  -0.796   2.731  0.00  0.00     0.058 A 
ENDROOT
TORSDOF 0
ENDMDL
