MODEL 1
REMARK minimizedAffinity 2.17022109
REMARK minimizedRMSD -1
REMARK  0 active torsions:
REMARK  status: ('A' for Active; 'I' for Inactive)
ROOT
ATOM      1  O1  BZF d   1       1.803  -0.766   0.471  0.00  0.00    -0.204 OA
ATOM      2  C2  BZF d   1       1.921  -0.869   1.843  0.00  0.00     0.174 A 
ATOM      3  C3  BZF d   1       1.127   0.030   2.460  0.00  0.00    -0.012 A 
ATOM      4  C3A BZF d   1       0.404   0.677   1.409  0.00  0.00    -0.107 A 
ATOM      5  C4  BZF d   1      -0.549   1.655   1.389  0.00  0.00     0.055 A 
ATOM      6  C5  BZF d   1      -0.999   2.115   0.191  0.00  0.00    -0.016 A 
ATOM      7  C6  BZF d   1      -0.514   1.624  -1.003  0.00  0.00     0.022 A 
ATOM      8  C7  BZF d   1       0.428   0.650  -1.034  0.00  0.00     0.029 A 
ATOM      9  C7A BZF d   1       0.860   0.160   0.174  0.00  0.00     0.058 A 
ENDROOT
TORSDOF 0
ENDMDL
