MODEL 1
REMARK minimizedAffinity 6.59677982
REMARK minimizedRMSD -1
REMARK  0 active torsions:
REMARK  status: ('A' for Active; 'I' for Inactive)
ROOT
ATOM      1  N1  IND d   1       2.183  -0.311  -0.769  0.00  0.00    -0.196 N 
ATOM      2  C2  IND d   1       2.417  -1.658  -0.776  0.00  0.00     0.054 A 
ATOM      3  C3  IND d   1       3.743  -1.905  -0.863  0.00  0.00    -0.031 A 
ATOM      4  C4  IND d   1       5.715  -0.250  -0.903  0.00  0.00     0.051 A 
ATOM      5  C5  IND d   1       6.000   1.085  -0.954  0.00  0.00    -0.031 A 
ATOM      6  C6  IND d   1       5.007   2.043  -0.942  0.00  0.00     0.015 A 
ATOM      7  C7  IND d   1       3.687   1.700  -0.868  0.00  0.00    -0.016 A 
ATOM      8  C8  IND d   1       3.394   0.344  -0.824  0.00  0.00    -0.047 A 
ATOM      9  C9  IND d   1       4.395  -0.634  -0.878  0.00  0.00    -0.096 A 
ATOM     10  HN1 IND d   1       1.410   0.064  -0.737  0.00  0.00     0.298 HD
ENDROOT
TORSDOF 0
ENDMDL
