MODEL 1
REMARK minimizedAffinity 11.8944521
REMARK minimizedRMSD -1
REMARK  0 active torsions:
REMARK  status: ('A' for Active; 'I' for Inactive)
ROOT
ATOM      1  N1  IND d   1       1.967   0.361  -0.725  0.00  0.00    -0.196 N 
ATOM      2  C2  IND d   1       1.904  -1.002  -0.640  0.00  0.00     0.054 A 
ATOM      3  C3  IND d   1       3.148  -1.532  -0.652  0.00  0.00    -0.031 A 
ATOM      4  C4  IND d   1       5.431  -0.344  -0.704  0.00  0.00     0.051 A 
ATOM      5  C5  IND d   1       5.999   0.893  -0.822  0.00  0.00    -0.031 A 
ATOM      6  C6  IND d   1       5.237   2.040  -0.913  0.00  0.00     0.015 A 
ATOM      7  C7  IND d   1       3.872   1.992  -0.877  0.00  0.00    -0.016 A 
ATOM      8  C8  IND d   1       3.292   0.737  -0.765  0.00  0.00    -0.047 A 
ATOM      9  C9  IND d   1       4.059  -0.434  -0.715  0.00  0.00    -0.096 A 
ATOM     10  HN1 IND d   1       1.292   0.894  -0.750  0.00  0.00     0.298 HD
ENDROOT
TORSDOF 0
ENDMDL
