MODEL 1
REMARK minimizedAffinity 12.8951826
REMARK minimizedRMSD -1
REMARK  0 active torsions:
REMARK  status: ('A' for Active; 'I' for Inactive)
ROOT
ATOM      1  N1  IND d   1      -5.781   4.448   5.885  0.00  0.00    -0.196 N 
ATOM      2  C2  IND d   1      -5.972   3.098   5.989  0.00  0.00     0.054 A 
ATOM      3  C3  IND d   1      -5.999   2.532   4.762  0.00  0.00    -0.031 A 
ATOM      4  C4  IND d   1      -5.649   3.613   2.452  0.00  0.00     0.051 A 
ATOM      5  C5  IND d   1      -5.478   4.826   1.846  0.00  0.00    -0.031 A 
ATOM      6  C6  IND d   1      -5.395   5.998   2.569  0.00  0.00     0.015 A 
ATOM      7  C7  IND d   1      -5.469   6.000   3.934  0.00  0.00    -0.016 A 
ATOM      8  C8  IND d   1      -5.650   4.771   4.553  0.00  0.00    -0.047 A 
ATOM      9  C9  IND d   1      -5.777   3.583   3.821  0.00  0.00    -0.096 A 
ATOM     10  HN1 IND d   1      -5.749   5.002   6.542  0.00  0.00     0.298 HD
ENDROOT
TORSDOF 0
ENDMDL
