MODEL 1
REMARK minimizedAffinity 18.7006435
REMARK minimizedRMSD -1
REMARK  0 active torsions:
REMARK  status: ('A' for Active; 'I' for Inactive)
ROOT
ATOM      1  N1  IND d   1       4.517   1.984  -1.125  0.00  0.00    -0.196 N 
ATOM      2  C2  IND d   1       5.792   1.926  -0.635  0.00  0.00     0.054 A 
ATOM      3  C3  IND d   1       6.000   0.749  -0.002  0.00  0.00    -0.031 A 
ATOM      4  C4  IND d   1       4.422  -1.268   0.260  0.00  0.00     0.051 A 
ATOM      5  C5  IND d   1       3.140  -1.672   0.012  0.00  0.00    -0.031 A 
ATOM      6  C6  IND d   1       2.235  -0.864  -0.643  0.00  0.00     0.015 A 
ATOM      7  C7  IND d   1       2.582   0.381  -1.087  0.00  0.00    -0.016 A 
ATOM      8  C8  IND d   1       3.880   0.798  -0.831  0.00  0.00    -0.047 A 
ATOM      9  C9  IND d   1       4.791  -0.002  -0.128  0.00  0.00    -0.096 A 
ATOM     10  HN1 IND d   1       4.171   2.649  -1.546  0.00  0.00     0.298 HD
ENDROOT
TORSDOF 0
ENDMDL
