MODEL 1
REMARK minimizedAffinity 7.17824936
REMARK minimizedRMSD -1
REMARK  0 active torsions:
REMARK  status: ('A' for Active; 'I' for Inactive)
ROOT
ATOM      1  N1  IND d   1      -0.521   1.038   1.291  0.00  0.00    -0.196 N 
ATOM      2  C2  IND d   1      -1.606   1.691   0.778  0.00  0.00     0.054 A 
ATOM      3  C3  IND d   1      -1.511   3.019   1.015  0.00  0.00    -0.031 A 
ATOM      4  C4  IND d   1       0.386   4.348   2.137  0.00  0.00     0.051 A 
ATOM      5  C5  IND d   1       1.571   4.185   2.798  0.00  0.00    -0.031 A 
ATOM      6  C6  IND d   1       2.132   2.940   2.993  0.00  0.00     0.015 A 
ATOM      7  C7  IND d   1       1.532   1.807   2.521  0.00  0.00    -0.016 A 
ATOM      8  C8  IND d   1       0.325   1.968   1.855  0.00  0.00    -0.047 A 
ATOM      9  C9  IND d   1      -0.270   3.225   1.692  0.00  0.00    -0.096 A 
ATOM     10  HN1 IND d   1      -0.388   0.188   1.266  0.00  0.00     0.298 HD
ENDROOT
TORSDOF 0
ENDMDL
