MODEL 1
REMARK minimizedAffinity 11.5177488
REMARK minimizedRMSD -1
REMARK  0 active torsions:
REMARK  status: ('A' for Active; 'I' for Inactive)
ROOT
ATOM      1  N1  IND d   1      -5.113   2.335  -2.797  0.00  0.00    -0.196 N 
ATOM      2  C2  IND d   1      -5.398   3.450  -3.536  0.00  0.00     0.054 A 
ATOM      3  C3  IND d   1      -4.755   3.403  -4.724  0.00  0.00    -0.031 A 
ATOM      4  C4  IND d   1      -3.268   1.546  -5.708  0.00  0.00     0.051 A 
ATOM      5  C5  IND d   1      -2.689   0.349  -5.392  0.00  0.00    -0.031 A 
ATOM      6  C6  IND d   1      -2.894  -0.260  -4.171  0.00  0.00     0.015 A 
ATOM      7  C7  IND d   1      -3.700   0.301  -3.221  0.00  0.00    -0.016 A 
ATOM      8  C8  IND d   1      -4.284   1.520  -3.536  0.00  0.00    -0.047 A 
ATOM      9  C9  IND d   1      -4.045   2.164  -4.757  0.00  0.00    -0.096 A 
ATOM     10  HN1 IND d   1      -5.404   2.170  -2.005  0.00  0.00     0.298 HD
ENDROOT
TORSDOF 0
ENDMDL
