MODEL 1
REMARK minimizedAffinity 10.6748648
REMARK minimizedRMSD -1
REMARK  0 active torsions:
REMARK  status: ('A' for Active; 'I' for Inactive)
ROOT
ATOM      1  N1  IND d   1       2.899   0.295  -1.359  0.00  0.00    -0.196 N 
ATOM      2  C2  IND d   1       4.050   0.041  -0.666  0.00  0.00     0.054 A 
ATOM      3  C3  IND d   1       3.834   0.159   0.664  0.00  0.00    -0.031 A 
ATOM      4  C4  IND d   1       1.648   0.657   1.928  0.00  0.00     0.051 A 
ATOM      5  C5  IND d   1       0.339   0.996   1.725  0.00  0.00    -0.031 A 
ATOM      6  C6  IND d   1      -0.194   1.118   0.458  0.00  0.00     0.015 A 
ATOM      7  C7  IND d   1       0.562   0.894  -0.658  0.00  0.00    -0.016 A 
ATOM      8  C8  IND d   1       1.892   0.557  -0.455  0.00  0.00    -0.047 A 
ATOM      9  C9  IND d   1       2.450   0.473   0.827  0.00  0.00    -0.096 A 
ATOM     10  HN1 IND d   1       2.818   0.291  -2.215  0.00  0.00     0.298 HD
ENDROOT
TORSDOF 0
ENDMDL
