MODEL 1
REMARK minimizedAffinity 5.60045242
REMARK minimizedRMSD -1
REMARK  0 active torsions:
REMARK  status: ('A' for Active; 'I' for Inactive)
ROOT
ATOM      1  N1  IND d   1       4.005   0.694  -1.588  0.00  0.00    -0.196 N 
ATOM      2  C2  IND d   1       3.377  -0.306  -0.899  0.00  0.00     0.054 A 
ATOM      3  C3  IND d   1       3.588  -0.167   0.429  0.00  0.00    -0.031 A 
ATOM      4  C4  IND d   1       4.846   1.686   1.699  0.00  0.00     0.051 A 
ATOM      5  C5  IND d   1       5.618   2.796   1.499  0.00  0.00    -0.031 A 
ATOM      6  C6  IND d   1       5.895   3.273   0.235  0.00  0.00     0.015 A 
ATOM      7  C7  IND d   1       5.398   2.662  -0.882  0.00  0.00    -0.016 A 
ATOM      8  C8  IND d   1       4.620   1.531  -0.683  0.00  0.00    -0.047 A 
ATOM      9  C9  IND d   1       4.371   1.017   0.596  0.00  0.00    -0.096 A 
ATOM     10  HN1 IND d   1       4.013   0.785  -2.443  0.00  0.00     0.298 HD
ENDROOT
TORSDOF 0
ENDMDL
