MODEL 1
REMARK minimizedAffinity -1.71648538
REMARK minimizedRMSD -1
REMARK  0 active torsions:
REMARK  status: ('A' for Active; 'I' for Inactive)
ROOT
ATOM      1  N1  IND d   1      -3.079   1.718  -4.950  0.00  0.00    -0.196 N 
ATOM      2  C2  IND d   1      -2.708   0.506  -4.436  0.00  0.00     0.054 A 
ATOM      3  C3  IND d   1      -3.420   0.231  -3.320  0.00  0.00    -0.031 A 
ATOM      4  C4  IND d   1      -5.316   1.577  -2.216  0.00  0.00     0.051 A 
ATOM      5  C5  IND d   1      -5.983   2.767  -2.301  0.00  0.00    -0.031 A 
ATOM      6  C6  IND d   1      -5.713   3.685  -3.295  0.00  0.00     0.015 A 
ATOM      7  C7  IND d   1      -4.769   3.442  -4.252  0.00  0.00    -0.016 A 
ATOM      8  C8  IND d   1      -4.084   2.238  -4.164  0.00  0.00    -0.047 A 
ATOM      9  C9  IND d   1      -4.325   1.321  -3.133  0.00  0.00    -0.096 A 
ATOM     10  HN1 IND d   1      -2.741   2.092  -5.646  0.00  0.00     0.298 HD
ENDROOT
TORSDOF 0
ENDMDL
