MODEL 1
REMARK minimizedAffinity -1.42093778
REMARK minimizedRMSD -1
REMARK  0 active torsions:
REMARK  status: ('A' for Active; 'I' for Inactive)
ROOT
ATOM      1  C   UNL d   1       0.166   2.827  -1.092  0.00  0.00     0.077 C 
ATOM      2  C1  UNL d   1      -0.023   1.560  -0.313  0.00  0.00    -0.074 A 
ATOM      3  C2  UNL d   1      -0.705   1.562   0.909  0.00  0.00    -0.005 A 
ATOM      4  C3  UNL d   1      -0.881   0.374   1.618  0.00  0.00     0.006 A 
ATOM      5  C4  UNL d   1      -0.379  -0.826   1.114  0.00  0.00    -0.005 A 
ATOM      6  C5  UNL d   1       0.304  -0.848  -0.106  0.00  0.00    -0.074 A 
ATOM      7  C6  UNL d   1       0.842  -2.131  -0.667  0.00  0.00     0.077 C 
ATOM      8  C7  UNL d   1       0.472   0.349  -0.816  0.00  0.00    -0.001 A 
ENDROOT
TORSDOF 0
ENDMDL
