MODEL 1
REMARK minimizedAffinity -3.36691213
REMARK minimizedRMSD -1
REMARK  0 active torsions:
REMARK  status: ('A' for Active; 'I' for Inactive)
ROOT
ATOM      1  C   UNL d   1       0.799   0.015  -0.946  0.00  0.00     0.077 C 
ATOM      2  C1  UNL d   1      -0.133   0.515   0.118  0.00  0.00    -0.074 A 
ATOM      3  C2  UNL d   1      -0.635  -0.348   1.097  0.00  0.00    -0.005 A 
ATOM      4  C3  UNL d   1      -1.493   0.133   2.086  0.00  0.00     0.006 A 
ATOM      5  C4  UNL d   1      -1.858   1.480   2.106  0.00  0.00    -0.005 A 
ATOM      6  C5  UNL d   1      -1.365   2.358   1.135  0.00  0.00    -0.074 A 
ATOM      7  C6  UNL d   1      -1.738   3.811   1.148  0.00  0.00     0.077 C 
ATOM      8  C7  UNL d   1      -0.497   1.869   0.149  0.00  0.00    -0.001 A 
ENDROOT
TORSDOF 0
ENDMDL
