MODEL 1
REMARK minimizedAffinity -3.70841527
REMARK minimizedRMSD -1
REMARK  0 active torsions:
REMARK  status: ('A' for Active; 'I' for Inactive)
ROOT
ATOM      1  C   UNL d   1      -1.121  -2.890  -2.270  0.00  0.00     0.077 C 
ATOM      2  C1  UNL d   1      -0.476  -1.851  -1.401  0.00  0.00    -0.074 A 
ATOM      3  C2  UNL d   1       0.848  -1.457  -1.614  0.00  0.00    -0.005 A 
ATOM      4  C3  UNL d   1       1.431  -0.483  -0.804  0.00  0.00     0.006 A 
ATOM      5  C4  UNL d   1       0.696   0.106   0.226  0.00  0.00    -0.005 A 
ATOM      6  C5  UNL d   1      -0.630  -0.274   0.453  0.00  0.00    -0.074 A 
ATOM      7  C6  UNL d   1      -1.437   0.356   1.550  0.00  0.00     0.077 C 
ATOM      8  C7  UNL d   1      -1.211  -1.249  -0.369  0.00  0.00    -0.001 A 
ENDROOT
TORSDOF 0
ENDMDL
