MODEL 1
REMARK minimizedAffinity -2.7751255
REMARK minimizedRMSD -1
REMARK  0 active torsions:
REMARK  status: ('A' for Active; 'I' for Inactive)
ROOT
ATOM      1  C   UNL d   1       1.158  -1.945  -0.806  0.00  0.00     0.077 C 
ATOM      2  C1  UNL d   1       0.759  -0.521  -0.556  0.00  0.00    -0.074 A 
ATOM      3  C2  UNL d   1       1.163   0.501  -1.420  0.00  0.00    -0.005 A 
ATOM      4  C3  UNL d   1       0.776   1.820  -1.180  0.00  0.00     0.006 A 
ATOM      5  C4  UNL d   1      -0.018   2.128  -0.074  0.00  0.00    -0.005 A 
ATOM      6  C5  UNL d   1      -0.432   1.119   0.800  0.00  0.00    -0.074 A 
ATOM      7  C6  UNL d   1      -1.294   1.432   1.987  0.00  0.00     0.077 C 
ATOM      8  C7  UNL d   1      -0.045  -0.204   0.548  0.00  0.00    -0.001 A 
ENDROOT
TORSDOF 0
ENDMDL
