MODEL 1
REMARK minimizedAffinity -0.916395843
REMARK minimizedRMSD -1
REMARK  0 active torsions:
REMARK  status: ('A' for Active; 'I' for Inactive)
ROOT
ATOM      1  C   UNL d   1       1.019  -1.931  -0.893  0.00  0.00     0.077 C 
ATOM      2  C1  UNL d   1       0.552  -0.540  -0.583  0.00  0.00    -0.074 A 
ATOM      3  C2  UNL d   1       0.768   0.508  -1.484  0.00  0.00    -0.005 A 
ATOM      4  C3  UNL d   1       0.320   1.795  -1.186  0.00  0.00     0.006 A 
ATOM      5  C4  UNL d   1      -0.349   2.046   0.012  0.00  0.00    -0.005 A 
ATOM      6  C5  UNL d   1      -0.575   1.011   0.925  0.00  0.00    -0.074 A 
ATOM      7  C6  UNL d   1      -1.301   1.262   2.213  0.00  0.00     0.077 C 
ATOM      8  C7  UNL d   1      -0.127  -0.281   0.616  0.00  0.00    -0.001 A 
ENDROOT
TORSDOF 0
ENDMDL
