MODEL 1
REMARK minimizedAffinity 2.05028152
REMARK minimizedRMSD -1
REMARK  0 active torsions:
REMARK  status: ('A' for Active; 'I' for Inactive)
ROOT
ATOM      1  C   UNL d   1      -1.291  -1.001   2.944  0.00  0.00     0.077 C 
ATOM      2  C1  UNL d   1      -1.022   0.101   1.963  0.00  0.00    -0.074 A 
ATOM      3  C2  UNL d   1      -1.471   1.404   2.205  0.00  0.00    -0.005 A 
ATOM      4  C3  UNL d   1      -1.206   2.421   1.289  0.00  0.00     0.006 A 
ATOM      5  C4  UNL d   1      -0.489   2.147   0.123  0.00  0.00    -0.005 A 
ATOM      6  C5  UNL d   1      -0.031   0.851  -0.135  0.00  0.00    -0.074 A 
ATOM      7  C6  UNL d   1       0.749   0.541  -1.378  0.00  0.00     0.077 C 
ATOM      8  C7  UNL d   1      -0.296  -0.164   0.794  0.00  0.00    -0.001 A 
ENDROOT
TORSDOF 0
ENDMDL
