MODEL 1
REMARK minimizedAffinity -3.96417403
REMARK minimizedRMSD -1
REMARK  0 active torsions:
REMARK  status: ('A' for Active; 'I' for Inactive)
ROOT
ATOM      1  C   UNL d   1      -2.224   1.650   1.520  0.00  0.00     0.077 C 
ATOM      2  C1  UNL d   1      -1.222   1.188   0.505  0.00  0.00    -0.074 A 
ATOM      3  C2  UNL d   1      -0.772   2.046  -0.503  0.00  0.00    -0.005 A 
ATOM      4  C3  UNL d   1       0.168   1.605  -1.435  0.00  0.00     0.006 A 
ATOM      5  C4  UNL d   1       0.666   0.304  -1.368  0.00  0.00    -0.005 A 
ATOM      6  C5  UNL d   1       0.228  -0.569  -0.367  0.00  0.00    -0.074 A 
ATOM      7  C6  UNL d   1       0.761  -1.968  -0.275  0.00  0.00     0.077 C 
ATOM      8  C7  UNL d   1      -0.711  -0.116   0.570  0.00  0.00    -0.001 A 
ENDROOT
TORSDOF 0
ENDMDL
