MODEL 1
REMARK minimizedAffinity -4.80734348
REMARK minimizedRMSD -1
REMARK  0 active torsions:
REMARK  status: ('A' for Active; 'I' for Inactive)
ROOT
ATOM      1  C   UNL d   1       0.423   2.409  -2.073  0.00  0.00     0.077 C 
ATOM      2  C1  UNL d   1       0.418   0.933  -1.805  0.00  0.00    -0.074 A 
ATOM      3  C2  UNL d   1       0.468   0.011  -2.855  0.00  0.00    -0.005 A 
ATOM      4  C3  UNL d   1       0.472  -1.358  -2.590  0.00  0.00     0.006 A 
ATOM      5  C4  UNL d   1       0.425  -1.819  -1.273  0.00  0.00    -0.005 A 
ATOM      6  C5  UNL d   1       0.375  -0.912  -0.210  0.00  0.00    -0.074 A 
ATOM      7  C6  UNL d   1       0.335  -1.390   1.211  0.00  0.00     0.077 C 
ATOM      8  C7  UNL d   1       0.379   0.463  -0.484  0.00  0.00    -0.001 A 
ENDROOT
TORSDOF 0
ENDMDL
