MODEL 1
REMARK minimizedAffinity -3.15727973
REMARK minimizedRMSD -1
REMARK  0 active torsions:
REMARK  status: ('A' for Active; 'I' for Inactive)
ROOT
ATOM      1  C   UNL d   1      -0.383   3.609   0.770  0.00  0.00     0.077 C 
ATOM      2  C1  UNL d   1      -0.639   2.176   1.130  0.00  0.00    -0.074 A 
ATOM      3  C2  UNL d   1      -1.375   1.842   2.272  0.00  0.00    -0.005 A 
ATOM      4  C3  UNL d   1      -1.613   0.505   2.589  0.00  0.00     0.006 A 
ATOM      5  C4  UNL d   1      -1.118  -0.510   1.770  0.00  0.00    -0.005 A 
ATOM      6  C5  UNL d   1      -0.380  -0.196   0.624  0.00  0.00    -0.074 A 
ATOM      7  C6  UNL d   1       0.151  -1.274  -0.273  0.00  0.00     0.077 C 
ATOM      8  C7  UNL d   1      -0.151   1.151   0.308  0.00  0.00    -0.001 A 
ENDROOT
TORSDOF 0
ENDMDL
