MODEL 1
REMARK minimizedAffinity -3.09239507
REMARK minimizedRMSD -1
REMARK  0 active torsions:
REMARK  status: ('A' for Active; 'I' for Inactive)
ROOT
ATOM      1  C   UNL d   1      -1.218   0.819   1.592  0.00  0.00     0.077 C 
ATOM      2  C1  UNL d   1      -0.554  -0.055   0.570  0.00  0.00    -0.074 A 
ATOM      3  C2  UNL d   1       0.805   0.090   0.274  0.00  0.00    -0.005 A 
ATOM      4  C3  UNL d   1       1.411  -0.737  -0.672  0.00  0.00     0.006 A 
ATOM      5  C4  UNL d   1       0.665  -1.715  -1.330  0.00  0.00    -0.005 A 
ATOM      6  C5  UNL d   1      -0.695  -1.875  -1.047  0.00  0.00    -0.074 A 
ATOM      7  C6  UNL d   1      -1.509  -2.928  -1.738  0.00  0.00     0.077 C 
ATOM      8  C7  UNL d   1      -1.295  -1.045  -0.090  0.00  0.00    -0.001 A 
ENDROOT
TORSDOF 0
ENDMDL
