MODEL 1
REMARK minimizedAffinity -5.37731552
REMARK minimizedRMSD -1
REMARK  0 active torsions:
REMARK  status: ('A' for Active; 'I' for Inactive)
ROOT
ATOM      1  C   UNL d   1       0.668  -0.739  -0.744  0.00  0.00     0.077 C 
ATOM      2  C1  UNL d   1       0.047   0.355   0.072  0.00  0.00    -0.074 A 
ATOM      3  C2  UNL d   1      -0.678   0.064   1.233  0.00  0.00    -0.005 A 
ATOM      4  C3  UNL d   1      -1.242   1.093   1.987  0.00  0.00     0.006 A 
ATOM      5  C4  UNL d   1      -1.087   2.422   1.588  0.00  0.00    -0.005 A 
ATOM      6  C5  UNL d   1      -0.365   2.732   0.431  0.00  0.00    -0.074 A 
ATOM      7  C6  UNL d   1      -0.182   4.155  -0.005  0.00  0.00     0.077 C 
ATOM      8  C7  UNL d   1       0.204   1.693  -0.317  0.00  0.00    -0.001 A 
ENDROOT
TORSDOF 0
ENDMDL
