MODEL 1
REMARK minimizedAffinity -4.76223183
REMARK minimizedRMSD -1
REMARK  0 active torsions:
REMARK  status: ('A' for Active; 'I' for Inactive)
ROOT
ATOM      1  C   UNL d   1       0.757  -0.969  -0.391  0.00  0.00     0.077 C 
ATOM      2  C1  UNL d   1       0.107   0.226   0.241  0.00  0.00    -0.074 A 
ATOM      3  C2  UNL d   1      -0.533   0.124   1.480  0.00  0.00    -0.005 A 
ATOM      4  C3  UNL d   1      -1.124   1.247   2.061  0.00  0.00     0.006 A 
ATOM      5  C4  UNL d   1      -1.081   2.480   1.409  0.00  0.00    -0.005 A 
ATOM      6  C5  UNL d   1      -0.445   2.601   0.170  0.00  0.00    -0.074 A 
ATOM      7  C6  UNL d   1      -0.381   3.921  -0.540  0.00  0.00     0.077 C 
ATOM      8  C7  UNL d   1       0.153   1.470  -0.404  0.00  0.00    -0.001 A 
ENDROOT
TORSDOF 0
ENDMDL
