MODEL 1
REMARK minimizedAffinity -3.29824591
REMARK minimizedRMSD -1
REMARK  0 active torsions:
REMARK  status: ('A' for Active; 'I' for Inactive)
ROOT
ATOM      1  C   UNL d   1       0.934  -1.921  -1.273  0.00  0.00     0.077 C 
ATOM      2  C1  UNL d   1       0.618  -0.547  -0.762  0.00  0.00    -0.074 A 
ATOM      3  C2  UNL d   1       1.089   0.592  -1.423  0.00  0.00    -0.005 A 
ATOM      4  C3  UNL d   1       0.779   1.864  -0.940  0.00  0.00     0.006 A 
ATOM      5  C4  UNL d   1      -0.004   2.009   0.205  0.00  0.00    -0.005 A 
ATOM      6  C5  UNL d   1      -0.485   0.882   0.879  0.00  0.00    -0.074 A 
ATOM      7  C6  UNL d   1      -1.336   1.020   2.106  0.00  0.00     0.077 C 
ATOM      8  C7  UNL d   1      -0.175  -0.392   0.384  0.00  0.00    -0.001 A 
ENDROOT
TORSDOF 0
ENDMDL
