MODEL 1
REMARK minimizedAffinity -2.83335304
REMARK minimizedRMSD -1
REMARK  0 active torsions:
REMARK  status: ('A' for Active; 'I' for Inactive)
ROOT
ATOM      1  C   UNL d   1       2.274  -4.293  -0.179  0.00  0.00     0.077 C 
ATOM      2  C1  UNL d   1       1.377  -3.312  -0.873  0.00  0.00    -0.074 A 
ATOM      3  C2  UNL d   1       0.596  -3.701  -1.966  0.00  0.00    -0.005 A 
ATOM      4  C3  UNL d   1      -0.241  -2.779  -2.596  0.00  0.00     0.006 A 
ATOM      5  C4  UNL d   1      -0.305  -1.462  -2.140  0.00  0.00    -0.005 A 
ATOM      6  C5  UNL d   1       0.468  -1.055  -1.048  0.00  0.00    -0.074 A 
ATOM      7  C6  UNL d   1       0.404   0.354  -0.539  0.00  0.00     0.077 C 
ATOM      8  C7  UNL d   1       1.302  -1.989  -0.416  0.00  0.00    -0.001 A 
ENDROOT
TORSDOF 0
ENDMDL
