MODEL 1
REMARK minimizedAffinity -1.02537739
REMARK minimizedRMSD -1
REMARK  1 active torsions:
REMARK  status: ('A' for Active; 'I' for Inactive)
REMARK    1  A    between atoms: C1_2  and  C2_3 
ROOT
ATOM      1  C2  UNL d   1       3.499   3.592   5.470  0.00  0.00    -0.076 A 
ATOM      2  C3  UNL d   1       2.972   4.844   5.834  0.00  0.00     0.004 A 
ATOM      3  C4  UNL d   1       3.802   5.951   6.000  0.00  0.00    -0.003 A 
ATOM      4  C5  UNL d   1       5.173   5.825   5.803  0.00  0.00     0.000 A 
ATOM      5  C6  UNL d   1       5.711   4.595   5.424  0.00  0.00     0.000 A 
ATOM      6  C7  UNL d   1       4.886   3.473   5.237  0.00  0.00    -0.073 A 
ATOM      7  C8  UNL d   1       5.520   2.170   4.834  0.00  0.00     0.078 C 
ENDROOT
BRANCH   1   8
ATOM      8  C1  UNL d   1       2.553   2.421   5.331  0.00  0.00     0.053 C 
ATOM      9  C   UNL d   1       3.089   1.158   5.988  0.00  0.00     0.018 C 
ENDBRANCH   1   8
TORSDOF 1
ENDMDL
