MODEL 1
REMARK minimizedAffinity 3.96495152
REMARK minimizedRMSD -1
REMARK  1 active torsions:
REMARK  status: ('A' for Active; 'I' for Inactive)
REMARK    1  A    between atoms: C1_2  and  C2_3 
ROOT
ATOM      1  C2  UNL d   1       4.709   3.850   4.800  0.00  0.00    -0.076 A 
ATOM      2  C3  UNL d   1       4.480   2.501   5.121  0.00  0.00     0.004 A 
ATOM      3  C4  UNL d   1       3.520   1.754   4.440  0.00  0.00    -0.003 A 
ATOM      4  C5  UNL d   1       2.773   2.345   3.427  0.00  0.00     0.000 A 
ATOM      5  C6  UNL d   1       2.999   3.677   3.084  0.00  0.00     0.000 A 
ATOM      6  C7  UNL d   1       3.974   4.440   3.749  0.00  0.00    -0.073 A 
ATOM      7  C8  UNL d   1       4.171   5.874   3.342  0.00  0.00     0.078 C 
ENDROOT
BRANCH   1   8
ATOM      8  C1  UNL d   1       5.744   4.617   5.591  0.00  0.00     0.053 C 
ATOM      9  C   UNL d   1       5.259   6.000   5.999  0.00  0.00     0.018 C 
ENDBRANCH   1   8
TORSDOF 1
ENDMDL
