MODEL 1
REMARK minimizedAffinity -0.3592408
REMARK minimizedRMSD -1
REMARK  1 active torsions:
REMARK  status: ('A' for Active; 'I' for Inactive)
REMARK    1  A    between atoms: C1_2  and  C2_3 
ROOT
ATOM      1  C2  UNL d   1       3.907   3.643   5.029  0.00  0.00    -0.076 A 
ATOM      2  C3  UNL d   1       3.290   4.732   5.669  0.00  0.00     0.004 A 
ATOM      3  C4  UNL d   1       4.015   5.875   6.000  0.00  0.00    -0.003 A 
ATOM      4  C5  UNL d   1       5.370   5.948   5.696  0.00  0.00     0.000 A 
ATOM      5  C6  UNL d   1       5.995   4.884   5.045  0.00  0.00     0.000 A 
ATOM      6  C7  UNL d   1       5.274   3.731   4.690  0.00  0.00    -0.073 A 
ATOM      7  C8  UNL d   1       6.000   2.612   3.996  0.00  0.00     0.078 C 
ENDROOT
BRANCH   1   8
ATOM      8  C1  UNL d   1       3.076   2.418   4.719  0.00  0.00     0.053 C 
ATOM      9  C   UNL d   1       2.686   1.646   5.971  0.00  0.00     0.018 C 
ENDBRANCH   1   8
TORSDOF 1
ENDMDL
