MODEL 1
REMARK minimizedAffinity -3.05170989
REMARK minimizedRMSD -1
REMARK  1 active torsions:
REMARK  status: ('A' for Active; 'I' for Inactive)
REMARK    1  A    between atoms: C1_2  and  C2_3 
ROOT
ATOM      1  C2  UNL d   1       4.810   3.580   5.386  0.00  0.00    -0.076 A 
ATOM      2  C3  UNL d   1       4.717   2.319   6.000  0.00  0.00     0.004 A 
ATOM      3  C4  UNL d   1       3.633   1.478   5.751  0.00  0.00    -0.003 A 
ATOM      4  C5  UNL d   1       2.626   1.885   4.884  0.00  0.00     0.000 A 
ATOM      5  C6  UNL d   1       2.711   3.125   4.252  0.00  0.00     0.000 A 
ATOM      6  C7  UNL d   1       3.804   3.978   4.479  0.00  0.00    -0.073 A 
ATOM      7  C8  UNL d   1       3.842   5.307   3.776  0.00  0.00     0.078 C 
ENDROOT
BRANCH   1   8
ATOM      8  C1  UNL d   1       5.995   4.460   5.715  0.00  0.00     0.053 C 
ATOM      9  C   UNL d   1       5.592   5.898   5.998  0.00  0.00     0.018 C 
ENDBRANCH   1   8
TORSDOF 1
ENDMDL
