MODEL 1
REMARK minimizedAffinity 5.09584999
REMARK minimizedRMSD -1
REMARK  1 active torsions:
REMARK  status: ('A' for Active; 'I' for Inactive)
REMARK    1  A    between atoms: C1_2  and  C2_3 
ROOT
ATOM      1  C2  UNL d   1       4.060   3.791   3.877  0.00  0.00    -0.076 A 
ATOM      2  C3  UNL d   1       3.408   2.707   3.263  0.00  0.00     0.004 A 
ATOM      3  C4  UNL d   1       3.013   1.594   4.004  0.00  0.00    -0.003 A 
ATOM      4  C5  UNL d   1       3.264   1.547   5.371  0.00  0.00     0.000 A 
ATOM      5  C6  UNL d   1       3.894   2.620   5.999  0.00  0.00     0.000 A 
ATOM      6  C7  UNL d   1       4.284   3.757   5.270  0.00  0.00    -0.073 A 
ATOM      7  C8  UNL d   1       4.965   4.883   5.999  0.00  0.00     0.078 C 
ENDROOT
BRANCH   1   8
ATOM      8  C1  UNL d   1       4.488   4.959   3.019  0.00  0.00     0.053 C 
ATOM      9  C   UNL d   1       3.360   5.951   2.780  0.00  0.00     0.018 C 
ENDBRANCH   1   8
TORSDOF 1
ENDMDL
