MODEL 1
REMARK minimizedAffinity -5.18941593
REMARK minimizedRMSD -1
REMARK  1 active torsions:
REMARK  status: ('A' for Active; 'I' for Inactive)
REMARK    1  A    between atoms: C1_2  and  C2_3 
ROOT
ATOM      1  C2  UNL d   1       2.234   4.443   4.118  0.00  0.00    -0.076 A 
ATOM      2  C3  UNL d   1       3.321   3.750   3.558  0.00  0.00     0.004 A 
ATOM      3  C4  UNL d   1       3.891   2.660   4.212  0.00  0.00    -0.003 A 
ATOM      4  C5  UNL d   1       3.383   2.244   5.438  0.00  0.00     0.000 A 
ATOM      5  C6  UNL d   1       2.293   2.908   6.000  0.00  0.00     0.000 A 
ATOM      6  C7  UNL d   1       1.696   3.999   5.345  0.00  0.00    -0.073 A 
ATOM      7  C8  UNL d   1       0.527   4.683   6.000  0.00  0.00     0.078 C 
ENDROOT
BRANCH   1   8
ATOM      8  C1  UNL d   1       1.674   5.635   3.375  0.00  0.00     0.053 C 
ATOM      9  C   UNL d   1       0.712   5.232   2.268  0.00  0.00     0.018 C 
ENDBRANCH   1   8
TORSDOF 1
ENDMDL
