MODEL 1
REMARK minimizedAffinity -3.50658107
REMARK minimizedRMSD -1
REMARK  1 active torsions:
REMARK  status: ('A' for Active; 'I' for Inactive)
REMARK    1  A    between atoms: C1_2  and  C2_3 
ROOT
ATOM      1  C2  UNL d   1       2.286   4.802   5.708  0.00  0.00    -0.076 A 
ATOM      2  C3  UNL d   1       2.979   6.000   5.460  0.00  0.00     0.004 A 
ATOM      3  C4  UNL d   1       4.350   5.997   5.210  0.00  0.00    -0.003 A 
ATOM      4  C5  UNL d   1       5.051   4.796   5.204  0.00  0.00     0.000 A 
ATOM      5  C6  UNL d   1       4.376   3.596   5.430  0.00  0.00     0.000 A 
ATOM      6  C7  UNL d   1       2.991   3.580   5.668  0.00  0.00    -0.073 A 
ATOM      7  C8  UNL d   1       2.316   2.259   5.912  0.00  0.00     0.078 C 
ENDROOT
BRANCH   1   8
ATOM      8  C1  UNL d   1       0.804   4.870   6.000  0.00  0.00     0.053 C 
ATOM      9  C   UNL d   1       0.041   5.670   4.955  0.00  0.00     0.018 C 
ENDBRANCH   1   8
TORSDOF 1
ENDMDL
