MODEL 1
REMARK minimizedAffinity 3.05632234
REMARK minimizedRMSD -1
REMARK  1 active torsions:
REMARK  status: ('A' for Active; 'I' for Inactive)
REMARK    1  A    between atoms: C1_2  and  C2_3 
ROOT
ATOM      1  C2  UNL d   1       2.718   4.198   5.395  0.00  0.00    -0.076 A 
ATOM      2  C3  UNL d   1       3.593   5.274   5.162  0.00  0.00     0.004 A 
ATOM      3  C4  UNL d   1       4.864   5.063   4.630  0.00  0.00    -0.003 A 
ATOM      4  C5  UNL d   1       5.281   3.773   4.321  0.00  0.00     0.000 A 
ATOM      5  C6  UNL d   1       4.419   2.696   4.529  0.00  0.00     0.000 A 
ATOM      6  C7  UNL d   1       3.129   2.893   5.050  0.00  0.00    -0.073 A 
ATOM      7  C8  UNL d   1       2.244   1.695   5.260  0.00  0.00     0.078 C 
ENDROOT
BRANCH   1   8
ATOM      8  C1  UNL d   1       1.362   4.485   5.999  0.00  0.00     0.053 C 
ATOM      9  C   UNL d   1       0.603   5.564   5.242  0.00  0.00     0.018 C 
ENDBRANCH   1   8
TORSDOF 1
ENDMDL
