MODEL 1
REMARK minimizedAffinity -4.18100309
REMARK minimizedRMSD -1
REMARK  1 active torsions:
REMARK  status: ('A' for Active; 'I' for Inactive)
REMARK    1  A    between atoms: C1_2  and  C2_3 
ROOT
ATOM      1  C2  UNL d   1       3.014   4.713   5.220  0.00  0.00    -0.076 A 
ATOM      2  C3  UNL d   1       2.224   3.558   5.350  0.00  0.00     0.004 A 
ATOM      3  C4  UNL d   1       2.787   2.343   5.736  0.00  0.00    -0.003 A 
ATOM      4  C5  UNL d   1       4.150   2.264   6.000  0.00  0.00     0.000 A 
ATOM      5  C6  UNL d   1       4.946   3.404   5.893  0.00  0.00     0.000 A 
ATOM      6  C7  UNL d   1       4.391   4.640   5.520  0.00  0.00    -0.073 A 
ATOM      7  C8  UNL d   1       5.298   5.836   5.415  0.00  0.00     0.078 C 
ENDROOT
BRANCH   1   8
ATOM      8  C1  UNL d   1       2.353   5.997   4.771  0.00  0.00     0.053 C 
ATOM      9  C   UNL d   1       1.704   5.870   3.401  0.00  0.00     0.018 C 
ENDBRANCH   1   8
TORSDOF 1
ENDMDL
