MODEL 1
REMARK minimizedAffinity 1.61084688
REMARK minimizedRMSD -1
REMARK  0 active torsions:
REMARK  status: ('A' for Active; 'I' for Inactive)
ROOT
ATOM      1  C   UNL d   1       4.943  -4.148   0.236  0.00  0.00     0.077 C 
ATOM      2  C1  UNL d   1       3.562  -4.345   0.787  0.00  0.00    -0.074 A 
ATOM      3  C2  UNL d   1       3.007  -5.624   0.899  0.00  0.00    -0.005 A 
ATOM      4  C3  UNL d   1       1.725  -5.792   1.422  0.00  0.00     0.006 A 
ATOM      5  C4  UNL d   1       0.986  -4.684   1.838  0.00  0.00    -0.005 A 
ATOM      6  C5  UNL d   1       1.524  -3.397   1.735  0.00  0.00    -0.074 A 
ATOM      7  C6  UNL d   1       0.746  -2.197   2.187  0.00  0.00     0.077 C 
ATOM      8  C7  UNL d   1       2.815  -3.238   1.215  0.00  0.00    -0.001 A 
ENDROOT
TORSDOF 0
ENDMDL
