MODEL 1
REMARK minimizedAffinity 4.47681665
REMARK minimizedRMSD -1
REMARK  0 active torsions:
REMARK  status: ('A' for Active; 'I' for Inactive)
ROOT
ATOM      1  C   UNL d   1       4.216  -3.374   4.608  0.00  0.00     0.077 C 
ATOM      2  C1  UNL d   1       3.345  -3.511   3.395  0.00  0.00    -0.074 A 
ATOM      3  C2  UNL d   1       3.362  -4.679   2.626  0.00  0.00    -0.005 A 
ATOM      4  C3  UNL d   1       2.539  -4.796   1.506  0.00  0.00     0.006 A 
ATOM      5  C4  UNL d   1       1.692  -3.747   1.144  0.00  0.00    -0.005 A 
ATOM      6  C5  UNL d   1       1.661  -2.572   1.901  0.00  0.00    -0.074 A 
ATOM      7  C6  UNL d   1       0.750  -1.440   1.531  0.00  0.00     0.077 C 
ATOM      8  C7  UNL d   1       2.486  -2.465   3.029  0.00  0.00    -0.001 A 
ENDROOT
TORSDOF 0
ENDMDL
