MODEL 1
REMARK minimizedAffinity 1.61253512
REMARK minimizedRMSD -1
REMARK  0 active torsions:
REMARK  status: ('A' for Active; 'I' for Inactive)
ROOT
ATOM      1  C   UNL d   1       1.457   4.576  -3.449  0.00  0.00     0.077 C 
ATOM      2  C1  UNL d   1       0.207   3.835  -3.077  0.00  0.00    -0.074 A 
ATOM      3  C2  UNL d   1       0.271   2.603  -2.417  0.00  0.00    -0.005 A 
ATOM      4  C3  UNL d   1      -0.900   1.930  -2.069  0.00  0.00     0.006 A 
ATOM      5  C4  UNL d   1      -2.145   2.481  -2.378  0.00  0.00    -0.005 A 
ATOM      6  C5  UNL d   1      -2.228   3.711  -3.037  0.00  0.00    -0.074 A 
ATOM      7  C6  UNL d   1      -3.558   4.322  -3.366  0.00  0.00     0.077 C 
ATOM      8  C7  UNL d   1      -1.047   4.385  -3.376  0.00  0.00    -0.001 A 
ENDROOT
TORSDOF 0
ENDMDL
