MODEL 1
REMARK minimizedAffinity 7.49052
REMARK minimizedRMSD -1
REMARK  0 active torsions:
REMARK  status: ('A' for Active; 'I' for Inactive)
ROOT
ATOM      1  C   UNL d   1       5.998  -1.571  -2.605  0.00  0.00     0.077 C 
ATOM      2  C1  UNL d   1       5.921  -0.516  -3.668  0.00  0.00    -0.074 A 
ATOM      3  C2  UNL d   1       5.877  -0.862  -5.022  0.00  0.00    -0.005 A 
ATOM      4  C3  UNL d   1       5.796   0.130  -5.999  0.00  0.00     0.006 A 
ATOM      5  C4  UNL d   1       5.758   1.476  -5.633  0.00  0.00    -0.005 A 
ATOM      6  C5  UNL d   1       5.801   1.841  -4.284  0.00  0.00    -0.074 A 
ATOM      7  C6  UNL d   1       5.752   3.283  -3.872  0.00  0.00     0.077 C 
ATOM      8  C7  UNL d   1       5.875   0.838  -3.307  0.00  0.00    -0.001 A 
ENDROOT
TORSDOF 0
ENDMDL
