MODEL 1
REMARK minimizedAffinity 9.7577486
REMARK minimizedRMSD -1
REMARK  0 active torsions:
REMARK  status: ('A' for Active; 'I' for Inactive)
ROOT
ATOM      1  C   UNL d   1      -1.299   1.252  -2.119  0.00  0.00     0.077 C 
ATOM      2  C1  UNL d   1      -1.306   2.673  -2.598  0.00  0.00    -0.074 A 
ATOM      3  C2  UNL d   1      -2.504   3.384  -2.723  0.00  0.00    -0.005 A 
ATOM      4  C3  UNL d   1      -2.494   4.708  -3.161  0.00  0.00     0.006 A 
ATOM      5  C4  UNL d   1      -1.287   5.334  -3.477  0.00  0.00    -0.005 A 
ATOM      6  C5  UNL d   1      -0.079   4.640  -3.357  0.00  0.00    -0.074 A 
ATOM      7  C6  UNL d   1       1.227   5.301  -3.683  0.00  0.00     0.077 C 
ATOM      8  C7  UNL d   1      -0.097   3.311  -2.910  0.00  0.00    -0.001 A 
ENDROOT
TORSDOF 0
ENDMDL
