MODEL 1
REMARK minimizedAffinity 2.4329083
REMARK minimizedRMSD -1
REMARK  0 active torsions:
REMARK  status: ('A' for Active; 'I' for Inactive)
ROOT
ATOM      1  C   UNL d   1       1.525  -1.876  -0.384  0.00  0.00     0.077 C 
ATOM      2  C1  UNL d   1       0.916  -1.744   0.980  0.00  0.00    -0.074 A 
ATOM      3  C2  UNL d   1       1.564  -2.256   2.109  0.00  0.00    -0.005 A 
ATOM      4  C3  UNL d   1       0.991  -2.117   3.373  0.00  0.00     0.006 A 
ATOM      5  C4  UNL d   1      -0.234  -1.465   3.521  0.00  0.00    -0.005 A 
ATOM      6  C5  UNL d   1      -0.896  -0.945   2.404  0.00  0.00    -0.074 A 
ATOM      7  C6  UNL d   1      -2.208  -0.232   2.546  0.00  0.00     0.077 C 
ATOM      8  C7  UNL d   1      -0.310  -1.083   1.138  0.00  0.00    -0.001 A 
ENDROOT
TORSDOF 0
ENDMDL
