MODEL 1
REMARK minimizedAffinity 8.82915783
REMARK minimizedRMSD -1
REMARK  0 active torsions:
REMARK  status: ('A' for Active; 'I' for Inactive)
ROOT
ATOM      1  C   UNL d   1      -6.000   4.521  -5.143  0.00  0.00     0.077 C 
ATOM      2  C1  UNL d   1      -4.752   3.913  -4.575  0.00  0.00    -0.074 A 
ATOM      3  C2  UNL d   1      -3.493   4.444  -4.875  0.00  0.00    -0.005 A 
ATOM      4  C3  UNL d   1      -2.341   3.875  -4.332  0.00  0.00     0.006 A 
ATOM      5  C4  UNL d   1      -2.437   2.770  -3.484  0.00  0.00    -0.005 A 
ATOM      6  C5  UNL d   1      -3.687   2.227  -3.172  0.00  0.00    -0.074 A 
ATOM      7  C6  UNL d   1      -3.807   1.046  -2.254  0.00  0.00     0.077 C 
ATOM      8  C7  UNL d   1      -4.839   2.809  -3.716  0.00  0.00    -0.001 A 
ENDROOT
TORSDOF 0
ENDMDL
