MODEL 1
REMARK minimizedAffinity -0.111018106
REMARK minimizedRMSD -1
REMARK  0 active torsions:
REMARK  status: ('A' for Active; 'I' for Inactive)
ROOT
ATOM      1  C   UNL d   1       0.864  -1.907   0.410  0.00  0.00     0.077 C 
ATOM      2  C1  UNL d   1       1.201  -0.729  -0.455  0.00  0.00    -0.074 A 
ATOM      3  C2  UNL d   1       1.806   0.410   0.085  0.00  0.00    -0.005 A 
ATOM      4  C3  UNL d   1       2.122   1.494  -0.735  0.00  0.00     0.006 A 
ATOM      5  C4  UNL d   1       1.836   1.449  -2.100  0.00  0.00    -0.005 A 
ATOM      6  C5  UNL d   1       1.232   0.318  -2.658  0.00  0.00    -0.074 A 
ATOM      7  C6  UNL d   1       0.927   0.250  -4.125  0.00  0.00     0.077 C 
ATOM      8  C7  UNL d   1       0.924  -0.769  -1.829  0.00  0.00    -0.001 A 
ENDROOT
TORSDOF 0
ENDMDL
