MODEL 1
REMARK minimizedAffinity 0.610318959
REMARK minimizedRMSD -1
REMARK  0 active torsions:
REMARK  status: ('A' for Active; 'I' for Inactive)
ROOT
ATOM      1  C1  DEN d   1       1.246   0.296  -0.239  0.00  0.00     0.130 A 
ATOM      2  C2  DEN d   1      -0.076   0.218  -0.854  0.00  0.00    -0.031 A 
ATOM      3  C3  DEN d   1      -0.714   1.544  -0.736  0.00  0.00     0.027 A 
ATOM      4  C4  DEN d   1       0.214   3.702   0.330  0.00  0.00     0.027 A 
ATOM      5  C5  DEN d   1       1.288   4.255   0.991  0.00  0.00    -0.003 A 
ATOM      6  C6  DEN d   1       2.400   3.525   1.316  0.00  0.00     0.001 A 
ATOM      7  C7  DEN d   1       2.483   2.210   0.940  0.00  0.00     0.017 A 
ATOM      8  C8  DEN d   1       1.401   1.643   0.280  0.00  0.00    -0.094 A 
ATOM      9  C9  DEN d   1       0.290   2.401  -0.050  0.00  0.00    -0.072 A 
ENDROOT
TORSDOF 0
ENDMDL
