MODEL 1
REMARK minimizedAffinity -3.15906215
REMARK minimizedRMSD -1
REMARK  0 active torsions:
REMARK  status: ('A' for Active; 'I' for Inactive)
ROOT
ATOM      1  C1  DEN d   1       0.425  -1.149  -1.958  0.00  0.00     0.130 A 
ATOM      2  C2  DEN d   1       0.433   0.310  -2.013  0.00  0.00    -0.031 A 
ATOM      3  C3  DEN d   1      -0.215   0.816  -0.786  0.00  0.00     0.027 A 
ATOM      4  C4  DEN d   1      -1.218  -0.511   1.185  0.00  0.00     0.027 A 
ATOM      5  C5  DEN d   1      -1.468  -1.773   1.677  0.00  0.00    -0.003 A 
ATOM      6  C6  DEN d   1      -1.138  -2.906   0.982  0.00  0.00     0.001 A 
ATOM      7  C7  DEN d   1      -0.498  -2.800  -0.224  0.00  0.00     0.017 A 
ATOM      8  C8  DEN d   1      -0.249  -1.531  -0.730  0.00  0.00    -0.094 A 
ATOM      9  C9  DEN d   1      -0.579  -0.398  -0.007  0.00  0.00    -0.072 A 
ENDROOT
TORSDOF 0
ENDMDL
