MODEL 1
REMARK minimizedAffinity -1.9260695
REMARK minimizedRMSD -1
REMARK  0 active torsions:
REMARK  status: ('A' for Active; 'I' for Inactive)
ROOT
ATOM      1  C1  DEN d   1       0.288  -0.377   1.574  0.00  0.00     0.130 A 
ATOM      2  C2  DEN d   1      -0.277  -1.496   0.825  0.00  0.00    -0.031 A 
ATOM      3  C3  DEN d   1      -0.451  -1.065  -0.577  0.00  0.00     0.027 A 
ATOM      4  C4  DEN d   1       0.099   1.213  -1.655  0.00  0.00     0.027 A 
ATOM      5  C5  DEN d   1       0.585   2.480  -1.416  0.00  0.00    -0.003 A 
ATOM      6  C6  DEN d   1       0.970   2.891  -0.167  0.00  0.00     0.001 A 
ATOM      7  C7  DEN d   1       0.919   2.012   0.882  0.00  0.00     0.017 A 
ATOM      8  C8  DEN d   1       0.424   0.735   0.651  0.00  0.00    -0.094 A 
ATOM      9  C9  DEN d   1       0.051   0.335  -0.621  0.00  0.00    -0.072 A 
ENDROOT
TORSDOF 0
ENDMDL
