MODEL 1
REMARK minimizedAffinity -2.80147624
REMARK minimizedRMSD -1
REMARK  0 active torsions:
REMARK  status: ('A' for Active; 'I' for Inactive)
ROOT
ATOM      1  C1  DEN d   1       0.787   0.457  -0.258  0.00  0.00     0.130 A 
ATOM      2  C2  DEN d   1       0.783   0.781   1.166  0.00  0.00    -0.031 A 
ATOM      3  C3  DEN d   1       0.372  -0.428   1.907  0.00  0.00     0.027 A 
ATOM      4  C4  DEN d   1      -0.251  -2.759   0.993  0.00  0.00     0.027 A 
ATOM      5  C5  DEN d   1      -0.406  -3.511  -0.149  0.00  0.00    -0.003 A 
ATOM      6  C6  DEN d   1      -0.208  -2.989  -1.400  0.00  0.00     0.001 A 
ATOM      7  C7  DEN d   1       0.199  -1.689  -1.536  0.00  0.00     0.017 A 
ATOM      8  C8  DEN d   1       0.350  -0.921  -0.389  0.00  0.00    -0.094 A 
ATOM      9  C9  DEN d   1       0.158  -1.471   0.867  0.00  0.00    -0.072 A 
ENDROOT
TORSDOF 0
ENDMDL
