MODEL 1
REMARK minimizedAffinity -6.18445444
REMARK minimizedRMSD -1
REMARK  0 active torsions:
REMARK  status: ('A' for Active; 'I' for Inactive)
ROOT
ATOM      1  C1  DEN d   1      -0.304  -1.504  -2.923  0.00  0.00     0.130 A 
ATOM      2  C2  DEN d   1      -0.141  -2.916  -3.257  0.00  0.00    -0.031 A 
ATOM      3  C3  DEN d   1      -0.167  -3.689  -1.999  0.00  0.00     0.027 A 
ATOM      4  C4  DEN d   1      -0.450  -2.841   0.420  0.00  0.00     0.027 A 
ATOM      5  C5  DEN d   1      -0.611  -1.721   1.205  0.00  0.00    -0.003 A 
ATOM      6  C6  DEN d   1      -0.647  -0.457   0.677  0.00  0.00     0.001 A 
ATOM      7  C7  DEN d   1      -0.565  -0.287  -0.680  0.00  0.00     0.017 A 
ATOM      8  C8  DEN d   1      -0.395  -1.411  -1.477  0.00  0.00    -0.094 A 
ATOM      9  C9  DEN d   1      -0.374  -2.680  -0.925  0.00  0.00    -0.072 A 
ENDROOT
TORSDOF 0
ENDMDL
