MODEL 1
REMARK minimizedAffinity -5.49257278
REMARK minimizedRMSD -1
REMARK  0 active torsions:
REMARK  status: ('A' for Active; 'I' for Inactive)
ROOT
ATOM      1  C1  DEN d   1       0.477  -2.440  -0.915  0.00  0.00     0.130 A 
ATOM      2  C2  DEN d   1      -0.076  -3.503  -0.080  0.00  0.00    -0.031 A 
ATOM      3  C3  DEN d   1      -0.769  -2.872   1.061  0.00  0.00     0.027 A 
ATOM      4  C4  DEN d   1      -1.042  -0.367   1.611  0.00  0.00     0.027 A 
ATOM      5  C5  DEN d   1      -0.735   0.912   1.202  0.00  0.00    -0.003 A 
ATOM      6  C6  DEN d   1       0.020   1.160   0.086  0.00  0.00     0.001 A 
ATOM      7  C7  DEN d   1       0.456   0.115  -0.684  0.00  0.00     0.017 A 
ATOM      8  C8  DEN d   1       0.157  -1.177  -0.274  0.00  0.00    -0.094 A 
ATOM      9  C9  DEN d   1      -0.618  -1.407   0.850  0.00  0.00    -0.072 A 
ENDROOT
TORSDOF 0
ENDMDL
