MODEL 1
REMARK minimizedAffinity -6.70700645
REMARK minimizedRMSD -1
REMARK  0 active torsions:
REMARK  status: ('A' for Active; 'I' for Inactive)
ROOT
ATOM      1  C1  DEN d   1       0.100  -1.603  -2.555  0.00  0.00     0.130 A 
ATOM      2  C2  DEN d   1       0.009  -3.057  -2.448  0.00  0.00    -0.031 A 
ATOM      3  C3  DEN d   1      -0.403  -3.388  -1.069  0.00  0.00     0.027 A 
ATOM      4  C4  DEN d   1      -0.912  -1.799   0.898  0.00  0.00     0.027 A 
ATOM      5  C5  DEN d   1      -0.961  -0.480   1.292  0.00  0.00    -0.003 A 
ATOM      6  C6  DEN d   1      -0.629   0.547   0.449  0.00  0.00     0.001 A 
ATOM      7  C7  DEN d   1      -0.278   0.274  -0.847  0.00  0.00     0.017 A 
ATOM      8  C8  DEN d   1      -0.219  -1.054  -1.250  0.00  0.00    -0.094 A 
ATOM      9  C9  DEN d   1      -0.570  -2.077  -0.385  0.00  0.00    -0.072 A 
ENDROOT
TORSDOF 0
ENDMDL
