MODEL 1
REMARK minimizedAffinity -6.28333473
REMARK minimizedRMSD -1
REMARK  0 active torsions:
REMARK  status: ('A' for Active; 'I' for Inactive)
ROOT
ATOM      1  C1  DEN d   1       0.889  -0.104   0.396  0.00  0.00     0.130 A 
ATOM      2  C2  DEN d   1       0.271   1.020  -0.302  0.00  0.00    -0.031 A 
ATOM      3  C3  DEN d   1      -0.443   0.489  -1.480  0.00  0.00     0.027 A 
ATOM      4  C4  DEN d   1      -0.654  -1.952  -2.285  0.00  0.00     0.027 A 
ATOM      5  C5  DEN d   1      -0.290  -3.255  -2.026  0.00  0.00    -0.003 A 
ATOM      6  C6  DEN d   1       0.513  -3.592  -0.969  0.00  0.00     0.001 A 
ATOM      7  C7  DEN d   1       0.943  -2.619  -0.106  0.00  0.00     0.017 A 
ATOM      8  C8  DEN d   1       0.587  -1.303  -0.365  0.00  0.00    -0.094 A 
ATOM      9  C9  DEN d   1      -0.236  -0.983  -1.432  0.00  0.00    -0.072 A 
ENDROOT
TORSDOF 0
ENDMDL
