MODEL 1
REMARK minimizedAffinity -1.84824753
REMARK minimizedRMSD -1
REMARK  0 active torsions:
REMARK  status: ('A' for Active; 'I' for Inactive)
ROOT
ATOM      1  C1  DEN d   1       0.298  -0.900  -2.449  0.00  0.00     0.130 A 
ATOM      2  C2  DEN d   1      -0.163  -2.196  -2.939  0.00  0.00    -0.031 A 
ATOM      3  C3  DEN d   1      -0.871  -2.875  -1.836  0.00  0.00     0.027 A 
ATOM      4  C4  DEN d   1      -1.300  -2.049   0.570  0.00  0.00     0.027 A 
ATOM      5  C5  DEN d   1      -1.089  -1.017   1.456  0.00  0.00    -0.003 A 
ATOM      6  C6  DEN d   1      -0.377   0.104   1.117  0.00  0.00     0.001 A 
ATOM      7  C7  DEN d   1       0.110   0.238  -0.156  0.00  0.00     0.017 A 
ATOM      8  C8  DEN d   1      -0.092  -0.803  -1.054  0.00  0.00    -0.094 A 
ATOM      9  C9  DEN d   1      -0.824  -1.922  -0.695  0.00  0.00    -0.072 A 
ENDROOT
TORSDOF 0
ENDMDL
