MODEL 1
REMARK minimizedAffinity -2.36798501
REMARK minimizedRMSD -1
REMARK  0 active torsions:
REMARK  status: ('A' for Active; 'I' for Inactive)
ROOT
ATOM      1  C1  DEN d   1      -0.141  -1.044  -2.347  0.00  0.00     0.130 A 
ATOM      2  C2  DEN d   1      -0.501  -2.399  -2.755  0.00  0.00    -0.031 A 
ATOM      3  C3  DEN d   1      -0.962  -3.130  -1.558  0.00  0.00     0.027 A 
ATOM      4  C4  DEN d   1      -1.157  -2.297   0.876  0.00  0.00     0.027 A 
ATOM      5  C5  DEN d   1      -0.956  -1.223   1.714  0.00  0.00    -0.003 A 
ATOM      6  C6  DEN d   1      -0.442  -0.034   1.268  0.00  0.00     0.001 A 
ATOM      7  C7  DEN d   1      -0.153   0.123  -0.062  0.00  0.00     0.017 A 
ATOM      8  C8  DEN d   1      -0.346  -0.958  -0.912  0.00  0.00    -0.094 A 
ATOM      9  C9  DEN d   1      -0.878  -2.147  -0.444  0.00  0.00    -0.072 A 
ENDROOT
TORSDOF 0
ENDMDL
