MODEL 1
REMARK minimizedAffinity -6.60671711
REMARK minimizedRMSD -1
REMARK  0 active torsions:
REMARK  status: ('A' for Active; 'I' for Inactive)
ROOT
ATOM      1  C1  DEN d   1      -0.052   0.524  -0.961  0.00  0.00     0.130 A 
ATOM      2  C2  DEN d   1      -0.936   1.075   0.061  0.00  0.00    -0.031 A 
ATOM      3  C3  DEN d   1      -1.409  -0.039   0.906  0.00  0.00     0.027 A 
ATOM      4  C4  DEN d   1      -0.855  -2.553   0.736  0.00  0.00     0.027 A 
ATOM      5  C5  DEN d   1      -0.157  -3.503   0.022  0.00  0.00    -0.003 A 
ATOM      6  C6  DEN d   1       0.590  -3.184  -1.081  0.00  0.00     0.001 A 
ATOM      7  C7  DEN d   1       0.695  -1.877  -1.475  0.00  0.00     0.017 A 
ATOM      8  C8  DEN d   1      -0.011  -0.914  -0.765  0.00  0.00    -0.094 A 
ATOM      9  C9  DEN d   1      -0.751  -1.254   0.354  0.00  0.00    -0.072 A 
ENDROOT
TORSDOF 0
ENDMDL
