MODEL 1
REMARK minimizedAffinity -2.19974184
REMARK minimizedRMSD -1
REMARK  0 active torsions:
REMARK  status: ('A' for Active; 'I' for Inactive)
ROOT
ATOM      1  C1  DEN d   1       1.160   2.519   1.235  0.00  0.00     0.130 A 
ATOM      2  C2  DEN d   1       1.123   3.742   0.438  0.00  0.00    -0.031 A 
ATOM      3  C3  DEN d   1       0.511   3.420  -0.866  0.00  0.00     0.027 A 
ATOM      4  C4  DEN d   1      -0.383   1.158  -1.724  0.00  0.00     0.027 A 
ATOM      5  C5  DEN d   1      -0.558  -0.172  -1.411  0.00  0.00    -0.003 A 
ATOM      6  C6  DEN d   1      -0.145  -0.701  -0.217  0.00  0.00     0.001 A 
ATOM      7  C7  DEN d   1       0.423   0.114   0.727  0.00  0.00     0.017 A 
ATOM      8  C8  DEN d   1       0.609   1.454   0.415  0.00  0.00    -0.094 A 
ATOM      9  C9  DEN d   1       0.174   1.973  -0.793  0.00  0.00    -0.072 A 
ENDROOT
TORSDOF 0
ENDMDL
