MODEL 1
REMARK minimizedAffinity -4.78879166
REMARK minimizedRMSD -1
REMARK  0 active torsions:
REMARK  status: ('A' for Active; 'I' for Inactive)
ROOT
ATOM      1  C1  DEN d   1      -0.890  -1.720   1.431  0.00  0.00     0.130 A 
ATOM      2  C2  DEN d   1      -0.395  -0.354   1.572  0.00  0.00    -0.031 A 
ATOM      3  C3  DEN d   1       0.011   0.125   0.235  0.00  0.00     0.027 A 
ATOM      4  C4  DEN d   1      -0.082  -1.109  -2.028  0.00  0.00     0.027 A 
ATOM      5  C5  DEN d   1      -0.416  -2.293  -2.648  0.00  0.00    -0.003 A 
ATOM      6  C6  DEN d   1      -0.895  -3.372  -1.953  0.00  0.00     0.001 A 
ATOM      7  C7  DEN d   1      -1.096  -3.273  -0.601  0.00  0.00     0.017 A 
ATOM      8  C8  DEN d   1      -0.756  -2.085   0.032  0.00  0.00    -0.094 A 
ATOM      9  C9  DEN d   1      -0.285  -1.002  -0.690  0.00  0.00    -0.072 A 
ENDROOT
TORSDOF 0
ENDMDL
