MODEL 1
REMARK minimizedAffinity -3.49283504
REMARK minimizedRMSD -1
REMARK  0 active torsions:
REMARK  status: ('A' for Active; 'I' for Inactive)
ROOT
ATOM      1  C1  DEN d   1      -0.061   0.896  -0.903  0.00  0.00     0.130 A 
ATOM      2  C2  DEN d   1      -0.497   0.969   0.489  0.00  0.00    -0.031 A 
ATOM      3  C3  DEN d   1      -1.048  -0.349   0.864  0.00  0.00     0.027 A 
ATOM      4  C4  DEN d   1      -1.264  -2.484  -0.567  0.00  0.00     0.027 A 
ATOM      5  C5  DEN d   1      -1.042  -3.028  -1.813  0.00  0.00    -0.003 A 
ATOM      6  C6  DEN d   1      -0.512  -2.298  -2.844  0.00  0.00     0.001 A 
ATOM      7  C7  DEN d   1      -0.145  -0.995  -2.635  0.00  0.00     0.017 A 
ATOM      8  C8  DEN d   1      -0.374  -0.438  -1.384  0.00  0.00    -0.094 A 
ATOM      9  C9  DEN d   1      -0.899  -1.195  -0.351  0.00  0.00    -0.072 A 
ENDROOT
TORSDOF 0
ENDMDL
