MODEL 1
REMARK minimizedAffinity 6.34908581
REMARK minimizedRMSD -1
REMARK  2 active torsions:
REMARK  status: ('A' for Active; 'I' for Inactive)
REMARK    1  A    between atoms: C1_2  and  C2_3 
REMARK    2  A    between atoms: C2_3  and  C3_4 
ROOT
ATOM      1  C3  UNL d   1       1.936  -1.531  -1.353  0.00  0.00    -0.075 A 
ATOM      2  C4  UNL d   1       2.847  -2.339  -0.658  0.00  0.00     0.002 A 
ATOM      3  C5  UNL d   1       2.705  -3.727  -0.656  0.00  0.00     0.002 A 
ATOM      4  C6  UNL d   1       1.647  -4.323  -1.338  0.00  0.00    -0.004 A 
ATOM      5  C7  UNL d   1       0.726  -3.529  -2.019  0.00  0.00     0.002 A 
ATOM      6  C8  UNL d   1       0.868  -2.140  -2.026  0.00  0.00     0.002 A 
ENDROOT
BRANCH   1   7
ATOM      7  C2  UNL d   1       2.101  -0.030  -1.384  0.00  0.00     0.056 C 
BRANCH   7   8
ATOM      8  C1  UNL d   1       2.907   0.533  -0.209  0.00  0.00     0.007 C 
ATOM      9  C   UNL d   1       4.014   1.485  -0.642  0.00  0.00     0.009 C 
ENDBRANCH   7   8
ENDBRANCH   1   7
TORSDOF 2
ENDMDL
