MODEL 1
REMARK minimizedAffinity 6.2352519
REMARK minimizedRMSD -1
REMARK  2 active torsions:
REMARK  status: ('A' for Active; 'I' for Inactive)
REMARK    1  A    between atoms: C1_2  and  C2_3 
REMARK    2  A    between atoms: C2_3  and  C3_4 
ROOT
ATOM      1  C3  UNL d   1       3.103  -3.156  -1.431  0.00  0.00    -0.075 A 
ATOM      2  C4  UNL d   1       2.911  -1.990  -0.675  0.00  0.00     0.002 A 
ATOM      3  C5  UNL d   1       1.853  -1.127  -0.961  0.00  0.00     0.002 A 
ATOM      4  C6  UNL d   1       0.982  -1.412  -2.010  0.00  0.00    -0.004 A 
ATOM      5  C7  UNL d   1       1.173  -2.559  -2.777  0.00  0.00     0.002 A 
ATOM      6  C8  UNL d   1       2.228  -3.427  -2.491  0.00  0.00     0.002 A 
ENDROOT
BRANCH   1   7
ATOM      7  C2  UNL d   1       4.229  -4.109  -1.107  0.00  0.00     0.056 C 
BRANCH   7   8
ATOM      8  C1  UNL d   1       4.521  -5.128  -2.215  0.00  0.00     0.007 C 
ATOM      9  C   UNL d   1       5.993  -5.187  -2.603  0.00  0.00     0.009 C 
ENDBRANCH   7   8
ENDBRANCH   1   7
TORSDOF 2
ENDMDL
