MODEL 1
REMARK minimizedAffinity 6.28975677
REMARK minimizedRMSD -1
REMARK  2 active torsions:
REMARK  status: ('A' for Active; 'I' for Inactive)
REMARK    1  A    between atoms: C1_2  and  C2_3 
REMARK    2  A    between atoms: C2_3  and  C3_4 
ROOT
ATOM      1  C3  UNL d   1       2.963  -2.223  -0.704  0.00  0.00    -0.075 A 
ATOM      2  C4  UNL d   1       1.802  -2.137  -1.486  0.00  0.00     0.002 A 
ATOM      3  C5  UNL d   1       1.315  -0.896  -1.897  0.00  0.00     0.002 A 
ATOM      4  C6  UNL d   1       1.975   0.273  -1.524  0.00  0.00    -0.004 A 
ATOM      5  C7  UNL d   1       3.120   0.200  -0.733  0.00  0.00     0.002 A 
ATOM      6  C8  UNL d   1       3.611  -1.040  -0.324  0.00  0.00     0.002 A 
ENDROOT
BRANCH   1   7
ATOM      7  C2  UNL d   1       3.511  -3.565  -0.281  0.00  0.00     0.056 C 
BRANCH   7   8
ATOM      8  C1  UNL d   1       2.434  -4.601   0.056  0.00  0.00     0.007 C 
ATOM      9  C   UNL d   1       2.994  -5.999   0.278  0.00  0.00     0.009 C 
ENDBRANCH   7   8
ENDBRANCH   1   7
TORSDOF 2
ENDMDL
