MODEL 1
REMARK minimizedAffinity 5.8597765
REMARK minimizedRMSD -1
REMARK  2 active torsions:
REMARK  status: ('A' for Active; 'I' for Inactive)
REMARK    1  A    between atoms: C1_2  and  C2_3 
REMARK    2  A    between atoms: C2_3  and  C3_4 
ROOT
ATOM      1  C3  UNL d   1       2.306  -1.324  -1.573  0.00  0.00    -0.075 A 
ATOM      2  C4  UNL d   1       1.041  -1.873  -1.318  0.00  0.00     0.002 A 
ATOM      3  C5  UNL d   1       0.913  -3.211  -0.943  0.00  0.00     0.002 A 
ATOM      4  C6  UNL d   1       2.043  -4.017  -0.829  0.00  0.00    -0.004 A 
ATOM      5  C7  UNL d   1       3.303  -3.486  -1.096  0.00  0.00     0.002 A 
ATOM      6  C8  UNL d   1       3.435  -2.147  -1.467  0.00  0.00     0.002 A 
ENDROOT
BRANCH   1   7
ATOM      7  C2  UNL d   1       2.454   0.131  -1.950  0.00  0.00     0.056 C 
BRANCH   7   8
ATOM      8  C1  UNL d   1       3.262   0.957  -0.944  0.00  0.00     0.007 C 
ATOM      9  C   UNL d   1       4.758   0.955  -1.229  0.00  0.00     0.009 C 
ENDBRANCH   7   8
ENDBRANCH   1   7
TORSDOF 2
ENDMDL
