MODEL 1
REMARK minimizedAffinity 12.4062538
REMARK minimizedRMSD -1
REMARK  2 active torsions:
REMARK  status: ('A' for Active; 'I' for Inactive)
REMARK    1  A    between atoms: C1_2  and  C2_3 
REMARK    2  A    between atoms: C2_3  and  C3_4 
ROOT
ATOM      1  C3  UNL d   1       0.814  -2.244  -1.432  0.00  0.00    -0.075 A 
ATOM      2  C4  UNL d   1       1.464  -1.002  -1.478  0.00  0.00     0.002 A 
ATOM      3  C5  UNL d   1       2.811  -0.894  -1.131  0.00  0.00     0.002 A 
ATOM      4  C6  UNL d   1       3.522  -2.021  -0.725  0.00  0.00    -0.004 A 
ATOM      5  C7  UNL d   1       2.882  -3.257  -0.660  0.00  0.00     0.002 A 
ATOM      6  C8  UNL d   1       1.535  -3.369  -1.010  0.00  0.00     0.002 A 
ENDROOT
BRANCH   1   7
ATOM      7  C2  UNL d   1      -0.635  -2.372  -1.834  0.00  0.00     0.056 C 
BRANCH   7   8
ATOM      8  C1  UNL d   1      -1.006  -3.747  -2.400  0.00  0.00     0.007 C 
ATOM      9  C   UNL d   1      -2.429  -4.172  -2.062  0.00  0.00     0.009 C 
ENDBRANCH   7   8
ENDBRANCH   1   7
TORSDOF 2
ENDMDL
