MODEL 1
REMARK minimizedAffinity 1.6524967
REMARK minimizedRMSD -1
REMARK  2 active torsions:
REMARK  status: ('A' for Active; 'I' for Inactive)
REMARK    1  A    between atoms: C1_2  and  C2_3 
REMARK    2  A    between atoms: C2_3  and  C3_4 
ROOT
ATOM      1  C3  UNL d   1      -2.975   0.218   2.249  0.00  0.00    -0.075 A 
ATOM      2  C4  UNL d   1      -1.833  -0.428   1.755  0.00  0.00     0.002 A 
ATOM      3  C5  UNL d   1      -0.559   0.048   2.066  0.00  0.00     0.002 A 
ATOM      4  C6  UNL d   1      -0.411   1.180   2.865  0.00  0.00    -0.004 A 
ATOM      5  C7  UNL d   1      -1.539   1.840   3.348  0.00  0.00     0.002 A 
ATOM      6  C8  UNL d   1      -2.815   1.363   3.042  0.00  0.00     0.002 A 
ENDROOT
BRANCH   1   7
ATOM      7  C2  UNL d   1      -4.356  -0.309   1.940  0.00  0.00     0.056 C 
BRANCH   7   8
ATOM      8  C1  UNL d   1      -4.531  -1.804   2.230  0.00  0.00     0.007 C 
ATOM      9  C   UNL d   1      -5.990  -2.241   2.263  0.00  0.00     0.009 C 
ENDBRANCH   7   8
ENDBRANCH   1   7
TORSDOF 2
ENDMDL
