MODEL 1
REMARK minimizedAffinity 5.01916742
REMARK minimizedRMSD -1
REMARK  2 active torsions:
REMARK  status: ('A' for Active; 'I' for Inactive)
REMARK    1  A    between atoms: C1_2  and  C2_3 
REMARK    2  A    between atoms: C2_3  and  C3_4 
ROOT
ATOM      1  C3  UNL d   1       0.394  -2.559   0.390  0.00  0.00    -0.075 A 
ATOM      2  C4  UNL d   1       1.290  -3.618   0.595  0.00  0.00     0.002 A 
ATOM      3  C5  UNL d   1       2.212  -3.967  -0.392  0.00  0.00     0.002 A 
ATOM      4  C6  UNL d   1       2.242  -3.270  -1.598  0.00  0.00    -0.004 A 
ATOM      5  C7  UNL d   1       1.345  -2.228  -1.819  0.00  0.00     0.002 A 
ATOM      6  C8  UNL d   1       0.425  -1.873  -0.831  0.00  0.00     0.002 A 
ENDROOT
BRANCH   1   7
ATOM      7  C2  UNL d   1      -0.587  -2.157   1.467  0.00  0.00     0.056 C 
BRANCH   7   8
ATOM      8  C1  UNL d   1      -1.576  -1.069   1.035  0.00  0.00     0.007 C 
ATOM      9  C   UNL d   1      -2.859  -1.065   1.855  0.00  0.00     0.009 C 
ENDBRANCH   7   8
ENDBRANCH   1   7
TORSDOF 2
ENDMDL
