MODEL 1
REMARK minimizedAffinity 11.917984
REMARK minimizedRMSD -1
REMARK  2 active torsions:
REMARK  status: ('A' for Active; 'I' for Inactive)
REMARK    1  A    between atoms: C1_2  and  C2_3 
REMARK    2  A    between atoms: C2_3  and  C3_4 
ROOT
ATOM      1  C3  UNL d   1      -2.985  -5.800  -1.233  0.00  0.00    -0.075 A 
ATOM      2  C4  UNL d   1      -4.229  -5.815  -1.880  0.00  0.00     0.002 A 
ATOM      3  C5  UNL d   1      -5.410  -5.905  -1.143  0.00  0.00     0.002 A 
ATOM      4  C6  UNL d   1      -5.362  -5.991   0.247  0.00  0.00    -0.004 A 
ATOM      5  C7  UNL d   1      -4.131  -5.994   0.899  0.00  0.00     0.002 A 
ATOM      6  C8  UNL d   1      -2.948  -5.900   0.164  0.00  0.00     0.002 A 
ENDROOT
BRANCH   1   7
ATOM      7  C2  UNL d   1      -1.704  -5.674  -2.023  0.00  0.00     0.056 C 
BRANCH   7   8
ATOM      8  C1  UNL d   1      -1.876  -4.989  -3.383  0.00  0.00     0.007 C 
ATOM      9  C   UNL d   1      -0.628  -4.248  -3.844  0.00  0.00     0.009 C 
ENDBRANCH   7   8
ENDBRANCH   1   7
TORSDOF 2
ENDMDL
