MODEL 1
REMARK minimizedAffinity 9.13151741
REMARK minimizedRMSD -1
REMARK  2 active torsions:
REMARK  status: ('A' for Active; 'I' for Inactive)
REMARK    1  A    between atoms: C1_2  and  C2_3 
REMARK    2  A    between atoms: C2_3  and  C3_4 
ROOT
ATOM      1  C3  UNL d   1      -3.116   1.394   4.335  0.00  0.00    -0.075 A 
ATOM      2  C4  UNL d   1      -3.950   0.299   4.064  0.00  0.00     0.002 A 
ATOM      3  C5  UNL d   1      -3.831  -0.402   2.864  0.00  0.00     0.002 A 
ATOM      4  C6  UNL d   1      -2.886  -0.012   1.917  0.00  0.00    -0.004 A 
ATOM      5  C7  UNL d   1      -2.064   1.084   2.169  0.00  0.00     0.002 A 
ATOM      6  C8  UNL d   1      -2.178   1.784   3.371  0.00  0.00     0.002 A 
ENDROOT
BRANCH   1   7
ATOM      7  C2  UNL d   1      -3.220   2.138   5.645  0.00  0.00     0.056 C 
BRANCH   7   8
ATOM      8  C1  UNL d   1      -4.525   2.924   5.814  0.00  0.00     0.007 C 
ATOM      9  C   UNL d   1      -5.148   3.345   4.490  0.00  0.00     0.009 C 
ENDBRANCH   7   8
ENDBRANCH   1   7
TORSDOF 2
ENDMDL
