MODEL 1
REMARK minimizedAffinity 6.12228537
REMARK minimizedRMSD -1
REMARK  2 active torsions:
REMARK  status: ('A' for Active; 'I' for Inactive)
REMARK    1  A    between atoms: C1_2  and  C2_3 
REMARK    2  A    between atoms: C2_3  and  C3_4 
ROOT
ATOM      1  C3  UNL d   1      -2.562  -4.658  -4.986  0.00  0.00    -0.075 A 
ATOM      2  C4  UNL d   1      -3.082  -5.372  -3.897  0.00  0.00     0.002 A 
ATOM      3  C5  UNL d   1      -2.229  -5.968  -2.967  0.00  0.00     0.002 A 
ATOM      4  C6  UNL d   1      -0.848  -5.867  -3.120  0.00  0.00    -0.004 A 
ATOM      5  C7  UNL d   1      -0.320  -5.175  -4.208  0.00  0.00     0.002 A 
ATOM      6  C8  UNL d   1      -1.171  -4.574  -5.137  0.00  0.00     0.002 A 
ENDROOT
BRANCH   1   7
ATOM      7  C2  UNL d   1      -3.480  -3.986  -5.979  0.00  0.00     0.056 C 
BRANCH   7   8
ATOM      8  C1  UNL d   1      -4.168  -2.728  -5.440  0.00  0.00     0.007 C 
ATOM      9  C   UNL d   1      -5.576  -2.533  -5.985  0.00  0.00     0.009 C 
ENDBRANCH   7   8
ENDBRANCH   1   7
TORSDOF 2
ENDMDL
