MODEL 1
REMARK minimizedAffinity 6.15450382
REMARK minimizedRMSD -1
REMARK  2 active torsions:
REMARK  status: ('A' for Active; 'I' for Inactive)
REMARK    1  A    between atoms: C1_2  and  C2_3 
REMARK    2  A    between atoms: C2_3  and  C3_4 
ROOT
ATOM      1  C3  UNL d   1       1.424  -1.445  -2.445  0.00  0.00    -0.075 A 
ATOM      2  C4  UNL d   1       1.877  -0.230  -1.910  0.00  0.00     0.002 A 
ATOM      3  C5  UNL d   1       2.410  -0.179  -0.621  0.00  0.00     0.002 A 
ATOM      4  C6  UNL d   1       2.488  -1.336   0.150  0.00  0.00    -0.004 A 
ATOM      5  C7  UNL d   1       2.026  -2.545  -0.365  0.00  0.00     0.002 A 
ATOM      6  C8  UNL d   1       1.496  -2.601  -1.656  0.00  0.00     0.002 A 
ENDROOT
BRANCH   1   7
ATOM      7  C2  UNL d   1       0.873  -1.513  -3.849  0.00  0.00     0.056 C 
BRANCH   7   8
ATOM      8  C1  UNL d   1       1.770  -2.268  -4.835  0.00  0.00     0.007 C 
ATOM      9  C   UNL d   1       2.241  -1.407  -6.000  0.00  0.00     0.009 C 
ENDBRANCH   7   8
ENDBRANCH   1   7
TORSDOF 2
ENDMDL
