MODEL 1
REMARK minimizedAffinity 7.46597147
REMARK minimizedRMSD -1
REMARK  2 active torsions:
REMARK  status: ('A' for Active; 'I' for Inactive)
REMARK    1  A    between atoms: C1_2  and  C2_3 
REMARK    2  A    between atoms: C2_3  and  C3_4 
ROOT
ATOM      1  C3  UNL d   1       1.833   0.313  -2.951  0.00  0.00    -0.075 A 
ATOM      2  C4  UNL d   1       1.683  -0.990  -2.454  0.00  0.00     0.002 A 
ATOM      3  C5  UNL d   1       2.090  -1.305  -1.157  0.00  0.00     0.002 A 
ATOM      4  C6  UNL d   1       2.661  -0.327  -0.346  0.00  0.00    -0.004 A 
ATOM      5  C7  UNL d   1       2.831   0.966  -0.835  0.00  0.00     0.002 A 
ATOM      6  C8  UNL d   1       2.420   1.285  -2.130  0.00  0.00     0.002 A 
ENDROOT
BRANCH   1   7
ATOM      7  C2  UNL d   1       1.368   0.667  -4.343  0.00  0.00     0.056 C 
BRANCH   7   8
ATOM      8  C1  UNL d   1       1.564  -0.452  -5.370  0.00  0.00     0.007 C 
ATOM      9  C   UNL d   1       2.952  -0.455  -5.997  0.00  0.00     0.009 C 
ENDBRANCH   7   8
ENDBRANCH   1   7
TORSDOF 2
ENDMDL
