MODEL 1
REMARK minimizedAffinity 1.9593662
REMARK minimizedRMSD -1
REMARK  2 active torsions:
REMARK  status: ('A' for Active; 'I' for Inactive)
REMARK    1  A    between atoms: C1_2  and  C2_3 
REMARK    2  A    between atoms: C2_3  and  C3_4 
ROOT
ATOM      1  C3  UNL d   1      -0.078  -2.897  -1.874  0.00  0.00    -0.075 A 
ATOM      2  C4  UNL d   1       0.539  -2.184  -2.913  0.00  0.00     0.002 A 
ATOM      3  C5  UNL d   1       1.763  -1.548  -2.706  0.00  0.00     0.002 A 
ATOM      4  C6  UNL d   1       2.380  -1.606  -1.459  0.00  0.00    -0.004 A 
ATOM      5  C7  UNL d   1       1.769  -2.298  -0.415  0.00  0.00     0.002 A 
ATOM      6  C8  UNL d   1       0.546  -2.939  -0.620  0.00  0.00     0.002 A 
ENDROOT
BRANCH   1   7
ATOM      7  C2  UNL d   1      -1.388  -3.613  -2.100  0.00  0.00     0.056 C 
BRANCH   7   8
ATOM      8  C1  UNL d   1      -2.384  -2.833  -2.965  0.00  0.00     0.007 C 
ATOM      9  C   UNL d   1      -2.551  -1.383  -2.530  0.00  0.00     0.009 C 
ENDBRANCH   7   8
ENDBRANCH   1   7
TORSDOF 2
ENDMDL
