MODEL 1
REMARK minimizedAffinity 7.52728224
REMARK minimizedRMSD -1
REMARK  2 active torsions:
REMARK  status: ('A' for Active; 'I' for Inactive)
REMARK    1  A    between atoms: C1_2  and  C2_3 
REMARK    2  A    between atoms: C2_3  and  C3_4 
ROOT
ATOM      1  C3  UNL d   1      -4.694   0.986   3.747  0.00  0.00    -0.075 A 
ATOM      2  C4  UNL d   1      -5.258  -0.237   3.354  0.00  0.00     0.002 A 
ATOM      3  C5  UNL d   1      -4.519  -1.146   2.596  0.00  0.00     0.002 A 
ATOM      4  C6  UNL d   1      -3.215  -0.842   2.213  0.00  0.00    -0.004 A 
ATOM      5  C7  UNL d   1      -2.651   0.377   2.584  0.00  0.00     0.002 A 
ATOM      6  C8  UNL d   1      -3.386   1.287   3.346  0.00  0.00     0.002 A 
ENDROOT
BRANCH   1   7
ATOM      7  C2  UNL d   1      -5.477   1.962   4.592  0.00  0.00     0.056 C 
BRANCH   7   8
ATOM      8  C1  UNL d   1      -4.710   2.489   5.809  0.00  0.00     0.007 C 
ATOM      9  C   UNL d   1      -4.847   3.994   6.000  0.00  0.00     0.009 C 
ENDBRANCH   7   8
ENDBRANCH   1   7
TORSDOF 2
ENDMDL
