MODEL 1
REMARK minimizedAffinity 9.36771584
REMARK minimizedRMSD -1
REMARK  2 active torsions:
REMARK  status: ('A' for Active; 'I' for Inactive)
REMARK    1  A    between atoms: C1_2  and  C2_3 
REMARK    2  A    between atoms: C2_3  and  C3_4 
ROOT
ATOM      1  C3  UNL d   1       0.276  -3.127  -1.532  0.00  0.00    -0.075 A 
ATOM      2  C4  UNL d   1       0.908  -1.877  -1.462  0.00  0.00     0.002 A 
ATOM      3  C5  UNL d   1       2.196  -1.763  -0.940  0.00  0.00     0.002 A 
ATOM      4  C6  UNL d   1       2.864  -2.892  -0.471  0.00  0.00    -0.004 A 
ATOM      5  C7  UNL d   1       2.239  -4.136  -0.520  0.00  0.00     0.002 A 
ATOM      6  C8  UNL d   1       0.952  -4.254  -1.046  0.00  0.00     0.002 A 
ENDROOT
BRANCH   1   7
ATOM      7  C2  UNL d   1      -1.107  -3.262  -2.123  0.00  0.00     0.056 C 
BRANCH   7   8
ATOM      8  C1  UNL d   1      -1.278  -4.479  -3.038  0.00  0.00     0.007 C 
ATOM      9  C   UNL d   1      -0.845  -4.217  -4.474  0.00  0.00     0.009 C 
ENDBRANCH   7   8
ENDBRANCH   1   7
TORSDOF 2
ENDMDL
