MODEL 1
REMARK minimizedAffinity -3.7708416
REMARK minimizedRMSD -1
REMARK  0 active torsions:
REMARK  status: ('A' for Active; 'I' for Inactive)
ROOT
ATOM      1  C   UNL d   1      -0.759   1.656   2.364  0.00  0.00    -0.002 A 
ATOM      2  C1  UNL d   1      -1.256   2.286   1.231  0.00  0.00     0.010 A 
ATOM      3  C2  UNL d   1      -1.027   1.750  -0.038  0.00  0.00     0.041 A 
ATOM      4  C3  UNL d   1      -0.285   0.557  -0.150  0.00  0.00    -0.075 A 
ATOM      5  S   UNL d   1       0.119  -0.283  -1.600  0.00  0.00     0.015 SA
ATOM      6  C4  UNL d   1       0.959  -1.499  -0.750  0.00  0.00     0.022 A 
ATOM      7  C5  UNL d   1       0.942  -1.284   0.608  0.00  0.00     0.026 A 
ATOM      8  C6  UNL d   1       0.224  -0.096   0.976  0.00  0.00    -0.082 A 
ATOM      9  C7  UNL d   1      -0.024   0.474   2.248  0.00  0.00     0.045 A 
ENDROOT
TORSDOF 0
ENDMDL
