MODEL 1
REMARK minimizedAffinity -4.23529148
REMARK minimizedRMSD -1
REMARK  0 active torsions:
REMARK  status: ('A' for Active; 'I' for Inactive)
ROOT
ATOM      1  C   UNL d   1      -0.240   1.575   2.584  0.00  0.00    -0.002 A 
ATOM      2  C1  UNL d   1      -1.301   2.057   1.830  0.00  0.00     0.010 A 
ATOM      3  C2  UNL d   1      -1.571   1.529   0.566  0.00  0.00     0.041 A 
ATOM      4  C3  UNL d   1      -0.751   0.497   0.068  0.00  0.00    -0.075 A 
ATOM      5  S   UNL d   1      -0.894  -0.302  -1.453  0.00  0.00     0.015 SA
ATOM      6  C4  UNL d   1       0.449  -1.303  -1.138  0.00  0.00     0.022 A 
ATOM      7  C5  UNL d   1       1.005  -1.047   0.093  0.00  0.00     0.026 A 
ATOM      8  C6  UNL d   1       0.322  -0.006   0.809  0.00  0.00    -0.082 A 
ATOM      9  C7  UNL d   1       0.571   0.551   2.087  0.00  0.00     0.045 A 
ENDROOT
TORSDOF 0
ENDMDL
