MODEL 1
REMARK minimizedAffinity 9.69397068
REMARK minimizedRMSD -1
REMARK  0 active torsions:
REMARK  status: ('A' for Active; 'I' for Inactive)
ROOT
ATOM      1  C   UNL d   1      -2.578   1.684  -0.764  0.00  0.00    -0.002 A 
ATOM      2  C1  UNL d   1      -3.476   0.698  -1.147  0.00  0.00     0.010 A 
ATOM      3  C2  UNL d   1      -4.475   0.972  -2.084  0.00  0.00     0.041 A 
ATOM      4  C3  UNL d   1      -4.555   2.266  -2.635  0.00  0.00    -0.075 A 
ATOM      5  S   UNL d   1      -5.695   2.831  -3.799  0.00  0.00     0.015 SA
ATOM      6  C4  UNL d   1      -5.015   4.394  -3.816  0.00  0.00     0.022 A 
ATOM      7  C5  UNL d   1      -3.945   4.500  -2.960  0.00  0.00     0.026 A 
ATOM      8  C6  UNL d   1      -3.661   3.275  -2.266  0.00  0.00    -0.082 A 
ATOM      9  C7  UNL d   1      -2.661   2.966  -1.313  0.00  0.00     0.045 A 
ENDROOT
TORSDOF 0
ENDMDL
