MODEL 1
REMARK minimizedAffinity 3.93491578
REMARK minimizedRMSD -1
REMARK  0 active torsions:
REMARK  status: ('A' for Active; 'I' for Inactive)
ROOT
ATOM      1  C   UNL d   1       2.204   2.650   1.868  0.00  0.00    -0.002 A 
ATOM      2  C1  UNL d   1       1.796   1.945   2.992  0.00  0.00     0.010 A 
ATOM      3  C2  UNL d   1       1.103   0.740   2.861  0.00  0.00     0.041 A 
ATOM      4  C3  UNL d   1       0.826   0.250   1.570  0.00  0.00    -0.075 A 
ATOM      5  S   UNL d   1      -0.009  -1.204   1.168  0.00  0.00     0.015 SA
ATOM      6  C4  UNL d   1       0.157  -0.925  -0.505  0.00  0.00     0.022 A 
ATOM      7  C5  UNL d   1       0.830   0.245  -0.768  0.00  0.00     0.026 A 
ATOM      8  C6  UNL d   1       1.227   0.941   0.424  0.00  0.00    -0.082 A 
ATOM      9  C7  UNL d   1       1.927   2.160   0.589  0.00  0.00     0.045 A 
ENDROOT
TORSDOF 0
ENDMDL
