MODEL 1
REMARK minimizedAffinity 0.428830415
REMARK minimizedRMSD -1
REMARK  0 active torsions:
REMARK  status: ('A' for Active; 'I' for Inactive)
ROOT
ATOM      1  C   UNL d   1      -1.650   0.652  -1.954  0.00  0.00    -0.002 A 
ATOM      2  C1  UNL d   1      -1.869  -0.710  -1.800  0.00  0.00     0.010 A 
ATOM      3  C2  UNL d   1      -1.138  -1.446  -0.866  0.00  0.00     0.041 A 
ATOM      4  C3  UNL d   1      -0.175  -0.783  -0.079  0.00  0.00    -0.075 A 
ATOM      5  S   UNL d   1       0.838  -1.480   1.129  0.00  0.00     0.015 SA
ATOM      6  C4  UNL d   1       1.585   0.013   1.470  0.00  0.00     0.022 A 
ATOM      7  C5  UNL d   1       1.085   1.030   0.691  0.00  0.00     0.026 A 
ATOM      8  C6  UNL d   1       0.063   0.587  -0.215  0.00  0.00    -0.082 A 
ATOM      9  C7  UNL d   1      -0.694   1.305  -1.172  0.00  0.00     0.045 A 
ENDROOT
TORSDOF 0
ENDMDL
