MODEL 1
REMARK minimizedAffinity -3.41490531
REMARK minimizedRMSD -1
REMARK  0 active torsions:
REMARK  status: ('A' for Active; 'I' for Inactive)
ROOT
ATOM      1  C   UNL d   1      -4.006   4.814   5.939  0.00  0.00    -0.002 A 
ATOM      2  C1  UNL d   1      -5.115   3.985   5.845  0.00  0.00     0.010 A 
ATOM      3  C2  UNL d   1      -5.791   3.839   4.632  0.00  0.00     0.041 A 
ATOM      4  C3  UNL d   1      -5.330   4.546   3.505  0.00  0.00    -0.075 A 
ATOM      5  S   UNL d   1      -5.999   4.522   1.916  0.00  0.00     0.015 SA
ATOM      6  C4  UNL d   1      -4.829   5.611   1.326  0.00  0.00     0.022 A 
ATOM      7  C5  UNL d   1      -3.942   5.995   2.303  0.00  0.00     0.026 A 
ATOM      8  C6  UNL d   1      -4.215   5.387   3.575  0.00  0.00    -0.082 A 
ATOM      9  C7  UNL d   1      -3.551   5.515   4.819  0.00  0.00     0.045 A 
ENDROOT
TORSDOF 0
ENDMDL
