MODEL 1
REMARK minimizedAffinity 4.58271122
REMARK minimizedRMSD -1
REMARK  0 active torsions:
REMARK  status: ('A' for Active; 'I' for Inactive)
ROOT
ATOM      1  C   UNL d   1      -2.224  -0.641  -1.419  0.00  0.00    -0.002 A 
ATOM      2  C1  UNL d   1      -1.014  -0.265  -1.984  0.00  0.00     0.010 A 
ATOM      3  C2  UNL d   1       0.179  -0.409  -1.272  0.00  0.00     0.041 A 
ATOM      4  C3  UNL d   1       0.134  -0.946   0.030  0.00  0.00    -0.075 A 
ATOM      5  S   UNL d   1       1.467  -1.216   1.089  0.00  0.00     0.015 SA
ATOM      6  C4  UNL d   1       0.462  -1.839   2.317  0.00  0.00     0.022 A 
ATOM      7  C5  UNL d   1      -0.861  -1.847   1.945  0.00  0.00     0.026 A 
ATOM      8  C6  UNL d   1      -1.072  -1.334   0.620  0.00  0.00    -0.082 A 
ATOM      9  C7  UNL d   1      -2.264  -1.173  -0.127  0.00  0.00     0.045 A 
ENDROOT
TORSDOF 0
ENDMDL
