MODEL 1
REMARK minimizedAffinity 10.9389963
REMARK minimizedRMSD -1
REMARK  0 active torsions:
REMARK  status: ('A' for Active; 'I' for Inactive)
ROOT
ATOM      1  C   UNL d   1      -0.475  -0.874  -2.993  0.00  0.00    -0.002 A 
ATOM      2  C1  UNL d   1      -1.413  -1.857  -3.274  0.00  0.00     0.010 A 
ATOM      3  C2  UNL d   1      -2.554  -1.998  -2.482  0.00  0.00     0.041 A 
ATOM      4  C3  UNL d   1      -2.739  -1.124  -1.393  0.00  0.00    -0.075 A 
ATOM      5  S   UNL d   1      -4.060  -1.108  -0.285  0.00  0.00     0.015 SA
ATOM      6  C4  UNL d   1      -3.411   0.205   0.586  0.00  0.00     0.022 A 
ATOM      7  C5  UNL d   1      -2.216   0.634   0.059  0.00  0.00     0.026 A 
ATOM      8  C6  UNL d   1      -1.809  -0.125  -1.090  0.00  0.00    -0.082 A 
ATOM      9  C7  UNL d   1      -0.662  -0.008  -1.912  0.00  0.00     0.045 A 
ENDROOT
TORSDOF 0
ENDMDL
