MODEL 1
REMARK minimizedAffinity 9.38196564
REMARK minimizedRMSD -1
REMARK  0 active torsions:
REMARK  status: ('A' for Active; 'I' for Inactive)
ROOT
ATOM      1  C   UNL d   1      -1.691  -1.666  -0.439  0.00  0.00    -0.002 A 
ATOM      2  C1  UNL d   1      -3.007  -1.230  -0.387  0.00  0.00     0.010 A 
ATOM      3  C2  UNL d   1      -3.432  -0.159  -1.175  0.00  0.00     0.041 A 
ATOM      4  C3  UNL d   1      -2.503   0.471  -2.027  0.00  0.00    -0.075 A 
ATOM      5  S   UNL d   1      -2.798   1.801  -3.084  0.00  0.00     0.015 SA
ATOM      6  C4  UNL d   1      -1.184   1.820  -3.630  0.00  0.00     0.022 A 
ATOM      7  C5  UNL d   1      -0.425   0.843  -3.031  0.00  0.00     0.026 A 
ATOM      8  C6  UNL d   1      -1.173   0.049  -2.098  0.00  0.00    -0.082 A 
ATOM      9  C7  UNL d   1      -0.773  -1.039  -1.285  0.00  0.00     0.045 A 
ENDROOT
TORSDOF 0
ENDMDL
