MODEL 1
REMARK minimizedAffinity -0.619572103
REMARK minimizedRMSD -1
REMARK  1 active torsions:
REMARK  status: ('A' for Active; 'I' for Inactive)
REMARK    1  A    between atoms: C1_2  and  C2_3 
ROOT
ATOM      1  C2  UNL d   1       1.464  -1.276   3.685  0.00  0.00    -0.077 A 
ATOM      2  C3  UNL d   1       2.684  -0.869   4.242  0.00  0.00     0.002 A 
ATOM      3  C4  UNL d   1       3.258  -1.591   5.291  0.00  0.00     0.002 A 
ATOM      4  C5  UNL d   1       2.621  -2.726   5.787  0.00  0.00    -0.004 A 
ATOM      5  C6  UNL d   1       1.406  -3.138   5.241  0.00  0.00     0.002 A 
ATOM      6  C7  UNL d   1       0.831  -2.417   4.194  0.00  0.00     0.002 A 
ENDROOT
BRANCH   1   7
ATOM      7  C1  UNL d   1       0.868  -0.528   2.522  0.00  0.00     0.055 C 
ATOM      8  C   UNL d   1      -0.653  -0.554   2.567  0.00  0.00     0.019 C 
ENDBRANCH   1   7
TORSDOF 1
ENDMDL
