MODEL 1
REMARK minimizedAffinity -4.63266468
REMARK minimizedRMSD -1
REMARK  1 active torsions:
REMARK  status: ('A' for Active; 'I' for Inactive)
REMARK    1  A    between atoms: C1_2  and  C2_3 
ROOT
ATOM      1  C2  UNL d   1      -0.105  -1.404   3.640  0.00  0.00    -0.077 A 
ATOM      2  C3  UNL d   1      -1.466  -1.226   3.356  0.00  0.00     0.002 A 
ATOM      3  C4  UNL d   1      -1.870  -0.309   2.384  0.00  0.00     0.002 A 
ATOM      4  C5  UNL d   1      -0.920   0.434   1.687  0.00  0.00    -0.004 A 
ATOM      5  C6  UNL d   1       0.436   0.266   1.963  0.00  0.00     0.002 A 
ATOM      6  C7  UNL d   1       0.842  -0.649   2.935  0.00  0.00     0.002 A 
ENDROOT
BRANCH   1   7
ATOM      7  C1  UNL d   1       0.336  -2.428   4.653  0.00  0.00     0.055 C 
ATOM      8  C   UNL d   1       1.844  -2.394   4.854  0.00  0.00     0.019 C 
ENDBRANCH   1   7
TORSDOF 1
ENDMDL
