MODEL 1
REMARK minimizedAffinity 4.24057436
REMARK minimizedRMSD -1
REMARK  1 active torsions:
REMARK  status: ('A' for Active; 'I' for Inactive)
REMARK    1  A    between atoms: C1_2  and  C2_3 
ROOT
ATOM      1  C2  UNL d   1       0.833  -1.607   3.469  0.00  0.00    -0.077 A 
ATOM      2  C3  UNL d   1       1.998  -0.882   3.181  0.00  0.00     0.002 A 
ATOM      3  C4  UNL d   1       1.961   0.189   2.286  0.00  0.00     0.002 A 
ATOM      4  C5  UNL d   1       0.762   0.547   1.675  0.00  0.00    -0.004 A 
ATOM      5  C6  UNL d   1      -0.402  -0.169   1.952  0.00  0.00     0.002 A 
ATOM      6  C7  UNL d   1      -0.367  -1.240   2.846  0.00  0.00     0.002 A 
ENDROOT
BRANCH   1   7
ATOM      7  C1  UNL d   1       0.861  -2.731   4.471  0.00  0.00     0.055 C 
ATOM      8  C   UNL d   1       2.202  -2.802   5.185  0.00  0.00     0.019 C 
ENDBRANCH   1   7
TORSDOF 1
ENDMDL
