MODEL 1
REMARK minimizedAffinity -1.59145474
REMARK minimizedRMSD -1
REMARK  1 active torsions:
REMARK  status: ('A' for Active; 'I' for Inactive)
REMARK    1  A    between atoms: C1_2  and  C2_3 
ROOT
ATOM      1  C2  UNL d   1       0.335  -0.892   2.775  0.00  0.00    -0.077 A 
ATOM      2  C3  UNL d   1       0.910   0.247   2.194  0.00  0.00     0.002 A 
ATOM      3  C4  UNL d   1       0.130   1.126   1.440  0.00  0.00     0.002 A 
ATOM      4  C5  UNL d   1      -1.229   0.877   1.263  0.00  0.00    -0.004 A 
ATOM      5  C6  UNL d   1      -1.810  -0.255   1.835  0.00  0.00     0.002 A 
ATOM      6  C7  UNL d   1      -1.031  -1.134   2.588  0.00  0.00     0.002 A 
ENDROOT
BRANCH   1   7
ATOM      7  C1  UNL d   1       1.165  -1.814   3.630  0.00  0.00     0.055 C 
ATOM      8  C   UNL d   1       1.950  -1.039   4.679  0.00  0.00     0.019 C 
ENDBRANCH   1   7
TORSDOF 1
ENDMDL
