MODEL 1
REMARK minimizedAffinity 2.75559402
REMARK minimizedRMSD -1
REMARK  1 active torsions:
REMARK  status: ('A' for Active; 'I' for Inactive)
REMARK    1  A    between atoms: C1_2  and  C2_3 
ROOT
ATOM      1  C2  UNL d   1      -0.232  -0.710   2.647  0.00  0.00    -0.077 A 
ATOM      2  C3  UNL d   1      -1.524  -1.236   2.785  0.00  0.00     0.002 A 
ATOM      3  C4  UNL d   1      -2.587  -0.699   2.057  0.00  0.00     0.002 A 
ATOM      4  C5  UNL d   1      -2.368   0.363   1.182  0.00  0.00    -0.004 A 
ATOM      5  C6  UNL d   1      -1.087   0.895   1.039  0.00  0.00     0.002 A 
ATOM      6  C7  UNL d   1      -0.024   0.360   1.768  0.00  0.00     0.002 A 
ENDROOT
BRANCH   1   7
ATOM      7  C1  UNL d   1       0.925  -1.320   3.395  0.00  0.00     0.055 C 
ATOM      8  C   UNL d   1       2.217  -1.213   2.598  0.00  0.00     0.019 C 
ENDBRANCH   1   7
TORSDOF 1
ENDMDL
