MODEL 1
REMARK minimizedAffinity 4.46765423
REMARK minimizedRMSD -1
REMARK  0 active torsions:
REMARK  status: ('A' for Active; 'I' for Inactive)
ROOT
ATOM      1  C   UNL d   1      -0.011  -2.384   1.682  0.00  0.00     0.020 A 
ATOM      2  C1  UNL d   1       1.233  -2.781   1.194  0.00  0.00     0.020 A 
ATOM      3  C2  UNL d   1       1.531  -2.633  -0.163  0.00  0.00     0.034 A 
ATOM      4  C3  UNL d   1       0.583  -2.086  -1.036  0.00  0.00     0.017 A 
ATOM      5  C4  UNL d   1      -0.665  -1.687  -0.544  0.00  0.00     0.017 A 
ATOM      6  C5  UNL d   1      -0.958  -1.838   0.815  0.00  0.00     0.034 A 
ATOM      7 Cl   UNL d   1      -1.886  -1.004  -1.560  0.00  0.00    -0.070 Cl
ATOM      8 Cl1  UNL d   1       1.019  -1.931  -2.700  0.00  0.00    -0.070 Cl
ENDROOT
TORSDOF 0
ENDMDL
