MODEL 1
REMARK minimizedAffinity 3.90083337
REMARK minimizedRMSD -1
REMARK  0 active torsions:
REMARK  status: ('A' for Active; 'I' for Inactive)
ROOT
ATOM      1  C   UNL d   1       2.045  -2.830   1.433  0.00  0.00     0.020 A 
ATOM      2  C1  UNL d   1       0.808  -3.204   0.911  0.00  0.00     0.020 A 
ATOM      3  C2  UNL d   1      -0.155  -2.232   0.630  0.00  0.00     0.034 A 
ATOM      4  C3  UNL d   1       0.118  -0.881   0.871  0.00  0.00     0.017 A 
ATOM      5  C4  UNL d   1       1.361  -0.506   1.394  0.00  0.00     0.017 A 
ATOM      6  C5  UNL d   1       2.321  -1.483   1.674  0.00  0.00     0.034 A 
ATOM      7 Cl   UNL d   1       1.771   1.142   1.718  0.00  0.00    -0.070 Cl
ATOM      8 Cl1  UNL d   1      -1.118   0.267   0.500  0.00  0.00    -0.070 Cl
ENDROOT
TORSDOF 0
ENDMDL
