MODEL 1
REMARK minimizedAffinity 0.748811066
REMARK minimizedRMSD -1
REMARK  0 active torsions:
REMARK  status: ('A' for Active; 'I' for Inactive)
ROOT
ATOM      1  C   UNL d   1      -2.200  -2.954  -1.389  0.00  0.00     0.020 A 
ATOM      2  C1  UNL d   1      -2.275  -2.676  -0.024  0.00  0.00     0.020 A 
ATOM      3  C2  UNL d   1      -1.124  -2.313   0.678  0.00  0.00     0.034 A 
ATOM      4  C3  UNL d   1       0.107  -2.226   0.017  0.00  0.00     0.017 A 
ATOM      5  C4  UNL d   1       0.181  -2.506  -1.353  0.00  0.00     0.017 A 
ATOM      6  C5  UNL d   1      -0.975  -2.869  -2.051  0.00  0.00     0.034 A 
ATOM      7 Cl   UNL d   1       1.663  -2.420  -2.237  0.00  0.00    -0.070 Cl
ATOM      8 Cl1  UNL d   1       1.489  -1.771   0.948  0.00  0.00    -0.070 Cl
ENDROOT
TORSDOF 0
ENDMDL
