MODEL 1
REMARK minimizedAffinity 3.37914562
REMARK minimizedRMSD -1
REMARK  0 active torsions:
REMARK  status: ('A' for Active; 'I' for Inactive)
ROOT
ATOM      1  C   UNL d   1       1.846   0.450   1.369  0.00  0.00     0.020 A 
ATOM      2  C1  UNL d   1       2.118  -0.914   1.461  0.00  0.00     0.020 A 
ATOM      3  C2  UNL d   1       1.081  -1.842   1.353  0.00  0.00     0.034 A 
ATOM      4  C3  UNL d   1      -0.234  -1.408   1.152  0.00  0.00     0.017 A 
ATOM      5  C4  UNL d   1      -0.507  -0.038   1.060  0.00  0.00     0.017 A 
ATOM      6  C5  UNL d   1       0.535   0.887   1.169  0.00  0.00     0.034 A 
ATOM      7 Cl   UNL d   1      -2.105   0.574   0.814  0.00  0.00    -0.070 Cl
ATOM      8 Cl1  UNL d   1      -1.468  -2.611   1.028  0.00  0.00    -0.070 Cl
ENDROOT
TORSDOF 0
ENDMDL
