MODEL 1
REMARK minimizedAffinity 8.45570469
REMARK minimizedRMSD -1
REMARK  0 active torsions:
REMARK  status: ('A' for Active; 'I' for Inactive)
ROOT
ATOM      1  C   UNL d   1       2.837   1.004   1.531  0.00  0.00     0.020 A 
ATOM      2  C1  UNL d   1       3.507  -0.045   2.160  0.00  0.00     0.020 A 
ATOM      3  C2  UNL d   1       2.868  -1.274   2.340  0.00  0.00     0.034 A 
ATOM      4  C3  UNL d   1       1.555  -1.456   1.892  0.00  0.00     0.017 A 
ATOM      5  C4  UNL d   1       0.883  -0.403   1.261  0.00  0.00     0.017 A 
ATOM      6  C5  UNL d   1       1.528   0.825   1.083  0.00  0.00     0.034 A 
ATOM      7 Cl   UNL d   1      -0.739  -0.552   0.681  0.00  0.00    -0.070 Cl
ATOM      8 Cl1  UNL d   1       0.826  -3.002   2.148  0.00  0.00    -0.070 Cl
ENDROOT
TORSDOF 0
ENDMDL
