MODEL 1
REMARK minimizedAffinity 7.19075441
REMARK minimizedRMSD -1
REMARK  0 active torsions:
REMARK  status: ('A' for Active; 'I' for Inactive)
ROOT
ATOM      1  C   UNL d   1       4.095  -0.550   0.283  0.00  0.00     0.020 A 
ATOM      2  C1  UNL d   1       3.215  -1.116   1.204  0.00  0.00     0.020 A 
ATOM      3  C2  UNL d   1       2.071  -0.417   1.597  0.00  0.00     0.034 A 
ATOM      4  C3  UNL d   1       1.805   0.851   1.069  0.00  0.00     0.017 A 
ATOM      5  C4  UNL d   1       2.689   1.418   0.144  0.00  0.00     0.017 A 
ATOM      6  C5  UNL d   1       3.833   0.714  -0.246  0.00  0.00     0.034 A 
ATOM      7 Cl   UNL d   1       2.428   2.979  -0.551  0.00  0.00    -0.070 Cl
ATOM      8 Cl1  UNL d   1       0.372   1.658   1.599  0.00  0.00    -0.070 Cl
ENDROOT
TORSDOF 0
ENDMDL
