MODEL 1
REMARK minimizedAffinity 2.22441554
REMARK minimizedRMSD -1
REMARK  0 active torsions:
REMARK  status: ('A' for Active; 'I' for Inactive)
ROOT
ATOM      1  C   UNL d   1      -0.515  -1.344   1.340  0.00  0.00     0.020 A 
ATOM      2  C1  UNL d   1       0.171  -2.505   0.988  0.00  0.00     0.020 A 
ATOM      3  C2  UNL d   1       1.558  -2.474   0.825  0.00  0.00     0.034 A 
ATOM      4  C3  UNL d   1       2.262  -1.279   1.013  0.00  0.00     0.017 A 
ATOM      5  C4  UNL d   1       1.571  -0.114   1.366  0.00  0.00     0.017 A 
ATOM      6  C5  UNL d   1       0.183  -0.151   1.529  0.00  0.00     0.034 A 
ATOM      7 Cl   UNL d   1       2.371   1.398   1.615  0.00  0.00    -0.070 Cl
ATOM      8 Cl1  UNL d   1       3.976  -1.313   0.794  0.00  0.00    -0.070 Cl
ENDROOT
TORSDOF 0
ENDMDL
