MODEL 1
REMARK minimizedAffinity -3.96542382
REMARK minimizedRMSD -1
REMARK  0 active torsions:
REMARK  status: ('A' for Active; 'I' for Inactive)
ROOT
ATOM      1  C2' OXE d   1       0.758  -0.833  -0.007  0.00  0.00     0.078 C 
ATOM      2  C1' OXE d   1      -1.747   0.432  -0.055  0.00  0.00     0.078 C 
ATOM      3  C1  OXE d   1      -1.021   0.359   1.265  0.00  0.00    -0.078 A 
ATOM      4  C2  OXE d   1       0.183  -0.303   1.288  0.00  0.00    -0.078 A 
ATOM      5  C3  OXE d   1       0.919  -0.352   2.468  0.00  0.00     0.003 A 
ATOM      6  C4  OXE d   1       0.375   0.132   3.664  0.00  0.00    -0.002 A 
ATOM      7  C5  OXE d   1      -0.867   0.775   3.670  0.00  0.00    -0.002 A 
ATOM      8  C6  OXE d   1      -1.558   0.934   2.474  0.00  0.00     0.003 A 
ENDROOT
TORSDOF 0
ENDMDL
