MODEL 1
REMARK minimizedAffinity -4.78013182
REMARK minimizedRMSD -1
REMARK  0 active torsions:
REMARK  status: ('A' for Active; 'I' for Inactive)
ROOT
ATOM      1  C2' OXE d   1       0.559  -0.911  -1.036  0.00  0.00     0.078 C 
ATOM      2  C1' OXE d   1       1.846  -0.440   1.414  0.00  0.00     0.078 C 
ATOM      3  C1  OXE d   1       0.442   0.083   1.245  0.00  0.00    -0.078 A 
ATOM      4  C2  OXE d   1      -0.163  -0.111   0.026  0.00  0.00    -0.078 A 
ATOM      5  C3  OXE d   1      -1.478   0.304  -0.165  0.00  0.00     0.003 A 
ATOM      6  C4  OXE d   1      -2.135   1.052   0.819  0.00  0.00    -0.002 A 
ATOM      7  C5  OXE d   1      -1.523   1.296   2.053  0.00  0.00    -0.002 A 
ATOM      8  C6  OXE d   1      -0.254   0.783   2.297  0.00  0.00     0.003 A 
ENDROOT
TORSDOF 0
ENDMDL
