MODEL 1
REMARK minimizedAffinity -6.15216875
REMARK minimizedRMSD -1
REMARK  0 active torsions:
REMARK  status: ('A' for Active; 'I' for Inactive)
ROOT
ATOM      1  C2' OXE d   1       2.150  -1.241   0.866  0.00  0.00     0.078 C 
ATOM      2  C1' OXE d   1       0.496   0.015  -1.023  0.00  0.00     0.078 C 
ATOM      3  C1  OXE d   1       0.341   0.414   0.423  0.00  0.00    -0.078 A 
ATOM      4  C2  OXE d   1       1.122  -0.239   1.346  0.00  0.00    -0.078 A 
ATOM      5  C3  OXE d   1       1.058   0.129   2.687  0.00  0.00     0.003 A 
ATOM      6  C4  OXE d   1       0.097   1.049   3.124  0.00  0.00    -0.002 A 
ATOM      7  C5  OXE d   1      -0.735   1.697   2.205  0.00  0.00    -0.002 A 
ATOM      8  C6  OXE d   1      -0.597   1.423   0.849  0.00  0.00     0.003 A 
ENDROOT
TORSDOF 0
ENDMDL
