MODEL 1
REMARK minimizedAffinity -4.41350985
REMARK minimizedRMSD -1
REMARK  0 active torsions:
REMARK  status: ('A' for Active; 'I' for Inactive)
ROOT
ATOM      1  C2' OXE d   1      -0.968   1.405   2.323  0.00  0.00     0.078 C 
ATOM      2  C1' OXE d   1      -2.624   0.437   0.273  0.00  0.00     0.078 C 
ATOM      3  C1  OXE d   1      -1.132   0.300   0.096  0.00  0.00    -0.078 A 
ATOM      4  C2  OXE d   1      -0.328   0.818   1.083  0.00  0.00    -0.078 A 
ATOM      5  C3  OXE d   1       1.053   0.670   0.996  0.00  0.00     0.003 A 
ATOM      6  C4  OXE d   1       1.637   0.135  -0.159  0.00  0.00    -0.002 A 
ATOM      7  C5  OXE d   1       0.838  -0.362  -1.193  0.00  0.00    -0.002 A 
ATOM      8  C6  OXE d   1      -0.546  -0.326  -1.063  0.00  0.00     0.003 A 
ENDROOT
TORSDOF 0
ENDMDL
