MODEL 1
REMARK minimizedAffinity -5.47199488
REMARK minimizedRMSD -1
REMARK  0 active torsions:
REMARK  status: ('A' for Active; 'I' for Inactive)
ROOT
ATOM      1  C2' OXE d   1       1.699   0.285   3.172  0.00  0.00     0.078 C 
ATOM      2  C1' OXE d   1      -0.809   1.529   3.377  0.00  0.00     0.078 C 
ATOM      3  C1  OXE d   1      -0.406   0.975   2.033  0.00  0.00    -0.078 A 
ATOM      4  C2  OXE d   1       0.842   0.410   1.931  0.00  0.00    -0.078 A 
ATOM      5  C3  OXE d   1       1.242  -0.166   0.728  0.00  0.00     0.003 A 
ATOM      6  C4  OXE d   1       0.447  -0.037  -0.418  0.00  0.00    -0.002 A 
ATOM      7  C5  OXE d   1      -0.811   0.570  -0.345  0.00  0.00    -0.002 A 
ATOM      8  C6  OXE d   1      -1.270   1.043   0.880  0.00  0.00     0.003 A 
ENDROOT
TORSDOF 0
ENDMDL
