MODEL 1
REMARK minimizedAffinity -1.84952319
REMARK minimizedRMSD -1
REMARK  0 active torsions:
REMARK  status: ('A' for Active; 'I' for Inactive)
ROOT
ATOM      1  C2' OXE d   1       0.251  -0.798  -0.237  0.00  0.00     0.078 C 
ATOM      2  C1' OXE d   1       2.547  -1.524   1.206  0.00  0.00     0.078 C 
ATOM      3  C1  OXE d   1       1.360  -1.012   1.983  0.00  0.00    -0.078 A 
ATOM      4  C2  OXE d   1       0.258  -0.615   1.265  0.00  0.00    -0.078 A 
ATOM      5  C3  OXE d   1      -0.884  -0.186   1.936  0.00  0.00     0.003 A 
ATOM      6  C4  OXE d   1      -0.866  -0.010   3.325  0.00  0.00    -0.002 A 
ATOM      7  C5  OXE d   1       0.260  -0.371   4.072  0.00  0.00    -0.002 A 
ATOM      8  C6  OXE d   1       1.364  -0.912   3.422  0.00  0.00     0.003 A 
ENDROOT
TORSDOF 0
ENDMDL
