MODEL 1
REMARK minimizedAffinity -1.50892758
REMARK minimizedRMSD -1
REMARK  0 active torsions:
REMARK  status: ('A' for Active; 'I' for Inactive)
ROOT
ATOM      1  C2' OXE d   1       1.858  -1.587   0.804  0.00  0.00     0.078 C 
ATOM      2  C1' OXE d   1       1.250  -0.839   3.440  0.00  0.00     0.078 C 
ATOM      3  C1  OXE d   1       0.265  -0.469   2.359  0.00  0.00    -0.078 A 
ATOM      4  C2  OXE d   1       0.593  -0.798   1.066  0.00  0.00    -0.078 A 
ATOM      5  C3  OXE d   1      -0.305  -0.529   0.037  0.00  0.00     0.003 A 
ATOM      6  C4  OXE d   1      -1.469   0.209   0.287  0.00  0.00    -0.002 A 
ATOM      7  C5  OXE d   1      -1.802   0.589   1.591  0.00  0.00    -0.002 A 
ATOM      8  C6  OXE d   1      -0.969   0.221   2.642  0.00  0.00     0.003 A 
ENDROOT
TORSDOF 0
ENDMDL
