MODEL 1
REMARK minimizedAffinity -5.11085606
REMARK minimizedRMSD -1
REMARK  0 active torsions:
REMARK  status: ('A' for Active; 'I' for Inactive)
ROOT
ATOM      1  C2' OXE d   1      -2.123  -0.743  -0.007  0.00  0.00     0.078 C 
ATOM      2  C1' OXE d   1       0.601  -0.343  -0.556  0.00  0.00     0.078 C 
ATOM      3  C1  OXE d   1       0.034   0.289   0.691  0.00  0.00    -0.078 A 
ATOM      4  C2  OXE d   1      -1.310   0.127   0.927  0.00  0.00    -0.078 A 
ATOM      5  C3  OXE d   1      -1.873   0.643   2.091  0.00  0.00     0.003 A 
ATOM      6  C4  OXE d   1      -1.117   1.455   2.944  0.00  0.00    -0.002 A 
ATOM      7  C5  OXE d   1       0.245   1.665   2.702  0.00  0.00    -0.002 A 
ATOM      8  C6  OXE d   1       0.844   1.056   1.605  0.00  0.00     0.003 A 
ENDROOT
TORSDOF 0
ENDMDL
