MODEL 1
REMARK minimizedAffinity -2.36817789
REMARK minimizedRMSD -1
REMARK  0 active torsions:
REMARK  status: ('A' for Active; 'I' for Inactive)
ROOT
ATOM      1  C2' OXE d   1      -2.578   0.349   0.067  0.00  0.00     0.078 C 
ATOM      2  C1' OXE d   1      -1.473   0.737   2.618  0.00  0.00     0.078 C 
ATOM      3  C1  OXE d   1      -0.621   0.053   1.579  0.00  0.00    -0.078 A 
ATOM      4  C2  OXE d   1      -1.187  -0.175   0.347  0.00  0.00    -0.078 A 
ATOM      5  C3  OXE d   1      -0.426  -0.753  -0.665  0.00  0.00     0.003 A 
ATOM      6  C4  OXE d   1       0.857  -1.244  -0.394  0.00  0.00    -0.002 A 
ATOM      7  C5  OXE d   1       1.438  -1.058   0.865  0.00  0.00    -0.002 A 
ATOM      8  C6  OXE d   1       0.730  -0.375   1.848  0.00  0.00     0.003 A 
ENDROOT
TORSDOF 0
ENDMDL
