MODEL 1
REMARK minimizedAffinity -3.57776403
REMARK minimizedRMSD -1
REMARK  0 active torsions:
REMARK  status: ('A' for Active; 'I' for Inactive)
ROOT
ATOM      1  C2' OXE d   1      -2.056   0.576  -0.495  0.00  0.00     0.078 C 
ATOM      2  C1' OXE d   1       0.542  -0.118  -1.301  0.00  0.00     0.078 C 
ATOM      3  C1  OXE d   1       0.260  -0.050   0.179  0.00  0.00    -0.078 A 
ATOM      4  C2  OXE d   1      -1.002   0.336   0.565  0.00  0.00    -0.078 A 
ATOM      5  C3  OXE d   1      -1.331   0.362   1.917  0.00  0.00     0.003 A 
ATOM      6  C4  OXE d   1      -0.348   0.149   2.890  0.00  0.00    -0.002 A 
ATOM      7  C5  OXE d   1       0.953  -0.206   2.519  0.00  0.00    -0.002 A 
ATOM      8  C6  OXE d   1       1.262  -0.351   1.171  0.00  0.00     0.003 A 
ENDROOT
TORSDOF 0
ENDMDL
