MODEL 1
REMARK minimizedAffinity -1.8014462
REMARK minimizedRMSD -1
REMARK  0 active torsions:
REMARK  status: ('A' for Active; 'I' for Inactive)
ROOT
ATOM      1  C2' OXE d   1       1.858  -0.654   1.308  0.00  0.00     0.078 C 
ATOM      2  C1' OXE d   1       1.050   0.101  -1.272  0.00  0.00     0.078 C 
ATOM      3  C1  OXE d   1       0.014   0.124  -0.176  0.00  0.00    -0.078 A 
ATOM      4  C2  OXE d   1       0.407  -0.292   1.073  0.00  0.00    -0.078 A 
ATOM      5  C3  OXE d   1      -0.494  -0.239   2.132  0.00  0.00     0.003 A 
ATOM      6  C4  OXE d   1      -1.837   0.087   1.905  0.00  0.00    -0.002 A 
ATOM      7  C5  OXE d   1      -2.267   0.475   0.632  0.00  0.00    -0.002 A 
ATOM      8  C6  OXE d   1      -1.347   0.540  -0.408  0.00  0.00     0.003 A 
ENDROOT
TORSDOF 0
ENDMDL
