MODEL 1
REMARK minimizedAffinity -3.04548669
REMARK minimizedRMSD -1
REMARK  0 active torsions:
REMARK  status: ('A' for Active; 'I' for Inactive)
ROOT
ATOM      1  C2' OXE d   1       1.158  -0.520  -0.780  0.00  0.00     0.078 C 
ATOM      2  C1' OXE d   1       1.691  -0.521   1.976  0.00  0.00     0.078 C 
ATOM      3  C1  OXE d   1       0.304  -0.133   1.527  0.00  0.00    -0.078 A 
ATOM      4  C2  OXE d   1       0.065  -0.091   0.175  0.00  0.00    -0.078 A 
ATOM      5  C3  OXE d   1      -1.212   0.207  -0.291  0.00  0.00     0.003 A 
ATOM      6  C4  OXE d   1      -2.214   0.613   0.598  0.00  0.00    -0.002 A 
ATOM      7  C5  OXE d   1      -1.981   0.615   1.977  0.00  0.00    -0.002 A 
ATOM      8  C6  OXE d   1      -0.743   0.204   2.460  0.00  0.00     0.003 A 
ENDROOT
TORSDOF 0
ENDMDL
