MODEL 1
REMARK minimizedAffinity 4.91967058
REMARK minimizedRMSD -1
REMARK  0 active torsions:
REMARK  status: ('A' for Active; 'I' for Inactive)
ROOT
ATOM      1  C2' OXE d   1      -2.883   1.593   2.424  0.00  0.00     0.078 C 
ATOM      2  C1' OXE d   1      -2.758  -0.160   0.235  0.00  0.00     0.078 C 
ATOM      3  C1  OXE d   1      -1.607  -0.168   1.209  0.00  0.00    -0.078 A 
ATOM      4  C2  OXE d   1      -1.655   0.726   2.252  0.00  0.00    -0.078 A 
ATOM      5  C3  OXE d   1      -0.645   0.722   3.210  0.00  0.00     0.003 A 
ATOM      6  C4  OXE d   1       0.492  -0.076   3.038  0.00  0.00    -0.002 A 
ATOM      7  C5  OXE d   1       0.580  -0.965   1.961  0.00  0.00    -0.002 A 
ATOM      8  C6  OXE d   1      -0.478  -1.054   1.063  0.00  0.00     0.003 A 
ENDROOT
TORSDOF 0
ENDMDL
