MODEL 1
REMARK minimizedAffinity 1.1713376
REMARK minimizedRMSD -1
REMARK  0 active torsions:
REMARK  status: ('A' for Active; 'I' for Inactive)
ROOT
ATOM      1  C2' OXE d   1       3.150   5.928   2.133  0.00  0.00     0.078 C 
ATOM      2  C1' OXE d   1       5.957   5.996   2.107  0.00  0.00     0.078 C 
ATOM      3  C1  OXE d   1       5.268   5.873   3.444  0.00  0.00    -0.078 A 
ATOM      4  C2  OXE d   1       3.894   5.887   3.450  0.00  0.00    -0.078 A 
ATOM      5  C3  OXE d   1       3.209   5.722   4.651  0.00  0.00     0.003 A 
ATOM      6  C4  OXE d   1       3.904   5.695   5.866  0.00  0.00    -0.002 A 
ATOM      7  C5  OXE d   1       5.302   5.719   5.884  0.00  0.00    -0.002 A 
ATOM      8  C6  OXE d   1       5.999   5.764   4.682  0.00  0.00     0.003 A 
ENDROOT
TORSDOF 0
ENDMDL
