MODEL 1
REMARK minimizedAffinity 6.55343866
REMARK minimizedRMSD -1
REMARK  0 active torsions:
REMARK  status: ('A' for Active; 'I' for Inactive)
ROOT
ATOM      1  C2' OXE d   1      -3.014   0.541   2.611  0.00  0.00     0.078 C 
ATOM      2  C1' OXE d   1      -2.609  -0.766   0.160  0.00  0.00     0.078 C 
ATOM      3  C1  OXE d   1      -1.492  -0.807   1.172  0.00  0.00    -0.078 A 
ATOM      4  C2  OXE d   1      -1.681  -0.125   2.350  0.00  0.00    -0.078 A 
ATOM      5  C3  OXE d   1      -0.703  -0.176   3.340  0.00  0.00     0.003 A 
ATOM      6  C4  OXE d   1       0.531  -0.786   3.087  0.00  0.00    -0.002 A 
ATOM      7  C5  OXE d   1       0.759  -1.452   1.878  0.00  0.00    -0.002 A 
ATOM      8  C6  OXE d   1      -0.255  -1.508   0.929  0.00  0.00     0.003 A 
ENDROOT
TORSDOF 0
ENDMDL
