MODEL 1
REMARK minimizedAffinity 3.01311398
REMARK minimizedRMSD -1
REMARK  0 active torsions:
REMARK  status: ('A' for Active; 'I' for Inactive)
ROOT
ATOM      1  C2' OXE d   1       2.110   4.179   3.399  0.00  0.00     0.078 C 
ATOM      2  C1' OXE d   1       2.036   5.254   5.991  0.00  0.00     0.078 C 
ATOM      3  C1  OXE d   1       3.331   5.353   5.225  0.00  0.00    -0.078 A 
ATOM      4  C2  OXE d   1       3.372   4.783   3.976  0.00  0.00    -0.078 A 
ATOM      5  C3  OXE d   1       4.526   4.894   3.205  0.00  0.00     0.003 A 
ATOM      6  C4  OXE d   1       5.692   5.446   3.749  0.00  0.00    -0.002 A 
ATOM      7  C5  OXE d   1       5.683   5.997   5.035  0.00  0.00    -0.002 A 
ATOM      8  C6  OXE d   1       4.502   5.997   5.768  0.00  0.00     0.003 A 
ENDROOT
TORSDOF 0
ENDMDL
