MODEL 1
REMARK minimizedAffinity 9.31452465
REMARK minimizedRMSD -1
REMARK  0 active torsions:
REMARK  status: ('A' for Active; 'I' for Inactive)
ROOT
ATOM      1  C2' OXE d   1      -4.535   2.774  -5.000  0.00  0.00     0.078 C 
ATOM      2  C1' OXE d   1      -4.727   4.891  -3.166  0.00  0.00     0.078 C 
ATOM      3  C1  OXE d   1      -3.592   4.921  -4.159  0.00  0.00    -0.078 A 
ATOM      4  C2  OXE d   1      -3.478   3.857  -5.022  0.00  0.00    -0.078 A 
ATOM      5  C3  OXE d   1      -2.482   3.861  -5.993  0.00  0.00     0.003 A 
ATOM      6  C4  OXE d   1      -1.502   4.862  -6.000  0.00  0.00    -0.002 A 
ATOM      7  C5  OXE d   1      -1.576   5.933  -5.104  0.00  0.00    -0.002 A 
ATOM      8  C6  OXE d   1      -2.636   6.000  -4.207  0.00  0.00     0.003 A 
ENDROOT
TORSDOF 0
ENDMDL
