MODEL 1
REMARK minimizedAffinity 2.11407852
REMARK minimizedRMSD -1
REMARK  0 active torsions:
REMARK  status: ('A' for Active; 'I' for Inactive)
ROOT
ATOM      1  C2' OXE d   1       1.993   5.774   3.259  0.00  0.00     0.078 C 
ATOM      2  C1' OXE d   1       2.057   5.111   5.986  0.00  0.00     0.078 C 
ATOM      3  C1  OXE d   1       3.370   5.393   5.300  0.00  0.00    -0.078 A 
ATOM      4  C2  OXE d   1       3.334   5.671   3.955  0.00  0.00    -0.078 A 
ATOM      5  C3  OXE d   1       4.511   5.992   3.285  0.00  0.00     0.003 A 
ATOM      6  C4  OXE d   1       5.747   5.884   3.933  0.00  0.00    -0.002 A 
ATOM      7  C5  OXE d   1       5.810   5.564   5.293  0.00  0.00    -0.002 A 
ATOM      8  C6  OXE d   1       4.631   5.357   6.000  0.00  0.00     0.003 A 
ENDROOT
TORSDOF 0
ENDMDL
