MODEL 1
REMARK minimizedAffinity 1.27253282
REMARK minimizedRMSD -1
REMARK  0 active torsions:
REMARK  status: ('A' for Active; 'I' for Inactive)
ROOT
ATOM      1  C2' OXE d   1       1.756   4.160   3.649  0.00  0.00     0.078 C 
ATOM      2  C1' OXE d   1       1.585   5.685   6.000  0.00  0.00     0.078 C 
ATOM      3  C1  OXE d   1       2.954   5.450   5.412  0.00  0.00    -0.078 A 
ATOM      4  C2  OXE d   1       3.033   4.664   4.287  0.00  0.00    -0.078 A 
ATOM      5  C3  OXE d   1       4.265   4.461   3.673  0.00  0.00     0.003 A 
ATOM      6  C4  OXE d   1       5.442   4.922   4.276  0.00  0.00    -0.002 A 
ATOM      7  C5  OXE d   1       5.388   5.691   5.443  0.00  0.00    -0.002 A 
ATOM      8  C6  OXE d   1       4.151   5.999   5.999  0.00  0.00     0.003 A 
ENDROOT
TORSDOF 0
ENDMDL
