MODEL 1
REMARK minimizedAffinity -1.51568186
REMARK minimizedRMSD -1
REMARK  0 active torsions:
REMARK  status: ('A' for Active; 'I' for Inactive)
ROOT
ATOM      1  C2' OXE d   1       0.715   5.637   5.610  0.00  0.00     0.078 C 
ATOM      2  C1' OXE d   1       1.333   4.086   3.354  0.00  0.00     0.078 C 
ATOM      3  C1  OXE d   1       2.479   4.678   4.136  0.00  0.00    -0.078 A 
ATOM      4  C2  OXE d   1       2.166   5.474   5.211  0.00  0.00    -0.078 A 
ATOM      5  C3  OXE d   1       3.185   6.000   6.000  0.00  0.00     0.003 A 
ATOM      6  C4  OXE d   1       4.524   5.853   5.618  0.00  0.00    -0.002 A 
ATOM      7  C5  OXE d   1       4.864   5.079   4.503  0.00  0.00    -0.002 A 
ATOM      8  C6  OXE d   1       3.857   4.451   3.778  0.00  0.00     0.003 A 
ENDROOT
TORSDOF 0
ENDMDL
