MODEL 1
REMARK minimizedAffinity 7.18681812
REMARK minimizedRMSD -1
REMARK  0 active torsions:
REMARK  status: ('A' for Active; 'I' for Inactive)
ROOT
ATOM      1  C2' OXE d   1       2.245   5.838   6.000  0.00  0.00     0.078 C 
ATOM      2  C1' OXE d   1       2.213   5.841   3.193  0.00  0.00     0.078 C 
ATOM      3  C1  OXE d   1       3.555   5.880   3.881  0.00  0.00    -0.078 A 
ATOM      4  C2  OXE d   1       3.560   5.926   5.254  0.00  0.00    -0.078 A 
ATOM      5  C3  OXE d   1       4.771   5.908   5.941  0.00  0.00     0.003 A 
ATOM      6  C4  OXE d   1       5.982   6.000   5.244  0.00  0.00    -0.002 A 
ATOM      7  C5  OXE d   1       5.998   5.994   3.845  0.00  0.00    -0.002 A 
ATOM      8  C6  OXE d   1       4.798   5.892   3.150  0.00  0.00     0.003 A 
ENDROOT
TORSDOF 0
ENDMDL
