MODEL 1
REMARK minimizedAffinity -2.87620902
REMARK minimizedRMSD -1
REMARK  1 active torsions:
REMARK  status: ('A' for Active; 'I' for Inactive)
REMARK    1  A    between atoms: C3_4  and  O_7 
ROOT
ATOM      1  C   UNL d   1       0.925  -0.968  -3.726  0.00  0.00    -0.033 A 
ATOM      2  C1  UNL d   1       1.188   0.310  -3.230  0.00  0.00     0.039 A 
ATOM      3  C2  UNL d   1       0.772   0.661  -1.944  0.00  0.00    -0.080 A 
ATOM      4  C3  UNL d   1       0.096  -0.275  -1.166  0.00  0.00     0.150 A 
ATOM      5  C4  UNL d   1      -0.167  -1.551  -1.653  0.00  0.00    -0.007 A 
ATOM      6  C5  UNL d   1       0.249  -1.899  -2.937  0.00  0.00     0.039 A 
ENDROOT
BRANCH   4   7
ATOM      7  O   UNL d   1      -0.334   0.023   0.093  0.00  0.00    -0.526 OA
ATOM      8  H5  UNL d   1      -0.109   0.949   0.284  0.00  0.00     0.418 HD
ENDBRANCH   4   7
TORSDOF 1
ENDMDL
