MODEL 1
REMARK minimizedAffinity -4.14362907
REMARK minimizedRMSD -1
REMARK  1 active torsions:
REMARK  status: ('A' for Active; 'I' for Inactive)
REMARK    1  A    between atoms: C3_4  and  O_7 
ROOT
ATOM      1  C   UNL d   1       0.416   0.542  -0.204  0.00  0.00    -0.033 A 
ATOM      2  C1  UNL d   1      -0.782  -0.107   0.097  0.00  0.00     0.039 A 
ATOM      3  C2  UNL d   1      -0.976  -0.669   1.360  0.00  0.00    -0.080 A 
ATOM      4  C3  UNL d   1       0.034  -0.573   2.313  0.00  0.00     0.150 A 
ATOM      5  C4  UNL d   1       1.229   0.077   2.022  0.00  0.00    -0.007 A 
ATOM      6  C5  UNL d   1       1.422   0.636   0.760  0.00  0.00     0.039 A 
ENDROOT
BRANCH   4   7
ATOM      7  O   UNL d   1      -0.108  -1.109   3.559  0.00  0.00    -0.526 OA
ATOM      8  H5  UNL d   1      -0.972  -1.551   3.607  0.00  0.00     0.418 HD
ENDBRANCH   4   7
TORSDOF 1
ENDMDL
