MODEL 1
REMARK minimizedAffinity -4.01292276
REMARK minimizedRMSD -1
REMARK  1 active torsions:
REMARK  status: ('A' for Active; 'I' for Inactive)
REMARK    1  A    between atoms: C3_4  and  O_7 
ROOT
ATOM      1  C   UNL d   1       0.084  -0.828   0.850  0.00  0.00    -0.033 A 
ATOM      2  C1  UNL d   1       0.381  -0.087  -0.295  0.00  0.00     0.039 A 
ATOM      3  C2  UNL d   1      -0.632   0.596  -0.970  0.00  0.00    -0.080 A 
ATOM      4  C3  UNL d   1      -1.937   0.532  -0.489  0.00  0.00     0.150 A 
ATOM      5  C4  UNL d   1      -2.240  -0.201   0.654  0.00  0.00    -0.007 A 
ATOM      6  C5  UNL d   1      -1.227  -0.884   1.325  0.00  0.00     0.039 A 
ENDROOT
BRANCH   4   7
ATOM      7  O   UNL d   1      -2.960   1.178  -1.116  0.00  0.00    -0.526 OA
ATOM      8  H5  UNL d   1      -2.607   1.620  -1.907  0.00  0.00     0.418 HD
ENDBRANCH   4   7
TORSDOF 1
ENDMDL
