MODEL 1
REMARK minimizedAffinity -3.29568887
REMARK minimizedRMSD -1
REMARK  1 active torsions:
REMARK  status: ('A' for Active; 'I' for Inactive)
REMARK    1  A    between atoms: C3_4  and  O_7 
ROOT
ATOM      1  C   UNL d   1       0.801  -0.369   0.252  0.00  0.00    -0.033 A 
ATOM      2  C1  UNL d   1      -0.593  -0.416   0.309  0.00  0.00     0.039 A 
ATOM      3  C2  UNL d   1      -1.239  -0.579   1.536  0.00  0.00    -0.080 A 
ATOM      4  C3  UNL d   1      -0.480  -0.694   2.697  0.00  0.00     0.150 A 
ATOM      5  C4  UNL d   1       0.909  -0.644   2.649  0.00  0.00    -0.007 A 
ATOM      6  C5  UNL d   1       1.552  -0.482   1.422  0.00  0.00     0.039 A 
ENDROOT
BRANCH   4   7
ATOM      7  O   UNL d   1      -1.065  -0.859   3.917  0.00  0.00    -0.526 OA
ATOM      8  H5  UNL d   1      -2.028  -0.904   3.793  0.00  0.00     0.418 HD
ENDBRANCH   4   7
TORSDOF 1
ENDMDL
