MODEL 1
REMARK minimizedAffinity -4.35220909
REMARK minimizedRMSD -1
REMARK  1 active torsions:
REMARK  status: ('A' for Active; 'I' for Inactive)
REMARK    1  A    between atoms: C3_4  and  O_7 
ROOT
ATOM      1  C   UNL d   1      -0.024   0.398  -0.986  0.00  0.00    -0.033 A 
ATOM      2  C1  UNL d   1      -1.240  -0.009  -0.433  0.00  0.00     0.039 A 
ATOM      3  C2  UNL d   1      -1.326  -0.302   0.930  0.00  0.00    -0.080 A 
ATOM      4  C3  UNL d   1      -0.190  -0.184   1.727  0.00  0.00     0.150 A 
ATOM      5  C4  UNL d   1       1.023   0.224   1.183  0.00  0.00    -0.007 A 
ATOM      6  C5  UNL d   1       1.107   0.516  -0.178  0.00  0.00     0.039 A 
ENDROOT
BRANCH   4   7
ATOM      7  O   UNL d   1      -0.224  -0.464   3.060  0.00  0.00    -0.526 OA
ATOM      8  H5  UNL d   1      -1.120  -0.762   3.290  0.00  0.00     0.418 HD
ENDBRANCH   4   7
TORSDOF 1
ENDMDL
