MODEL 1
REMARK minimizedAffinity -3.46328759
REMARK minimizedRMSD -1
REMARK  1 active torsions:
REMARK  status: ('A' for Active; 'I' for Inactive)
REMARK    1  A    between atoms: C3_4  and  O_7 
ROOT
ATOM      1  C   UNL d   1       0.942   0.711   0.188  0.00  0.00    -0.033 A 
ATOM      2  C1  UNL d   1      -0.207  -0.056  -0.013  0.00  0.00     0.039 A 
ATOM      3  C2  UNL d   1      -0.863  -0.633   1.076  0.00  0.00    -0.080 A 
ATOM      4  C3  UNL d   1      -0.360  -0.436   2.359  0.00  0.00     0.150 A 
ATOM      5  C4  UNL d   1       0.782   0.331   2.568  0.00  0.00    -0.007 A 
ATOM      6  C5  UNL d   1       1.436   0.905   1.479  0.00  0.00     0.039 A 
ENDROOT
BRANCH   4   7
ATOM      7  O   UNL d   1      -0.963  -0.983   3.453  0.00  0.00    -0.526 OA
ATOM      8  H5  UNL d   1      -1.724  -1.509   3.154  0.00  0.00     0.418 HD
ENDBRANCH   4   7
TORSDOF 1
ENDMDL
