MODEL 1
REMARK minimizedAffinity -4.27786684
REMARK minimizedRMSD -1
REMARK  1 active torsions:
REMARK  status: ('A' for Active; 'I' for Inactive)
REMARK    1  A    between atoms: C3_4  and  O_7 
ROOT
ATOM      1  C   UNL d   1       0.143   0.086  -0.265  0.00  0.00    -0.033 A 
ATOM      2  C1  UNL d   1       1.156   0.233   0.685  0.00  0.00     0.039 A 
ATOM      3  C2  UNL d   1       0.943  -0.173   2.003  0.00  0.00    -0.080 A 
ATOM      4  C3  UNL d   1      -0.285  -0.726   2.358  0.00  0.00     0.150 A 
ATOM      5  C4  UNL d   1      -1.297  -0.879   1.416  0.00  0.00    -0.007 A 
ATOM      6  C5  UNL d   1      -1.083  -0.471   0.100  0.00  0.00     0.039 A 
ENDROOT
BRANCH   4   7
ATOM      7  O   UNL d   1      -0.541  -1.133   3.634  0.00  0.00    -0.526 OA
ATOM      8  H5  UNL d   1       0.238  -0.940   4.181  0.00  0.00     0.418 HD
ENDBRANCH   4   7
TORSDOF 1
ENDMDL
