MODEL 1
REMARK minimizedAffinity -4.6873126
REMARK minimizedRMSD -1
REMARK  1 active torsions:
REMARK  status: ('A' for Active; 'I' for Inactive)
REMARK    1  A    between atoms: C3_4  and  O_7 
ROOT
ATOM      1  C   UNL d   1      -0.473   0.027  -0.970  0.00  0.00    -0.033 A 
ATOM      2  C1  UNL d   1       0.718   0.471  -0.393  0.00  0.00     0.039 A 
ATOM      3  C2  UNL d   1       0.912   0.363   0.986  0.00  0.00    -0.080 A 
ATOM      4  C3  UNL d   1      -0.092  -0.192   1.775  0.00  0.00     0.150 A 
ATOM      5  C4  UNL d   1      -1.280  -0.640   1.206  0.00  0.00    -0.007 A 
ATOM      6  C5  UNL d   1      -1.471  -0.530  -0.170  0.00  0.00     0.039 A 
ENDROOT
BRANCH   4   7
ATOM      7  O   UNL d   1       0.049  -0.314   3.125  0.00  0.00    -0.526 OA
ATOM      8  H5  UNL d   1       0.907   0.064   3.380  0.00  0.00     0.418 HD
ENDBRANCH   4   7
TORSDOF 1
ENDMDL
