MODEL 1
REMARK minimizedAffinity -2.69171166
REMARK minimizedRMSD -1
REMARK  1 active torsions:
REMARK  status: ('A' for Active; 'I' for Inactive)
REMARK    1  A    between atoms: C3_4  and  O_7 
ROOT
ATOM      1  C   UNL d   1       0.393   1.070  -0.054  0.00  0.00    -0.033 A 
ATOM      2  C1  UNL d   1      -0.662   0.168  -0.211  0.00  0.00     0.039 A 
ATOM      3  C2  UNL d   1      -0.987  -0.714   0.820  0.00  0.00    -0.080 A 
ATOM      4  C3  UNL d   1      -0.253  -0.684   2.003  0.00  0.00     0.150 A 
ATOM      5  C4  UNL d   1       0.797   0.214   2.167  0.00  0.00    -0.007 A 
ATOM      6  C5  UNL d   1       1.121   1.094   1.135  0.00  0.00     0.039 A 
ENDROOT
BRANCH   4   7
ATOM      7  O   UNL d   1      -0.530  -1.530   3.036  0.00  0.00    -0.526 OA
ATOM      8  H5  UNL d   1      -1.261  -2.112   2.769  0.00  0.00     0.418 HD
ENDBRANCH   4   7
TORSDOF 1
ENDMDL
