MODEL 1
REMARK minimizedAffinity -3.85129833
REMARK minimizedRMSD -1
REMARK  1 active torsions:
REMARK  status: ('A' for Active; 'I' for Inactive)
REMARK    1  A    between atoms: C3_4  and  O_7 
ROOT
ATOM      1  C   UNL d   1      -0.009   0.325  -0.166  0.00  0.00    -0.033 A 
ATOM      2  C1  UNL d   1      -1.146  -0.453   0.059  0.00  0.00     0.039 A 
ATOM      3  C2  UNL d   1      -1.432  -0.921   1.343  0.00  0.00    -0.080 A 
ATOM      4  C3  UNL d   1      -0.574  -0.604   2.392  0.00  0.00     0.150 A 
ATOM      5  C4  UNL d   1       0.559   0.174   2.176  0.00  0.00    -0.007 A 
ATOM      6  C5  UNL d   1       0.843   0.640   0.893  0.00  0.00     0.039 A 
ENDROOT
BRANCH   4   7
ATOM      7  O   UNL d   1      -0.808  -1.042   3.661  0.00  0.00    -0.526 OA
ATOM      8  H5  UNL d   1      -1.609  -1.592   3.654  0.00  0.00     0.418 HD
ENDBRANCH   4   7
TORSDOF 1
ENDMDL
