MODEL 1
REMARK minimizedAffinity -4.40253973
REMARK minimizedRMSD -1
REMARK  1 active torsions:
REMARK  status: ('A' for Active; 'I' for Inactive)
REMARK    1  A    between atoms: C3_4  and  O_7 
ROOT
ATOM      1  C   UNL d   1       0.273   0.570   0.146  0.00  0.00    -0.033 A 
ATOM      2  C1  UNL d   1       0.928   0.964   1.314  0.00  0.00     0.039 A 
ATOM      3  C2  UNL d   1       0.591   0.379   2.537  0.00  0.00    -0.080 A 
ATOM      4  C3  UNL d   1      -0.401  -0.597   2.577  0.00  0.00     0.150 A 
ATOM      5  C4  UNL d   1      -1.055  -0.996   1.416  0.00  0.00    -0.007 A 
ATOM      6  C5  UNL d   1      -0.718  -0.411   0.196  0.00  0.00     0.039 A 
ENDROOT
BRANCH   4   7
ATOM      7  O   UNL d   1      -0.768  -1.193   3.747  0.00  0.00    -0.526 OA
ATOM      8  H5  UNL d   1      -0.252  -0.797   4.469  0.00  0.00     0.418 HD
ENDBRANCH   4   7
TORSDOF 1
ENDMDL
