MODEL 1
REMARK minimizedAffinity -3.02771378
REMARK minimizedRMSD -1
REMARK  1 active torsions:
REMARK  status: ('A' for Active; 'I' for Inactive)
REMARK    1  A    between atoms: C3_4  and  O_7 
ROOT
ATOM      1  C   UNL d   1       0.329  -0.054   1.644  0.00  0.00    -0.033 A 
ATOM      2  C1  UNL d   1      -0.957  -0.478   1.302  0.00  0.00     0.039 A 
ATOM      3  C2  UNL d   1      -1.424  -0.314  -0.004  0.00  0.00    -0.080 A 
ATOM      4  C3  UNL d   1      -0.597   0.274  -0.957  0.00  0.00     0.150 A 
ATOM      5  C4  UNL d   1       0.686   0.696  -0.624  0.00  0.00    -0.007 A 
ATOM      6  C5  UNL d   1       1.151   0.532   0.680  0.00  0.00     0.039 A 
ENDROOT
BRANCH   4   7
ATOM      7  O   UNL d   1      -1.010   0.460  -2.242  0.00  0.00    -0.526 OA
ATOM      8  H5  UNL d   1      -1.927   0.147  -2.319  0.00  0.00     0.418 HD
ENDBRANCH   4   7
TORSDOF 1
ENDMDL
