MODEL 1
REMARK minimizedAffinity -3.80709958
REMARK minimizedRMSD -1
REMARK  1 active torsions:
REMARK  status: ('A' for Active; 'I' for Inactive)
REMARK    1  A    between atoms: C3_4  and  O_7 
ROOT
ATOM      1  C   UNL d   1       0.225   0.695  -0.369  0.00  0.00    -0.033 A 
ATOM      2  C1  UNL d   1       1.089   0.806   0.722  0.00  0.00     0.039 A 
ATOM      3  C2  UNL d   1       0.859   0.054   1.876  0.00  0.00    -0.080 A 
ATOM      4  C3  UNL d   1      -0.236  -0.804   1.926  0.00  0.00     0.150 A 
ATOM      5  C4  UNL d   1      -1.099  -0.922   0.841  0.00  0.00    -0.007 A 
ATOM      6  C5  UNL d   1      -0.868  -0.170  -0.310  0.00  0.00     0.039 A 
ENDROOT
BRANCH   4   7
ATOM      7  O   UNL d   1      -0.504  -1.555   3.032  0.00  0.00    -0.526 OA
ATOM      8  H5  UNL d   1       0.159  -1.348   3.712  0.00  0.00     0.418 HD
ENDBRANCH   4   7
TORSDOF 1
ENDMDL
