MODEL 1
REMARK minimizedAffinity -3.45217323
REMARK minimizedRMSD -1
REMARK  1 active torsions:
REMARK  status: ('A' for Active; 'I' for Inactive)
REMARK    1  A    between atoms: C3_4  and  O_7 
ROOT
ATOM      1  C   UNL d   1      -0.543   0.444  -0.953  0.00  0.00    -0.033 A 
ATOM      2  C1  UNL d   1       0.601   0.289  -0.168  0.00  0.00     0.039 A 
ATOM      3  C2  UNL d   1       0.482   0.002   1.194  0.00  0.00    -0.080 A 
ATOM      4  C3  UNL d   1      -0.785  -0.129   1.756  0.00  0.00     0.150 A 
ATOM      5  C4  UNL d   1      -1.929   0.020   0.979  0.00  0.00    -0.007 A 
ATOM      6  C5  UNL d   1      -1.808   0.307  -0.380  0.00  0.00     0.039 A 
ENDROOT
BRANCH   4   7
ATOM      7  O   UNL d   1      -0.951  -0.404   3.081  0.00  0.00    -0.526 OA
ATOM      8  H5  UNL d   1      -0.075  -0.451   3.498  0.00  0.00     0.418 HD
ENDBRANCH   4   7
TORSDOF 1
ENDMDL
