MODEL 1
REMARK minimizedAffinity -5.16511011
REMARK minimizedRMSD -1
REMARK  1 active torsions:
REMARK  status: ('A' for Active; 'I' for Inactive)
REMARK    1  A    between atoms: C3_4  and  O_7 
ROOT
ATOM      1  C   UNL d   1      -1.615  -0.030   3.309  0.00  0.00    -0.033 A 
ATOM      2  C1  UNL d   1      -2.495  -0.083   2.226  0.00  0.00     0.039 A 
ATOM      3  C2  UNL d   1      -1.997  -0.182   0.925  0.00  0.00    -0.080 A 
ATOM      4  C3  UNL d   1      -0.621  -0.229   0.721  0.00  0.00     0.150 A 
ATOM      5  C4  UNL d   1       0.261  -0.181   1.796  0.00  0.00    -0.007 A 
ATOM      6  C5  UNL d   1      -0.238  -0.081   3.094  0.00  0.00     0.039 A 
ENDROOT
BRANCH   4   7
ATOM      7  O   UNL d   1      -0.088  -0.321  -0.530  0.00  0.00    -0.526 OA
ATOM      8  H5  UNL d   1      -0.815  -0.316  -1.175  0.00  0.00     0.418 HD
ENDBRANCH   4   7
TORSDOF 1
ENDMDL
