MODEL 1
REMARK minimizedAffinity -5.03452682
REMARK minimizedRMSD -1
REMARK  1 active torsions:
REMARK  status: ('A' for Active; 'I' for Inactive)
REMARK    1  A    between atoms: C3_4  and  O_7 
ROOT
ATOM      1  C   UNL d   1       0.023  -0.244  -0.529  0.00  0.00    -0.033 A 
ATOM      2  C1  UNL d   1       1.095   0.109   0.293  0.00  0.00     0.039 A 
ATOM      3  C2  UNL d   1       0.978   0.003   1.680  0.00  0.00    -0.080 A 
ATOM      4  C3  UNL d   1      -0.214  -0.458   2.232  0.00  0.00     0.150 A 
ATOM      5  C4  UNL d   1      -1.285  -0.816   1.419  0.00  0.00    -0.007 A 
ATOM      6  C5  UNL d   1      -1.166  -0.708   0.034  0.00  0.00     0.039 A 
ENDROOT
BRANCH   4   7
ATOM      7  O   UNL d   1      -0.377  -0.574   3.580  0.00  0.00    -0.526 OA
ATOM      8  H5  UNL d   1       0.434  -0.265   4.016  0.00  0.00     0.418 HD
ENDBRANCH   4   7
TORSDOF 1
ENDMDL
