MODEL 1
REMARK minimizedAffinity -3.15309215
REMARK minimizedRMSD -1
REMARK  1 active torsions:
REMARK  status: ('A' for Active; 'I' for Inactive)
REMARK    1  A    between atoms: C3_4  and  O_7 
ROOT
ATOM      1  C   UNL d   1      -0.083   0.186  -0.912  0.00  0.00    -0.033 A 
ATOM      2  C1  UNL d   1       1.137   0.232  -0.235  0.00  0.00     0.039 A 
ATOM      3  C2  UNL d   1       1.170   0.116   1.156  0.00  0.00    -0.080 A 
ATOM      4  C3  UNL d   1      -0.021  -0.045   1.857  0.00  0.00     0.150 A 
ATOM      5  C4  UNL d   1      -1.240  -0.096   1.189  0.00  0.00    -0.007 A 
ATOM      6  C5  UNL d   1      -1.272   0.021  -0.200  0.00  0.00     0.039 A 
ENDROOT
BRANCH   4   7
ATOM      7  O   UNL d   1      -0.040  -0.158   3.215  0.00  0.00    -0.526 OA
ATOM      8  H5  UNL d   1       0.872  -0.077   3.543  0.00  0.00     0.418 HD
ENDBRANCH   4   7
TORSDOF 1
ENDMDL
