MODEL 1
REMARK minimizedAffinity -3.16132116
REMARK minimizedRMSD -1
REMARK  0 active torsions:
REMARK  status: ('A' for Active; 'I' for Inactive)
ROOT
ATOM      1  C   UNL d   1       2.931  -0.717  -1.103  0.00  0.00     0.172 C 
ATOM      2  N   UNL d   1       1.512  -0.550  -0.892  0.00  0.00    -0.070 N 
ATOM      3  C1  UNL d   1       0.831   0.636  -0.953  0.00  0.00    -0.004 A 
ATOM      4  C2  UNL d   1      -0.497   0.374  -0.695  0.00  0.00    -0.047 A 
ATOM      5  C3  UNL d   1      -0.618  -1.018  -0.469  0.00  0.00    -0.047 A 
ATOM      6  C4  UNL d   1       0.642  -1.565  -0.597  0.00  0.00    -0.004 A 
ENDROOT
TORSDOF 0
ENDMDL
