MODEL 1
REMARK minimizedAffinity -3.91478992
REMARK minimizedRMSD -1
REMARK  0 active torsions:
REMARK  status: ('A' for Active; 'I' for Inactive)
ROOT
ATOM      1  C   UNL d   1      -0.039   0.533   1.166  0.00  0.00     0.172 C 
ATOM      2  N   UNL d   1       0.955   0.073   0.225  0.00  0.00    -0.070 N 
ATOM      3  C1  UNL d   1       2.206   0.605   0.061  0.00  0.00    -0.004 A 
ATOM      4  C2  UNL d   1       2.844  -0.111  -0.929  0.00  0.00    -0.047 A 
ATOM      5  C3  UNL d   1       1.944  -1.108  -1.376  0.00  0.00    -0.047 A 
ATOM      6  C4  UNL d   1       0.783  -0.971  -0.645  0.00  0.00    -0.004 A 
ENDROOT
TORSDOF 0
ENDMDL
