MODEL 1
REMARK minimizedAffinity -0.407892853
REMARK minimizedRMSD -1
REMARK  0 active torsions:
REMARK  status: ('A' for Active; 'I' for Inactive)
ROOT
ATOM      1  C   UNL d   1       1.916  -1.122  -1.685  0.00  0.00     0.172 C 
ATOM      2  N   UNL d   1       0.839  -0.882  -0.753  0.00  0.00    -0.070 N 
ATOM      3  C1  UNL d   1       0.301  -1.807   0.100  0.00  0.00    -0.004 A 
ATOM      4  C2  UNL d   1      -0.699  -1.187   0.819  0.00  0.00    -0.047 A 
ATOM      5  C3  UNL d   1      -0.763   0.157   0.382  0.00  0.00    -0.047 A 
ATOM      6  C4  UNL d   1       0.200   0.319  -0.592  0.00  0.00    -0.004 A 
ENDROOT
TORSDOF 0
ENDMDL
