MODEL 1
REMARK minimizedAffinity -3.7090683
REMARK minimizedRMSD -1
REMARK  0 active torsions:
REMARK  status: ('A' for Active; 'I' for Inactive)
ROOT
ATOM      1  C   UNL d   1      -1.197   0.250   0.066  0.00  0.00     0.172 C 
ATOM      2  N   UNL d   1       0.043  -0.194  -0.526  0.00  0.00    -0.070 N 
ATOM      3  C1  UNL d   1       0.673   0.389  -1.592  0.00  0.00    -0.004 A 
ATOM      4  C2  UNL d   1       1.821  -0.329  -1.849  0.00  0.00    -0.047 A 
ATOM      5  C3  UNL d   1       1.882  -1.381  -0.904  0.00  0.00    -0.047 A 
ATOM      6  C4  UNL d   1       0.769  -1.274  -0.097  0.00  0.00    -0.004 A 
ENDROOT
TORSDOF 0
ENDMDL
