MODEL 1
REMARK minimizedAffinity -4.21748924
REMARK minimizedRMSD -1
REMARK  0 active torsions:
REMARK  status: ('A' for Active; 'I' for Inactive)
ROOT
ATOM      1  C   UNL d   1      -0.934   0.270   0.038  0.00  0.00     0.172 C 
ATOM      2  N   UNL d   1       0.427  -0.026  -0.343  0.00  0.00    -0.070 N 
ATOM      3  C1  UNL d   1       1.300   0.851  -0.931  0.00  0.00    -0.004 A 
ATOM      4  C2  UNL d   1       2.491   0.188  -1.134  0.00  0.00    -0.047 A 
ATOM      5  C3  UNL d   1       2.328  -1.133  -0.653  0.00  0.00    -0.047 A 
ATOM      6  C4  UNL d   1       1.041  -1.238  -0.169  0.00  0.00    -0.004 A 
ENDROOT
TORSDOF 0
ENDMDL
