MODEL 1
REMARK minimizedAffinity -3.10920978
REMARK minimizedRMSD -1
REMARK  0 active torsions:
REMARK  status: ('A' for Active; 'I' for Inactive)
ROOT
ATOM      1  C   UNL d   1      -1.434   0.443   0.397  0.00  0.00     0.172 C 
ATOM      2  N   UNL d   1      -0.176   0.023  -0.175  0.00  0.00    -0.070 N 
ATOM      3  C1  UNL d   1       0.803   0.856  -0.647  0.00  0.00    -0.004 A 
ATOM      4  C2  UNL d   1       1.838   0.072  -1.107  0.00  0.00    -0.047 A 
ATOM      5  C3  UNL d   1       1.469  -1.279  -0.905  0.00  0.00    -0.047 A 
ATOM      6  C4  UNL d   1       0.217  -1.280  -0.326  0.00  0.00    -0.004 A 
ENDROOT
TORSDOF 0
ENDMDL
