MODEL 1
REMARK minimizedAffinity -3.50545335
REMARK minimizedRMSD -1
REMARK  0 active torsions:
REMARK  status: ('A' for Active; 'I' for Inactive)
ROOT
ATOM      1  C   UNL d   1       2.103  -0.831  -1.269  0.00  0.00     0.172 C 
ATOM      2  N   UNL d   1       0.848  -0.190  -0.955  0.00  0.00    -0.070 N 
ATOM      3  C1  UNL d   1       0.457   1.052  -1.381  0.00  0.00    -0.004 A 
ATOM      4  C2  UNL d   1      -0.799   1.297  -0.869  0.00  0.00    -0.047 A 
ATOM      5  C3  UNL d   1      -1.176   0.164  -0.109  0.00  0.00    -0.047 A 
ATOM      6  C4  UNL d   1      -0.138  -0.741  -0.180  0.00  0.00    -0.004 A 
ENDROOT
TORSDOF 0
ENDMDL
