MODEL 1
REMARK minimizedAffinity -3.597718
REMARK minimizedRMSD -1
REMARK  0 active torsions:
REMARK  status: ('A' for Active; 'I' for Inactive)
ROOT
ATOM      1  C   UNL d   1       2.618  -1.102  -1.678  0.00  0.00     0.172 C 
ATOM      2  N   UNL d   1       1.444  -0.434  -1.167  0.00  0.00    -0.070 N 
ATOM      3  C1  UNL d   1       0.399  -1.040  -0.522  0.00  0.00    -0.004 A 
ATOM      4  C2  UNL d   1      -0.517  -0.064  -0.193  0.00  0.00    -0.047 A 
ATOM      5  C3  UNL d   1      -0.005   1.171  -0.658  0.00  0.00    -0.047 A 
ATOM      6  C4  UNL d   1       1.210   0.913  -1.256  0.00  0.00    -0.004 A 
ENDROOT
TORSDOF 0
ENDMDL
