MODEL 1
REMARK minimizedAffinity -3.81246305
REMARK minimizedRMSD -1
REMARK  0 active torsions:
REMARK  status: ('A' for Active; 'I' for Inactive)
ROOT
ATOM      1  C   UNL d   1      -0.418  -1.928  -0.332  0.00  0.00     0.172 C 
ATOM      2  N   UNL d   1       0.802  -1.212  -0.618  0.00  0.00    -0.070 N 
ATOM      3  C1  UNL d   1       1.758  -1.592  -1.522  0.00  0.00    -0.004 A 
ATOM      4  C2  UNL d   1       2.761  -0.647  -1.500  0.00  0.00    -0.047 A 
ATOM      5  C3  UNL d   1       2.395   0.335  -0.548  0.00  0.00    -0.047 A 
ATOM      6  C4  UNL d   1       1.179  -0.039  -0.018  0.00  0.00    -0.004 A 
ENDROOT
TORSDOF 0
ENDMDL
