MODEL 1
REMARK minimizedAffinity -3.03922296
REMARK minimizedRMSD -1
REMARK  0 active torsions:
REMARK  status: ('A' for Active; 'I' for Inactive)
ROOT
ATOM      1  C   UNL d   1      -0.441   0.144   0.523  0.00  0.00     0.172 C 
ATOM      2  N   UNL d   1       0.813  -0.084  -0.154  0.00  0.00    -0.070 N 
ATOM      3  C1  UNL d   1       1.985   0.581   0.090  0.00  0.00    -0.004 A 
ATOM      4  C2  UNL d   1       2.944   0.073  -0.760  0.00  0.00    -0.047 A 
ATOM      5  C3  UNL d   1       2.326  -0.931  -1.543  0.00  0.00    -0.047 A 
ATOM      6  C4  UNL d   1       1.008  -1.008  -1.147  0.00  0.00    -0.004 A 
ENDROOT
TORSDOF 0
ENDMDL
