MODEL 1
REMARK minimizedAffinity -2.70967126
REMARK minimizedRMSD -1
REMARK  0 active torsions:
REMARK  status: ('A' for Active; 'I' for Inactive)
ROOT
ATOM      1  C   UNL d   1       2.125  -1.287  -1.817  0.00  0.00     0.172 C 
ATOM      2  N   UNL d   1       1.018  -0.666  -1.128  0.00  0.00    -0.070 N 
ATOM      3  C1  UNL d   1      -0.188  -1.256  -0.860  0.00  0.00    -0.004 A 
ATOM      4  C2  UNL d   1      -0.968  -0.338  -0.191  0.00  0.00    -0.047 A 
ATOM      5  C3  UNL d   1      -0.204   0.846  -0.053  0.00  0.00    -0.047 A 
ATOM      6  C4  UNL d   1       1.021   0.615  -0.642  0.00  0.00    -0.004 A 
ENDROOT
TORSDOF 0
ENDMDL
