MODEL 1
REMARK minimizedAffinity -3.90030575
REMARK minimizedRMSD -1
REMARK  0 active torsions:
REMARK  status: ('A' for Active; 'I' for Inactive)
ROOT
ATOM      1  C   UNL d   1       2.995  -0.776  -1.082  0.00  0.00     0.172 C 
ATOM      2  N   UNL d   1       1.683  -0.357  -0.646  0.00  0.00    -0.070 N 
ATOM      3  C1  UNL d   1       0.693  -1.184  -0.187  0.00  0.00    -0.004 A 
ATOM      4  C2  UNL d   1      -0.398  -0.402   0.127  0.00  0.00    -0.047 A 
ATOM      5  C3  UNL d   1      -0.052   0.940  -0.155  0.00  0.00    -0.047 A 
ATOM      6  C4  UNL d   1       1.242   0.940  -0.632  0.00  0.00    -0.004 A 
ENDROOT
TORSDOF 0
ENDMDL
