MODEL 1
REMARK minimizedAffinity -3.5134716
REMARK minimizedRMSD -1
REMARK  0 active torsions:
REMARK  status: ('A' for Active; 'I' for Inactive)
ROOT
ATOM      1  C   UNL d   1       2.814  -0.660  -1.432  0.00  0.00     0.172 C 
ATOM      2  N   UNL d   1       1.459  -0.567  -0.943  0.00  0.00    -0.070 N 
ATOM      3  C1  UNL d   1       0.794  -1.539  -0.243  0.00  0.00    -0.004 A 
ATOM      4  C2  UNL d   1      -0.469  -1.066   0.039  0.00  0.00    -0.047 A 
ATOM      5  C3  UNL d   1      -0.568   0.234  -0.510  0.00  0.00    -0.047 A 
ATOM      6  C4  UNL d   1       0.640   0.518  -1.112  0.00  0.00    -0.004 A 
ENDROOT
TORSDOF 0
ENDMDL
