MODEL 1
REMARK minimizedAffinity -4.01980448
REMARK minimizedRMSD -1
REMARK  0 active torsions:
REMARK  status: ('A' for Active; 'I' for Inactive)
ROOT
ATOM      1  C   UNL d   1       3.200  -0.240  -0.868  0.00  0.00     0.172 C 
ATOM      2  N   UNL d   1       1.801  -0.574  -0.737  0.00  0.00    -0.070 N 
ATOM      3  C1  UNL d   1       0.770   0.325  -0.655  0.00  0.00    -0.004 A 
ATOM      4  C2  UNL d   1      -0.403  -0.389  -0.540  0.00  0.00    -0.047 A 
ATOM      5  C3  UNL d   1      -0.067  -1.763  -0.554  0.00  0.00    -0.047 A 
ATOM      6  C4  UNL d   1       1.304  -1.849  -0.676  0.00  0.00    -0.004 A 
ENDROOT
TORSDOF 0
ENDMDL
