MODEL 1
REMARK minimizedAffinity -3.61111593
REMARK minimizedRMSD -1
REMARK  0 active torsions:
REMARK  status: ('A' for Active; 'I' for Inactive)
ROOT
ATOM      1  C   UNL d   1      -1.119   0.421   0.721  0.00  0.00     0.172 C 
ATOM      2  N   UNL d   1       0.062  -0.014   0.013  0.00  0.00    -0.070 N 
ATOM      3  C1  UNL d   1       0.844   0.770  -0.793  0.00  0.00    -0.004 A 
ATOM      4  C2  UNL d   1       1.869  -0.013  -1.278  0.00  0.00    -0.047 A 
ATOM      5  C3  UNL d   1       1.696  -1.313  -0.747  0.00  0.00    -0.047 A 
ATOM      6  C4  UNL d   1       0.571  -1.286   0.049  0.00  0.00    -0.004 A 
ENDROOT
TORSDOF 0
ENDMDL
