MODEL 1
REMARK minimizedAffinity 10.957984
REMARK minimizedRMSD -1
REMARK  0 active torsions:
REMARK  status: ('A' for Active; 'I' for Inactive)
ROOT
ATOM      1  C   UNL d   1       0.158  -4.953   0.459  0.00  0.00     0.020 A 
ATOM      2  C1  UNL d   1      -0.566  -4.865  -0.730  0.00  0.00     0.020 A 
ATOM      3  C2  UNL d   1      -1.711  -4.069  -0.792  0.00  0.00     0.034 A 
ATOM      4  C3  UNL d   1      -2.136  -3.357   0.336  0.00  0.00     0.017 A 
ATOM      5  C4  UNL d   1      -1.409  -3.446   1.528  0.00  0.00     0.017 A 
ATOM      6  C5  UNL d   1      -0.263  -4.245   1.585  0.00  0.00     0.034 A 
ATOM      7 Cl   UNL d   1      -1.871  -2.598   2.961  0.00  0.00    -0.070 Cl
ATOM      8 Cl1  UNL d   1      -3.562  -2.392   0.187  0.00  0.00    -0.070 Cl
ENDROOT
TORSDOF 0
ENDMDL
