MODEL 1
REMARK minimizedAffinity 5.62071419
REMARK minimizedRMSD -1
REMARK  0 active torsions:
REMARK  status: ('A' for Active; 'I' for Inactive)
ROOT
ATOM      1  C   UNL d   1      -1.394  -4.175   0.665  0.00  0.00     0.020 A 
ATOM      2  C1  UNL d   1      -0.591  -3.374  -0.146  0.00  0.00     0.020 A 
ATOM      3  C2  UNL d   1      -1.154  -2.310  -0.853  0.00  0.00     0.034 A 
ATOM      4  C3  UNL d   1      -2.524  -2.043  -0.750  0.00  0.00     0.017 A 
ATOM      5  C4  UNL d   1      -3.330  -2.847   0.065  0.00  0.00     0.017 A 
ATOM      6  C5  UNL d   1      -2.760  -3.912   0.770  0.00  0.00     0.034 A 
ATOM      7 Cl   UNL d   1      -5.028  -2.580   0.243  0.00  0.00    -0.070 Cl
ATOM      8 Cl1  UNL d   1      -3.154  -0.710  -1.652  0.00  0.00    -0.070 Cl
ENDROOT
TORSDOF 0
ENDMDL
