MODEL 1
REMARK minimizedAffinity 3.73763752
REMARK minimizedRMSD -1
REMARK  0 active torsions:
REMARK  status: ('A' for Active; 'I' for Inactive)
ROOT
ATOM      1  C   UNL d   1      -3.542  -1.383  -3.521  0.00  0.00     0.020 A 
ATOM      2  C1  UNL d   1      -2.169  -1.465  -3.746  0.00  0.00     0.020 A 
ATOM      3  C2  UNL d   1      -1.289  -0.692  -2.986  0.00  0.00     0.034 A 
ATOM      4  C3  UNL d   1      -1.781   0.166  -1.996  0.00  0.00     0.017 A 
ATOM      5  C4  UNL d   1      -3.160   0.248  -1.771  0.00  0.00     0.017 A 
ATOM      6  C5  UNL d   1      -4.037  -0.528  -2.535  0.00  0.00     0.034 A 
ATOM      7 Cl   UNL d   1      -3.842   1.285  -0.567  0.00  0.00    -0.070 Cl
ATOM      8 Cl1  UNL d   1      -0.635   1.092  -1.094  0.00  0.00    -0.070 Cl
ENDROOT
TORSDOF 0
ENDMDL
