MODEL 1
REMARK minimizedAffinity 0.859808028
REMARK minimizedRMSD -1
REMARK  0 active torsions:
REMARK  status: ('A' for Active; 'I' for Inactive)
ROOT
ATOM      1  C   UNL d   1      -2.127  -3.773  -0.302  0.00  0.00     0.020 A 
ATOM      2  C1  UNL d   1      -2.436  -2.623   0.423  0.00  0.00     0.020 A 
ATOM      3  C2  UNL d   1      -1.416  -1.883   1.025  0.00  0.00     0.034 A 
ATOM      4  C3  UNL d   1      -0.083  -2.292   0.904  0.00  0.00     0.017 A 
ATOM      5  C4  UNL d   1       0.225  -3.447   0.176  0.00  0.00     0.017 A 
ATOM      6  C5  UNL d   1      -0.799  -4.184  -0.425  0.00  0.00     0.034 A 
ATOM      7 Cl   UNL d   1       1.846  -4.014  -0.019  0.00  0.00    -0.070 Cl
ATOM      8 Cl1  UNL d   1       1.126  -1.328   1.674  0.00  0.00    -0.070 Cl
ENDROOT
TORSDOF 0
ENDMDL
