MODEL 1
REMARK minimizedAffinity 6.27703524
REMARK minimizedRMSD -1
REMARK  0 active torsions:
REMARK  status: ('A' for Active; 'I' for Inactive)
ROOT
ATOM      1  C   UNL d   1      -3.764  -1.827   0.160  0.00  0.00     0.020 A 
ATOM      2  C1  UNL d   1      -2.442  -2.270   0.148  0.00  0.00     0.020 A 
ATOM      3  C2  UNL d   1      -1.515  -1.677  -0.711  0.00  0.00     0.034 A 
ATOM      4  C3  UNL d   1      -1.909  -0.639  -1.564  0.00  0.00     0.017 A 
ATOM      5  C4  UNL d   1      -3.236  -0.196  -1.552  0.00  0.00     0.017 A 
ATOM      6  C5  UNL d   1      -4.160  -0.793  -0.689  0.00  0.00     0.034 A 
ATOM      7 Cl   UNL d   1      -3.797   1.080  -2.574  0.00  0.00    -0.070 Cl
ATOM      8 Cl1  UNL d   1      -0.709   0.049  -2.600  0.00  0.00    -0.070 Cl
ENDROOT
TORSDOF 0
ENDMDL
