MODEL 1
REMARK minimizedAffinity 10.5398951
REMARK minimizedRMSD -1
REMARK  0 active torsions:
REMARK  status: ('A' for Active; 'I' for Inactive)
ROOT
ATOM      1  C   UNL d   1      -0.512  -5.408   0.735  0.00  0.00     0.020 A 
ATOM      2  C1  UNL d   1       0.619  -4.920   0.082  0.00  0.00     0.020 A 
ATOM      3  C2  UNL d   1       0.570  -3.687  -0.571  0.00  0.00     0.034 A 
ATOM      4  C3  UNL d   1      -0.612  -2.938  -0.574  0.00  0.00     0.017 A 
ATOM      5  C4  UNL d   1      -1.747  -3.429   0.082  0.00  0.00     0.017 A 
ATOM      6  C5  UNL d   1      -1.692  -4.664   0.735  0.00  0.00     0.034 A 
ATOM      7 Cl   UNL d   1      -3.242  -2.562   0.122  0.00  0.00    -0.070 Cl
ATOM      8 Cl1  UNL d   1      -0.601  -1.422  -1.402  0.00  0.00    -0.070 Cl
ENDROOT
TORSDOF 0
ENDMDL
