MODEL 1
REMARK minimizedAffinity 6.78405905
REMARK minimizedRMSD -1
REMARK  0 active torsions:
REMARK  status: ('A' for Active; 'I' for Inactive)
ROOT
ATOM      1  C   UNL d   1       1.717  -0.497   2.976  0.00  0.00     0.020 A 
ATOM      2  C1  UNL d   1       1.930  -0.839   1.642  0.00  0.00     0.020 A 
ATOM      3  C2  UNL d   1       1.354  -0.075   0.624  0.00  0.00     0.034 A 
ATOM      4  C3  UNL d   1       0.561   1.034   0.940  0.00  0.00     0.017 A 
ATOM      5  C4  UNL d   1       0.347   1.377   2.280  0.00  0.00     0.017 A 
ATOM      6  C5  UNL d   1       0.927   0.609   3.295  0.00  0.00     0.034 A 
ATOM      7 Cl   UNL d   1      -0.619   2.732   2.748  0.00  0.00    -0.070 Cl
ATOM      8 Cl1  UNL d   1      -0.121   1.934  -0.368  0.00  0.00    -0.070 Cl
ENDROOT
TORSDOF 0
ENDMDL
