MODEL 1
REMARK minimizedAffinity -0.534956217
REMARK minimizedRMSD -1
REMARK  0 active torsions:
REMARK  status: ('A' for Active; 'I' for Inactive)
ROOT
ATOM      1  C   UNL d   1      -5.989  -4.073  -3.969  0.00  0.00     0.020 A 
ATOM      2  C1  UNL d   1      -5.972  -3.967  -5.359  0.00  0.00     0.020 A 
ATOM      3  C2  UNL d   1      -5.962  -2.708  -5.963  0.00  0.00     0.034 A 
ATOM      4  C3  UNL d   1      -5.970  -1.550  -5.177  0.00  0.00     0.017 A 
ATOM      5  C4  UNL d   1      -5.988  -1.658  -3.782  0.00  0.00     0.017 A 
ATOM      6  C5  UNL d   1      -5.997  -2.921  -3.182  0.00  0.00     0.034 A 
ATOM      7 Cl   UNL d   1      -5.999  -0.274  -2.746  0.00  0.00    -0.070 Cl
ATOM      8 Cl1  UNL d   1      -5.958  -0.026  -5.991  0.00  0.00    -0.070 Cl
ENDROOT
TORSDOF 0
ENDMDL
