MODEL 1
REMARK minimizedAffinity -3.59958601
REMARK minimizedRMSD -1
REMARK  0 active torsions:
REMARK  status: ('A' for Active; 'I' for Inactive)
ROOT
ATOM      1  C   UNL d   1      -4.865  -1.445  -5.961  0.00  0.00     0.020 A 
ATOM      2  C1  UNL d   1      -5.741  -1.155  -4.916  0.00  0.00     0.020 A 
ATOM      3  C2  UNL d   1      -5.961  -2.096  -3.908  0.00  0.00     0.034 A 
ATOM      4  C3  UNL d   1      -5.304  -3.331  -3.942  0.00  0.00     0.017 A 
ATOM      5  C4  UNL d   1      -4.424  -3.621  -4.992  0.00  0.00     0.017 A 
ATOM      6  C5  UNL d   1      -4.207  -2.675  -5.998  0.00  0.00     0.034 A 
ATOM      7 Cl   UNL d   1      -3.576  -5.123  -5.103  0.00  0.00    -0.070 Cl
ATOM      8 Cl1  UNL d   1      -5.623  -4.448  -2.663  0.00  0.00    -0.070 Cl
ENDROOT
TORSDOF 0
ENDMDL
