MODEL 1
REMARK minimizedAffinity -0.768646061
REMARK minimizedRMSD -1
REMARK  0 active torsions:
REMARK  status: ('A' for Active; 'I' for Inactive)
ROOT
ATOM      1  C   UNL d   1      -1.967  -5.999  -5.496  0.00  0.00     0.020 A 
ATOM      2  C1  UNL d   1      -1.388  -4.885  -4.889  0.00  0.00     0.020 A 
ATOM      3  C2  UNL d   1      -2.164  -3.757  -4.616  0.00  0.00     0.034 A 
ATOM      4  C3  UNL d   1      -3.523  -3.740  -4.950  0.00  0.00     0.017 A 
ATOM      5  C4  UNL d   1      -4.103  -4.858  -5.559  0.00  0.00     0.017 A 
ATOM      6  C5  UNL d   1      -3.322  -5.985  -5.830  0.00  0.00     0.034 A 
ATOM      7 Cl   UNL d   1      -5.774  -4.912  -6.000  0.00  0.00    -0.070 Cl
ATOM      8 Cl1  UNL d   1      -4.423  -2.311  -4.583  0.00  0.00    -0.070 Cl
ENDROOT
TORSDOF 0
ENDMDL
