MODEL 1
REMARK minimizedAffinity -2.62069893
REMARK minimizedRMSD -1
REMARK  0 active torsions:
REMARK  status: ('A' for Active; 'I' for Inactive)
ROOT
ATOM      1  C   UNL d   1      -5.867  -2.956  -4.556  0.00  0.00     0.020 A 
ATOM      2  C1  UNL d   1      -6.000  -3.764  -5.684  0.00  0.00     0.020 A 
ATOM      3  C2  UNL d   1      -5.005  -4.692  -6.000  0.00  0.00     0.034 A 
ATOM      4  C3  UNL d   1      -3.873  -4.814  -5.186  0.00  0.00     0.017 A 
ATOM      5  C4  UNL d   1      -3.741  -4.002  -4.053  0.00  0.00     0.017 A 
ATOM      6  C5  UNL d   1      -4.740  -3.075  -3.742  0.00  0.00     0.034 A 
ATOM      7 Cl   UNL d   1      -2.372  -4.095  -3.001  0.00  0.00    -0.070 Cl
ATOM      8 Cl1  UNL d   1      -2.682  -5.982  -5.636  0.00  0.00    -0.070 Cl
ENDROOT
TORSDOF 0
ENDMDL
