MODEL 1
REMARK minimizedAffinity -2.38268971
REMARK minimizedRMSD -1
REMARK  0 active torsions:
REMARK  status: ('A' for Active; 'I' for Inactive)
ROOT
ATOM      1  C   UNL d   1      -1.954  -5.439  -5.752  0.00  0.00     0.020 A 
ATOM      2  C1  UNL d   1      -1.841  -4.136  -5.269  0.00  0.00     0.020 A 
ATOM      3  C2  UNL d   1      -2.989  -3.387  -5.004  0.00  0.00     0.034 A 
ATOM      4  C3  UNL d   1      -4.256  -3.941  -5.222  0.00  0.00     0.017 A 
ATOM      5  C4  UNL d   1      -4.369  -5.249  -5.706  0.00  0.00     0.017 A 
ATOM      6  C5  UNL d   1      -3.216  -5.994  -5.970  0.00  0.00     0.034 A 
ATOM      7 Cl   UNL d   1      -5.898  -6.000  -6.000  0.00  0.00    -0.070 Cl
ATOM      8 Cl1  UNL d   1      -5.634  -2.957  -4.873  0.00  0.00    -0.070 Cl
ENDROOT
TORSDOF 0
ENDMDL
