MODEL 1
REMARK minimizedAffinity 2.23215747
REMARK minimizedRMSD -1
REMARK  0 active torsions:
REMARK  status: ('A' for Active; 'I' for Inactive)
ROOT
ATOM      1  C   UNL d   1      -5.613  -3.960  -5.543  0.00  0.00     0.020 A 
ATOM      2  C1  UNL d   1      -5.611  -4.234  -4.176  0.00  0.00     0.020 A 
ATOM      3  C2  UNL d   1      -5.731  -3.192  -3.254  0.00  0.00     0.034 A 
ATOM      4  C3  UNL d   1      -5.852  -1.870  -3.698  0.00  0.00     0.017 A 
ATOM      5  C4  UNL d   1      -5.854  -1.596  -5.071  0.00  0.00     0.017 A 
ATOM      6  C5  UNL d   1      -5.734  -2.643  -5.989  0.00  0.00     0.034 A 
ATOM      7 Cl   UNL d   1      -6.000   0.010  -5.695  0.00  0.00    -0.070 Cl
ATOM      8 Cl1  UNL d   1      -5.996  -0.631  -2.503  0.00  0.00    -0.070 Cl
ENDROOT
TORSDOF 0
ENDMDL
