MODEL 1
REMARK minimizedAffinity 4.83328724
REMARK minimizedRMSD -1
REMARK  0 active torsions:
REMARK  status: ('A' for Active; 'I' for Inactive)
ROOT
ATOM      1  C   UNL d   1      -4.210  -2.489  -4.800  0.00  0.00     0.020 A 
ATOM      2  C1  UNL d   1      -3.934  -3.157  -5.992  0.00  0.00     0.020 A 
ATOM      3  C2  UNL d   1      -3.050  -4.238  -5.999  0.00  0.00     0.034 A 
ATOM      4  C3  UNL d   1      -2.439  -4.655  -4.811  0.00  0.00     0.017 A 
ATOM      5  C4  UNL d   1      -2.717  -3.984  -3.614  0.00  0.00     0.017 A 
ATOM      6  C5  UNL d   1      -3.603  -2.902  -3.613  0.00  0.00     0.034 A 
ATOM      7 Cl   UNL d   1      -2.001  -4.440  -2.108  0.00  0.00    -0.070 Cl
ATOM      8 Cl1  UNL d   1      -1.357  -5.999  -4.892  0.00  0.00    -0.070 Cl
ENDROOT
TORSDOF 0
ENDMDL
