MODEL 1
REMARK minimizedAffinity -2.17658806
REMARK minimizedRMSD -1
REMARK  0 active torsions:
REMARK  status: ('A' for Active; 'I' for Inactive)
ROOT
ATOM      1  C   UNL d   1      -3.552  -6.000  -5.475  0.00  0.00     0.020 A 
ATOM      2  C1  UNL d   1      -4.807  -5.694  -6.000  0.00  0.00     0.020 A 
ATOM      3  C2  UNL d   1      -5.526  -4.607  -5.501  0.00  0.00     0.034 A 
ATOM      4  C3  UNL d   1      -4.992  -3.821  -4.473  0.00  0.00     0.017 A 
ATOM      5  C4  UNL d   1      -3.732  -4.129  -3.947  0.00  0.00     0.017 A 
ATOM      6  C5  UNL d   1      -3.016  -5.219  -4.451  0.00  0.00     0.034 A 
ATOM      7 Cl   UNL d   1      -3.007  -3.205  -2.678  0.00  0.00    -0.070 Cl
ATOM      8 Cl1  UNL d   1      -5.937  -2.491  -3.904  0.00  0.00    -0.070 Cl
ENDROOT
TORSDOF 0
ENDMDL
