MODEL 1
REMARK minimizedAffinity -3.34121013
REMARK minimizedRMSD -1
REMARK  0 active torsions:
REMARK  status: ('A' for Active; 'I' for Inactive)
ROOT
ATOM      1  C   UNL d   1      -2.061  -4.094  -5.923  0.00  0.00     0.020 A 
ATOM      2  C1  UNL d   1      -2.302  -5.252  -5.185  0.00  0.00     0.020 A 
ATOM      3  C2  UNL d   1      -3.513  -5.409  -4.507  0.00  0.00     0.034 A 
ATOM      4  C3  UNL d   1      -4.487  -4.407  -4.566  0.00  0.00     0.017 A 
ATOM      5  C4  UNL d   1      -4.245  -3.244  -5.307  0.00  0.00     0.017 A 
ATOM      6  C5  UNL d   1      -3.031  -3.092  -5.983  0.00  0.00     0.034 A 
ATOM      7 Cl   UNL d   1      -5.399  -1.963  -5.426  0.00  0.00    -0.070 Cl
ATOM      8 Cl1  UNL d   1      -5.962  -4.668  -3.704  0.00  0.00    -0.070 Cl
ENDROOT
TORSDOF 0
ENDMDL
