MODEL 1
REMARK minimizedAffinity 4.41230297
REMARK minimizedRMSD -1
REMARK  0 active torsions:
REMARK  status: ('A' for Active; 'I' for Inactive)
ROOT
ATOM      1  C   UNL d   1      -5.302  -5.933  -5.951  0.00  0.00     0.020 A 
ATOM      2  C1  UNL d   1      -5.999  -4.726  -5.964  0.00  0.00     0.020 A 
ATOM      3  C2  UNL d   1      -5.301  -3.517  -5.979  0.00  0.00     0.034 A 
ATOM      4  C3  UNL d   1      -3.901  -3.512  -5.980  0.00  0.00     0.017 A 
ATOM      5  C4  UNL d   1      -3.202  -4.724  -5.966  0.00  0.00     0.017 A 
ATOM      6  C5  UNL d   1      -3.906  -5.932  -5.952  0.00  0.00     0.034 A 
ATOM      7 Cl   UNL d   1      -1.475  -4.798  -5.967  0.00  0.00    -0.070 Cl
ATOM      8 Cl1  UNL d   1      -3.103  -1.979  -5.998  0.00  0.00    -0.070 Cl
ENDROOT
TORSDOF 0
ENDMDL
