MODEL 1
REMARK minimizedAffinity -1.79347074
REMARK minimizedRMSD -1
REMARK  0 active torsions:
REMARK  status: ('A' for Active; 'I' for Inactive)
ROOT
ATOM      1  C   UNL d   1      -2.060  -5.430  -5.946  0.00  0.00     0.020 A 
ATOM      2  C1  UNL d   1      -1.898  -4.087  -5.606  0.00  0.00     0.020 A 
ATOM      3  C2  UNL d   1      -3.010  -3.313  -5.270  0.00  0.00     0.034 A 
ATOM      4  C3  UNL d   1      -4.290  -3.880  -5.272  0.00  0.00     0.017 A 
ATOM      5  C4  UNL d   1      -4.452  -5.228  -5.613  0.00  0.00     0.017 A 
ATOM      6  C5  UNL d   1      -3.335  -5.999  -5.949  0.00  0.00     0.034 A 
ATOM      7 Cl   UNL d   1      -5.999  -5.998  -5.638  0.00  0.00    -0.070 Cl
ATOM      8 Cl1  UNL d   1      -5.620  -2.864  -4.845  0.00  0.00    -0.070 Cl
ENDROOT
TORSDOF 0
ENDMDL
