MODEL 1
REMARK minimizedAffinity -0.962363362
REMARK minimizedRMSD -1
REMARK  0 active torsions:
REMARK  status: ('A' for Active; 'I' for Inactive)
ROOT
ATOM      1  C   UNL d   1      -1.987  -5.447  -5.721  0.00  0.00     0.020 A 
ATOM      2  C1  UNL d   1      -1.874  -4.145  -5.236  0.00  0.00     0.020 A 
ATOM      3  C2  UNL d   1      -3.023  -3.394  -4.978  0.00  0.00     0.034 A 
ATOM      4  C3  UNL d   1      -4.289  -3.944  -5.205  0.00  0.00     0.017 A 
ATOM      5  C4  UNL d   1      -4.402  -5.252  -5.692  0.00  0.00     0.017 A 
ATOM      6  C5  UNL d   1      -3.248  -5.999  -5.948  0.00  0.00     0.034 A 
ATOM      7 Cl   UNL d   1      -5.930  -5.999  -5.996  0.00  0.00    -0.070 Cl
ATOM      8 Cl1  UNL d   1      -5.667  -2.958  -4.864  0.00  0.00    -0.070 Cl
ENDROOT
TORSDOF 0
ENDMDL
