MODEL 1
REMARK minimizedAffinity 1.8162415
REMARK minimizedRMSD -1
REMARK  0 active torsions:
REMARK  status: ('A' for Active; 'I' for Inactive)
ROOT
ATOM      1  C   UNL d   1      -4.765  -4.806  -5.134  0.00  0.00     0.020 A 
ATOM      2  C1  UNL d   1      -3.708  -4.497  -5.990  0.00  0.00     0.020 A 
ATOM      3  C2  UNL d   1      -2.390  -4.650  -5.554  0.00  0.00     0.034 A 
ATOM      4  C3  UNL d   1      -2.125  -5.111  -4.260  0.00  0.00     0.017 A 
ATOM      5  C4  UNL d   1      -3.187  -5.421  -3.402  0.00  0.00     0.017 A 
ATOM      6  C5  UNL d   1      -4.505  -5.266  -3.843  0.00  0.00     0.034 A 
ATOM      7 Cl   UNL d   1      -2.939  -5.996  -1.791  0.00  0.00    -0.070 Cl
ATOM      8 Cl1  UNL d   1      -0.471  -5.276  -3.788  0.00  0.00    -0.070 Cl
ENDROOT
TORSDOF 0
ENDMDL
