MODEL 1
REMARK minimizedAffinity -2.93262601
REMARK minimizedRMSD -1
REMARK  0 active torsions:
REMARK  status: ('A' for Active; 'I' for Inactive)
ROOT
ATOM      1  C   UNL d   1      -2.198  -5.970  -4.906  0.00  0.00     0.020 A 
ATOM      2  C1  UNL d   1      -1.701  -4.919  -5.675  0.00  0.00     0.020 A 
ATOM      3  C2  UNL d   1      -2.526  -3.840  -6.000  0.00  0.00     0.034 A 
ATOM      4  C3  UNL d   1      -3.853  -3.810  -5.555  0.00  0.00     0.017 A 
ATOM      5  C4  UNL d   1      -4.351  -4.866  -4.783  0.00  0.00     0.017 A 
ATOM      6  C5  UNL d   1      -3.520  -5.943  -4.461  0.00  0.00     0.034 A 
ATOM      7 Cl   UNL d   1      -5.977  -4.899  -4.198  0.00  0.00    -0.070 Cl
ATOM      8 Cl1  UNL d   1      -4.816  -2.445  -5.994  0.00  0.00    -0.070 Cl
ENDROOT
TORSDOF 0
ENDMDL
