MODEL 1
REMARK minimizedAffinity 0.950687349
REMARK minimizedRMSD -1
REMARK  0 active torsions:
REMARK  status: ('A' for Active; 'I' for Inactive)
ROOT
ATOM      1  C   UNL d   1      -3.316  -3.072  -5.882  0.00  0.00     0.020 A 
ATOM      2  C1  UNL d   1      -4.115  -3.076  -4.739  0.00  0.00     0.020 A 
ATOM      3  C2  UNL d   1      -3.861  -3.989  -3.713  0.00  0.00     0.034 A 
ATOM      4  C3  UNL d   1      -2.805  -4.900  -3.827  0.00  0.00     0.017 A 
ATOM      5  C4  UNL d   1      -2.004  -4.895  -4.974  0.00  0.00     0.017 A 
ATOM      6  C5  UNL d   1      -2.263  -3.980  -5.999  0.00  0.00     0.034 A 
ATOM      7 Cl   UNL d   1      -0.683  -5.990  -5.187  0.00  0.00    -0.070 Cl
ATOM      8 Cl1  UNL d   1      -2.548  -6.000  -2.519  0.00  0.00    -0.070 Cl
ENDROOT
TORSDOF 0
ENDMDL
