MODEL 1
REMARK minimizedAffinity -2.13187718
REMARK minimizedRMSD -1
REMARK  0 active torsions:
REMARK  status: ('A' for Active; 'I' for Inactive)
ROOT
ATOM      1  C   UNL d   1      -5.703  -2.663  -4.186  0.00  0.00     0.020 A 
ATOM      2  C1  UNL d   1      -5.741  -3.142  -5.495  0.00  0.00     0.020 A 
ATOM      3  C2  UNL d   1      -4.670  -3.883  -5.999  0.00  0.00     0.034 A 
ATOM      4  C3  UNL d   1      -3.556  -4.147  -5.194  0.00  0.00     0.017 A 
ATOM      5  C4  UNL d   1      -3.519  -3.666  -3.880  0.00  0.00     0.017 A 
ATOM      6  C5  UNL d   1      -4.594  -2.924  -3.381  0.00  0.00     0.034 A 
ATOM      7 Cl   UNL d   1      -2.179  -3.951  -2.827  0.00  0.00    -0.070 Cl
ATOM      8 Cl1  UNL d   1      -2.268  -5.070  -5.882  0.00  0.00    -0.070 Cl
ENDROOT
TORSDOF 0
ENDMDL
