MODEL 1
REMARK minimizedAffinity -1.86539149
REMARK minimizedRMSD -1
REMARK  0 active torsions:
REMARK  status: ('A' for Active; 'I' for Inactive)
ROOT
ATOM      1  C   UNL d   1      -2.032  -5.564  -5.663  0.00  0.00     0.020 A 
ATOM      2  C1  UNL d   1      -1.861  -4.414  -4.895  0.00  0.00     0.020 A 
ATOM      3  C2  UNL d   1      -2.975  -3.696  -4.455  0.00  0.00     0.034 A 
ATOM      4  C3  UNL d   1      -4.265  -4.127  -4.783  0.00  0.00     0.017 A 
ATOM      5  C4  UNL d   1      -4.436  -5.283  -5.555  0.00  0.00     0.017 A 
ATOM      6  C5  UNL d   1      -3.317  -5.998  -5.992  0.00  0.00     0.034 A 
ATOM      7 Cl   UNL d   1      -5.997  -5.878  -6.000  0.00  0.00    -0.070 Cl
ATOM      8 Cl1  UNL d   1      -5.597  -3.191  -4.205  0.00  0.00    -0.070 Cl
ENDROOT
TORSDOF 0
ENDMDL
