MODEL 1
REMARK minimizedAffinity 1.66575718
REMARK minimizedRMSD -1
REMARK  0 active torsions:
REMARK  status: ('A' for Active; 'I' for Inactive)
ROOT
ATOM      1  C   UNL d   1      -2.142  -6.000  -4.880  0.00  0.00     0.020 A 
ATOM      2  C1  UNL d   1      -2.923  -5.717  -6.000  0.00  0.00     0.020 A 
ATOM      3  C2  UNL d   1      -3.814  -4.642  -5.976  0.00  0.00     0.034 A 
ATOM      4  C3  UNL d   1      -3.927  -3.846  -4.831  0.00  0.00     0.017 A 
ATOM      5  C4  UNL d   1      -3.142  -4.131  -3.707  0.00  0.00     0.017 A 
ATOM      6  C5  UNL d   1      -2.252  -5.208  -3.736  0.00  0.00     0.034 A 
ATOM      7 Cl   UNL d   1      -3.226  -3.194  -2.257  0.00  0.00    -0.070 Cl
ATOM      8 Cl1  UNL d   1      -5.049  -2.533  -4.872  0.00  0.00    -0.070 Cl
ENDROOT
TORSDOF 0
ENDMDL
