MODEL 1
REMARK minimizedAffinity 4.45723391
REMARK minimizedRMSD -1
REMARK  0 active torsions:
REMARK  status: ('A' for Active; 'I' for Inactive)
ROOT
ATOM      1  C   UNL d   1      -5.901  -2.450  -5.404  0.00  0.00     0.020 A 
ATOM      2  C1  UNL d   1      -5.829  -2.194  -4.036  0.00  0.00     0.020 A 
ATOM      3  C2  UNL d   1      -4.888  -2.860  -3.248  0.00  0.00     0.034 A 
ATOM      4  C3  UNL d   1      -4.014  -3.786  -3.829  0.00  0.00     0.017 A 
ATOM      5  C4  UNL d   1      -4.086  -4.043  -5.203  0.00  0.00     0.017 A 
ATOM      6  C5  UNL d   1      -5.031  -3.373  -5.986  0.00  0.00     0.034 A 
ATOM      7 Cl   UNL d   1      -3.042  -5.173  -5.991  0.00  0.00    -0.070 Cl
ATOM      8 Cl1  UNL d   1      -2.875  -4.573  -2.795  0.00  0.00    -0.070 Cl
ENDROOT
TORSDOF 0
ENDMDL
