MODEL 1
REMARK minimizedAffinity 3.98051953
REMARK minimizedRMSD -1
REMARK  0 active torsions:
REMARK  status: ('A' for Active; 'I' for Inactive)
ROOT
ATOM      1  C   UNL d   1       1.355   3.880   2.476  0.00  0.00    -0.002 A 
ATOM      2  C1  UNL d   1       0.903   4.302   1.234  0.00  0.00     0.010 A 
ATOM      3  C2  UNL d   1       0.480   3.374   0.280  0.00  0.00     0.041 A 
ATOM      4  C3  UNL d   1       0.517   2.003   0.600  0.00  0.00    -0.075 A 
ATOM      5  S   UNL d   1       0.046   0.687  -0.410  0.00  0.00     0.015 SA
ATOM      6  C4  UNL d   1       0.433  -0.466   0.784  0.00  0.00     0.022 A 
ATOM      7  C5  UNL d   1       0.911   0.122   1.932  0.00  0.00     0.026 A 
ATOM      8  C6  UNL d   1       0.967   1.554   1.844  0.00  0.00    -0.082 A 
ATOM      9  C7  UNL d   1       1.391   2.519   2.790  0.00  0.00     0.045 A 
ENDROOT
TORSDOF 0
ENDMDL
