MODEL 1
REMARK minimizedAffinity 2.47580099
REMARK minimizedRMSD -1
REMARK  0 active torsions:
REMARK  status: ('A' for Active; 'I' for Inactive)
ROOT
ATOM      1  C   UNL d   1      -0.592   0.224  -0.872  0.00  0.00     0.078 C 
ATOM      2  C1  UNL d   1      -0.517  -0.036   0.603  0.00  0.00    -0.077 A 
ATOM      3  C2  UNL d   1      -1.340   0.655   1.501  0.00  0.00    -0.001 A 
ATOM      4  C3  UNL d   1      -1.252   0.409   2.872  0.00  0.00     0.003 A 
ATOM      5  C4  UNL d   1      -0.341  -0.526   3.358  0.00  0.00    -0.005 A 
ATOM      6  C5  UNL d   1       0.484  -1.217   2.473  0.00  0.00     0.003 A 
ATOM      7  C6  UNL d   1       0.397  -0.973   1.101  0.00  0.00    -0.001 A 
ENDROOT
TORSDOF 0
ENDMDL
