MODEL 1
REMARK minimizedAffinity -4.52092981
REMARK minimizedRMSD -1
REMARK  0 active torsions:
REMARK  status: ('A' for Active; 'I' for Inactive)
ROOT
ATOM      1  C   UNL d   1      -0.452   1.009  -1.609  0.00  0.00     0.078 C 
ATOM      2  C1  UNL d   1      -0.109   0.237  -0.370  0.00  0.00    -0.077 A 
ATOM      3  C2  UNL d   1      -0.839   0.407   0.812  0.00  0.00    -0.001 A 
ATOM      4  C3  UNL d   1      -0.502  -0.311   1.960  0.00  0.00     0.003 A 
ATOM      5  C4  UNL d   1       0.567  -1.204   1.938  0.00  0.00    -0.005 A 
ATOM      6  C5  UNL d   1       1.301  -1.379   0.767  0.00  0.00     0.003 A 
ATOM      7  C6  UNL d   1       0.966  -0.662  -0.383  0.00  0.00    -0.001 A 
ENDROOT
TORSDOF 0
ENDMDL
