MODEL 1
REMARK minimizedAffinity -3.22781587
REMARK minimizedRMSD -1
REMARK  0 active torsions:
REMARK  status: ('A' for Active; 'I' for Inactive)
ROOT
ATOM      1  C   UNL d   1       2.612  -1.357   0.467  0.00  0.00     0.078 C 
ATOM      2  C1  UNL d   1       1.481  -0.569  -0.122  0.00  0.00    -0.077 A 
ATOM      3  C2  UNL d   1       0.783   0.373   0.644  0.00  0.00    -0.001 A 
ATOM      4  C3  UNL d   1      -0.275   1.092   0.085  0.00  0.00     0.003 A 
ATOM      5  C4  UNL d   1      -0.645   0.877  -1.241  0.00  0.00    -0.005 A 
ATOM      6  C5  UNL d   1       0.043  -0.060  -2.010  0.00  0.00     0.003 A 
ATOM      7  C6  UNL d   1       1.100  -0.780  -1.453  0.00  0.00    -0.001 A 
ENDROOT
TORSDOF 0
ENDMDL
