MODEL 1
REMARK minimizedAffinity -3.83983588
REMARK minimizedRMSD -1
REMARK  0 active torsions:
REMARK  status: ('A' for Active; 'I' for Inactive)
ROOT
ATOM      1  C   UNL d   1      -0.340   2.562  -1.583  0.00  0.00     0.078 C 
ATOM      2  C1  UNL d   1      -0.062   1.350  -0.744  0.00  0.00    -0.077 A 
ATOM      3  C2  UNL d   1       1.214   1.116  -0.216  0.00  0.00    -0.001 A 
ATOM      4  C3  UNL d   1       1.461  -0.021   0.554  0.00  0.00     0.003 A 
ATOM      5  C4  UNL d   1       0.438  -0.933   0.803  0.00  0.00    -0.005 A 
ATOM      6  C5  UNL d   1      -0.834  -0.710   0.280  0.00  0.00     0.003 A 
ATOM      7  C6  UNL d   1      -1.083   0.426  -0.491  0.00  0.00    -0.001 A 
ENDROOT
TORSDOF 0
ENDMDL
