MODEL 1
REMARK minimizedAffinity -5.4643364
REMARK minimizedRMSD -1
REMARK  0 active torsions:
REMARK  status: ('A' for Active; 'I' for Inactive)
ROOT
ATOM      1  C   UNL d   1      -0.372   1.192  -1.130  0.00  0.00     0.078 C 
ATOM      2  C1  UNL d   1      -0.083   0.534   0.186  0.00  0.00    -0.077 A 
ATOM      3  C2  UNL d   1      -1.119   0.041   0.989  0.00  0.00    -0.001 A 
ATOM      4  C3  UNL d   1      -0.836  -0.560   2.216  0.00  0.00     0.003 A 
ATOM      5  C4  UNL d   1       0.482  -0.673   2.653  0.00  0.00    -0.005 A 
ATOM      6  C5  UNL d   1       1.520  -0.183   1.862  0.00  0.00     0.003 A 
ATOM      7  C6  UNL d   1       1.239   0.419   0.634  0.00  0.00    -0.001 A 
ENDROOT
TORSDOF 0
ENDMDL
