MODEL 1
REMARK minimizedAffinity -4.93196678
REMARK minimizedRMSD -1
REMARK  0 active torsions:
REMARK  status: ('A' for Active; 'I' for Inactive)
ROOT
ATOM      1  C   UNL d   1      -0.204   0.443  -1.227  0.00  0.00     0.078 C 
ATOM      2  C1  UNL d   1       0.035  -0.027   0.176  0.00  0.00    -0.077 A 
ATOM      3  C2  UNL d   1      -1.023  -0.149   1.086  0.00  0.00    -0.001 A 
ATOM      4  C3  UNL d   1      -0.784  -0.578   2.393  0.00  0.00     0.003 A 
ATOM      5  C4  UNL d   1       0.511  -0.889   2.802  0.00  0.00    -0.005 A 
ATOM      6  C5  UNL d   1       1.570  -0.769   1.904  0.00  0.00     0.003 A 
ATOM      7  C6  UNL d   1       1.334  -0.340   0.597  0.00  0.00    -0.001 A 
ENDROOT
TORSDOF 0
ENDMDL
