MODEL 1
REMARK minimizedAffinity -3.73322177
REMARK minimizedRMSD -1
REMARK  0 active torsions:
REMARK  status: ('A' for Active; 'I' for Inactive)
ROOT
ATOM      1  C2' OXE d   1      -0.354   2.776   1.220  0.00  0.00     0.078 C 
ATOM      2  C1' OXE d   1       1.089   2.010  -1.064  0.00  0.00     0.078 C 
ATOM      3  C1  OXE d   1       0.334   0.939  -0.316  0.00  0.00    -0.078 A 
ATOM      4  C2  OXE d   1      -0.330   1.314   0.827  0.00  0.00    -0.078 A 
ATOM      5  C3  OXE d   1      -1.087   0.377   1.524  0.00  0.00     0.003 A 
ATOM      6  C4  OXE d   1      -1.052  -0.975   1.160  0.00  0.00    -0.002 A 
ATOM      7  C5  OXE d   1      -0.349  -1.385   0.022  0.00  0.00    -0.002 A 
ATOM      8  C6  OXE d   1       0.313  -0.437  -0.749  0.00  0.00     0.003 A 
ENDROOT
TORSDOF 0
ENDMDL
