MODEL 1
REMARK minimizedAffinity -4.88339663
REMARK minimizedRMSD -1
REMARK  0 active torsions:
REMARK  status: ('A' for Active; 'I' for Inactive)
ROOT
ATOM      1  C2' OXE d   1       1.728  -1.153   0.585  0.00  0.00     0.078 C 
ATOM      2  C1' OXE d   1      -0.753  -0.337  -0.443  0.00  0.00     0.078 C 
ATOM      3  C1  OXE d   1       0.289   0.724  -0.195  0.00  0.00    -0.078 A 
ATOM      4  C2  OXE d   1       1.484   0.322   0.352  0.00  0.00    -0.078 A 
ATOM      5  C3  OXE d   1       2.500   1.253   0.550  0.00  0.00     0.003 A 
ATOM      6  C4  OXE d   1       2.262   2.617   0.341  0.00  0.00    -0.002 A 
ATOM      7  C5  OXE d   1       1.038   3.053  -0.178  0.00  0.00    -0.002 A 
ATOM      8  C6  OXE d   1       0.059   2.117  -0.491  0.00  0.00     0.003 A 
ENDROOT
TORSDOF 0
ENDMDL
