MODEL 1
REMARK minimizedAffinity -4.10483789
REMARK minimizedRMSD -1
REMARK  0 active torsions:
REMARK  status: ('A' for Active; 'I' for Inactive)
ROOT
ATOM      1  C2' OXE d   1      -1.789   0.439   1.591  0.00  0.00     0.078 C 
ATOM      2  C1' OXE d   1       0.128  -1.057   0.188  0.00  0.00     0.078 C 
ATOM      3  C1  OXE d   1       0.195   0.446   0.085  0.00  0.00    -0.078 A 
ATOM      4  C2  OXE d   1      -0.775   1.169   0.737  0.00  0.00    -0.078 A 
ATOM      5  C3  OXE d   1      -0.727   2.560   0.720  0.00  0.00     0.003 A 
ATOM      6  C4  OXE d   1       0.208   3.227  -0.080  0.00  0.00    -0.002 A 
ATOM      7  C5  OXE d   1       1.181   2.509  -0.784  0.00  0.00    -0.002 A 
ATOM      8  C6  OXE d   1       1.215   1.123  -0.678  0.00  0.00     0.003 A 
ENDROOT
TORSDOF 0
ENDMDL
