MODEL 1
REMARK minimizedAffinity -5.1718359
REMARK minimizedRMSD -1
REMARK  0 active torsions:
REMARK  status: ('A' for Active; 'I' for Inactive)
ROOT
ATOM      1  C2' OXE d   1       2.729   0.352  -0.046  0.00  0.00     0.078 C 
ATOM      2  C1' OXE d   1       0.417  -1.236  -0.151  0.00  0.00     0.078 C 
ATOM      3  C1  OXE d   1       0.240   0.256  -0.023  0.00  0.00    -0.078 A 
ATOM      4  C2  OXE d   1       1.377   1.021   0.075  0.00  0.00    -0.078 A 
ATOM      5  C3  OXE d   1       1.272   2.408   0.140  0.00  0.00     0.003 A 
ATOM      6  C4  OXE d   1       0.018   3.018   0.262  0.00  0.00    -0.002 A 
ATOM      7  C5  OXE d   1      -1.153   2.254   0.204  0.00  0.00    -0.002 A 
ATOM      8  C6  OXE d   1      -1.060   0.879   0.020  0.00  0.00     0.003 A 
ENDROOT
TORSDOF 0
ENDMDL
