MODEL 1
REMARK minimizedAffinity -3.9531002
REMARK minimizedRMSD -1
REMARK  0 active torsions:
REMARK  status: ('A' for Active; 'I' for Inactive)
ROOT
ATOM      1  C2' OXE d   1       0.543  -1.349   0.391  0.00  0.00     0.078 C 
ATOM      2  C1' OXE d   1       2.728   0.414   0.360  0.00  0.00     0.078 C 
ATOM      3  C1  OXE d   1       1.344   1.010   0.426  0.00  0.00    -0.078 A 
ATOM      4  C2  OXE d   1       0.279   0.142   0.393  0.00  0.00    -0.078 A 
ATOM      5  C3  OXE d   1      -1.017   0.636   0.507  0.00  0.00     0.003 A 
ATOM      6  C4  OXE d   1      -1.253   2.016   0.499  0.00  0.00    -0.002 A 
ATOM      7  C5  OXE d   1      -0.185   2.919   0.492  0.00  0.00    -0.002 A 
ATOM      8  C6  OXE d   1       1.118   2.433   0.499  0.00  0.00     0.003 A 
ENDROOT
TORSDOF 0
ENDMDL
