MODEL 1
REMARK minimizedAffinity -4.1395483
REMARK minimizedRMSD -1
REMARK  0 active torsions:
REMARK  status: ('A' for Active; 'I' for Inactive)
ROOT
ATOM      1  C2' OXE d   1      -2.127   0.336   1.509  0.00  0.00     0.078 C 
ATOM      2  C1' OXE d   1      -0.502  -1.116  -0.261  0.00  0.00     0.078 C 
ATOM      3  C1  OXE d   1      -0.252   0.366  -0.131  0.00  0.00    -0.078 A 
ATOM      4  C2  OXE d   1      -1.082   1.077   0.702  0.00  0.00    -0.078 A 
ATOM      5  C3  OXE d   1      -0.861   2.436   0.900  0.00  0.00     0.003 A 
ATOM      6  C4  OXE d   1       0.101   3.116   0.143  0.00  0.00    -0.002 A 
ATOM      7  C5  OXE d   1       0.931   2.418  -0.741  0.00  0.00    -0.002 A 
ATOM      8  C6  OXE d   1       0.796   1.039  -0.857  0.00  0.00     0.003 A 
ENDROOT
TORSDOF 0
ENDMDL
