MODEL 1
REMARK minimizedAffinity -3.37384105
REMARK minimizedRMSD -1
REMARK  0 active torsions:
REMARK  status: ('A' for Active; 'I' for Inactive)
ROOT
ATOM      1  C2' OXE d   1       2.907   1.851   0.400  0.00  0.00     0.078 C 
ATOM      2  C1' OXE d   1       0.494   3.283   0.488  0.00  0.00     0.078 C 
ATOM      3  C1  OXE d   1       0.417   1.779   0.408  0.00  0.00    -0.078 A 
ATOM      4  C2  OXE d   1       1.602   1.089   0.318  0.00  0.00    -0.078 A 
ATOM      5  C3  OXE d   1       1.589  -0.303   0.296  0.00  0.00     0.003 A 
ATOM      6  C4  OXE d   1       0.378  -1.000   0.211  0.00  0.00    -0.002 A 
ATOM      7  C5  OXE d   1      -0.840  -0.314   0.261  0.00  0.00    -0.002 A 
ATOM      8  C6  OXE d   1      -0.839   1.069   0.402  0.00  0.00     0.003 A 
ENDROOT
TORSDOF 0
ENDMDL
