MODEL 1
REMARK minimizedAffinity -3.62544346
REMARK minimizedRMSD -1
REMARK  0 active torsions:
REMARK  status: ('A' for Active; 'I' for Inactive)
ROOT
ATOM      1  C2' OXE d   1       1.571   2.261  -0.762  0.00  0.00     0.078 C 
ATOM      2  C1' OXE d   1      -0.132   3.033   1.332  0.00  0.00     0.078 C 
ATOM      3  C1  OXE d   1      -0.232   1.614   0.831  0.00  0.00    -0.078 A 
ATOM      4  C2  OXE d   1       0.572   1.258  -0.225  0.00  0.00    -0.078 A 
ATOM      5  C3  OXE d   1       0.559  -0.054  -0.691  0.00  0.00     0.003 A 
ATOM      6  C4  OXE d   1      -0.375  -0.972  -0.195  0.00  0.00    -0.002 A 
ATOM      7  C5  OXE d   1      -1.230  -0.619   0.853  0.00  0.00    -0.002 A 
ATOM      8  C6  OXE d   1      -1.143   0.655   1.405  0.00  0.00     0.003 A 
ENDROOT
TORSDOF 0
ENDMDL
