MODEL 1
REMARK minimizedAffinity -3.51767278
REMARK minimizedRMSD -1
REMARK  0 active torsions:
REMARK  status: ('A' for Active; 'I' for Inactive)
ROOT
ATOM      1  C2' OXE d   1      -1.796   0.079   1.385  0.00  0.00     0.078 C 
ATOM      2  C1' OXE d   1       0.012  -1.315  -0.249  0.00  0.00     0.078 C 
ATOM      3  C1  OXE d   1       0.179   0.179  -0.130  0.00  0.00    -0.078 A 
ATOM      4  C2  OXE d   1      -0.739   0.859   0.635  0.00  0.00    -0.078 A 
ATOM      5  C3  OXE d   1      -0.598   2.231   0.822  0.00  0.00     0.003 A 
ATOM      6  C4  OXE d   1       0.376   2.947   0.116  0.00  0.00    -0.002 A 
ATOM      7  C5  OXE d   1       1.296   2.279  -0.699  0.00  0.00    -0.002 A 
ATOM      8  C6  OXE d   1       1.238   0.893  -0.799  0.00  0.00     0.003 A 
ENDROOT
TORSDOF 0
ENDMDL
