MODEL 1
REMARK minimizedAffinity 0.960432768
REMARK minimizedRMSD -1
REMARK  0 active torsions:
REMARK  status: ('A' for Active; 'I' for Inactive)
ROOT
ATOM      1  C2' OXE d   1       2.237  -0.355   0.402  0.00  0.00     0.078 C 
ATOM      2  C1' OXE d   1      -0.200  -1.000  -0.832  0.00  0.00     0.078 C 
ATOM      3  C1  OXE d   1      -0.107   0.317  -0.104  0.00  0.00    -0.078 A 
ATOM      4  C2  OXE d   1       1.074   0.604   0.537  0.00  0.00    -0.078 A 
ATOM      5  C3  OXE d   1       1.231   1.829   1.178  0.00  0.00     0.003 A 
ATOM      6  C4  OXE d   1       0.147   2.706   1.306  0.00  0.00    -0.002 A 
ATOM      7  C5  OXE d   1      -1.077   2.416   0.695  0.00  0.00    -0.002 A 
ATOM      8  C6  OXE d   1      -1.208   1.248  -0.048  0.00  0.00     0.003 A 
ENDROOT
TORSDOF 0
ENDMDL
