MODEL 1
REMARK minimizedAffinity -2.45031261
REMARK minimizedRMSD -1
REMARK  0 active torsions:
REMARK  status: ('A' for Active; 'I' for Inactive)
ROOT
ATOM      1  C2' OXE d   1       0.588  -1.520   0.148  0.00  0.00     0.078 C 
ATOM      2  C1' OXE d   1       2.678   0.337   0.395  0.00  0.00     0.078 C 
ATOM      3  C1  OXE d   1       1.274   0.872   0.270  0.00  0.00    -0.078 A 
ATOM      4  C2  OXE d   1       0.262  -0.043   0.102  0.00  0.00    -0.078 A 
ATOM      5  C3  OXE d   1      -1.058   0.394   0.036  0.00  0.00     0.003 A 
ATOM      6  C4  OXE d   1      -1.350   1.763  -0.016  0.00  0.00    -0.002 A 
ATOM      7  C5  OXE d   1      -0.330   2.711   0.113  0.00  0.00    -0.002 A 
ATOM      8  C6  OXE d   1       0.979   2.283   0.299  0.00  0.00     0.003 A 
ENDROOT
TORSDOF 0
ENDMDL
