MODEL 1
REMARK minimizedAffinity -3.26358581
REMARK minimizedRMSD -1
REMARK  0 active torsions:
REMARK  status: ('A' for Active; 'I' for Inactive)
ROOT
ATOM      1  C2' OXE d   1       0.061  -0.643  -1.496  0.00  0.00     0.078 C 
ATOM      2  C1' OXE d   1      -0.314  -0.622   1.286  0.00  0.00     0.078 C 
ATOM      3  C1  OXE d   1      -0.189   0.707   0.583  0.00  0.00    -0.078 A 
ATOM      4  C2  OXE d   1       0.041   0.686  -0.772  0.00  0.00    -0.078 A 
ATOM      5  C3  OXE d   1       0.110   1.884  -1.477  0.00  0.00     0.003 A 
ATOM      6  C4  OXE d   1       0.101   3.108  -0.798  0.00  0.00    -0.002 A 
ATOM      7  C5  OXE d   1      -0.092   3.151   0.587  0.00  0.00    -0.002 A 
ATOM      8  C6  OXE d   1      -0.281   1.963   1.285  0.00  0.00     0.003 A 
ENDROOT
TORSDOF 0
ENDMDL
