MODEL 1
REMARK minimizedAffinity -4.28057718
REMARK minimizedRMSD -1
REMARK  0 active torsions:
REMARK  status: ('A' for Active; 'I' for Inactive)
ROOT
ATOM      1  C2' OXE d   1      -1.286   0.357  -0.337  0.00  0.00     0.078 C 
ATOM      2  C1' OXE d   1       0.264   2.686  -0.572  0.00  0.00     0.078 C 
ATOM      3  C1  OXE d   1       0.957   1.422  -0.129  0.00  0.00    -0.078 A 
ATOM      4  C2  OXE d   1       0.182   0.298   0.028  0.00  0.00    -0.078 A 
ATOM      5  C3  OXE d   1       0.780  -0.908   0.382  0.00  0.00     0.003 A 
ATOM      6  C4  OXE d   1       2.137  -0.951   0.727  0.00  0.00    -0.002 A 
ATOM      7  C5  OXE d   1       2.936   0.191   0.612  0.00  0.00    -0.002 A 
ATOM      8  C6  OXE d   1       2.372   1.373   0.146  0.00  0.00     0.003 A 
ENDROOT
TORSDOF 0
ENDMDL
