MODEL 1
REMARK minimizedAffinity -5.04616356
REMARK minimizedRMSD -1
REMARK  0 active torsions:
REMARK  status: ('A' for Active; 'I' for Inactive)
ROOT
ATOM      1  C2' OXE d   1      -2.117   0.568   0.910  0.00  0.00     0.078 C 
ATOM      2  C1' OXE d   1       0.101  -0.985   0.170  0.00  0.00     0.078 C 
ATOM      3  C1  OXE d   1       0.246   0.516   0.123  0.00  0.00    -0.078 A 
ATOM      4  C2  OXE d   1      -0.859   1.268   0.442  0.00  0.00    -0.078 A 
ATOM      5  C3  OXE d   1      -0.764   2.656   0.468  0.00  0.00     0.003 A 
ATOM      6  C4  OXE d   1       0.400   3.295   0.024  0.00  0.00    -0.002 A 
ATOM      7  C5  OXE d   1       1.525   2.548  -0.343  0.00  0.00    -0.002 A 
ATOM      8  C6  OXE d   1       1.478   1.161  -0.259  0.00  0.00     0.003 A 
ENDROOT
TORSDOF 0
ENDMDL
