MODEL 1
REMARK minimizedAffinity 2.90292048
REMARK minimizedRMSD -1
REMARK  0 active torsions:
REMARK  status: ('A' for Active; 'I' for Inactive)
ROOT
ATOM      1  C2' OXE d   1      -0.673  -0.381  -0.621  0.00  0.00     0.078 C 
ATOM      2  C1' OXE d   1       0.238   1.939  -1.913  0.00  0.00     0.078 C 
ATOM      3  C1  OXE d   1       1.241   1.131  -1.128  0.00  0.00    -0.078 A 
ATOM      4  C2  OXE d   1       0.777   0.023  -0.461  0.00  0.00    -0.078 A 
ATOM      5  C3  OXE d   1       1.670  -0.789   0.233  0.00  0.00     0.003 A 
ATOM      6  C4  OXE d   1       3.007  -0.403   0.384  0.00  0.00    -0.002 A 
ATOM      7  C5  OXE d   1       3.492   0.743  -0.254  0.00  0.00    -0.002 A 
ATOM      8  C6  OXE d   1       2.633   1.496  -1.047  0.00  0.00     0.003 A 
ENDROOT
TORSDOF 0
ENDMDL
