MODEL 1
REMARK minimizedAffinity -4.31949186
REMARK minimizedRMSD -1
REMARK  0 active torsions:
REMARK  status: ('A' for Active; 'I' for Inactive)
ROOT
ATOM      1  C2' OXE d   1       0.181   3.204  -0.257  0.00  0.00     0.078 C 
ATOM      2  C1' OXE d   1       2.275   1.371  -0.624  0.00  0.00     0.078 C 
ATOM      3  C1  OXE d   1       0.961   0.843  -0.105  0.00  0.00    -0.078 A 
ATOM      4  C2  OXE d   1      -0.043   1.755   0.116  0.00  0.00    -0.078 A 
ATOM      5  C3  OXE d   1      -1.293   1.313   0.543  0.00  0.00     0.003 A 
ATOM      6  C4  OXE d   1      -1.489  -0.027   0.895  0.00  0.00    -0.002 A 
ATOM      7  C5  OXE d   1      -0.466  -0.965   0.715  0.00  0.00    -0.002 A 
ATOM      8  C6  OXE d   1       0.748  -0.555   0.177  0.00  0.00     0.003 A 
ENDROOT
TORSDOF 0
ENDMDL
