MODEL 1
REMARK minimizedAffinity -1.67380238
REMARK minimizedRMSD -1
REMARK  0 active torsions:
REMARK  status: ('A' for Active; 'I' for Inactive)
ROOT
ATOM      1  C2' OXE d   1       2.990   1.260   0.725  0.00  0.00     0.078 C 
ATOM      2  C1' OXE d   1       0.781   2.987   0.862  0.00  0.00     0.078 C 
ATOM      3  C1  OXE d   1       0.512   1.505   0.781  0.00  0.00    -0.078 A 
ATOM      4  C2  OXE d   1       1.598   0.671   0.667  0.00  0.00    -0.078 A 
ATOM      5  C3  OXE d   1       1.408  -0.708   0.644  0.00  0.00     0.003 A 
ATOM      6  C4  OXE d   1       0.116  -1.245   0.580  0.00  0.00    -0.002 A 
ATOM      7  C5  OXE d   1      -1.004  -0.410   0.655  0.00  0.00    -0.002 A 
ATOM      8  C6  OXE d   1      -0.824   0.961   0.798  0.00  0.00     0.003 A 
ENDROOT
TORSDOF 0
ENDMDL
