MODEL 1
REMARK minimizedAffinity 7.05838299
REMARK minimizedRMSD -1
REMARK  0 active torsions:
REMARK  status: ('A' for Active; 'I' for Inactive)
ROOT
ATOM      1  C   UNL d   1      -2.478  -1.124   2.723  0.00  0.00     0.077 C 
ATOM      2  C1  UNL d   1      -3.292  -1.863   3.744  0.00  0.00    -0.074 A 
ATOM      3  C2  UNL d   1      -3.458  -1.354   5.036  0.00  0.00    -0.005 A 
ATOM      4  C3  UNL d   1      -4.225  -2.048   5.972  0.00  0.00     0.006 A 
ATOM      5  C4  UNL d   1      -4.834  -3.254   5.625  0.00  0.00    -0.005 A 
ATOM      6  C5  UNL d   1      -4.680  -3.778   4.337  0.00  0.00    -0.074 A 
ATOM      7  C6  UNL d   1      -5.336  -5.069   3.946  0.00  0.00     0.077 C 
ATOM      8  C7  UNL d   1      -3.913  -3.072   3.401  0.00  0.00    -0.001 A 
ENDROOT
TORSDOF 0
ENDMDL
