MODEL 1
REMARK minimizedAffinity 12.7109175
REMARK minimizedRMSD -1
REMARK  0 active torsions:
REMARK  status: ('A' for Active; 'I' for Inactive)
ROOT
ATOM      1  C   UNL d   1       2.375  -2.069   3.782  0.00  0.00     0.077 C 
ATOM      2  C1  UNL d   1       1.049  -1.507   3.365  0.00  0.00    -0.074 A 
ATOM      3  C2  UNL d   1       0.408  -1.959   2.207  0.00  0.00    -0.005 A 
ATOM      4  C3  UNL d   1      -0.830  -1.434   1.837  0.00  0.00     0.006 A 
ATOM      5  C4  UNL d   1      -1.439  -0.452   2.620  0.00  0.00    -0.005 A 
ATOM      6  C5  UNL d   1      -0.814   0.012   3.781  0.00  0.00    -0.074 A 
ATOM      7  C6  UNL d   1      -1.459   1.060   4.639  0.00  0.00     0.077 C 
ATOM      8  C7  UNL d   1       0.427  -0.526   4.150  0.00  0.00    -0.001 A 
ENDROOT
TORSDOF 0
ENDMDL
