MODEL 1
REMARK minimizedAffinity 10.7317801
REMARK minimizedRMSD -1
REMARK  0 active torsions:
REMARK  status: ('A' for Active; 'I' for Inactive)
ROOT
ATOM      1  C   UNL d   1       5.321   4.436  -4.239  0.00  0.00     0.077 C 
ATOM      2  C1  UNL d   1       4.013   3.888  -3.751  0.00  0.00    -0.074 A 
ATOM      3  C2  UNL d   1       3.756   2.513  -3.777  0.00  0.00    -0.005 A 
ATOM      4  C3  UNL d   1       2.539   2.017  -3.310  0.00  0.00     0.006 A 
ATOM      5  C4  UNL d   1       1.569   2.888  -2.814  0.00  0.00    -0.005 A 
ATOM      6  C5  UNL d   1       1.809   4.266  -2.779  0.00  0.00    -0.074 A 
ATOM      7  C6  UNL d   1       0.780   5.215  -2.239  0.00  0.00     0.077 C 
ATOM      8  C7  UNL d   1       3.037   4.756  -3.243  0.00  0.00    -0.001 A 
ENDROOT
TORSDOF 0
ENDMDL
