MODEL 1
REMARK minimizedAffinity -0.415580988
REMARK minimizedRMSD -1
REMARK  0 active torsions:
REMARK  status: ('A' for Active; 'I' for Inactive)
ROOT
ATOM      1  C   UNL d   1       6.000  -6.000  -0.795  0.00  0.00     0.077 C 
ATOM      2  C1  UNL d   1       5.149  -4.764  -0.776  0.00  0.00    -0.074 A 
ATOM      3  C2  UNL d   1       5.652  -3.539  -1.226  0.00  0.00    -0.005 A 
ATOM      4  C3  UNL d   1       4.846  -2.401  -1.211  0.00  0.00     0.006 A 
ATOM      5  C4  UNL d   1       3.532  -2.476  -0.746  0.00  0.00    -0.005 A 
ATOM      6  C5  UNL d   1       3.013  -3.692  -0.293  0.00  0.00    -0.074 A 
ATOM      7  C6  UNL d   1       1.600  -3.792   0.200  0.00  0.00     0.077 C 
ATOM      8  C7  UNL d   1       3.826  -4.833  -0.318  0.00  0.00    -0.001 A 
ENDROOT
TORSDOF 0
ENDMDL
