MODEL 1
REMARK minimizedAffinity 13.7027092
REMARK minimizedRMSD -1
REMARK  0 active torsions:
REMARK  status: ('A' for Active; 'I' for Inactive)
ROOT
ATOM      1  C   UNL d   1      -4.592  -0.134   0.222  0.00  0.00     0.077 C 
ATOM      2  C1  UNL d   1      -3.332  -0.360   1.005  0.00  0.00    -0.074 A 
ATOM      3  C2  UNL d   1      -2.412  -1.340   0.618  0.00  0.00    -0.005 A 
ATOM      4  C3  UNL d   1      -1.240  -1.532   1.350  0.00  0.00     0.006 A 
ATOM      5  C4  UNL d   1      -0.978  -0.748   2.474  0.00  0.00    -0.005 A 
ATOM      6  C5  UNL d   1      -1.886   0.237   2.875  0.00  0.00    -0.074 A 
ATOM      7  C6  UNL d   1      -1.614   1.095   4.075  0.00  0.00     0.077 C 
ATOM      8  C7  UNL d   1      -3.058   0.429   2.131  0.00  0.00    -0.001 A 
ENDROOT
TORSDOF 0
ENDMDL
