MODEL 1
REMARK minimizedAffinity 8.2221117
REMARK minimizedRMSD -1
REMARK  0 active torsions:
REMARK  status: ('A' for Active; 'I' for Inactive)
ROOT
ATOM      1  C   UNL d   1      -5.647   1.879   4.677  0.00  0.00     0.077 C 
ATOM      2  C1  UNL d   1      -4.296   1.297   4.385  0.00  0.00    -0.074 A 
ATOM      3  C2  UNL d   1      -3.167   1.708   5.100  0.00  0.00    -0.005 A 
ATOM      4  C3  UNL d   1      -1.918   1.152   4.824  0.00  0.00     0.006 A 
ATOM      5  C4  UNL d   1      -1.786   0.180   3.831  0.00  0.00    -0.005 A 
ATOM      6  C5  UNL d   1      -2.904  -0.244   3.106  0.00  0.00    -0.074 A 
ATOM      7  C6  UNL d   1      -2.782  -1.294   2.042  0.00  0.00     0.077 C 
ATOM      8  C7  UNL d   1      -4.157   0.315   3.394  0.00  0.00    -0.001 A 
ENDROOT
TORSDOF 0
ENDMDL
