MODEL 1
REMARK minimizedAffinity 6.28866434
REMARK minimizedRMSD -1
REMARK  0 active torsions:
REMARK  status: ('A' for Active; 'I' for Inactive)
ROOT
ATOM      1  C   UNL d   1      -5.998  -1.415  -3.264  0.00  0.00     0.077 C 
ATOM      2  C1  UNL d   1      -5.888  -0.591  -2.016  0.00  0.00    -0.074 A 
ATOM      3  C2  UNL d   1      -5.773  -1.198  -0.762  0.00  0.00    -0.005 A 
ATOM      4  C3  UNL d   1      -5.662  -0.418   0.389  0.00  0.00     0.006 A 
ATOM      5  C4  UNL d   1      -5.664   0.975   0.297  0.00  0.00    -0.005 A 
ATOM      6  C5  UNL d   1      -5.777   1.599  -0.949  0.00  0.00    -0.074 A 
ATOM      7  C6  UNL d   1      -5.771   3.094  -1.066  0.00  0.00     0.077 C 
ATOM      8  C7  UNL d   1      -5.881   0.808  -2.101  0.00  0.00    -0.001 A 
ENDROOT
TORSDOF 0
ENDMDL
