MODEL 1
REMARK minimizedAffinity 14.4931164
REMARK minimizedRMSD -1
REMARK  0 active torsions:
REMARK  status: ('A' for Active; 'I' for Inactive)
ROOT
ATOM      1  C   UNL d   1      -0.677   5.151  -1.556  0.00  0.00     0.077 C 
ATOM      2  C1  UNL d   1       0.695   4.657  -1.905  0.00  0.00    -0.074 A 
ATOM      3  C2  UNL d   1       0.889   3.362  -2.396  0.00  0.00    -0.005 A 
ATOM      4  C3  UNL d   1       2.171   2.919  -2.725  0.00  0.00     0.006 A 
ATOM      5  C4  UNL d   1       3.268   3.766  -2.568  0.00  0.00    -0.005 A 
ATOM      6  C5  UNL d   1       3.093   5.065  -2.079  0.00  0.00    -0.074 A 
ATOM      7  C6  UNL d   1       4.261   5.991  -1.913  0.00  0.00     0.077 C 
ATOM      8  C7  UNL d   1       1.802   5.504  -1.757  0.00  0.00    -0.001 A 
ENDROOT
TORSDOF 0
ENDMDL
