MODEL 1
REMARK minimizedAffinity 12.6171713
REMARK minimizedRMSD -1
REMARK  0 active torsions:
REMARK  status: ('A' for Active; 'I' for Inactive)
ROOT
ATOM      1  C   UNL d   1       1.305   2.511  -2.629  0.00  0.00     0.077 C 
ATOM      2  C1  UNL d   1       0.187   3.492  -2.819  0.00  0.00    -0.074 A 
ATOM      3  C2  UNL d   1      -0.363   4.175  -1.730  0.00  0.00    -0.005 A 
ATOM      4  C3  UNL d   1      -1.396   5.093  -1.923  0.00  0.00     0.006 A 
ATOM      5  C4  UNL d   1      -1.889   5.336  -3.206  0.00  0.00    -0.005 A 
ATOM      6  C5  UNL d   1      -1.351   4.663  -4.307  0.00  0.00    -0.074 A 
ATOM      7  C6  UNL d   1      -1.862   4.919  -5.694  0.00  0.00     0.077 C 
ATOM      8  C7  UNL d   1      -0.308   3.748  -4.106  0.00  0.00    -0.001 A 
ENDROOT
TORSDOF 0
ENDMDL
