MODEL 1
REMARK minimizedAffinity 8.63273048
REMARK minimizedRMSD -1
REMARK  0 active torsions:
REMARK  status: ('A' for Active; 'I' for Inactive)
ROOT
ATOM      1  C   UNL d   1      -1.663   4.680  -4.721  0.00  0.00     0.077 C 
ATOM      2  C1  UNL d   1      -0.538   4.588  -3.734  0.00  0.00    -0.074 A 
ATOM      3  C2  UNL d   1      -0.063   5.728  -3.077  0.00  0.00    -0.005 A 
ATOM      4  C3  UNL d   1       0.978   5.626  -2.155  0.00  0.00     0.006 A 
ATOM      5  C4  UNL d   1       1.554   4.385  -1.879  0.00  0.00    -0.005 A 
ATOM      6  C5  UNL d   1       1.092   3.234  -2.525  0.00  0.00    -0.074 A 
ATOM      7  C6  UNL d   1       1.693   1.891  -2.233  0.00  0.00     0.077 C 
ATOM      8  C7  UNL d   1       0.041   3.344  -3.446  0.00  0.00    -0.001 A 
ENDROOT
TORSDOF 0
ENDMDL
