MODEL 1
REMARK minimizedAffinity 17.3936234
REMARK minimizedRMSD -1
REMARK  0 active torsions:
REMARK  status: ('A' for Active; 'I' for Inactive)
ROOT
ATOM      1  C   UNL d   1      -5.700  -0.658  -3.787  0.00  0.00     0.077 C 
ATOM      2  C1  UNL d   1      -5.628   0.206  -2.563  0.00  0.00    -0.074 A 
ATOM      3  C2  UNL d   1      -5.989   1.556  -2.614  0.00  0.00    -0.005 A 
ATOM      4  C3  UNL d   1      -5.926   2.345  -1.465  0.00  0.00     0.006 A 
ATOM      5  C4  UNL d   1      -5.501   1.792  -0.256  0.00  0.00    -0.005 A 
ATOM      6  C5  UNL d   1      -5.137   0.444  -0.186  0.00  0.00    -0.074 A 
ATOM      7  C6  UNL d   1      -4.688  -0.168   1.108  0.00  0.00     0.077 C 
ATOM      8  C7  UNL d   1      -5.210  -0.344  -1.343  0.00  0.00    -0.001 A 
ENDROOT
TORSDOF 0
ENDMDL
