MODEL 1
REMARK minimizedAffinity 11.3649178
REMARK minimizedRMSD -1
REMARK  0 active torsions:
REMARK  status: ('A' for Active; 'I' for Inactive)
ROOT
ATOM      1  C   UNL d   1       4.379   3.676  -3.817  0.00  0.00     0.077 C 
ATOM      2  C1  UNL d   1       3.186   3.227  -3.027  0.00  0.00    -0.074 A 
ATOM      3  C2  UNL d   1       3.236   2.068  -2.245  0.00  0.00    -0.005 A 
ATOM      4  C3  UNL d   1       2.121   1.668  -1.509  0.00  0.00     0.006 A 
ATOM      5  C4  UNL d   1       0.947   2.421  -1.546  0.00  0.00    -0.005 A 
ATOM      6  C5  UNL d   1       0.879   3.584  -2.321  0.00  0.00    -0.074 A 
ATOM      7  C6  UNL d   1      -0.372   4.410  -2.364  0.00  0.00     0.077 C 
ATOM      8  C7  UNL d   1       2.005   3.983  -3.053  0.00  0.00    -0.001 A 
ENDROOT
TORSDOF 0
ENDMDL
