MODEL 1
REMARK minimizedAffinity 13.1479292
REMARK minimizedRMSD -1
REMARK  0 active torsions:
REMARK  status: ('A' for Active; 'I' for Inactive)
ROOT
ATOM      1  C   UNL d   1      -5.859  -0.362  -3.053  0.00  0.00     0.077 C 
ATOM      2  C1  UNL d   1      -5.630   0.418  -1.792  0.00  0.00    -0.074 A 
ATOM      3  C2  UNL d   1      -5.486  -0.232  -0.562  0.00  0.00    -0.005 A 
ATOM      4  C3  UNL d   1      -5.264   0.506   0.601  0.00  0.00     0.006 A 
ATOM      5  C4  UNL d   1      -5.184   1.898   0.546  0.00  0.00    -0.005 A 
ATOM      6  C5  UNL d   1      -5.325   2.564  -0.675  0.00  0.00    -0.074 A 
ATOM      7  C6  UNL d   1      -5.231   4.059  -0.754  0.00  0.00     0.077 C 
ATOM      8  C7  UNL d   1      -5.541   1.816  -1.840  0.00  0.00    -0.001 A 
ENDROOT
TORSDOF 0
ENDMDL
