MODEL 1
REMARK minimizedAffinity 13.7832584
REMARK minimizedRMSD -1
REMARK  0 active torsions:
REMARK  status: ('A' for Active; 'I' for Inactive)
ROOT
ATOM      1  C   UNL d   1       1.902   2.958  -3.015  0.00  0.00     0.077 C 
ATOM      2  C1  UNL d   1       3.225   3.545  -3.408  0.00  0.00    -0.074 A 
ATOM      3  C2  UNL d   1       3.797   3.259  -4.652  0.00  0.00    -0.005 A 
ATOM      4  C3  UNL d   1       5.024   3.820  -5.007  0.00  0.00     0.006 A 
ATOM      5  C4  UNL d   1       5.690   4.670  -4.124  0.00  0.00    -0.005 A 
ATOM      6  C5  UNL d   1       5.133   4.968  -2.876  0.00  0.00    -0.074 A 
ATOM      7  C6  UNL d   1       5.832   5.888  -1.919  0.00  0.00     0.077 C 
ATOM      8  C7  UNL d   1       3.897   4.406  -2.529  0.00  0.00    -0.001 A 
ENDROOT
TORSDOF 0
ENDMDL
