MODEL 1
REMARK minimizedAffinity 9.89195251
REMARK minimizedRMSD -1
REMARK  0 active torsions:
REMARK  status: ('A' for Active; 'I' for Inactive)
ROOT
ATOM      1  C   UNL d   1       5.993   5.679  -1.163  0.00  0.00     0.077 C 
ATOM      2  C1  UNL d   1       5.380   4.887  -2.279  0.00  0.00    -0.074 A 
ATOM      3  C2  UNL d   1       6.000   4.810  -3.530  0.00  0.00    -0.005 A 
ATOM      4  C3  UNL d   1       5.422   4.061  -4.556  0.00  0.00     0.006 A 
ATOM      5  C4  UNL d   1       4.221   3.384  -4.341  0.00  0.00    -0.005 A 
ATOM      6  C5  UNL d   1       3.587   3.449  -3.096  0.00  0.00    -0.074 A 
ATOM      7  C6  UNL d   1       2.301   2.719  -2.845  0.00  0.00     0.077 C 
ATOM      8  C7  UNL d   1       4.178   4.198  -2.068  0.00  0.00    -0.001 A 
ENDROOT
TORSDOF 0
ENDMDL
