MODEL 1
REMARK minimizedAffinity 11.7999859
REMARK minimizedRMSD -1
REMARK  0 active torsions:
REMARK  status: ('A' for Active; 'I' for Inactive)
ROOT
ATOM      1  C   UNL d   1      -1.051   3.998  -4.054  0.00  0.00     0.077 C 
ATOM      2  C1  UNL d   1       0.183   3.536  -3.338  0.00  0.00    -0.074 A 
ATOM      3  C2  UNL d   1       0.440   2.174  -3.153  0.00  0.00    -0.005 A 
ATOM      4  C3  UNL d   1       1.597   1.759  -2.494  0.00  0.00     0.006 A 
ATOM      5  C4  UNL d   1       2.508   2.701  -2.013  0.00  0.00    -0.005 A 
ATOM      6  C5  UNL d   1       2.269   4.067  -2.190  0.00  0.00    -0.074 A 
ATOM      7  C6  UNL d   1       3.242   5.092  -1.688  0.00  0.00     0.077 C 
ATOM      8  C7  UNL d   1       1.107   4.476  -2.859  0.00  0.00    -0.001 A 
ENDROOT
TORSDOF 0
ENDMDL
