MODEL 1
REMARK minimizedAffinity 5.09586143
REMARK minimizedRMSD -1
REMARK  0 active torsions:
REMARK  status: ('A' for Active; 'I' for Inactive)
ROOT
ATOM      1  C   UNL d   1       5.782   3.068   0.751  0.00  0.00     0.077 C 
ATOM      2  C1  UNL d   1       4.482   2.330   0.622  0.00  0.00    -0.074 A 
ATOM      3  C2  UNL d   1       3.923   1.662   1.716  0.00  0.00    -0.005 A 
ATOM      4  C3  UNL d   1       2.710   0.988   1.584  0.00  0.00     0.006 A 
ATOM      5  C4  UNL d   1       2.043   0.975   0.357  0.00  0.00    -0.005 A 
ATOM      6  C5  UNL d   1       2.586   1.638  -0.748  0.00  0.00    -0.074 A 
ATOM      7  C6  UNL d   1       1.879   1.642  -2.070  0.00  0.00     0.077 C 
ATOM      8  C7  UNL d   1       3.803   2.319  -0.605  0.00  0.00    -0.001 A 
ENDROOT
TORSDOF 0
ENDMDL
