MODEL 1
REMARK minimizedAffinity 9.21837997
REMARK minimizedRMSD -1
REMARK  0 active torsions:
REMARK  status: ('A' for Active; 'I' for Inactive)
ROOT
ATOM      1  C   UNL d   1       4.684   5.025  -2.422  0.00  0.00     0.077 C 
ATOM      2  C1  UNL d   1       3.358   4.334  -2.538  0.00  0.00    -0.074 A 
ATOM      3  C2  UNL d   1       3.283   2.967  -2.825  0.00  0.00    -0.005 A 
ATOM      4  C3  UNL d   1       2.043   2.336  -2.921  0.00  0.00     0.006 A 
ATOM      5  C4  UNL d   1       0.867   3.063  -2.731  0.00  0.00    -0.005 A 
ATOM      6  C5  UNL d   1       0.923   4.431  -2.443  0.00  0.00    -0.074 A 
ATOM      7  C6  UNL d   1      -0.331   5.226  -2.226  0.00  0.00     0.077 C 
ATOM      8  C7  UNL d   1       2.173   5.056  -2.341  0.00  0.00    -0.001 A 
ENDROOT
TORSDOF 0
ENDMDL
