MODEL 1
REMARK minimizedAffinity 7.59068966
REMARK minimizedRMSD -1
REMARK  0 active torsions:
REMARK  status: ('A' for Active; 'I' for Inactive)
ROOT
ATOM      1  C   UNL d   1      -6.000  -1.085  -3.327  0.00  0.00     0.077 C 
ATOM      2  C1  UNL d   1      -5.770  -0.376  -2.025  0.00  0.00    -0.074 A 
ATOM      3  C2  UNL d   1      -5.636  -1.091  -0.831  0.00  0.00    -0.005 A 
ATOM      4  C3  UNL d   1      -5.414  -0.418   0.370  0.00  0.00     0.006 A 
ATOM      5  C4  UNL d   1      -5.323   0.974   0.390  0.00  0.00    -0.005 A 
ATOM      6  C5  UNL d   1      -5.454   1.706  -0.795  0.00  0.00    -0.074 A 
ATOM      7  C6  UNL d   1      -5.350   3.202  -0.793  0.00  0.00     0.077 C 
ATOM      8  C7  UNL d   1      -5.671   1.022  -1.999  0.00  0.00    -0.001 A 
ENDROOT
TORSDOF 0
ENDMDL
