MODEL 1
REMARK minimizedAffinity 10.9793568
REMARK minimizedRMSD -1
REMARK  1 active torsions:
REMARK  status: ('A' for Active; 'I' for Inactive)
REMARK    1  A    between atoms: C1_2  and  C2_3 
ROOT
ATOM      1  C2  UNL d   1       1.568   2.785  -5.522  0.00  0.00    -0.073 A 
ATOM      2  C3  UNL d   1       1.794   4.158  -5.664  0.00  0.00    -0.002 A 
ATOM      3  C4  UNL d   1       3.084   4.640  -5.894  0.00  0.00     0.004 A 
ATOM      4  C5  UNL d   1       4.157   3.754  -5.990  0.00  0.00    -0.004 A 
ATOM      5  C6  UNL d   1       3.949   2.377  -5.862  0.00  0.00    -0.075 A 
ATOM      6  C7  UNL d   1       5.093   1.412  -5.961  0.00  0.00     0.076 C 
ATOM      7  C8  UNL d   1       2.652   1.902  -5.629  0.00  0.00     0.001 A 
ENDROOT
BRANCH   1   8
ATOM      8  C1  UNL d   1       0.176   2.259  -5.280  0.00  0.00     0.053 C 
ATOM      9  C   UNL d   1      -0.255   2.431  -3.832  0.00  0.00     0.018 C 
ENDBRANCH   1   8
TORSDOF 1
ENDMDL
