MODEL 1
REMARK minimizedAffinity 1.93554902
REMARK minimizedRMSD -1
REMARK  1 active torsions:
REMARK  status: ('A' for Active; 'I' for Inactive)
REMARK    1  A    between atoms: C1_2  and  C2_3 
ROOT
ATOM      1  C2  UNL d   1       3.815   2.831  -5.954  0.00  0.00    -0.073 A 
ATOM      2  C3  UNL d   1       2.536   3.398  -5.990  0.00  0.00    -0.002 A 
ATOM      3  C4  UNL d   1       2.380   4.785  -5.997  0.00  0.00     0.004 A 
ATOM      4  C5  UNL d   1       3.499   5.618  -5.976  0.00  0.00    -0.004 A 
ATOM      5  C6  UNL d   1       4.786   5.070  -5.952  0.00  0.00    -0.075 A 
ATOM      6  C7  UNL d   1       6.000   5.951  -5.926  0.00  0.00     0.076 C 
ATOM      7  C8  UNL d   1       4.934   3.676  -5.942  0.00  0.00     0.001 A 
ENDROOT
BRANCH   1   8
ATOM      8  C1  UNL d   1       3.989   1.334  -5.953  0.00  0.00     0.053 C 
ATOM      9  C   UNL d   1       2.655   0.606  -5.906  0.00  0.00     0.018 C 
ENDBRANCH   1   8
TORSDOF 1
ENDMDL
