MODEL 1
REMARK minimizedAffinity 1.63060653
REMARK minimizedRMSD -1
REMARK  1 active torsions:
REMARK  status: ('A' for Active; 'I' for Inactive)
REMARK    1  A    between atoms: C1_2  and  C2_3 
ROOT
ATOM      1  C2  UNL d   1       4.102   2.522  -5.961  0.00  0.00    -0.073 A 
ATOM      2  C3  UNL d   1       3.020   1.634  -5.957  0.00  0.00    -0.002 A 
ATOM      3  C4  UNL d   1       1.711   2.118  -5.959  0.00  0.00     0.004 A 
ATOM      4  C5  UNL d   1       1.470   3.491  -5.972  0.00  0.00    -0.004 A 
ATOM      5  C6  UNL d   1       2.538   4.395  -5.988  0.00  0.00    -0.075 A 
ATOM      6  C7  UNL d   1       2.296   5.875  -6.000  0.00  0.00     0.076 C 
ATOM      7  C8  UNL d   1       3.850   3.901  -5.984  0.00  0.00     0.001 A 
ENDROOT
BRANCH   1   8
ATOM      8  C1  UNL d   1       5.517   2.004  -5.966  0.00  0.00     0.053 C 
ATOM      9  C   UNL d   1       5.970   1.572  -4.581  0.00  0.00     0.018 C 
ENDBRANCH   1   8
TORSDOF 1
ENDMDL
