MODEL 1
REMARK minimizedAffinity 2.90621781
REMARK minimizedRMSD -1
REMARK  2 active torsions:
REMARK  status: ('A' for Active; 'I' for Inactive)
REMARK    1  A    between atoms: C1_2  and  C2_3 
REMARK    2  A    between atoms: C2_3  and  C3_4 
ROOT
ATOM      1  C3  UNL d   1      -1.020   1.239   1.626  0.00  0.00    -0.075 A 
ATOM      2  C4  UNL d   1      -1.629   2.428   1.198  0.00  0.00     0.002 A 
ATOM      3  C5  UNL d   1      -2.253   2.495  -0.048  0.00  0.00     0.002 A 
ATOM      4  C6  UNL d   1      -2.268   1.380  -0.884  0.00  0.00    -0.004 A 
ATOM      5  C7  UNL d   1      -1.652   0.199  -0.475  0.00  0.00     0.002 A 
ATOM      6  C8  UNL d   1      -1.031   0.128   0.773  0.00  0.00     0.002 A 
ENDROOT
BRANCH   1   7
ATOM      7  C2  UNL d   1      -0.369   1.152   2.986  0.00  0.00     0.056 C 
BRANCH   7   8
ATOM      8  C1  UNL d   1      -1.293   1.538   4.146  0.00  0.00     0.007 C 
ATOM      9  C   UNL d   1      -1.532   3.038   4.249  0.00  0.00     0.009 C 
ENDBRANCH   7   8
ENDBRANCH   1   7
TORSDOF 2
ENDMDL
