MODEL 1
REMARK minimizedAffinity -1.04310501
REMARK minimizedRMSD -1
REMARK  2 active torsions:
REMARK  status: ('A' for Active; 'I' for Inactive)
REMARK    1  A    between atoms: C1_2  and  C2_3 
REMARK    2  A    between atoms: C2_3  and  C3_4 
ROOT
ATOM      1  C3  UNL d   1      -2.285   1.818   0.038  0.00  0.00    -0.075 A 
ATOM      2  C4  UNL d   1      -1.218   2.338  -0.708  0.00  0.00     0.002 A 
ATOM      3  C5  UNL d   1       0.098   2.001  -0.391  0.00  0.00     0.002 A 
ATOM      4  C6  UNL d   1       0.364   1.150   0.679  0.00  0.00    -0.004 A 
ATOM      5  C7  UNL d   1      -0.688   0.640   1.437  0.00  0.00     0.002 A 
ATOM      6  C8  UNL d   1      -2.006   0.973   1.120  0.00  0.00     0.002 A 
ENDROOT
BRANCH   1   7
ATOM      7  C2  UNL d   1      -3.713   2.156  -0.318  0.00  0.00     0.056 C 
BRANCH   7   8
ATOM      8  C1  UNL d   1      -4.757   1.321   0.432  0.00  0.00     0.007 C 
ATOM      9  C   UNL d   1      -5.999   2.115   0.813  0.00  0.00     0.009 C 
ENDBRANCH   7   8
ENDBRANCH   1   7
TORSDOF 2
ENDMDL
