MODEL 1
REMARK minimizedAffinity 1.76521623
REMARK minimizedRMSD -1
REMARK  2 active torsions:
REMARK  status: ('A' for Active; 'I' for Inactive)
REMARK    1  A    between atoms: C1_2  and  C2_3 
REMARK    2  A    between atoms: C2_3  and  C3_4 
ROOT
ATOM      1  C3  UNL d   1      -2.377   1.713  -0.010  0.00  0.00    -0.075 A 
ATOM      2  C4  UNL d   1      -2.288   0.412   0.506  0.00  0.00     0.002 A 
ATOM      3  C5  UNL d   1      -1.083  -0.065   1.022  0.00  0.00     0.002 A 
ATOM      4  C6  UNL d   1       0.049   0.747   1.020  0.00  0.00    -0.004 A 
ATOM      5  C7  UNL d   1      -0.024   2.036   0.495  0.00  0.00     0.002 A 
ATOM      6  C8  UNL d   1      -1.229   2.517  -0.018  0.00  0.00     0.002 A 
ENDROOT
BRANCH   1   7
ATOM      7  C2  UNL d   1      -3.686   2.245  -0.543  0.00  0.00     0.056 C 
BRANCH   7   8
ATOM      8  C1  UNL d   1      -4.924   1.654   0.139  0.00  0.00     0.007 C 
ATOM      9  C   UNL d   1      -6.000   2.691   0.433  0.00  0.00     0.009 C 
ENDBRANCH   7   8
ENDBRANCH   1   7
TORSDOF 2
ENDMDL
