MODEL 1
REMARK minimizedAffinity -0.352754593
REMARK minimizedRMSD -1
REMARK  2 active torsions:
REMARK  status: ('A' for Active; 'I' for Inactive)
REMARK    1  A    between atoms: C1_2  and  C2_3 
REMARK    2  A    between atoms: C2_3  and  C3_4 
ROOT
ATOM      1  C3  UNL d   1       0.090   1.255  -1.134  0.00  0.00    -0.075 A 
ATOM      2  C4  UNL d   1      -0.388   0.317  -0.208  0.00  0.00     0.002 A 
ATOM      3  C5  UNL d   1      -1.655   0.462   0.357  0.00  0.00     0.002 A 
ATOM      4  C6  UNL d   1      -2.454   1.549   0.013  0.00  0.00    -0.004 A 
ATOM      5  C7  UNL d   1      -1.983   2.497  -0.893  0.00  0.00     0.002 A 
ATOM      6  C8  UNL d   1      -0.717   2.352  -1.463  0.00  0.00     0.002 A 
ENDROOT
BRANCH   1   7
ATOM      7  C2  UNL d   1       1.449   1.089  -1.772  0.00  0.00     0.056 C 
BRANCH   7   8
ATOM      8  C1  UNL d   1       2.531   0.586  -0.811  0.00  0.00     0.007 C 
ATOM      9  C   UNL d   1       3.928   0.602  -1.419  0.00  0.00     0.009 C 
ENDBRANCH   7   8
ENDBRANCH   1   7
TORSDOF 2
ENDMDL
