MODEL 1
REMARK minimizedAffinity -1.57975936
REMARK minimizedRMSD -1
REMARK  2 active torsions:
REMARK  status: ('A' for Active; 'I' for Inactive)
REMARK    1  A    between atoms: C1_2  and  C2_3 
REMARK    2  A    between atoms: C2_3  and  C3_4 
ROOT
ATOM      1  C3  UNL d   1      -2.160   0.483   1.180  0.00  0.00    -0.075 A 
ATOM      2  C4  UNL d   1      -2.985   1.371   0.475  0.00  0.00     0.002 A 
ATOM      3  C5  UNL d   1      -2.430   2.393  -0.295  0.00  0.00     0.002 A 
ATOM      4  C6  UNL d   1      -1.047   2.547  -0.361  0.00  0.00    -0.004 A 
ATOM      5  C7  UNL d   1      -0.218   1.681   0.348  0.00  0.00     0.002 A 
ATOM      6  C8  UNL d   1      -0.770   0.654   1.116  0.00  0.00     0.002 A 
ENDROOT
BRANCH   1   7
ATOM      7  C2  UNL d   1      -2.753  -0.644   1.992  0.00  0.00     0.056 C 
BRANCH   7   8
ATOM      8  C1  UNL d   1      -2.620  -0.459   3.507  0.00  0.00     0.007 C 
ATOM      9  C   UNL d   1      -3.961  -0.427   4.228  0.00  0.00     0.009 C 
ENDBRANCH   7   8
ENDBRANCH   1   7
TORSDOF 2
ENDMDL
