MODEL 1
REMARK minimizedAffinity -2.31570959
REMARK minimizedRMSD -1
REMARK  2 active torsions:
REMARK  status: ('A' for Active; 'I' for Inactive)
REMARK    1  A    between atoms: C1_2  and  C2_3 
REMARK    2  A    between atoms: C2_3  and  C3_4 
ROOT
ATOM      1  C3  UNL d   1      -1.544  -0.373   0.350  0.00  0.00    -0.075 A 
ATOM      2  C4  UNL d   1      -2.672   0.456   0.270  0.00  0.00     0.002 A 
ATOM      3  C5  UNL d   1      -2.535   1.844   0.297  0.00  0.00     0.002 A 
ATOM      4  C6  UNL d   1      -1.272   2.420   0.414  0.00  0.00    -0.004 A 
ATOM      5  C7  UNL d   1      -0.145   1.606   0.511  0.00  0.00     0.002 A 
ATOM      6  C8  UNL d   1      -0.280   0.216   0.480  0.00  0.00     0.002 A 
ENDROOT
BRANCH   1   7
ATOM      7  C2  UNL d   1      -1.684  -1.876   0.292  0.00  0.00     0.056 C 
BRANCH   7   8
ATOM      8  C1  UNL d   1      -2.001  -2.419  -1.105  0.00  0.00     0.007 C 
ATOM      9  C   UNL d   1      -3.097  -3.476  -1.104  0.00  0.00     0.009 C 
ENDBRANCH   7   8
ENDBRANCH   1   7
TORSDOF 2
ENDMDL
