MODEL 1
REMARK minimizedAffinity -2.97353005
REMARK minimizedRMSD -1
REMARK  2 active torsions:
REMARK  status: ('A' for Active; 'I' for Inactive)
REMARK    1  A    between atoms: C1_2  and  C2_3 
REMARK    2  A    between atoms: C2_3  and  C3_4 
ROOT
ATOM      1  C3  UNL d   1       1.206   1.622   0.728  0.00  0.00    -0.075 A 
ATOM      2  C4  UNL d   1       1.760   1.838  -0.542  0.00  0.00     0.002 A 
ATOM      3  C5  UNL d   1       3.094   1.518  -0.797  0.00  0.00     0.002 A 
ATOM      4  C6  UNL d   1       3.892   0.989   0.215  0.00  0.00    -0.004 A 
ATOM      5  C7  UNL d   1       3.356   0.786   1.486  0.00  0.00     0.002 A 
ATOM      6  C8  UNL d   1       2.021   1.101   1.742  0.00  0.00     0.002 A 
ENDROOT
BRANCH   1   7
ATOM      7  C2  UNL d   1      -0.245   1.939   1.002  0.00  0.00     0.056 C 
BRANCH   7   8
ATOM      8  C1  UNL d   1      -1.086   2.154  -0.261  0.00  0.00     0.007 C 
ATOM      9  C   UNL d   1      -2.483   1.557  -0.161  0.00  0.00     0.009 C 
ENDBRANCH   7   8
ENDBRANCH   1   7
TORSDOF 2
ENDMDL
