MODEL 1
REMARK minimizedAffinity 2.66046691
REMARK minimizedRMSD -1
REMARK  2 active torsions:
REMARK  status: ('A' for Active; 'I' for Inactive)
REMARK    1  A    between atoms: C1_2  and  C2_3 
REMARK    2  A    between atoms: C2_3  and  C3_4 
ROOT
ATOM      1  C3  UNL d   1      -1.656   1.683   0.684  0.00  0.00    -0.075 A 
ATOM      2  C4  UNL d   1      -1.880   0.532   1.453  0.00  0.00     0.002 A 
ATOM      3  C5  UNL d   1      -3.131  -0.085   1.457  0.00  0.00     0.002 A 
ATOM      4  C6  UNL d   1      -4.175   0.446   0.703  0.00  0.00    -0.004 A 
ATOM      5  C7  UNL d   1      -3.969   1.599  -0.051  0.00  0.00     0.002 A 
ATOM      6  C8  UNL d   1      -2.716   2.215  -0.061  0.00  0.00     0.002 A 
ENDROOT
BRANCH   1   7
ATOM      7  C2  UNL d   1      -0.296   2.338   0.651  0.00  0.00     0.056 C 
BRANCH   7   8
ATOM      8  C1  UNL d   1       0.770   1.525  -0.091  0.00  0.00     0.007 C 
ATOM      9  C   UNL d   1       1.845   0.962   0.829  0.00  0.00     0.009 C 
ENDBRANCH   7   8
ENDBRANCH   1   7
TORSDOF 2
ENDMDL
