MODEL 1
REMARK minimizedAffinity 6.60262251
REMARK minimizedRMSD -1
REMARK  2 active torsions:
REMARK  status: ('A' for Active; 'I' for Inactive)
REMARK    1  A    between atoms: C1_2  and  C2_3 
REMARK    2  A    between atoms: C2_3  and  C3_4 
ROOT
ATOM      1  C3  UNL d   1      -2.271   0.966   0.963  0.00  0.00    -0.075 A 
ATOM      2  C4  UNL d   1      -2.422   1.800  -0.154  0.00  0.00     0.002 A 
ATOM      3  C5  UNL d   1      -1.390   2.654  -0.546  0.00  0.00     0.002 A 
ATOM      4  C6  UNL d   1      -0.201   2.692   0.179  0.00  0.00    -0.004 A 
ATOM      5  C7  UNL d   1      -0.046   1.881   1.301  0.00  0.00     0.002 A 
ATOM      6  C8  UNL d   1      -1.075   1.022   1.692  0.00  0.00     0.002 A 
ENDROOT
BRANCH   1   7
ATOM      7  C2  UNL d   1      -3.372   0.018   1.375  0.00  0.00     0.056 C 
BRANCH   7   8
ATOM      8  C1  UNL d   1      -3.174  -0.603   2.762  0.00  0.00     0.007 C 
ATOM      9  C   UNL d   1      -4.476  -0.772   3.535  0.00  0.00     0.009 C 
ENDBRANCH   7   8
ENDBRANCH   1   7
TORSDOF 2
ENDMDL
