MODEL 1
REMARK minimizedAffinity 2.40185308
REMARK minimizedRMSD -1
REMARK  2 active torsions:
REMARK  status: ('A' for Active; 'I' for Inactive)
REMARK    1  A    between atoms: C1_2  and  C2_3 
REMARK    2  A    between atoms: C2_3  and  C3_4 
ROOT
ATOM      1  C3  UNL d   1      -2.214   1.647   0.346  0.00  0.00    -0.075 A 
ATOM      2  C4  UNL d   1      -3.310   2.403  -0.095  0.00  0.00     0.002 A 
ATOM      3  C5  UNL d   1      -4.612   2.018   0.229  0.00  0.00     0.002 A 
ATOM      4  C6  UNL d   1      -4.834   0.870   0.986  0.00  0.00    -0.004 A 
ATOM      5  C7  UNL d   1      -3.754   0.102   1.415  0.00  0.00     0.002 A 
ATOM      6  C8  UNL d   1      -2.450   0.488   1.096  0.00  0.00     0.002 A 
ENDROOT
BRANCH   1   7
ATOM      7  C2  UNL d   1      -0.802   2.074   0.025  0.00  0.00     0.056 C 
BRANCH   7   8
ATOM      8  C1  UNL d   1       0.240   1.601   1.044  0.00  0.00     0.007 C 
ATOM      9  C   UNL d   1      -0.010   2.134   2.449  0.00  0.00     0.009 C 
ENDBRANCH   7   8
ENDBRANCH   1   7
TORSDOF 2
ENDMDL
