MODEL 1
REMARK minimizedAffinity 0.828712642
REMARK minimizedRMSD -1
REMARK  2 active torsions:
REMARK  status: ('A' for Active; 'I' for Inactive)
REMARK    1  A    between atoms: C1_2  and  C2_3 
REMARK    2  A    between atoms: C2_3  and  C3_4 
ROOT
ATOM      1  C3  UNL d   1      -2.199   1.458   0.213  0.00  0.00    -0.075 A 
ATOM      2  C4  UNL d   1      -2.154   0.251   0.925  0.00  0.00     0.002 A 
ATOM      3  C5  UNL d   1      -0.934  -0.284   1.337  0.00  0.00     0.002 A 
ATOM      4  C6  UNL d   1       0.257   0.373   1.034  0.00  0.00    -0.004 A 
ATOM      5  C7  UNL d   1       0.226   1.565   0.313  0.00  0.00     0.002 A 
ATOM      6  C8  UNL d   1      -0.995   2.105  -0.097  0.00  0.00     0.002 A 
ENDROOT
BRANCH   1   7
ATOM      7  C2  UNL d   1      -3.518   2.058  -0.209  0.00  0.00     0.056 C 
BRANCH   7   8
ATOM      8  C1  UNL d   1      -4.710   1.605   0.641  0.00  0.00     0.007 C 
ATOM      9  C   UNL d   1      -5.998   2.349   0.313  0.00  0.00     0.009 C 
ENDBRANCH   7   8
ENDBRANCH   1   7
TORSDOF 2
ENDMDL
