MODEL 1
REMARK minimizedAffinity 3.81096411
REMARK minimizedRMSD -1
REMARK  2 active torsions:
REMARK  status: ('A' for Active; 'I' for Inactive)
REMARK    1  A    between atoms: C1_2  and  C2_3 
REMARK    2  A    between atoms: C2_3  and  C3_4 
ROOT
ATOM      1  C3  UNL d   1      -0.087   1.332   0.438  0.00  0.00    -0.075 A 
ATOM      2  C4  UNL d   1       1.228   0.916   0.187  0.00  0.00     0.002 A 
ATOM      3  C5  UNL d   1       2.287   1.418   0.944  0.00  0.00     0.002 A 
ATOM      4  C6  UNL d   1       2.046   2.349   1.952  0.00  0.00    -0.004 A 
ATOM      5  C7  UNL d   1       0.745   2.781   2.200  0.00  0.00     0.002 A 
ATOM      6  C8  UNL d   1      -0.317   2.277   1.447  0.00  0.00     0.002 A 
ENDROOT
BRANCH   1   7
ATOM      7  C2  UNL d   1      -1.241   0.770  -0.358  0.00  0.00     0.056 C 
BRANCH   7   8
ATOM      8  C1  UNL d   1      -2.020  -0.333   0.366  0.00  0.00     0.007 C 
ATOM      9  C   UNL d   1      -3.025  -1.045  -0.529  0.00  0.00     0.009 C 
ENDBRANCH   7   8
ENDBRANCH   1   7
TORSDOF 2
ENDMDL
