MODEL 1
REMARK minimizedAffinity 0.387102872
REMARK minimizedRMSD -1
REMARK  2 active torsions:
REMARK  status: ('A' for Active; 'I' for Inactive)
REMARK    1  A    between atoms: C1_2  and  C2_3 
REMARK    2  A    between atoms: C2_3  and  C3_4 
ROOT
ATOM      1  C3  UNL d   1       0.481   1.817   0.994  0.00  0.00    -0.075 A 
ATOM      2  C4  UNL d   1       1.705   2.242   1.530  0.00  0.00     0.002 A 
ATOM      3  C5  UNL d   1       1.743   2.965   2.723  0.00  0.00     0.002 A 
ATOM      4  C6  UNL d   1       0.560   3.282   3.386  0.00  0.00    -0.004 A 
ATOM      5  C7  UNL d   1      -0.663   2.880   2.854  0.00  0.00     0.002 A 
ATOM      6  C8  UNL d   1      -0.704   2.152   1.663  0.00  0.00     0.002 A 
ENDROOT
BRANCH   1   7
ATOM      7  C2  UNL d   1       0.435   1.008  -0.281  0.00  0.00     0.056 C 
BRANCH   7   8
ATOM      8  C1  UNL d   1       1.712   1.099  -1.123  0.00  0.00     0.007 C 
ATOM      9  C   UNL d   1       1.464   1.611  -2.536  0.00  0.00     0.009 C 
ENDBRANCH   7   8
ENDBRANCH   1   7
TORSDOF 2
ENDMDL
