MODEL 1
REMARK minimizedAffinity 3.04091048
REMARK minimizedRMSD -1
REMARK  2 active torsions:
REMARK  status: ('A' for Active; 'I' for Inactive)
REMARK    1  A    between atoms: C1_2  and  C2_3 
REMARK    2  A    between atoms: C2_3  and  C3_4 
ROOT
ATOM      1  C3  UNL d   1       1.403   1.288  -0.175  0.00  0.00    -0.075 A 
ATOM      2  C4  UNL d   1       0.005   1.347  -0.084  0.00  0.00     0.002 A 
ATOM      3  C5  UNL d   1      -0.609   1.950   1.014  0.00  0.00     0.002 A 
ATOM      4  C6  UNL d   1       0.165   2.492   2.038  0.00  0.00    -0.004 A 
ATOM      5  C7  UNL d   1       1.554   2.424   1.966  0.00  0.00     0.002 A 
ATOM      6  C8  UNL d   1       2.171   1.825   0.866  0.00  0.00     0.002 A 
ENDROOT
BRANCH   1   7
ATOM      7  C2  UNL d   1       2.074   0.663  -1.375  0.00  0.00     0.056 C 
BRANCH   7   8
ATOM      8  C1  UNL d   1       2.423   1.661  -2.485  0.00  0.00     0.007 C 
ATOM      9  C   UNL d   1       1.330   1.794  -3.537  0.00  0.00     0.009 C 
ENDBRANCH   7   8
ENDBRANCH   1   7
TORSDOF 2
ENDMDL
