MODEL 1
REMARK minimizedAffinity -2.03527927
REMARK minimizedRMSD -1
REMARK  2 active torsions:
REMARK  status: ('A' for Active; 'I' for Inactive)
REMARK    1  A    between atoms: C1_2  and  C2_3 
REMARK    2  A    between atoms: C2_3  and  C3_4 
ROOT
ATOM      1  C3  UNL d   1       0.087   1.013   0.400  0.00  0.00    -0.075 A 
ATOM      2  C4  UNL d   1      -0.429   2.106   1.111  0.00  0.00     0.002 A 
ATOM      3  C5  UNL d   1       0.396   2.861   1.946  0.00  0.00     0.002 A 
ATOM      4  C6  UNL d   1       1.741   2.527   2.087  0.00  0.00    -0.004 A 
ATOM      5  C7  UNL d   1       2.260   1.433   1.398  0.00  0.00     0.002 A 
ATOM      6  C8  UNL d   1       1.438   0.679   0.559  0.00  0.00     0.002 A 
ENDROOT
BRANCH   1   7
ATOM      7  C2  UNL d   1      -0.794   0.210  -0.528  0.00  0.00     0.056 C 
BRANCH   7   8
ATOM      8  C1  UNL d   1      -1.562  -0.921   0.164  0.00  0.00     0.007 C 
ATOM      9  C   UNL d   1      -2.252  -1.864  -0.812  0.00  0.00     0.009 C 
ENDBRANCH   7   8
ENDBRANCH   1   7
TORSDOF 2
ENDMDL
