MODEL 1
REMARK minimizedAffinity 11.2754946
REMARK minimizedRMSD -1
REMARK  0 active torsions:
REMARK  status: ('A' for Active; 'I' for Inactive)
ROOT
ATOM      1  C   UNL d   1      -2.473   2.840   1.214  0.00  0.00    -0.002 A 
ATOM      2  C1  UNL d   1      -1.317   2.703   1.968  0.00  0.00     0.010 A 
ATOM      3  C2  UNL d   1      -0.266   1.900   1.518  0.00  0.00     0.041 A 
ATOM      4  C3  UNL d   1      -0.398   1.233   0.285  0.00  0.00    -0.075 A 
ATOM      5  S   UNL d   1       0.759   0.199  -0.467  0.00  0.00     0.015 SA
ATOM      6  C4  UNL d   1      -0.255  -0.085  -1.807  0.00  0.00     0.022 A 
ATOM      7  C5  UNL d   1      -1.451   0.585  -1.701  0.00  0.00     0.026 A 
ATOM      8  C6  UNL d   1      -1.553   1.356  -0.494  0.00  0.00    -0.082 A 
ATOM      9  C7  UNL d   1      -2.600   2.176  -0.010  0.00  0.00     0.045 A 
ENDROOT
TORSDOF 0
ENDMDL
