MODEL 1
REMARK minimizedAffinity 13.4747324
REMARK minimizedRMSD -1
REMARK  0 active torsions:
REMARK  status: ('A' for Active; 'I' for Inactive)
ROOT
ATOM      1  C   UNL d   1      -3.044   2.552   1.762  0.00  0.00    -0.002 A 
ATOM      2  C1  UNL d   1      -2.207   1.706   2.475  0.00  0.00     0.010 A 
ATOM      3  C2  UNL d   1      -1.058   1.178   1.882  0.00  0.00     0.041 A 
ATOM      4  C3  UNL d   1      -0.760   1.521   0.548  0.00  0.00    -0.075 A 
ATOM      5  S   UNL d   1       0.593   0.996  -0.383  0.00  0.00     0.015 SA
ATOM      6  C4  UNL d   1       0.092   1.884  -1.749  0.00  0.00     0.022 A 
ATOM      7  C5  UNL d   1      -1.077   2.570  -1.518  0.00  0.00     0.026 A 
ATOM      8  C6  UNL d   1      -1.587   2.373  -0.190  0.00  0.00    -0.082 A 
ATOM      9  C7  UNL d   1      -2.745   2.890   0.439  0.00  0.00     0.045 A 
ENDROOT
TORSDOF 0
ENDMDL
