MODEL 1
REMARK minimizedAffinity 8.29447174
REMARK minimizedRMSD -1
REMARK  0 active torsions:
REMARK  status: ('A' for Active; 'I' for Inactive)
ROOT
ATOM      1  C   UNL d   1       4.053  -4.500   0.344  0.00  0.00    -0.002 A 
ATOM      2  C1  UNL d   1       5.325  -3.968   0.505  0.00  0.00     0.010 A 
ATOM      3  C2  UNL d   1       5.999  -3.400  -0.578  0.00  0.00     0.041 A 
ATOM      4  C3  UNL d   1       5.367  -3.372  -1.836  0.00  0.00    -0.075 A 
ATOM      5  S   UNL d   1       6.000  -2.726  -3.304  0.00  0.00     0.015 SA
ATOM      6  C4  UNL d   1       4.597  -3.139  -4.178  0.00  0.00     0.022 A 
ATOM      7  C5  UNL d   1       3.658  -3.756  -3.385  0.00  0.00     0.026 A 
ATOM      8  C6  UNL d   1       4.086  -3.900  -2.022  0.00  0.00    -0.082 A 
ATOM      9  C7  UNL d   1       3.429  -4.470  -0.905  0.00  0.00     0.045 A 
ENDROOT
TORSDOF 0
ENDMDL
