MODEL 1
REMARK minimizedAffinity 15.4567871
REMARK minimizedRMSD -1
REMARK  0 active torsions:
REMARK  status: ('A' for Active; 'I' for Inactive)
ROOT
ATOM      1  C   UNL d   1      -2.898   2.587   1.787  0.00  0.00    -0.002 A 
ATOM      2  C1  UNL d   1      -2.030   1.759   2.484  0.00  0.00     0.010 A 
ATOM      3  C2  UNL d   1      -0.875   1.266   1.873  0.00  0.00     0.041 A 
ATOM      4  C3  UNL d   1      -0.603   1.626   0.539  0.00  0.00    -0.075 A 
ATOM      5  S   UNL d   1       0.752   1.143  -0.412  0.00  0.00     0.015 SA
ATOM      6  C4  UNL d   1       0.210   2.026  -1.766  0.00  0.00     0.022 A 
ATOM      7  C5  UNL d   1      -0.974   2.679  -1.516  0.00  0.00     0.026 A 
ATOM      8  C6  UNL d   1      -1.462   2.459  -0.184  0.00  0.00    -0.082 A 
ATOM      9  C7  UNL d   1      -2.625   2.941   0.463  0.00  0.00     0.045 A 
ENDROOT
TORSDOF 0
ENDMDL
