MODEL 1
REMARK minimizedAffinity 16.7254505
REMARK minimizedRMSD -1
REMARK  0 active torsions:
REMARK  status: ('A' for Active; 'I' for Inactive)
ROOT
ATOM      1  C   UNL d   1      -2.178   1.859   2.429  0.00  0.00    -0.002 A 
ATOM      2  C1  UNL d   1      -3.147   2.551   1.716  0.00  0.00     0.010 A 
ATOM      3  C2  UNL d   1      -2.946   2.873   0.373  0.00  0.00     0.041 A 
ATOM      4  C3  UNL d   1      -1.744   2.482  -0.249  0.00  0.00    -0.075 A 
ATOM      5  S   UNL d   1      -1.280   2.766  -1.886  0.00  0.00     0.015 SA
ATOM      6  C4  UNL d   1       0.215   1.975  -1.677  0.00  0.00     0.022 A 
ATOM      7  C5  UNL d   1       0.373   1.500  -0.397  0.00  0.00     0.026 A 
ATOM      8  C6  UNL d   1      -0.754   1.784   0.447  0.00  0.00    -0.082 A 
ATOM      9  C7  UNL d   1      -0.987   1.473   1.808  0.00  0.00     0.045 A 
ENDROOT
TORSDOF 0
ENDMDL
