MODEL 1
REMARK minimizedAffinity 11.5324297
REMARK minimizedRMSD -1
REMARK  0 active torsions:
REMARK  status: ('A' for Active; 'I' for Inactive)
ROOT
ATOM      1  C   UNL d   1      -2.456   2.617   1.850  0.00  0.00    -0.002 A 
ATOM      2  C1  UNL d   1      -1.655   1.853   2.687  0.00  0.00     0.010 A 
ATOM      3  C2  UNL d   1      -0.613   1.083   2.165  0.00  0.00     0.041 A 
ATOM      4  C3  UNL d   1      -0.387   1.096   0.775  0.00  0.00    -0.075 A 
ATOM      5  S   UNL d   1       0.831   0.233  -0.088  0.00  0.00     0.015 SA
ATOM      6  C4  UNL d   1       0.318   0.858  -1.588  0.00  0.00     0.022 A 
ATOM      7  C5  UNL d   1      -0.756   1.707  -1.452  0.00  0.00     0.026 A 
ATOM      8  C6  UNL d   1      -1.179   1.858  -0.089  0.00  0.00    -0.082 A 
ATOM      9  C7  UNL d   1      -2.228   2.627   0.471  0.00  0.00     0.045 A 
ENDROOT
TORSDOF 0
ENDMDL
