MODEL 1
REMARK minimizedAffinity 7.49220133
REMARK minimizedRMSD -1
REMARK  0 active torsions:
REMARK  status: ('A' for Active; 'I' for Inactive)
ROOT
ATOM      1  C   UNL d   1       1.710  -3.548  -1.460  0.00  0.00    -0.002 A 
ATOM      2  C1  UNL d   1       2.613  -4.219  -2.273  0.00  0.00     0.010 A 
ATOM      3  C2  UNL d   1       3.962  -3.860  -2.283  0.00  0.00     0.041 A 
ATOM      4  C3  UNL d   1       4.394  -2.806  -1.454  0.00  0.00    -0.075 A 
ATOM      5  S   UNL d   1       5.998  -2.194  -1.301  0.00  0.00     0.015 SA
ATOM      6  C4  UNL d   1       5.523  -1.027  -0.152  0.00  0.00     0.022 A 
ATOM      7  C5  UNL d   1       4.177  -1.089   0.119  0.00  0.00     0.026 A 
ATOM      8  C6  UNL d   1       3.504  -2.116  -0.626  0.00  0.00    -0.082 A 
ATOM      9  C7  UNL d   1       2.142  -2.503  -0.639  0.00  0.00     0.045 A 
ENDROOT
TORSDOF 0
ENDMDL
