MODEL 1
REMARK minimizedAffinity 16.344389
REMARK minimizedRMSD -1
REMARK  0 active torsions:
REMARK  status: ('A' for Active; 'I' for Inactive)
ROOT
ATOM      1  C   UNL d   1       1.751   1.363  -4.001  0.00  0.00    -0.002 A 
ATOM      2  C1  UNL d   1       1.723   1.871  -2.710  0.00  0.00     0.010 A 
ATOM      3  C2  UNL d   1       0.579   1.740  -1.920  0.00  0.00     0.041 A 
ATOM      4  C3  UNL d   1      -0.546   1.081  -2.454  0.00  0.00    -0.075 A 
ATOM      5  S   UNL d   1      -2.056   0.802  -1.670  0.00  0.00     0.015 SA
ATOM      6  C4  UNL d   1      -2.700   0.002  -3.030  0.00  0.00     0.022 A 
ATOM      7  C5  UNL d   1      -1.798  -0.060  -4.066  0.00  0.00     0.026 A 
ATOM      8  C6  UNL d   1      -0.542   0.561  -3.751  0.00  0.00    -0.082 A 
ATOM      9  C7  UNL d   1       0.632   0.711  -4.527  0.00  0.00     0.045 A 
ENDROOT
TORSDOF 0
ENDMDL
