MODEL 1
REMARK minimizedAffinity 14.3031101
REMARK minimizedRMSD -1
REMARK  0 active torsions:
REMARK  status: ('A' for Active; 'I' for Inactive)
ROOT
ATOM      1  C   UNL d   1      -1.848  -1.967   4.096  0.00  0.00    -0.002 A 
ATOM      2  C1  UNL d   1      -0.502  -2.221   3.871  0.00  0.00     0.010 A 
ATOM      3  C2  UNL d   1       0.293  -1.291   3.197  0.00  0.00     0.041 A 
ATOM      4  C3  UNL d   1      -0.293  -0.090   2.751  0.00  0.00    -0.075 A 
ATOM      5  S   UNL d   1       0.486   1.195   1.905  0.00  0.00     0.015 SA
ATOM      6  C4  UNL d   1      -0.949   2.111   1.823  0.00  0.00     0.022 A 
ATOM      7  C5  UNL d   1      -2.006   1.467   2.421  0.00  0.00     0.026 A 
ATOM      8  C6  UNL d   1      -1.646   0.188   2.966  0.00  0.00    -0.082 A 
ATOM      9  C7  UNL d   1      -2.425  -0.774   3.652  0.00  0.00     0.045 A 
ENDROOT
TORSDOF 0
ENDMDL
