MODEL 1
REMARK minimizedAffinity 11.8460646
REMARK minimizedRMSD -1
REMARK  0 active torsions:
REMARK  status: ('A' for Active; 'I' for Inactive)
ROOT
ATOM      1  C   UNL d   1      -0.287   2.242  -2.015  0.00  0.00    -0.002 A 
ATOM      2  C1  UNL d   1       0.613   1.214  -1.768  0.00  0.00     0.010 A 
ATOM      3  C2  UNL d   1       0.721   0.657  -0.493  0.00  0.00     0.041 A 
ATOM      4  C3  UNL d   1      -0.099   1.153   0.540  0.00  0.00    -0.075 A 
ATOM      5  S   UNL d   1      -0.140   0.623   2.180  0.00  0.00     0.015 SA
ATOM      6  C4  UNL d   1      -1.353   1.747   2.591  0.00  0.00     0.022 A 
ATOM      7  C5  UNL d   1      -1.729   2.516   1.515  0.00  0.00     0.026 A 
ATOM      8  C6  UNL d   1      -1.013   2.186   0.315  0.00  0.00    -0.082 A 
ATOM      9  C7  UNL d   1      -1.099   2.731  -0.989  0.00  0.00     0.045 A 
ENDROOT
TORSDOF 0
ENDMDL
