MODEL 1
REMARK minimizedAffinity 12.167387
REMARK minimizedRMSD -1
REMARK  0 active torsions:
REMARK  status: ('A' for Active; 'I' for Inactive)
ROOT
ATOM      1  C   UNL d   1       0.356   1.119   2.118  0.00  0.00    -0.002 A 
ATOM      2  C1  UNL d   1      -0.964   1.543   2.196  0.00  0.00     0.010 A 
ATOM      3  C2  UNL d   1      -1.953   0.695   2.698  0.00  0.00     0.041 A 
ATOM      4  C3  UNL d   1      -1.592  -0.598   3.125  0.00  0.00    -0.075 A 
ATOM      5  S   UNL d   1      -2.634  -1.807   3.774  0.00  0.00     0.015 SA
ATOM      6  C4  UNL d   1      -1.353  -2.915   3.964  0.00  0.00     0.022 A 
ATOM      7  C5  UNL d   1      -0.152  -2.392   3.547  0.00  0.00     0.026 A 
ATOM      8  C6  UNL d   1      -0.270  -1.047   3.057  0.00  0.00    -0.082 A 
ATOM      9  C7  UNL d   1       0.711  -0.164   2.543  0.00  0.00     0.045 A 
ENDROOT
TORSDOF 0
ENDMDL
