MODEL 1
REMARK minimizedAffinity 6.26872206
REMARK minimizedRMSD -1
REMARK  0 active torsions:
REMARK  status: ('A' for Active; 'I' for Inactive)
ROOT
ATOM      1  C   UNL d   1       5.115  -3.725  -3.141  0.00  0.00    -0.002 A 
ATOM      2  C1  UNL d   1       3.732  -3.685  -3.040  0.00  0.00     0.010 A 
ATOM      3  C2  UNL d   1       3.118  -3.133  -1.913  0.00  0.00     0.041 A 
ATOM      4  C3  UNL d   1       3.926  -2.616  -0.882  0.00  0.00    -0.075 A 
ATOM      5  S   UNL d   1       3.395  -1.892   0.590  0.00  0.00     0.015 SA
ATOM      6  C4  UNL d   1       4.992  -1.617   1.118  0.00  0.00     0.022 A 
ATOM      7  C5  UNL d   1       5.920  -2.062   0.207  0.00  0.00     0.026 A 
ATOM      8  C6  UNL d   1       5.321  -2.644  -0.961  0.00  0.00    -0.082 A 
ATOM      9  C7  UNL d   1       5.913  -3.211  -2.116  0.00  0.00     0.045 A 
ENDROOT
TORSDOF 0
ENDMDL
