MODEL 1
REMARK minimizedAffinity 16.4941483
REMARK minimizedRMSD -1
REMARK  0 active torsions:
REMARK  status: ('A' for Active; 'I' for Inactive)
ROOT
ATOM      1  C   UNL d   1      -3.002   1.363  -3.774  0.00  0.00    -0.002 A 
ATOM      2  C1  UNL d   1      -4.313   1.725  -4.053  0.00  0.00     0.010 A 
ATOM      3  C2  UNL d   1      -4.641   3.055  -4.318  0.00  0.00     0.041 A 
ATOM      4  C3  UNL d   1      -3.620   4.026  -4.300  0.00  0.00    -0.075 A 
ATOM      5  S   UNL d   1      -3.788   5.716  -4.596  0.00  0.00     0.015 SA
ATOM      6  C4  UNL d   1      -2.124   5.998  -4.361  0.00  0.00     0.022 A 
ATOM      7  C5  UNL d   1      -1.442   4.842  -4.063  0.00  0.00     0.026 A 
ATOM      8  C6  UNL d   1      -2.293   3.686  -4.023  0.00  0.00    -0.082 A 
ATOM      9  C7  UNL d   1      -1.992   2.329  -3.758  0.00  0.00     0.045 A 
ENDROOT
TORSDOF 0
ENDMDL
