MODEL 1
REMARK minimizedAffinity -0.931055188
REMARK minimizedRMSD -1
REMARK  0 active torsions:
REMARK  status: ('A' for Active; 'I' for Inactive)
ROOT
ATOM      1  C   UNL d   1      -1.735   2.117   0.609  0.00  0.00     0.124 A 
ATOM      2  C1  UNL d   1      -1.447   0.898   0.012  0.00  0.00     0.062 A 
ATOM      3  C2  UNL d   1      -0.369   0.138   0.457  0.00  0.00     0.162 A 
ATOM      4  C3  UNL d   1       0.428   0.594   1.507  0.00  0.00    -0.034 A 
ATOM      5  C4  UNL d   1       0.133   1.822   2.102  0.00  0.00     0.162 A 
ATOM      6  C5  UNL d   1      -0.945   2.578   1.653  0.00  0.00     0.062 A 
ATOM      7  F   UNL d   1      -1.222   3.756   2.231  0.00  0.00    -0.097 F 
ATOM      8  F1  UNL d   1       0.879   2.291   3.113  0.00  0.00    -0.096 F 
ATOM      9  I   UNL d   1       2.040  -0.540   2.176  0.00  0.00    -0.060 I 
ATOM     10  F2  UNL d   1      -0.114  -1.037  -0.138  0.00  0.00    -0.096 F 
ATOM     11  F3  UNL d   1      -2.208   0.451  -0.998  0.00  0.00    -0.097 F 
ATOM     12  F4  UNL d   1      -2.772   2.847   0.178  0.00  0.00    -0.092 F 
ENDROOT
TORSDOF 0
ENDMDL
