MODEL 1
REMARK minimizedAffinity 1.5095365
REMARK minimizedRMSD -1
REMARK  0 active torsions:
REMARK  status: ('A' for Active; 'I' for Inactive)
ROOT
ATOM      1  C   UNL d   1      -0.701   2.646   1.523  0.00  0.00     0.124 A 
ATOM      2  C1  UNL d   1      -1.419   2.364   0.370  0.00  0.00     0.062 A 
ATOM      3  C2  UNL d   1      -1.065   1.280  -0.428  0.00  0.00     0.162 A 
ATOM      4  C3  UNL d   1       0.013   0.468  -0.074  0.00  0.00    -0.034 A 
ATOM      5  C4  UNL d   1       0.731   0.758   1.087  0.00  0.00     0.162 A 
ATOM      6  C5  UNL d   1       0.373   1.843   1.881  0.00  0.00     0.062 A 
ATOM      7  F   UNL d   1       1.068   2.114   2.995  0.00  0.00    -0.097 F 
ATOM      8  F1  UNL d   1       1.773  -0.001   1.456  0.00  0.00    -0.096 F 
ATOM      9  I   UNL d   1       0.546  -1.154  -1.265  0.00  0.00    -0.060 I 
ATOM     10  F2  UNL d   1      -1.776   1.031  -1.538  0.00  0.00    -0.096 F 
ATOM     11  F3  UNL d   1      -2.457   3.138   0.022  0.00  0.00    -0.097 F 
ATOM     12  F4  UNL d   1      -1.043   3.690   2.289  0.00  0.00    -0.092 F 
ENDROOT
TORSDOF 0
ENDMDL
