MODEL 1
REMARK minimizedAffinity -1.30497742
REMARK minimizedRMSD -1
REMARK  0 active torsions:
REMARK  status: ('A' for Active; 'I' for Inactive)
ROOT
ATOM      1  C   UNL d   1       0.251   1.054   1.430  0.00  0.00     0.124 A 
ATOM      2  C1  UNL d   1       1.231   0.085   1.263  0.00  0.00     0.062 A 
ATOM      3  C2  UNL d   1       1.110  -0.866   0.254  0.00  0.00     0.162 A 
ATOM      4  C3  UNL d   1       0.005  -0.852  -0.598  0.00  0.00    -0.034 A 
ATOM      5  C4  UNL d   1      -0.976   0.125  -0.423  0.00  0.00     0.162 A 
ATOM      6  C5  UNL d   1      -0.851   1.073   0.587  0.00  0.00     0.062 A 
ATOM      7  F   UNL d   1      -1.798   2.009   0.747  0.00  0.00    -0.097 F 
ATOM      8  F1  UNL d   1      -2.052   0.168  -1.224  0.00  0.00    -0.096 F 
ATOM      9  I   UNL d   1      -0.180  -2.272  -2.108  0.00  0.00    -0.060 I 
ATOM     10  F2  UNL d   1       2.071  -1.791   0.115  0.00  0.00    -0.096 F 
ATOM     11  F3  UNL d   1       2.296   0.063   2.077  0.00  0.00    -0.097 F 
ATOM     12  F4  UNL d   1       0.370   1.967   2.402  0.00  0.00    -0.092 F 
ENDROOT
TORSDOF 0
ENDMDL
