MODEL 1
REMARK minimizedAffinity 7.51845217
REMARK minimizedRMSD -1
REMARK  0 active torsions:
REMARK  status: ('A' for Active; 'I' for Inactive)
ROOT
ATOM      1  C   UNL d   1      -0.163   0.638  -1.054  0.00  0.00     0.124 A 
ATOM      2  C1  UNL d   1       0.932   0.401  -1.874  0.00  0.00     0.062 A 
ATOM      3  C2  UNL d   1       2.135  -0.035  -1.327  0.00  0.00     0.162 A 
ATOM      4  C3  UNL d   1       2.250  -0.238   0.048  0.00  0.00    -0.034 A 
ATOM      5  C4  UNL d   1       1.145   0.004   0.867  0.00  0.00     0.162 A 
ATOM      6  C5  UNL d   1      -0.055   0.439   0.315  0.00  0.00     0.062 A 
ATOM      7  F   UNL d   1      -1.111   0.667   1.109  0.00  0.00    -0.097 F 
ATOM      8  F1  UNL d   1       1.222  -0.181   2.193  0.00  0.00    -0.096 F 
ATOM      9  I   UNL d   1       4.048  -0.889   0.871  0.00  0.00    -0.060 I 
ATOM     10  F2  UNL d   1       3.176  -0.255  -2.143  0.00  0.00    -0.096 F 
ATOM     11  F3  UNL d   1       0.831   0.593  -3.197  0.00  0.00    -0.097 F 
ATOM     12  F4  UNL d   1      -1.319   1.058  -1.583  0.00  0.00    -0.092 F 
ENDROOT
TORSDOF 0
ENDMDL
