MODEL 1
REMARK minimizedAffinity -3.7962923
REMARK minimizedRMSD -1
REMARK  0 active torsions:
REMARK  status: ('A' for Active; 'I' for Inactive)
ROOT
ATOM      1  C   UNL d   1      -0.213  -2.185  -1.503  0.00  0.00     0.124 A 
ATOM      2  C1  UNL d   1       0.821  -3.097  -1.664  0.00  0.00     0.062 A 
ATOM      3  C2  UNL d   1       2.054  -2.872  -1.059  0.00  0.00     0.162 A 
ATOM      4  C3  UNL d   1       2.259  -1.730  -0.285  0.00  0.00    -0.034 A 
ATOM      5  C4  UNL d   1       1.215  -0.817  -0.128  0.00  0.00     0.162 A 
ATOM      6  C5  UNL d   1      -0.015  -1.046  -0.735  0.00  0.00     0.062 A 
ATOM      7  F   UNL d   1      -1.013  -0.164  -0.578  0.00  0.00    -0.097 F 
ATOM      8  F1  UNL d   1       1.379   0.292   0.610  0.00  0.00    -0.096 F 
ATOM      9  I   UNL d   1       4.101  -1.389   0.622  0.00  0.00    -0.060 I 
ATOM     10  F2  UNL d   1       3.035  -3.770  -1.232  0.00  0.00    -0.096 F 
ATOM     11  F3  UNL d   1       0.632  -4.197  -2.407  0.00  0.00    -0.097 F 
ATOM     12  F4  UNL d   1      -1.398  -2.404  -2.087  0.00  0.00    -0.092 F 
ENDROOT
TORSDOF 0
ENDMDL
