MODEL 1
REMARK minimizedAffinity 2.22470021
REMARK minimizedRMSD -1
REMARK  0 active torsions:
REMARK  status: ('A' for Active; 'I' for Inactive)
ROOT
ATOM      1  C   UNL d   1       0.392   1.324   1.202  0.00  0.00     0.124 A 
ATOM      2  C1  UNL d   1       1.288   0.295   0.943  0.00  0.00     0.062 A 
ATOM      3  C2  UNL d   1       0.852  -0.873   0.325  0.00  0.00     0.162 A 
ATOM      4  C3  UNL d   1      -0.486  -1.019  -0.040  0.00  0.00    -0.034 A 
ATOM      5  C4  UNL d   1      -1.381   0.019   0.224  0.00  0.00     0.162 A 
ATOM      6  C5  UNL d   1      -0.941   1.185   0.842  0.00  0.00     0.062 A 
ATOM      7  F   UNL d   1      -1.807   2.178   1.091  0.00  0.00    -0.097 F 
ATOM      8  F1  UNL d   1      -2.675  -0.088  -0.114  0.00  0.00    -0.096 F 
ATOM      9  I   UNL d   1      -1.141  -2.765  -0.965  0.00  0.00    -0.060 I 
ATOM     10  F2  UNL d   1       1.739  -1.851   0.088  0.00  0.00    -0.096 F 
ATOM     11  F3  UNL d   1       2.576   0.427   1.291  0.00  0.00    -0.097 F 
ATOM     12  F4  UNL d   1       0.814   2.447   1.798  0.00  0.00    -0.092 F 
ENDROOT
TORSDOF 0
ENDMDL
