MODEL 1
REMARK minimizedAffinity -1.07515693
REMARK minimizedRMSD -1
REMARK  2 active torsions:
REMARK  status: ('A' for Active; 'I' for Inactive)
REMARK    1  A    between atoms: C1_2  and  C2_3 
REMARK    2  A    between atoms: C2_3  and  C3_4 
ROOT
ATOM      1  C3  UNL d   1      -0.795  -0.199  -0.337  0.00  0.00    -0.075 A 
ATOM      2  C4  UNL d   1      -0.239  -1.435  -0.695  0.00  0.00     0.002 A 
ATOM      3  C5  UNL d   1       1.123  -1.679  -0.513  0.00  0.00     0.002 A 
ATOM      4  C6  UNL d   1       1.945  -0.689   0.021  0.00  0.00    -0.004 A 
ATOM      5  C7  UNL d   1       1.406   0.548   0.365  0.00  0.00     0.002 A 
ATOM      6  C8  UNL d   1       0.043   0.793   0.187  0.00  0.00     0.002 A 
ENDROOT
BRANCH   1   7
ATOM      7  C2  UNL d   1      -2.274   0.060  -0.504  0.00  0.00     0.056 C 
BRANCH   7   8
ATOM      8  C1  UNL d   1      -2.989   0.454   0.792  0.00  0.00     0.007 C 
ATOM      9  C   UNL d   1      -4.504   0.328   0.704  0.00  0.00     0.009 C 
ENDBRANCH   7   8
ENDBRANCH   1   7
TORSDOF 2
ENDMDL
