MODEL 1
REMARK minimizedAffinity -3.80299759
REMARK minimizedRMSD -1
REMARK  2 active torsions:
REMARK  status: ('A' for Active; 'I' for Inactive)
REMARK    1  A    between atoms: C1_2  and  C2_3 
REMARK    2  A    between atoms: C2_3  and  C3_4 
ROOT
ATOM      1  C3  UNL d   1       1.028   0.079   0.189  0.00  0.00    -0.075 A 
ATOM      2  C4  UNL d   1      -0.152   0.562  -0.396  0.00  0.00     0.002 A 
ATOM      3  C5  UNL d   1      -0.298   1.920  -0.679  0.00  0.00     0.002 A 
ATOM      4  C6  UNL d   1       0.727   2.812  -0.374  0.00  0.00    -0.004 A 
ATOM      5  C7  UNL d   1       1.897   2.347   0.222  0.00  0.00     0.002 A 
ATOM      6  C8  UNL d   1       2.047   0.988   0.503  0.00  0.00     0.002 A 
ENDROOT
BRANCH   1   7
ATOM      7  C2  UNL d   1       1.204  -1.394   0.472  0.00  0.00     0.056 C 
BRANCH   7   8
ATOM      8  C1  UNL d   1       2.595  -1.934   0.123  0.00  0.00     0.007 C 
ATOM      9  C   UNL d   1       3.693  -1.395   1.031  0.00  0.00     0.009 C 
ENDBRANCH   7   8
ENDBRANCH   1   7
TORSDOF 2
ENDMDL
