MODEL 1
REMARK minimizedAffinity -6.27015734
REMARK minimizedRMSD -1
REMARK  2 active torsions:
REMARK  status: ('A' for Active; 'I' for Inactive)
REMARK    1  A    between atoms: C1_2  and  C2_3 
REMARK    2  A    between atoms: C2_3  and  C3_4 
ROOT
ATOM      1  C3  UNL d   1       0.642   0.132  -0.199  0.00  0.00    -0.075 A 
ATOM      2  C4  UNL d   1       1.344  -0.996   0.250  0.00  0.00     0.002 A 
ATOM      3  C5  UNL d   1       2.649  -0.873   0.727  0.00  0.00     0.002 A 
ATOM      4  C6  UNL d   1       3.271   0.373   0.754  0.00  0.00    -0.004 A 
ATOM      5  C7  UNL d   1       2.588   1.498   0.295  0.00  0.00     0.002 A 
ATOM      6  C8  UNL d   1       1.281   1.379  -0.179  0.00  0.00     0.002 A 
ENDROOT
BRANCH   1   7
ATOM      7  C2  UNL d   1      -0.781   0.011  -0.690  0.00  0.00     0.056 C 
BRANCH   7   8
ATOM      8  C1  UNL d   1      -1.806   0.744   0.182  0.00  0.00     0.007 C 
ATOM      9  C   UNL d   1      -3.223   0.208   0.023  0.00  0.00     0.009 C 
ENDBRANCH   7   8
ENDBRANCH   1   7
TORSDOF 2
ENDMDL
