MODEL 1
REMARK minimizedAffinity -6.13152313
REMARK minimizedRMSD -1
REMARK  2 active torsions:
REMARK  status: ('A' for Active; 'I' for Inactive)
REMARK    1  A    between atoms: C1_2  and  C2_3 
REMARK    2  A    between atoms: C2_3  and  C3_4 
ROOT
ATOM      1  C3  UNL d   1       0.045  -0.234   0.120  0.00  0.00    -0.075 A 
ATOM      2  C4  UNL d   1       0.686  -1.481   0.106  0.00  0.00     0.002 A 
ATOM      3  C5  UNL d   1       2.063  -1.571   0.309  0.00  0.00     0.002 A 
ATOM      4  C6  UNL d   1       2.817  -0.418   0.518  0.00  0.00    -0.004 A 
ATOM      5  C7  UNL d   1       2.193   0.827   0.516  0.00  0.00     0.002 A 
ATOM      6  C8  UNL d   1       0.814   0.921   0.318  0.00  0.00     0.002 A 
ENDROOT
BRANCH   1   7
ATOM      7  C2  UNL d   1      -1.450  -0.131  -0.070  0.00  0.00     0.056 C 
BRANCH   7   8
ATOM      8  C1  UNL d   1      -1.993   1.299   0.011  0.00  0.00     0.007 C 
ATOM      9  C   UNL d   1      -3.136   1.452   1.006  0.00  0.00     0.009 C 
ENDBRANCH   7   8
ENDBRANCH   1   7
TORSDOF 2
ENDMDL
