MODEL 1
REMARK minimizedAffinity -4.60950327
REMARK minimizedRMSD -1
REMARK  2 active torsions:
REMARK  status: ('A' for Active; 'I' for Inactive)
REMARK    1  A    between atoms: C1_2  and  C2_3 
REMARK    2  A    between atoms: C2_3  and  C3_4 
ROOT
ATOM      1  C3  UNL d   1      -0.389   0.030  -0.192  0.00  0.00    -0.075 A 
ATOM      2  C4  UNL d   1      -0.433  -1.354  -0.416  0.00  0.00     0.002 A 
ATOM      3  C5  UNL d   1       0.745  -2.097  -0.496  0.00  0.00     0.002 A 
ATOM      4  C6  UNL d   1       1.980  -1.465  -0.365  0.00  0.00    -0.004 A 
ATOM      5  C7  UNL d   1       2.036  -0.088  -0.160  0.00  0.00     0.002 A 
ATOM      6  C8  UNL d   1       0.858   0.656  -0.074  0.00  0.00     0.002 A 
ENDROOT
BRANCH   1   7
ATOM      7  C2  UNL d   1      -1.662   0.834  -0.074  0.00  0.00     0.056 C 
BRANCH   7   8
ATOM      8  C1  UNL d   1      -2.579   0.386   1.069  0.00  0.00     0.007 C 
ATOM      9  C   UNL d   1      -3.924   1.101   1.075  0.00  0.00     0.009 C 
ENDBRANCH   7   8
ENDBRANCH   1   7
TORSDOF 2
ENDMDL
