MODEL 1
REMARK minimizedAffinity -5.27587414
REMARK minimizedRMSD -1
REMARK  1 active torsions:
REMARK  status: ('A' for Active; 'I' for Inactive)
REMARK    1  A    between atoms: C1_2  and  C2_3 
ROOT
ATOM      1  C2  UNL d   1       1.079   0.816   0.544  0.00  0.00    -0.077 A 
ATOM      2  C3  UNL d   1       2.222   0.011   0.644  0.00  0.00     0.002 A 
ATOM      3  C4  UNL d   1       2.211  -1.295   0.150  0.00  0.00     0.002 A 
ATOM      4  C5  UNL d   1       1.062  -1.805  -0.451  0.00  0.00    -0.004 A 
ATOM      5  C6  UNL d   1      -0.081  -1.012  -0.553  0.00  0.00     0.002 A 
ATOM      6  C7  UNL d   1      -0.072   0.293  -0.058  0.00  0.00     0.002 A 
ENDROOT
BRANCH   1   7
ATOM      7  C1  UNL d   1       1.104   2.241   1.032  0.00  0.00     0.055 C 
ATOM      8  C   UNL d   1       2.526   2.777   1.103  0.00  0.00     0.019 C 
ENDBRANCH   1   7
TORSDOF 1
ENDMDL
