MODEL 1
REMARK minimizedAffinity -3.29293084
REMARK minimizedRMSD -1
REMARK  1 active torsions:
REMARK  status: ('A' for Active; 'I' for Inactive)
REMARK    1  A    between atoms: C1_2  and  C2_3 
ROOT
ATOM      1  C2  UNL d   1       0.698   0.679   0.240  0.00  0.00    -0.077 A 
ATOM      2  C3  UNL d   1      -0.409   0.516  -0.606  0.00  0.00     0.002 A 
ATOM      3  C4  UNL d   1      -0.643  -0.708  -1.235  0.00  0.00     0.002 A 
ATOM      4  C5  UNL d   1       0.221  -1.780  -1.022  0.00  0.00    -0.004 A 
ATOM      5  C6  UNL d   1       1.326  -1.627  -0.184  0.00  0.00     0.002 A 
ATOM      6  C7  UNL d   1       1.562  -0.404   0.444  0.00  0.00     0.002 A 
ENDROOT
BRANCH   1   7
ATOM      7  C1  UNL d   1       0.925   1.983   0.958  0.00  0.00     0.055 C 
ATOM      8  C   UNL d   1      -0.195   2.273   1.946  0.00  0.00     0.019 C 
ENDBRANCH   1   7
TORSDOF 1
ENDMDL
