MODEL 1
REMARK minimizedAffinity 4.90275764
REMARK minimizedRMSD -1
REMARK  1 active torsions:
REMARK  status: ('A' for Active; 'I' for Inactive)
REMARK    1  A    between atoms: C1_2  and  C2_3 
ROOT
ATOM      1  C2  UNL d   1       0.508  -1.383  -0.432  0.00  0.00    -0.077 A 
ATOM      2  C3  UNL d   1      -0.711  -1.406  -1.124  0.00  0.00     0.002 A 
ATOM      3  C4  UNL d   1      -1.501  -0.257  -1.200  0.00  0.00     0.002 A 
ATOM      4  C5  UNL d   1      -1.080   0.922  -0.590  0.00  0.00    -0.004 A 
ATOM      5  C6  UNL d   1       0.130   0.954   0.103  0.00  0.00     0.002 A 
ATOM      6  C7  UNL d   1       0.921  -0.193   0.180  0.00  0.00     0.002 A 
ENDROOT
BRANCH   1   7
ATOM      7  C1  UNL d   1       1.386  -2.607  -0.391  0.00  0.00     0.055 C 
ATOM      8  C   UNL d   1       2.813  -2.252   0.000  0.00  0.00     0.019 C 
ENDBRANCH   1   7
TORSDOF 1
ENDMDL
