MODEL 1
REMARK minimizedAffinity -3.18347692
REMARK minimizedRMSD -1
REMARK  1 active torsions:
REMARK  status: ('A' for Active; 'I' for Inactive)
REMARK    1  A    between atoms: C1_2  and  C2_3 
ROOT
ATOM      1  C2  UNL d   1       2.463  -0.304  -0.303  0.00  0.00    -0.077 A 
ATOM      2  C3  UNL d   1       3.491  -0.218  -1.252  0.00  0.00     0.002 A 
ATOM      3  C4  UNL d   1       3.727  -1.273  -2.136  0.00  0.00     0.002 A 
ATOM      4  C5  UNL d   1       2.936  -2.419  -2.082  0.00  0.00    -0.004 A 
ATOM      5  C6  UNL d   1       1.912  -2.515  -1.141  0.00  0.00     0.002 A 
ATOM      6  C7  UNL d   1       1.676  -1.462  -0.256  0.00  0.00     0.002 A 
ENDROOT
BRANCH   1   7
ATOM      7  C1  UNL d   1       2.176   0.852   0.618  0.00  0.00     0.055 C 
ATOM      8  C   UNL d   1       3.267   1.909   0.537  0.00  0.00     0.019 C 
ENDBRANCH   1   7
TORSDOF 1
ENDMDL
