MODEL 1
REMARK minimizedAffinity 4.68414688
REMARK minimizedRMSD -1
REMARK  1 active torsions:
REMARK  status: ('A' for Active; 'I' for Inactive)
REMARK    1  A    between atoms: C1_2  and  C2_3 
ROOT
ATOM      1  C2  UNL d   1       0.361  -0.093  -0.110  0.00  0.00    -0.077 A 
ATOM      2  C3  UNL d   1      -0.927  -0.482  -0.505  0.00  0.00     0.002 A 
ATOM      3  C4  UNL d   1      -1.216  -1.827  -0.745  0.00  0.00     0.002 A 
ATOM      4  C5  UNL d   1      -0.225  -2.793  -0.588  0.00  0.00    -0.004 A 
ATOM      5  C6  UNL d   1       1.059  -2.416  -0.197  0.00  0.00     0.002 A 
ATOM      6  C7  UNL d   1       1.351  -1.073   0.042  0.00  0.00     0.002 A 
ENDROOT
BRANCH   1   7
ATOM      7  C1  UNL d   1       0.662   1.351   0.197  0.00  0.00     0.055 C 
ATOM      8  C   UNL d   1       1.481   1.486   1.471  0.00  0.00     0.019 C 
ENDBRANCH   1   7
TORSDOF 1
ENDMDL
