MODEL 1
REMARK minimizedAffinity -2.50766754
REMARK minimizedRMSD -1
REMARK  1 active torsions:
REMARK  status: ('A' for Active; 'I' for Inactive)
REMARK    1  A    between atoms: C1_2  and  C2_3 
ROOT
ATOM      1  C2  UNL d   1      -1.115   0.579   0.179  0.00  0.00    -0.077 A 
ATOM      2  C3  UNL d   1      -0.463   1.388   1.120  0.00  0.00     0.002 A 
ATOM      3  C4  UNL d   1      -1.189   2.020   2.132  0.00  0.00     0.002 A 
ATOM      4  C5  UNL d   1      -2.569   1.846   2.214  0.00  0.00    -0.004 A 
ATOM      5  C6  UNL d   1      -3.227   1.044   1.281  0.00  0.00     0.002 A 
ATOM      6  C7  UNL d   1      -2.503   0.413   0.269  0.00  0.00     0.002 A 
ENDROOT
BRANCH   1   7
ATOM      7  C1  UNL d   1      -0.327  -0.143  -0.883  0.00  0.00     0.055 C 
ATOM      8  C   UNL d   1      -0.391  -1.651  -0.691  0.00  0.00     0.019 C 
ENDBRANCH   1   7
TORSDOF 1
ENDMDL
