MODEL 1
REMARK minimizedAffinity 0.405135691
REMARK minimizedRMSD -1
REMARK  1 active torsions:
REMARK  status: ('A' for Active; 'I' for Inactive)
REMARK    1  A    between atoms: C1_2  and  C2_3 
ROOT
ATOM      1  C2  UNL d   1       1.571  -2.207  -1.292  0.00  0.00    -0.077 A 
ATOM      2  C3  UNL d   1       2.788  -1.723  -0.791  0.00  0.00     0.002 A 
ATOM      3  C4  UNL d   1       3.986  -2.010  -1.449  0.00  0.00     0.002 A 
ATOM      4  C5  UNL d   1       3.978  -2.776  -2.612  0.00  0.00    -0.004 A 
ATOM      5  C6  UNL d   1       2.773  -3.263  -3.117  0.00  0.00     0.002 A 
ATOM      6  C7  UNL d   1       1.575  -2.979  -2.461  0.00  0.00     0.002 A 
ENDROOT
BRANCH   1   7
ATOM      7  C1  UNL d   1       0.273  -1.858  -0.612  0.00  0.00     0.055 C 
ATOM      8  C   UNL d   1      -0.902  -1.966  -1.573  0.00  0.00     0.019 C 
ENDBRANCH   1   7
TORSDOF 1
ENDMDL
