MODEL 1
REMARK minimizedAffinity -2.22134972
REMARK minimizedRMSD -1
REMARK  1 active torsions:
REMARK  status: ('A' for Active; 'I' for Inactive)
REMARK    1  A    between atoms: C1_2  and  C2_3 
ROOT
ATOM      1  C2  UNL d   1       1.863  -0.152  -0.765  0.00  0.00    -0.077 A 
ATOM      2  C3  UNL d   1       2.805   0.797  -0.344  0.00  0.00     0.002 A 
ATOM      3  C4  UNL d   1       4.168   0.581  -0.559  0.00  0.00     0.002 A 
ATOM      4  C5  UNL d   1       4.600  -0.579  -1.198  0.00  0.00    -0.004 A 
ATOM      5  C6  UNL d   1       3.670  -1.530  -1.618  0.00  0.00     0.002 A 
ATOM      6  C7  UNL d   1       2.308  -1.317  -1.403  0.00  0.00     0.002 A 
ENDROOT
BRANCH   1   7
ATOM      7  C1  UNL d   1       0.389   0.101  -0.578  0.00  0.00     0.055 C 
ATOM      8  C   UNL d   1       0.089   1.591  -0.500  0.00  0.00     0.019 C 
ENDBRANCH   1   7
TORSDOF 1
ENDMDL
