MODEL 1
REMARK minimizedAffinity 7.75225782
REMARK minimizedRMSD -1
REMARK  0 active torsions:
REMARK  status: ('A' for Active; 'I' for Inactive)
ROOT
ATOM      1  O1  BZF d   1       1.394   3.878   0.750  0.00  0.00    -0.204 OA
ATOM      2  C2  BZF d   1       0.168   3.803   0.116  0.00  0.00     0.174 A 
ATOM      3  C3  BZF d   1      -0.525   2.727   0.541  0.00  0.00    -0.012 A 
ATOM      4  C3A BZF d   1       0.281   2.142   1.568  0.00  0.00    -0.107 A 
ATOM      5  C4  BZF d   1       0.123   1.056   2.381  0.00  0.00     0.055 A 
ATOM      6  C5  BZF d   1       1.129   0.712   3.227  0.00  0.00    -0.016 A 
ATOM      7  C6  BZF d   1       2.308   1.426   3.281  0.00  0.00     0.022 A 
ATOM      8  C7  BZF d   1       2.510   2.513   2.497  0.00  0.00     0.029 A 
ATOM      9  C7A BZF d   1       1.481   2.883   1.665  0.00  0.00     0.058 A 
ENDROOT
TORSDOF 0
ENDMDL
