MODEL 1
REMARK minimizedAffinity 6.48016167
REMARK minimizedRMSD -1
REMARK  0 active torsions:
REMARK  status: ('A' for Active; 'I' for Inactive)
ROOT
ATOM      1  O1  BZF d   1       2.168   0.750   1.374  0.00  0.00    -0.204 OA
ATOM      2  C2  BZF d   1       1.559  -0.482   1.239  0.00  0.00     0.174 A 
ATOM      3  C3  BZF d   1       0.336  -0.353   0.687  0.00  0.00    -0.012 A 
ATOM      4  C3A BZF d   1       0.207   1.038   0.379  0.00  0.00    -0.107 A 
ATOM      5  C4  BZF d   1      -0.781   1.785  -0.199  0.00  0.00     0.055 A 
ATOM      6  C5  BZF d   1      -0.624   3.132  -0.288  0.00  0.00    -0.016 A 
ATOM      7  C6  BZF d   1       0.502   3.765   0.195  0.00  0.00     0.022 A 
ATOM      8  C7  BZF d   1       1.510   3.067   0.772  0.00  0.00     0.029 A 
ATOM      9  C7A BZF d   1       1.370   1.702   0.833  0.00  0.00     0.058 A 
ENDROOT
TORSDOF 0
ENDMDL
