MODEL 1
REMARK minimizedAffinity -0.324941158
REMARK minimizedRMSD -1
REMARK  0 active torsions:
REMARK  status: ('A' for Active; 'I' for Inactive)
ROOT
ATOM      1  O1  BZF d   1       1.657   4.442  -0.657  0.00  0.00    -0.204 OA
ATOM      2  C2  BZF d   1       0.983   5.553  -1.125  0.00  0.00     0.174 A 
ATOM      3  C3  BZF d   1      -0.330   5.288  -1.275  0.00  0.00    -0.012 A 
ATOM      4  C3A BZF d   1      -0.503   3.953  -0.789  0.00  0.00    -0.107 A 
ATOM      5  C4  BZF d   1      -1.587   3.132  -0.663  0.00  0.00     0.055 A 
ATOM      6  C5  BZF d   1      -1.404   1.861  -0.220  0.00  0.00    -0.016 A 
ATOM      7  C6  BZF d   1      -0.153   1.376   0.100  0.00  0.00     0.022 A 
ATOM      8  C7  BZF d   1       0.951   2.154  -0.004  0.00  0.00     0.029 A 
ATOM      9  C7A BZF d   1       0.766   3.450  -0.420  0.00  0.00     0.058 A 
ENDROOT
TORSDOF 0
ENDMDL
