MODEL 1
REMARK minimizedAffinity 6.50322342
REMARK minimizedRMSD -1
REMARK  0 active torsions:
REMARK  status: ('A' for Active; 'I' for Inactive)
ROOT
ATOM      1  O1  BZF d   1       1.494   2.533   0.179  0.00  0.00    -0.204 OA
ATOM      2  C2  BZF d   1       0.305   1.829   0.180  0.00  0.00     0.174 A 
ATOM      3  C3  BZF d   1      -0.689   2.568  -0.352  0.00  0.00    -0.012 A 
ATOM      4  C3A BZF d   1      -0.065   3.778  -0.793  0.00  0.00    -0.107 A 
ATOM      5  C4  BZF d   1      -0.529   4.900  -1.417  0.00  0.00     0.055 A 
ATOM      6  C5  BZF d   1       0.326   5.932  -1.642  0.00  0.00    -0.016 A 
ATOM      7  C6  BZF d   1       1.648   5.878  -1.251  0.00  0.00     0.022 A 
ATOM      8  C7  BZF d   1       2.155   4.784  -0.633  0.00  0.00     0.029 A 
ATOM      9  C7A BZF d   1       1.302   3.726  -0.434  0.00  0.00     0.058 A 
ENDROOT
TORSDOF 0
ENDMDL
