MODEL 1
REMARK minimizedAffinity 11.1179018
REMARK minimizedRMSD -1
REMARK  0 active torsions:
REMARK  status: ('A' for Active; 'I' for Inactive)
ROOT
ATOM      1  O1  BZF d   1      -3.760   3.852  -3.833  0.00  0.00    -0.204 OA
ATOM      2  C2  BZF d   1      -4.944   4.496  -4.137  0.00  0.00     0.174 A 
ATOM      3  C3  BZF d   1      -5.999   3.683  -3.926  0.00  0.00    -0.012 A 
ATOM      4  C3A BZF d   1      -5.446   2.484  -3.374  0.00  0.00    -0.107 A 
ATOM      5  C4  BZF d   1      -5.993   1.310  -2.941  0.00  0.00     0.055 A 
ATOM      6  C5  BZF d   1      -5.171   0.312  -2.525  0.00  0.00    -0.016 A 
ATOM      7  C6  BZF d   1      -3.798   0.451  -2.533  0.00  0.00     0.022 A 
ATOM      8  C7  BZF d   1      -3.209   1.599  -2.949  0.00  0.00     0.029 A 
ATOM      9  C7A BZF d   1      -4.039   2.621  -3.338  0.00  0.00     0.058 A 
ENDROOT
TORSDOF 0
ENDMDL
