MODEL 1
REMARK minimizedAffinity 6.79084539
REMARK minimizedRMSD -1
REMARK  0 active torsions:
REMARK  status: ('A' for Active; 'I' for Inactive)
ROOT
ATOM      1  O1  BZF d   1      -3.774   1.779  -2.653  0.00  0.00    -0.204 OA
ATOM      2  C2  BZF d   1      -4.941   1.043  -2.579  0.00  0.00     0.174 A 
ATOM      3  C3  BZF d   1      -6.000   1.786  -2.960  0.00  0.00    -0.012 A 
ATOM      4  C3A BZF d   1      -5.450   3.038  -3.380  0.00  0.00    -0.107 A 
ATOM      5  C4  BZF d   1      -5.999   4.184  -3.880  0.00  0.00     0.055 A 
ATOM      6  C5  BZF d   1      -5.194   5.252  -4.121  0.00  0.00    -0.016 A 
ATOM      7  C6  BZF d   1      -3.838   5.210  -3.868  0.00  0.00     0.022 A 
ATOM      8  C7  BZF d   1      -3.247   4.094  -3.377  0.00  0.00     0.029 A 
ATOM      9  C7A BZF d   1      -4.053   3.002  -3.164  0.00  0.00     0.058 A 
ENDROOT
TORSDOF 0
ENDMDL
