MODEL 1
REMARK minimizedAffinity 4.70912361
REMARK minimizedRMSD -1
REMARK  0 active torsions:
REMARK  status: ('A' for Active; 'I' for Inactive)
ROOT
ATOM      1  O1  BZF d   1      -0.683  -3.746  -2.082  0.00  0.00    -0.204 OA
ATOM      2  C2  BZF d   1      -0.729  -2.591  -2.838  0.00  0.00     0.174 A 
ATOM      3  C3  BZF d   1       0.394  -2.455  -3.573  0.00  0.00    -0.012 A 
ATOM      4  C3A BZF d   1       1.151  -3.644  -3.326  0.00  0.00    -0.107 A 
ATOM      5  C4  BZF d   1       2.354  -4.102  -3.782  0.00  0.00     0.055 A 
ATOM      6  C5  BZF d   1       2.846  -5.269  -3.289  0.00  0.00    -0.016 A 
ATOM      7  C6  BZF d   1       2.165  -6.000  -2.337  0.00  0.00     0.022 A 
ATOM      8  C7  BZF d   1       0.966  -5.588  -1.859  0.00  0.00     0.029 A 
ATOM      9  C7A BZF d   1       0.451  -4.426  -2.379  0.00  0.00     0.058 A 
ENDROOT
TORSDOF 0
ENDMDL
