MODEL 1
REMARK minimizedAffinity -4.53716326
REMARK minimizedRMSD -1
REMARK  0 active torsions:
REMARK  status: ('A' for Active; 'I' for Inactive)
ROOT
ATOM      1  O1  BZF d   1      -3.776   4.497  -5.263  0.00  0.00    -0.204 OA
ATOM      2  C2  BZF d   1      -4.953   4.971  -5.808  0.00  0.00     0.174 A 
ATOM      3  C3  BZF d   1      -6.000   4.217  -5.416  0.00  0.00    -0.012 A 
ATOM      4  C3A BZF d   1      -5.454   3.264  -4.499  0.00  0.00    -0.107 A 
ATOM      5  C4  BZF d   1      -6.000   2.253  -3.761  0.00  0.00     0.055 A 
ATOM      6  C5  BZF d   1      -5.181   1.459  -3.021  0.00  0.00    -0.016 A 
ATOM      7  C6  BZF d   1      -3.815   1.645  -3.000  0.00  0.00     0.022 A 
ATOM      8  C7  BZF d   1      -3.228   2.638  -3.712  0.00  0.00     0.029 A 
ATOM      9  C7A BZF d   1      -4.056   3.462  -4.435  0.00  0.00     0.058 A 
ENDROOT
TORSDOF 0
ENDMDL
