MODEL 1
REMARK minimizedAffinity 4.086411
REMARK minimizedRMSD -1
REMARK  0 active torsions:
REMARK  status: ('A' for Active; 'I' for Inactive)
ROOT
ATOM      1  O1  BZF d   1      -6.000   4.331  -4.499  0.00  0.00    -0.204 OA
ATOM      2  C2  BZF d   1      -5.034   5.316  -4.560  0.00  0.00     0.174 A 
ATOM      3  C3  BZF d   1      -3.863   4.870  -4.059  0.00  0.00    -0.012 A 
ATOM      4  C3A BZF d   1      -4.089   3.493  -3.745  0.00  0.00    -0.107 A 
ATOM      5  C4  BZF d   1      -3.298   2.506  -3.230  0.00  0.00     0.055 A 
ATOM      6  C5  BZF d   1      -3.844   1.287  -2.977  0.00  0.00    -0.016 A 
ATOM      7  C6  BZF d   1      -5.176   1.023  -3.222  0.00  0.00     0.022 A 
ATOM      8  C7  BZF d   1      -5.998   1.969  -3.737  0.00  0.00     0.029 A 
ATOM      9  C7A BZF d   1      -5.442   3.191  -4.025  0.00  0.00     0.058 A 
ENDROOT
TORSDOF 0
ENDMDL
