MODEL 1
REMARK minimizedAffinity 11.4067612
REMARK minimizedRMSD -1
REMARK  1 active torsions:
REMARK  status: ('A' for Active; 'I' for Inactive)
REMARK    1  A    between atoms: N_2  and  C1_3 
ROOT
ATOM      1  C1  UNL d   1       0.712  -2.707  -1.108  0.00  0.00     0.143 A 
ATOM      2  C2  UNL d   1      -0.229  -2.537  -2.129  0.00  0.00    -0.057 A 
ATOM      3  C3  UNL d   1      -0.816  -3.637  -2.766  0.00  0.00     0.033 A 
ATOM      4  C4  UNL d   1      -0.449  -4.931  -2.413  0.00  0.00    -0.042 A 
ATOM      5  C5  UNL d   1       0.504  -5.123  -1.418  0.00  0.00     0.033 A 
ATOM      6  C6  UNL d   1       1.081  -4.021  -0.780  0.00  0.00    -0.057 A 
ENDROOT
BRANCH   1   7
ATOM      7  N   UNL d   1       1.404  -1.654  -0.504  0.00  0.00    -0.732 N 
ATOM      8  C   UNL d   1       2.774  -1.824  -0.073  0.00  0.00     0.284 C 
ATOM      9  H3  UNL d   1       1.216  -0.759  -0.951  0.00  0.00     0.395 HD
ENDBRANCH   1   7
TORSDOF 1
ENDMDL
