MODEL 1
REMARK minimizedAffinity 3.69369888
REMARK minimizedRMSD -1
REMARK  1 active torsions:
REMARK  status: ('A' for Active; 'I' for Inactive)
REMARK    1  A    between atoms: N_2  and  C1_3 
ROOT
ATOM      1  C1  UNL d   1      -0.378  -4.888  -2.927  0.00  0.00     0.143 A 
ATOM      2  C2  UNL d   1      -0.440  -4.097  -1.774  0.00  0.00    -0.057 A 
ATOM      3  C3  UNL d   1       0.504  -4.233  -0.749  0.00  0.00     0.033 A 
ATOM      4  C4  UNL d   1       1.513  -5.186  -0.846  0.00  0.00    -0.042 A 
ATOM      5  C5  UNL d   1       1.579  -6.000  -1.971  0.00  0.00     0.033 A 
ATOM      6  C6  UNL d   1       0.638  -5.855  -2.994  0.00  0.00    -0.057 A 
ENDROOT
BRANCH   1   7
ATOM      7  N   UNL d   1      -1.344  -4.869  -3.936  0.00  0.00    -0.732 N 
ATOM      8  C   UNL d   1      -2.239  -5.991  -4.121  0.00  0.00     0.284 C 
ATOM      9  H3  UNL d   1      -1.791  -3.960  -4.028  0.00  0.00     0.395 HD
ENDBRANCH   1   7
TORSDOF 1
ENDMDL
