MODEL 1
REMARK minimizedAffinity 8.29107952
REMARK minimizedRMSD -1
REMARK  1 active torsions:
REMARK  status: ('A' for Active; 'I' for Inactive)
REMARK    1  A    between atoms: N_2  and  C1_3 
ROOT
ATOM      1  C1  UNL d   1       1.255  -0.114   4.393  0.00  0.00     0.143 A 
ATOM      2  C2  UNL d   1       0.319  -1.155   4.384  0.00  0.00    -0.057 A 
ATOM      3  C3  UNL d   1       0.488  -2.290   5.186  0.00  0.00     0.033 A 
ATOM      4  C4  UNL d   1       1.613  -2.418   5.993  0.00  0.00    -0.042 A 
ATOM      5  C5  UNL d   1       2.569  -1.408   6.000  0.00  0.00     0.033 A 
ATOM      6  C6  UNL d   1       2.391  -0.273   5.201  0.00  0.00    -0.057 A 
ENDROOT
BRANCH   1   7
ATOM      7  N   UNL d   1       1.193   0.994   3.545  0.00  0.00    -0.732 N 
ATOM      8  C   UNL d   1       2.334   1.368   2.737  0.00  0.00     0.284 C 
ATOM      9  H3  UNL d   1       0.301   1.065   3.062  0.00  0.00     0.395 HD
ENDBRANCH   1   7
TORSDOF 1
ENDMDL
