MODEL 1
REMARK minimizedAffinity 10.1027584
REMARK minimizedRMSD -1
REMARK  1 active torsions:
REMARK  status: ('A' for Active; 'I' for Inactive)
REMARK    1  A    between atoms: C1_2  and  C2_3 
ROOT
ATOM      1  C2  UNL d   1      -3.990  -1.855  -0.515  0.00  0.00    -0.073 A 
ATOM      2  C3  UNL d   1      -3.353  -0.750   0.062  0.00  0.00    -0.002 A 
ATOM      3  C4  UNL d   1      -1.963  -0.637   0.020  0.00  0.00     0.004 A 
ATOM      4  C5  UNL d   1      -1.197  -1.620  -0.605  0.00  0.00    -0.004 A 
ATOM      5  C6  UNL d   1      -1.815  -2.726  -1.197  0.00  0.00    -0.075 A 
ATOM      6  C7  UNL d   1      -1.005  -3.794  -1.871  0.00  0.00     0.076 C 
ATOM      7  C8  UNL d   1      -3.212  -2.834  -1.148  0.00  0.00     0.001 A 
ENDROOT
BRANCH   1   8
ATOM      8  C1  UNL d   1      -5.491  -1.979  -0.477  0.00  0.00     0.053 C 
ATOM      9  C   UNL d   1      -5.997  -2.367   0.904  0.00  0.00     0.018 C 
ENDBRANCH   1   8
TORSDOF 1
ENDMDL
