MODEL 1
REMARK minimizedAffinity 4.90041447
REMARK minimizedRMSD -1
REMARK  1 active torsions:
REMARK  status: ('A' for Active; 'I' for Inactive)
REMARK    1  A    between atoms: C1_2  and  C2_3 
ROOT
ATOM      1  C2  UNL d   1       3.279  -4.409   3.840  0.00  0.00    -0.073 A 
ATOM      2  C3  UNL d   1       3.407  -3.062   4.196  0.00  0.00    -0.002 A 
ATOM      3  C4  UNL d   1       4.362  -2.669   5.135  0.00  0.00     0.004 A 
ATOM      4  C5  UNL d   1       5.202  -3.616   5.721  0.00  0.00    -0.004 A 
ATOM      5  C6  UNL d   1       5.096  -4.966   5.370  0.00  0.00    -0.075 A 
ATOM      6  C7  UNL d   1       5.990  -5.997   5.993  0.00  0.00     0.076 C 
ATOM      7  C8  UNL d   1       4.133  -5.353   4.428  0.00  0.00     0.001 A 
ENDROOT
BRANCH   1   8
ATOM      8  C1  UNL d   1       2.254  -4.838   2.822  0.00  0.00     0.053 C 
ATOM      9  C   UNL d   1       2.837  -5.792   1.793  0.00  0.00     0.018 C 
ENDBRANCH   1   8
TORSDOF 1
ENDMDL
