MODEL 1
REMARK minimizedAffinity 12.9918003
REMARK minimizedRMSD -1
REMARK  1 active torsions:
REMARK  status: ('A' for Active; 'I' for Inactive)
REMARK    1  A    between atoms: C1_2  and  C2_3 
ROOT
ATOM      1  C2  UNL d   1       5.054  -3.317   5.310  0.00  0.00    -0.073 A 
ATOM      2  C3  UNL d   1       5.935  -2.462   5.982  0.00  0.00    -0.002 A 
ATOM      3  C4  UNL d   1       5.989  -1.107   5.654  0.00  0.00     0.004 A 
ATOM      4  C5  UNL d   1       5.159  -0.592   4.658  0.00  0.00    -0.004 A 
ATOM      5  C6  UNL d   1       4.264  -1.429   3.983  0.00  0.00    -0.075 A 
ATOM      6  C7  UNL d   1       3.367  -0.891   2.908  0.00  0.00     0.076 C 
ATOM      7  C8  UNL d   1       4.218  -2.789   4.317  0.00  0.00     0.001 A 
ENDROOT
BRANCH   1   8
ATOM      8  C1  UNL d   1       4.988  -4.780   5.665  0.00  0.00     0.053 C 
ATOM      9  C   UNL d   1       5.999  -5.603   4.883  0.00  0.00     0.018 C 
ENDBRANCH   1   8
TORSDOF 1
ENDMDL
