MODEL 1
REMARK minimizedAffinity 9.4720726
REMARK minimizedRMSD -1
REMARK  1 active torsions:
REMARK  status: ('A' for Active; 'I' for Inactive)
REMARK    1  A    between atoms: C1_2  and  C2_3 
ROOT
ATOM      1  C2  UNL d   1      -3.493   3.895   3.238  0.00  0.00    -0.073 A 
ATOM      2  C3  UNL d   1      -4.778   4.448   3.203  0.00  0.00    -0.002 A 
ATOM      3  C4  UNL d   1      -5.119   5.493   4.063  0.00  0.00     0.004 A 
ATOM      4  C5  UNL d   1      -4.179   5.999   4.960  0.00  0.00    -0.004 A 
ATOM      5  C6  UNL d   1      -2.886   5.468   5.002  0.00  0.00    -0.075 A 
ATOM      6  C7  UNL d   1      -1.864   6.000   5.963  0.00  0.00     0.076 C 
ATOM      7  C8  UNL d   1      -2.552   4.417   4.137  0.00  0.00     0.001 A 
ENDROOT
BRANCH   1   8
ATOM      8  C1  UNL d   1      -3.117   2.772   2.306  0.00  0.00     0.053 C 
ATOM      9  C   UNL d   1      -2.334   1.680   3.017  0.00  0.00     0.018 C 
ENDBRANCH   1   8
TORSDOF 1
ENDMDL
