MODEL 1
REMARK minimizedAffinity -0.479876697
REMARK minimizedRMSD -1
REMARK  1 active torsions:
REMARK  status: ('A' for Active; 'I' for Inactive)
REMARK    1  A    between atoms: C1_2  and  C2_3 
ROOT
ATOM      1  C2  UNL d   1      -3.383   5.610   3.508  0.00  0.00    -0.073 A 
ATOM      2  C3  UNL d   1      -4.782   5.608   3.505  0.00  0.00    -0.002 A 
ATOM      3  C4  UNL d   1      -5.484   5.311   2.336  0.00  0.00     0.004 A 
ATOM      4  C5  UNL d   1      -4.796   5.006   1.162  0.00  0.00    -0.004 A 
ATOM      5  C6  UNL d   1      -3.398   4.991   1.148  0.00  0.00    -0.075 A 
ATOM      6  C7  UNL d   1      -2.642   4.668  -0.107  0.00  0.00     0.076 C 
ATOM      7  C8  UNL d   1      -2.700   5.293   2.325  0.00  0.00     0.001 A 
ENDROOT
BRANCH   1   8
ATOM      8  C1  UNL d   1      -2.621   5.924   4.769  0.00  0.00     0.053 C 
ATOM      9  C   UNL d   1      -3.516   5.896   5.998  0.00  0.00     0.018 C 
ENDBRANCH   1   8
TORSDOF 1
ENDMDL
