MODEL 1
REMARK minimizedAffinity 9.92190838
REMARK minimizedRMSD -1
REMARK  1 active torsions:
REMARK  status: ('A' for Active; 'I' for Inactive)
REMARK    1  A    between atoms: C1_2  and  C2_3 
ROOT
ATOM      1  C2  UNL d   1      -3.075   2.405   2.675  0.00  0.00    -0.073 A 
ATOM      2  C3  UNL d   1      -4.057   2.800   1.760  0.00  0.00    -0.002 A 
ATOM      3  C4  UNL d   1      -4.661   4.053   1.872  0.00  0.00     0.004 A 
ATOM      4  C5  UNL d   1      -4.285   4.925   2.894  0.00  0.00    -0.004 A 
ATOM      5  C6  UNL d   1      -3.297   4.553   3.811  0.00  0.00    -0.075 A 
ATOM      6  C7  UNL d   1      -2.882   5.478   4.917  0.00  0.00     0.076 C 
ATOM      7  C8  UNL d   1      -2.697   3.292   3.693  0.00  0.00     0.001 A 
ENDROOT
BRANCH   1   8
ATOM      8  C1  UNL d   1      -2.415   1.055   2.555  0.00  0.00     0.053 C 
ATOM      9  C   UNL d   1      -3.413  -0.082   2.702  0.00  0.00     0.018 C 
ENDBRANCH   1   8
TORSDOF 1
ENDMDL
