MODEL 1
REMARK minimizedAffinity -2.33499193
REMARK minimizedRMSD -1
REMARK  1 active torsions:
REMARK  status: ('A' for Active; 'I' for Inactive)
REMARK    1  A    between atoms: C1_2  and  C2_3 
ROOT
ATOM      1  C2  UNL d   1       5.364  -1.961   5.326  0.00  0.00    -0.073 A 
ATOM      2  C3  UNL d   1       5.994  -3.026   5.981  0.00  0.00    -0.002 A 
ATOM      3  C4  UNL d   1       5.486  -4.321   5.871  0.00  0.00     0.004 A 
ATOM      4  C5  UNL d   1       4.348  -4.566   5.101  0.00  0.00    -0.004 A 
ATOM      5  C6  UNL d   1       3.711  -3.517   4.430  0.00  0.00    -0.075 A 
ATOM      6  C7  UNL d   1       2.486  -3.763   3.600  0.00  0.00     0.076 C 
ATOM      7  C8  UNL d   1       4.226  -2.219   4.548  0.00  0.00     0.001 A 
ENDROOT
BRANCH   1   8
ATOM      8  C1  UNL d   1       5.913  -0.562   5.437  0.00  0.00     0.053 C 
ATOM      9  C   UNL d   1       5.997   0.126   4.084  0.00  0.00     0.018 C 
ENDBRANCH   1   8
TORSDOF 1
ENDMDL
