MODEL 1
REMARK minimizedAffinity 11.2827272
REMARK minimizedRMSD -1
REMARK  1 active torsions:
REMARK  status: ('A' for Active; 'I' for Inactive)
REMARK    1  A    between atoms: C1_2  and  C2_3 
ROOT
ATOM      1  C2  UNL d   1      -3.284   4.335   3.742  0.00  0.00    -0.073 A 
ATOM      2  C3  UNL d   1      -4.436   4.775   4.403  0.00  0.00    -0.002 A 
ATOM      3  C4  UNL d   1      -4.333   5.600   5.524  0.00  0.00     0.004 A 
ATOM      4  C5  UNL d   1      -3.081   6.000   5.989  0.00  0.00    -0.004 A 
ATOM      5  C6  UNL d   1      -1.918   5.581   5.334  0.00  0.00    -0.075 A 
ATOM      6  C7  UNL d   1      -0.563   6.000   5.824  0.00  0.00     0.076 C 
ATOM      7  C8  UNL d   1      -2.029   4.750   4.211  0.00  0.00     0.001 A 
ENDROOT
BRANCH   1   8
ATOM      8  C1  UNL d   1      -3.390   3.449   2.527  0.00  0.00     0.053 C 
ATOM      9  C   UNL d   1      -4.460   3.932   1.561  0.00  0.00     0.018 C 
ENDBRANCH   1   8
TORSDOF 1
ENDMDL
