MODEL 1
REMARK minimizedAffinity 11.7688446
REMARK minimizedRMSD -1
REMARK  1 active torsions:
REMARK  status: ('A' for Active; 'I' for Inactive)
REMARK    1  A    between atoms: C1_2  and  C2_3 
ROOT
ATOM      1  C2  UNL d   1       2.313   3.170  -4.288  0.00  0.00    -0.073 A 
ATOM      2  C3  UNL d   1       1.384   2.595  -5.163  0.00  0.00    -0.002 A 
ATOM      3  C4  UNL d   1       0.784   1.375  -4.852  0.00  0.00     0.004 A 
ATOM      4  C5  UNL d   1       1.100   0.720  -3.661  0.00  0.00    -0.004 A 
ATOM      5  C6  UNL d   1       2.017   1.285  -2.768  0.00  0.00    -0.075 A 
ATOM      6  C7  UNL d   1       2.370   0.592  -1.485  0.00  0.00     0.076 C 
ATOM      7  C8  UNL d   1       2.617   2.509  -3.089  0.00  0.00     0.001 A 
ENDROOT
BRANCH   1   8
ATOM      8  C1  UNL d   1       2.958   4.491  -4.617  0.00  0.00     0.053 C 
ATOM      9  C   UNL d   1       2.567   4.988  -6.000  0.00  0.00     0.018 C 
ENDBRANCH   1   8
TORSDOF 1
ENDMDL
