MODEL 1
REMARK minimizedAffinity 7.1738162
REMARK minimizedRMSD -1
REMARK  1 active torsions:
REMARK  status: ('A' for Active; 'I' for Inactive)
REMARK    1  A    between atoms: C1_2  and  C2_3 
ROOT
ATOM      1  C2  UNL d   1       1.938  -1.196  -2.391  0.00  0.00    -0.073 A 
ATOM      2  C3  UNL d   1       0.995  -0.171  -2.253  0.00  0.00    -0.002 A 
ATOM      3  C4  UNL d   1       1.380   1.163  -2.391  0.00  0.00     0.004 A 
ATOM      4  C5  UNL d   1       2.707   1.486  -2.674  0.00  0.00    -0.004 A 
ATOM      5  C6  UNL d   1       3.661   0.475  -2.826  0.00  0.00    -0.075 A 
ATOM      6  C7  UNL d   1       5.093   0.806  -3.129  0.00  0.00     0.076 C 
ATOM      7  C8  UNL d   1       3.268  -0.863  -2.684  0.00  0.00     0.001 A 
ENDROOT
BRANCH   1   8
ATOM      8  C1  UNL d   1       1.526  -2.639  -2.249  0.00  0.00     0.053 C 
ATOM      9  C   UNL d   1       1.474  -3.351  -3.592  0.00  0.00     0.018 C 
ENDBRANCH   1   8
TORSDOF 1
ENDMDL
