MODEL 1
REMARK minimizedAffinity 3.58382988
REMARK minimizedRMSD -1
REMARK  2 active torsions:
REMARK  status: ('A' for Active; 'I' for Inactive)
REMARK    1  A    between atoms: C2'_3  and  C1'_4 
REMARK    2  A    between atoms: C1'_4  and  C1_5 
ROOT
ATOM      1  C1  I4B d   1       0.378  -1.235   0.978  0.00  0.00    -0.075 A 
ATOM      2  C2  I4B d   1      -0.459  -0.469   0.205  0.00  0.00     0.003 A 
ATOM      3  C3  I4B d   1      -1.595   0.149   0.782  0.00  0.00     0.002 A 
ATOM      4  C4  I4B d   1      -1.882  -0.065   2.114  0.00  0.00    -0.004 A 
ATOM      5  C5  I4B d   1      -1.019  -0.823   2.901  0.00  0.00     0.002 A 
ATOM      6  C6  I4B d   1       0.124  -1.402   2.333  0.00  0.00     0.003 A 
ENDROOT
BRANCH   1   7
ATOM      7  C1' I4B d   1       1.550  -1.901   0.329  0.00  0.00     0.060 C 
BRANCH   7   8
ATOM      8  C2' I4B d   1       1.847  -3.173   1.095  0.00  0.00    -0.013 C 
ATOM      9  C4' I4B d   1       0.675  -4.118   1.060  0.00  0.00     0.013 C 
ATOM     10  C3' I4B d   1       3.068  -3.803   0.492  0.00  0.00     0.013 C 
ENDBRANCH   7   8
ENDBRANCH   1   7
TORSDOF 2
ENDMDL
