MODEL 1
REMARK minimizedAffinity 6.34295273
REMARK minimizedRMSD -1
REMARK  2 active torsions:
REMARK  status: ('A' for Active; 'I' for Inactive)
REMARK    1  A    between atoms: C2'_3  and  C1'_4 
REMARK    2  A    between atoms: C1'_4  and  C1_5 
ROOT
ATOM      1  C1  I4B d   1       0.224  -2.043   1.564  0.00  0.00    -0.075 A 
ATOM      2  C2  I4B d   1       0.985  -0.911   1.721  0.00  0.00     0.003 A 
ATOM      3  C3  I4B d   1       0.401   0.277   2.222  0.00  0.00     0.002 A 
ATOM      4  C4  I4B d   1      -0.950   0.304   2.504  0.00  0.00    -0.004 A 
ATOM      5  C5  I4B d   1      -1.715  -0.850   2.365  0.00  0.00     0.002 A 
ATOM      6  C6  I4B d   1      -1.123  -2.035   1.904  0.00  0.00     0.003 A 
ENDROOT
BRANCH   1   7
ATOM      7  C1' I4B d   1       0.866  -3.271   1.001  0.00  0.00     0.060 C 
BRANCH   7   8
ATOM      8  C2' I4B d   1       2.290  -2.920   0.620  0.00  0.00    -0.013 C 
ATOM      9  C4' I4B d   1       3.095  -4.158   0.323  0.00  0.00     0.013 C 
ATOM     10  C3' I4B d   1       2.239  -2.009  -0.570  0.00  0.00     0.013 C 
ENDBRANCH   7   8
ENDBRANCH   1   7
TORSDOF 2
ENDMDL
