MODEL 1
REMARK minimizedAffinity 3.73412108
REMARK minimizedRMSD -1
REMARK  2 active torsions:
REMARK  status: ('A' for Active; 'I' for Inactive)
REMARK    1  A    between atoms: C2'_3  and  C1'_4 
REMARK    2  A    between atoms: C1'_4  and  C1_5 
ROOT
ATOM      1  C1  I4B d   1       1.379   1.228  -0.817  0.00  0.00    -0.075 A 
ATOM      2  C2  I4B d   1       0.870   0.161  -0.119  0.00  0.00     0.003 A 
ATOM      3  C3  I4B d   1      -0.495   0.140   0.254  0.00  0.00     0.002 A 
ATOM      4  C4  I4B d   1      -1.299   1.221  -0.044  0.00  0.00    -0.004 A 
ATOM      5  C5  I4B d   1      -0.786   2.292  -0.771  0.00  0.00     0.002 A 
ATOM      6  C6  I4B d   1       0.558   2.290  -1.171  0.00  0.00     0.003 A 
ENDROOT
BRANCH   1   7
ATOM      7  C1' I4B d   1       2.833   1.233  -1.167  0.00  0.00     0.060 C 
BRANCH   7   8
ATOM      8  C2' I4B d   1       3.606   1.681   0.057  0.00  0.00    -0.013 C 
ATOM      9  C4' I4B d   1       4.794   0.790   0.308  0.00  0.00     0.013 C 
ATOM     10  C3' I4B d   1       4.032   3.103  -0.160  0.00  0.00     0.013 C 
ENDBRANCH   7   8
ENDBRANCH   1   7
TORSDOF 2
ENDMDL
