MODEL 1
REMARK minimizedAffinity 9.39980412
REMARK minimizedRMSD -1
REMARK  2 active torsions:
REMARK  status: ('A' for Active; 'I' for Inactive)
REMARK    1  A    between atoms: C2'_3  and  C1'_4 
REMARK    2  A    between atoms: C1'_4  and  C1_5 
ROOT
ATOM      1  C1  I4B d   1      -0.495  -1.238   2.682  0.00  0.00    -0.075 A 
ATOM      2  C2  I4B d   1      -1.570  -1.665   3.421  0.00  0.00     0.003 A 
ATOM      3  C3  I4B d   1      -1.660  -3.016   3.834  0.00  0.00     0.002 A 
ATOM      4  C4  I4B d   1      -0.685  -3.911   3.445  0.00  0.00    -0.004 A 
ATOM      5  C5  I4B d   1       0.416  -3.472   2.715  0.00  0.00     0.002 A 
ATOM      6  C6  I4B d   1       0.518  -2.124   2.341  0.00  0.00     0.003 A 
ENDROOT
BRANCH   1   7
ATOM      7  C1' I4B d   1      -0.449   0.189   2.234  0.00  0.00     0.060 C 
BRANCH   7   8
ATOM      8  C2' I4B d   1      -1.781   0.520   1.593  0.00  0.00    -0.013 C 
ATOM      9  C4' I4B d   1      -2.451   1.673   2.293  0.00  0.00     0.013 C 
ATOM     10  C3' I4B d   1      -1.534   0.834   0.148  0.00  0.00     0.013 C 
ENDBRANCH   7   8
ENDBRANCH   1   7
TORSDOF 2
ENDMDL
