MODEL 1
REMARK minimizedAffinity 5.43532324
REMARK minimizedRMSD -1
REMARK  2 active torsions:
REMARK  status: ('A' for Active; 'I' for Inactive)
REMARK    1  A    between atoms: C2'_3  and  C1'_4 
REMARK    2  A    between atoms: C1'_4  and  C1_5 
ROOT
ATOM      1  C1  I4B d   1      -0.370  -0.816   1.709  0.00  0.00    -0.075 A 
ATOM      2  C2  I4B d   1       0.440  -0.736   0.603  0.00  0.00     0.003 A 
ATOM      3  C3  I4B d   1      -0.067  -0.228  -0.617  0.00  0.00     0.002 A 
ATOM      4  C4  I4B d   1      -1.395   0.138  -0.701  0.00  0.00    -0.004 A 
ATOM      5  C5  I4B d   1      -2.209   0.078   0.427  0.00  0.00     0.002 A 
ATOM      6  C6  I4B d   1      -1.690  -0.391   1.643  0.00  0.00     0.003 A 
ENDROOT
BRANCH   1   7
ATOM      7  C1' I4B d   1       0.190  -1.388   2.972  0.00  0.00     0.060 C 
BRANCH   7   8
ATOM      8  C2' I4B d   1       0.499  -2.851   2.726  0.00  0.00    -0.013 C 
ATOM      9  C4' I4B d   1      -0.764  -3.662   2.605  0.00  0.00     0.013 C 
ATOM     10  C3' I4B d   1       1.325  -2.946   1.478  0.00  0.00     0.013 C 
ENDBRANCH   7   8
ENDBRANCH   1   7
TORSDOF 2
ENDMDL
