MODEL 1
REMARK minimizedAffinity 16.139183
REMARK minimizedRMSD -1
REMARK  2 active torsions:
REMARK  status: ('A' for Active; 'I' for Inactive)
REMARK    1  A    between atoms: C2'_3  and  C1'_4 
REMARK    2  A    between atoms: C1'_4  and  C1_5 
ROOT
ATOM      1  C1  I4B d   1      -0.889   3.478  -3.787  0.00  0.00    -0.075 A 
ATOM      2  C2  I4B d   1      -0.383   4.754  -3.812  0.00  0.00     0.003 A 
ATOM      3  C3  I4B d   1       0.335   5.213  -4.943  0.00  0.00     0.002 A 
ATOM      4  C4  I4B d   1       0.566   4.353  -5.997  0.00  0.00    -0.004 A 
ATOM      5  C5  I4B d   1       0.032   3.067  -5.979  0.00  0.00     0.002 A 
ATOM      6  C6  I4B d   1      -0.710   2.631  -4.872  0.00  0.00     0.003 A 
ENDROOT
BRANCH   1   7
ATOM      7  C1' I4B d   1      -1.613   3.015  -2.563  0.00  0.00     0.060 C 
BRANCH   7   8
ATOM      8  C2' I4B d   1      -2.982   2.523  -2.989  0.00  0.00    -0.013 C 
ATOM      9  C4' I4B d   1      -3.633   1.712  -1.900  0.00  0.00     0.013 C 
ATOM     10  C3' I4B d   1      -3.814   3.719  -3.344  0.00  0.00     0.013 C 
ENDBRANCH   7   8
ENDBRANCH   1   7
TORSDOF 2
ENDMDL
