MODEL 1
REMARK minimizedAffinity -3.22785759
REMARK minimizedRMSD -1
REMARK  2 active torsions:
REMARK  status: ('A' for Active; 'I' for Inactive)
REMARK    1  A    between atoms: C2'_3  and  C1'_4 
REMARK    2  A    between atoms: C1'_4  and  C1_5 
ROOT
ATOM      1  C1  I4B d   1       0.988  -2.052   1.492  0.00  0.00    -0.075 A 
ATOM      2  C2  I4B d   1      -0.067  -1.366   2.042  0.00  0.00     0.003 A 
ATOM      3  C3  I4B d   1      -0.625  -0.255   1.365  0.00  0.00     0.002 A 
ATOM      4  C4  I4B d   1      -0.069   0.164   0.173  0.00  0.00    -0.004 A 
ATOM      5  C5  I4B d   1       0.985  -0.546  -0.394  0.00  0.00     0.002 A 
ATOM      6  C6  I4B d   1       1.509  -1.669   0.263  0.00  0.00     0.003 A 
ENDROOT
BRANCH   1   7
ATOM      7  C1' I4B d   1       1.574  -3.200   2.250  0.00  0.00     0.060 C 
BRANCH   7   8
ATOM      8  C2' I4B d   1       2.270  -4.109   1.257  0.00  0.00    -0.013 C 
ATOM      9  C4' I4B d   1       3.691  -4.384   1.672  0.00  0.00     0.013 C 
ATOM     10  C3' I4B d   1       1.479  -5.379   1.158  0.00  0.00     0.013 C 
ENDBRANCH   7   8
ENDBRANCH   1   7
TORSDOF 2
ENDMDL
