MODEL 1
REMARK minimizedAffinity 5.77449322
REMARK minimizedRMSD -1
REMARK  0 active torsions:
REMARK  status: ('A' for Active; 'I' for Inactive)
ROOT
ATOM      1  C4' PXY d   1      -1.875   6.000  -6.000  0.00  0.00     0.077 C 
ATOM      2  C1' PXY d   1       1.767   3.272  -2.435  0.00  0.00     0.077 C 
ATOM      3  C1  PXY d   1       0.803   3.988  -3.361  0.00  0.00    -0.082 A 
ATOM      4  C2  PXY d   1       0.939   3.862  -4.671  0.00  0.00     0.003 A 
ATOM      5  C3  PXY d   1       0.095   4.528  -5.522  0.00  0.00     0.003 A 
ATOM      6  C4  PXY d   1      -0.931   5.288  -5.028  0.00  0.00    -0.082 A 
ATOM      7  C5  PXY d   1      -1.082   5.412  -3.692  0.00  0.00     0.003 A 
ATOM      8  C6  PXY d   1      -0.190   4.761  -2.845  0.00  0.00     0.003 A 
ENDROOT
TORSDOF 0
ENDMDL
