MODEL 1
REMARK minimizedAffinity 0.672973394
REMARK minimizedRMSD -1
REMARK  0 active torsions:
REMARK  status: ('A' for Active; 'I' for Inactive)
ROOT
ATOM      1  C4' PXY d   1      -5.968   4.114  -3.125  0.00  0.00     0.077 C 
ATOM      2  C1' PXY d   1      -5.999  -0.902  -5.998  0.00  0.00     0.077 C 
ATOM      3  C1  PXY d   1      -5.986   0.420  -5.255  0.00  0.00    -0.082 A 
ATOM      4  C2  PXY d   1      -5.971   0.426  -3.932  0.00  0.00     0.003 A 
ATOM      5  C3  PXY d   1      -5.991   1.612  -3.244  0.00  0.00     0.003 A 
ATOM      6  C4  PXY d   1      -5.973   2.804  -3.917  0.00  0.00    -0.082 A 
ATOM      7  C5  PXY d   1      -5.977   2.806  -5.267  0.00  0.00     0.003 A 
ATOM      8  C6  PXY d   1      -5.998   1.591  -5.947  0.00  0.00     0.003 A 
ENDROOT
TORSDOF 0
ENDMDL
