MODEL 1
REMARK minimizedAffinity 1.57385445
REMARK minimizedRMSD -1
REMARK  0 active torsions:
REMARK  status: ('A' for Active; 'I' for Inactive)
ROOT
ATOM      1  C4' PXY d   1       1.513   2.958  -2.462  0.00  0.00     0.077 C 
ATOM      2  C1' PXY d   1      -1.904   5.996  -5.998  0.00  0.00     0.077 C 
ATOM      3  C1  PXY d   1      -0.999   5.199  -5.080  0.00  0.00    -0.082 A 
ATOM      4  C2  PXY d   1      -1.523   4.526  -4.068  0.00  0.00     0.003 A 
ATOM      5  C3  PXY d   1      -0.715   3.825  -3.209  0.00  0.00     0.003 A 
ATOM      6  C4  PXY d   1       0.636   3.769  -3.419  0.00  0.00    -0.082 A 
ATOM      7  C5  PXY d   1       1.177   4.444  -4.456  0.00  0.00     0.003 A 
ATOM      8  C6  PXY d   1       0.345   5.183  -5.292  0.00  0.00     0.003 A 
ENDROOT
TORSDOF 0
ENDMDL
