MODEL 1
REMARK minimizedAffinity 5.29648399
REMARK minimizedRMSD -1
REMARK  0 active torsions:
REMARK  status: ('A' for Active; 'I' for Inactive)
ROOT
ATOM      1  C4' PXY d   1      -1.911   5.222  -5.997  0.00  0.00     0.077 C 
ATOM      2  C1' PXY d   1       3.082   4.289  -3.238  0.00  0.00     0.077 C 
ATOM      3  C1  PXY d   1       1.777   4.545  -3.966  0.00  0.00    -0.082 A 
ATOM      4  C2  PXY d   1       0.664   3.976  -3.533  0.00  0.00     0.003 A 
ATOM      5  C3  PXY d   1      -0.519   4.171  -4.199  0.00  0.00     0.003 A 
ATOM      6  C4  PXY d   1      -0.573   4.999  -5.288  0.00  0.00    -0.082 A 
ATOM      7  C5  PXY d   1       0.557   5.592  -5.729  0.00  0.00     0.003 A 
ATOM      8  C6  PXY d   1       1.755   5.349  -5.064  0.00  0.00     0.003 A 
ENDROOT
TORSDOF 0
ENDMDL
