MODEL 1
REMARK minimizedAffinity 13.0600824
REMARK minimizedRMSD -1
REMARK  0 active torsions:
REMARK  status: ('A' for Active; 'I' for Inactive)
ROOT
ATOM      1  C4' PXY d   1       0.492   1.648   0.528  0.00  0.00     0.077 C 
ATOM      2  C1' PXY d   1       5.179   1.665  -2.856  0.00  0.00     0.077 C 
ATOM      3  C1  PXY d   1       3.953   1.648  -1.965  0.00  0.00    -0.082 A 
ATOM      4  C2  PXY d   1       2.966   2.500  -2.194  0.00  0.00     0.003 A 
ATOM      5  C3  PXY d   1       1.864   2.520  -1.379  0.00  0.00     0.003 A 
ATOM      6  C4  PXY d   1       1.746   1.623  -0.351  0.00  0.00    -0.082 A 
ATOM      7  C5  PXY d   1       2.743   0.744  -0.118  0.00  0.00     0.003 A 
ATOM      8  C6  PXY d   1       3.872   0.767  -0.931  0.00  0.00     0.003 A 
ENDROOT
TORSDOF 0
ENDMDL
