MODEL 1
REMARK minimizedAffinity 8.17397308
REMARK minimizedRMSD -1
REMARK  0 active torsions:
REMARK  status: ('A' for Active; 'I' for Inactive)
ROOT
ATOM      1  C4' PXY d   1       2.143  -2.583   3.416  0.00  0.00     0.077 C 
ATOM      2  C1' PXY d   1      -3.250  -1.202   1.859  0.00  0.00     0.077 C 
ATOM      3  C1  PXY d   1      -1.838  -1.576   2.262  0.00  0.00    -0.082 A 
ATOM      4  C2  PXY d   1      -1.252  -0.938   3.263  0.00  0.00     0.003 A 
ATOM      5  C3  PXY d   1       0.037  -1.241   3.619  0.00  0.00     0.003 A 
ATOM      6  C4  PXY d   1       0.714  -2.245   2.980  0.00  0.00    -0.082 A 
ATOM      7  C5  PXY d   1       0.120  -2.908   1.966  0.00  0.00     0.003 A 
ATOM      8  C6  PXY d   1      -1.174  -2.557   1.592  0.00  0.00     0.003 A 
ENDROOT
TORSDOF 0
ENDMDL
