MODEL 1
REMARK minimizedAffinity 4.02919626
REMARK minimizedRMSD -1
REMARK  0 active torsions:
REMARK  status: ('A' for Active; 'I' for Inactive)
ROOT
ATOM      1  C4' PXY d   1      -3.658   5.607   0.478  0.00  0.00     0.077 C 
ATOM      2  C1' PXY d   1      -6.000   2.350  -3.684  0.00  0.00     0.077 C 
ATOM      3  C1  PXY d   1      -5.396   3.202  -2.585  0.00  0.00    -0.082 A 
ATOM      4  C2  PXY d   1      -4.506   4.132  -2.893  0.00  0.00     0.003 A 
ATOM      5  C3  PXY d   1      -3.927   4.890  -1.908  0.00  0.00     0.003 A 
ATOM      6  C4  PXY d   1      -4.301   4.730  -0.600  0.00  0.00    -0.082 A 
ATOM      7  C5  PXY d   1      -5.216   3.791  -0.280  0.00  0.00     0.003 A 
ATOM      8  C6  PXY d   1      -5.762   3.004  -1.290  0.00  0.00     0.003 A 
ENDROOT
TORSDOF 0
ENDMDL
