MODEL 1
REMARK minimizedAffinity 7.27337456
REMARK minimizedRMSD -1
REMARK  0 active torsions:
REMARK  status: ('A' for Active; 'I' for Inactive)
ROOT
ATOM      1  C4' PXY d   1      -2.684  -3.152   1.208  0.00  0.00     0.077 C 
ATOM      2  C1' PXY d   1       2.449  -5.314  -0.341  0.00  0.00     0.077 C 
ATOM      3  C1  PXY d   1       1.098  -4.749   0.053  0.00  0.00    -0.082 A 
ATOM      4  C2  PXY d   1       1.006  -3.945   1.100  0.00  0.00     0.003 A 
ATOM      5  C3  PXY d   1      -0.212  -3.450   1.490  0.00  0.00     0.003 A 
ATOM      6  C4  PXY d   1      -1.339  -3.739   0.768  0.00  0.00    -0.082 A 
ATOM      7  C5  PXY d   1      -1.252  -4.550  -0.307  0.00  0.00     0.003 A 
ATOM      8  C6  PXY d   1      -0.012  -5.074  -0.662  0.00  0.00     0.003 A 
ENDROOT
TORSDOF 0
ENDMDL
