MODEL 1
REMARK minimizedAffinity 10.4283848
REMARK minimizedRMSD -1
REMARK  0 active torsions:
REMARK  status: ('A' for Active; 'I' for Inactive)
ROOT
ATOM      1  C4' PXY d   1       3.658   0.036   1.865  0.00  0.00     0.077 C 
ATOM      2  C1' PXY d   1       0.858   2.597  -2.496  0.00  0.00     0.077 C 
ATOM      3  C1  PXY d   1       1.590   1.935  -1.345  0.00  0.00    -0.082 A 
ATOM      4  C2  PXY d   1       2.496   1.004  -1.595  0.00  0.00     0.003 A 
ATOM      5  C3  PXY d   1       3.144   0.373  -0.564  0.00  0.00     0.003 A 
ATOM      6  C4  PXY d   1       2.902   0.737   0.733  0.00  0.00    -0.082 A 
ATOM      7  C5  PXY d   1       1.987   1.694   0.996  0.00  0.00     0.003 A 
ATOM      8  C6  PXY d   1       1.309   2.293  -0.062  0.00  0.00     0.003 A 
ENDROOT
TORSDOF 0
ENDMDL
