MODEL 1
REMARK minimizedAffinity 5.98566675
REMARK minimizedRMSD -1
REMARK  0 active torsions:
REMARK  status: ('A' for Active; 'I' for Inactive)
ROOT
ATOM      1  C4' PXY d   1       1.332   2.043  -1.884  0.00  0.00     0.077 C 
ATOM      2  C1' PXY d   1       0.405   6.000  -5.995  0.00  0.00     0.077 C 
ATOM      3  C1  PXY d   1       0.661   4.965  -4.917  0.00  0.00    -0.082 A 
ATOM      4  C2  PXY d   1      -0.204   3.979  -4.739  0.00  0.00     0.003 A 
ATOM      5  C3  PXY d   1      -0.004   3.053  -3.748  0.00  0.00     0.003 A 
ATOM      6  C4  PXY d   1       1.119   3.105  -2.966  0.00  0.00    -0.082 A 
ATOM      7  C5  PXY d   1       2.011   4.101  -3.150  0.00  0.00     0.003 A 
ATOM      8  C6  PXY d   1       1.769   5.055  -4.134  0.00  0.00     0.003 A 
ENDROOT
TORSDOF 0
ENDMDL
