MODEL 1
REMARK minimizedAffinity 6.9514904
REMARK minimizedRMSD -1
REMARK  0 active torsions:
REMARK  status: ('A' for Active; 'I' for Inactive)
ROOT
ATOM      1  C4' PXY d   1      -1.891  -2.302   1.348  0.00  0.00     0.077 C 
ATOM      2  C1' PXY d   1      -3.415   1.414   5.506  0.00  0.00     0.077 C 
ATOM      3  C1  PXY d   1      -3.003   0.444   4.416  0.00  0.00    -0.082 A 
ATOM      4  C2  PXY d   1      -3.915  -0.029   3.582  0.00  0.00     0.003 A 
ATOM      5  C3  PXY d   1      -3.566  -0.932   2.611  0.00  0.00     0.003 A 
ATOM      6  C4  PXY d   1      -2.260  -1.313   2.458  0.00  0.00    -0.082 A 
ATOM      7  C5  PXY d   1      -1.321  -0.827   3.298  0.00  0.00     0.003 A 
ATOM      8  C6  PXY d   1      -1.704   0.057   4.303  0.00  0.00     0.003 A 
ENDROOT
TORSDOF 0
ENDMDL
