MODEL 1
REMARK minimizedAffinity 4.13619709
REMARK minimizedRMSD -1
REMARK  0 active torsions:
REMARK  status: ('A' for Active; 'I' for Inactive)
ROOT
ATOM      1  C4' PXY d   1       1.259   1.929  -1.924  0.00  0.00     0.077 C 
ATOM      2  C1' PXY d   1       0.691   5.989  -5.999  0.00  0.00     0.077 C 
ATOM      3  C1  PXY d   1       0.853   4.924  -4.932  0.00  0.00    -0.082 A 
ATOM      4  C2  PXY d   1      -0.136   4.078  -4.696  0.00  0.00     0.003 A 
ATOM      5  C3  PXY d   1      -0.019   3.130  -3.712  0.00  0.00     0.003 A 
ATOM      6  C4  PXY d   1       1.143   3.013  -2.998  0.00  0.00    -0.082 A 
ATOM      7  C5  PXY d   1       2.162   3.866  -3.240  0.00  0.00     0.003 A 
ATOM      8  C6  PXY d   1       2.007   4.847  -4.215  0.00  0.00     0.003 A 
ENDROOT
TORSDOF 0
ENDMDL
