MODEL 1
REMARK minimizedAffinity 2.85382628
REMARK minimizedRMSD -1
REMARK  0 active torsions:
REMARK  status: ('A' for Active; 'I' for Inactive)
ROOT
ATOM      1  C4' PXY d   1      -0.068   4.461  -2.955  0.00  0.00     0.077 C 
ATOM      2  C1' PXY d   1       5.052   2.006  -4.035  0.00  0.00     0.077 C 
ATOM      3  C1  PXY d   1       3.713   2.661  -3.758  0.00  0.00    -0.082 A 
ATOM      4  C2  PXY d   1       2.981   2.246  -2.737  0.00  0.00     0.003 A 
ATOM      5  C3  PXY d   1       1.754   2.805  -2.491  0.00  0.00     0.003 A 
ATOM      6  C4  PXY d   1       1.294   3.836  -3.266  0.00  0.00    -0.082 A 
ATOM      7  C5  PXY d   1       2.040   4.272  -4.304  0.00  0.00     0.003 A 
ATOM      8  C6  PXY d   1       3.265   3.663  -4.561  0.00  0.00     0.003 A 
ENDROOT
TORSDOF 0
ENDMDL
