MODEL 1
REMARK minimizedAffinity 7.48904037
REMARK minimizedRMSD -1
REMARK  0 active torsions:
REMARK  status: ('A' for Active; 'I' for Inactive)
ROOT
ATOM      1  C4' PXY d   1       3.968   1.201   1.779  0.00  0.00     0.077 C 
ATOM      2  C1' PXY d   1       0.866   2.178  -2.999  0.00  0.00     0.077 C 
ATOM      3  C1  PXY d   1       1.669   1.923  -1.739  0.00  0.00    -0.082 A 
ATOM      4  C2  PXY d   1       2.968   2.173  -1.729  0.00  0.00     0.003 A 
ATOM      5  C3  PXY d   1       3.715   1.918  -0.608  0.00  0.00     0.003 A 
ATOM      6  C4  PXY d   1       3.117   1.453   0.532  0.00  0.00    -0.082 A 
ATOM      7  C5  PXY d   1       1.790   1.205   0.534  0.00  0.00     0.003 A 
ATOM      8  C6  PXY d   1       1.056   1.432  -0.628  0.00  0.00     0.003 A 
ENDROOT
TORSDOF 0
ENDMDL
