MODEL 1
REMARK minimizedAffinity -0.523869395
REMARK minimizedRMSD -1
REMARK  0 active torsions:
REMARK  status: ('A' for Active; 'I' for Inactive)
ROOT
ATOM      1  C4' PXY d   1       0.829   1.036   1.348  0.00  0.00     0.077 C 
ATOM      2  C1' PXY d   1       3.422   3.018  -3.423  0.00  0.00     0.077 C 
ATOM      3  C1  PXY d   1       2.752   2.502  -2.164  0.00  0.00    -0.082 A 
ATOM      4  C2  PXY d   1       1.854   1.535  -2.251  0.00  0.00     0.003 A 
ATOM      5  C3  PXY d   1       1.215   1.078  -1.127  0.00  0.00     0.003 A 
ATOM      6  C4  PXY d   1       1.538   1.581   0.105  0.00  0.00    -0.082 A 
ATOM      7  C5  PXY d   1       2.461   2.561   0.203  0.00  0.00     0.003 A 
ATOM      8  C6  PXY d   1       3.068   3.039  -0.955  0.00  0.00     0.003 A 
ENDROOT
TORSDOF 0
ENDMDL
