MODEL 1
REMARK minimizedAffinity -0.40716213
REMARK minimizedRMSD -1
REMARK  0 active torsions:
REMARK  status: ('A' for Active; 'I' for Inactive)
ROOT
ATOM      1  C4' PXY d   1       0.177   4.587  -2.665  0.00  0.00     0.077 C 
ATOM      2  C1' PXY d   1       5.185   1.965  -3.870  0.00  0.00     0.077 C 
ATOM      3  C1  PXY d   1       3.868   2.642  -3.547  0.00  0.00    -0.082 A 
ATOM      4  C2  PXY d   1       3.391   3.568  -4.363  0.00  0.00     0.003 A 
ATOM      5  C3  PXY d   1       2.218   4.213  -4.070  0.00  0.00     0.003 A 
ATOM      6  C4  PXY d   1       1.498   3.870  -2.956  0.00  0.00    -0.082 A 
ATOM      7  C5  PXY d   1       1.972   2.919  -2.124  0.00  0.00     0.003 A 
ATOM      8  C6  PXY d   1       3.186   2.305  -2.419  0.00  0.00     0.003 A 
ENDROOT
TORSDOF 0
ENDMDL
