MODEL 1
REMARK minimizedAffinity 11.570076
REMARK minimizedRMSD -1
REMARK  0 active torsions:
REMARK  status: ('A' for Active; 'I' for Inactive)
ROOT
ATOM      1  C4' PXY d   1       1.839   1.396  -1.183  0.00  0.00     0.077 C 
ATOM      2  C1' PXY d   1      -0.055   4.963  -5.319  0.00  0.00     0.077 C 
ATOM      3  C1  PXY d   1       0.429   4.026  -4.230  0.00  0.00    -0.082 A 
ATOM      4  C2  PXY d   1       1.673   4.123  -3.789  0.00  0.00     0.003 A 
ATOM      5  C3  PXY d   1       2.137   3.262  -2.828  0.00  0.00     0.003 A 
ATOM      6  C4  PXY d   1       1.304   2.327  -2.274  0.00  0.00    -0.082 A 
ATOM      7  C5  PXY d   1       0.031   2.229  -2.711  0.00  0.00     0.003 A 
ATOM      8  C6  PXY d   1      -0.409   3.085  -3.717  0.00  0.00     0.003 A 
ENDROOT
TORSDOF 0
ENDMDL
