MODEL 1
REMARK minimizedAffinity -1.50411522
REMARK minimizedRMSD -1
REMARK  0 active torsions:
REMARK  status: ('A' for Active; 'I' for Inactive)
ROOT
ATOM      1  C4' PXY d   1       1.502   5.183  -5.326  0.00  0.00     0.077 C 
ATOM      2  C1' PXY d   1       1.211   1.004  -1.343  0.00  0.00     0.077 C 
ATOM      3  C1  PXY d   1       1.298   2.105  -2.382  0.00  0.00    -0.082 A 
ATOM      4  C2  PXY d   1       0.204   2.493  -3.016  0.00  0.00     0.003 A 
ATOM      5  C3  PXY d   1       0.271   3.465  -3.982  0.00  0.00     0.003 A 
ATOM      6  C4  PXY d   1       1.460   4.082  -4.263  0.00  0.00    -0.082 A 
ATOM      7  C5  PXY d   1       2.579   3.699  -3.612  0.00  0.00     0.003 A 
ATOM      8  C6  PXY d   1       2.497   2.682  -2.665  0.00  0.00     0.003 A 
ENDROOT
TORSDOF 0
ENDMDL
