MODEL 1
REMARK minimizedAffinity 12.3050127
REMARK minimizedRMSD -1
REMARK  0 active torsions:
REMARK  status: ('A' for Active; 'I' for Inactive)
ROOT
ATOM      1  C4' PXY d   1      -5.820   3.310  -1.933  0.00  0.00     0.077 C 
ATOM      2  C1' PXY d   1      -5.972  -0.881  -5.911  0.00  0.00     0.077 C 
ATOM      3  C1  PXY d   1      -5.928   0.226  -4.877  0.00  0.00    -0.082 A 
ATOM      4  C2  PXY d   1      -5.829  -0.081  -3.594  0.00  0.00     0.003 A 
ATOM      5  C3  PXY d   1      -5.819   0.907  -2.643  0.00  0.00     0.003 A 
ATOM      6  C4  PXY d   1      -5.858   2.225  -3.013  0.00  0.00    -0.082 A 
ATOM      7  C5  PXY d   1      -5.949   2.547  -4.321  0.00  0.00     0.003 A 
ATOM      8  C6  PXY d   1      -5.998   1.528  -5.268  0.00  0.00     0.003 A 
ENDROOT
TORSDOF 0
ENDMDL
