MODEL 1
REMARK minimizedAffinity 1.92509425
REMARK minimizedRMSD -1
REMARK  1 active torsions:
REMARK  status: ('A' for Active; 'I' for Inactive)
REMARK    1  A    between atoms: C1_2  and  C2_3 
ROOT
ATOM      1  C2  UNL d   1      -3.158   3.461  -4.977  0.00  0.00    -0.077 A 
ATOM      2  C3  UNL d   1      -2.387   2.890  -6.000  0.00  0.00     0.002 A 
ATOM      3  C4  UNL d   1      -1.728   1.676  -5.794  0.00  0.00     0.002 A 
ATOM      4  C5  UNL d   1      -1.836   1.022  -4.568  0.00  0.00    -0.004 A 
ATOM      5  C6  UNL d   1      -2.599   1.583  -3.545  0.00  0.00     0.002 A 
ATOM      6  C7  UNL d   1      -3.257   2.796  -3.748  0.00  0.00     0.002 A 
ENDROOT
BRANCH   1   7
ATOM      7  C1  UNL d   1      -3.909   4.745  -5.214  0.00  0.00     0.055 C 
ATOM      8  C   UNL d   1      -3.087   5.953  -4.792  0.00  0.00     0.019 C 
ENDBRANCH   1   7
TORSDOF 1
ENDMDL
