MODEL 1
REMARK minimizedAffinity 6.97687483
REMARK minimizedRMSD -1
REMARK  1 active torsions:
REMARK  status: ('A' for Active; 'I' for Inactive)
REMARK    1  A    between atoms: C1_2  and  C2_3 
ROOT
ATOM      1  C2  UNL d   1       3.898  -2.306   4.997  0.00  0.00    -0.077 A 
ATOM      2  C3  UNL d   1       4.930  -3.215   5.272  0.00  0.00     0.002 A 
ATOM      3  C4  UNL d   1       5.974  -3.394   4.363  0.00  0.00     0.002 A 
ATOM      4  C5  UNL d   1       6.000  -2.665   3.176  0.00  0.00    -0.004 A 
ATOM      5  C6  UNL d   1       4.978  -1.760   2.892  0.00  0.00     0.002 A 
ATOM      6  C7  UNL d   1       3.932  -1.581   3.799  0.00  0.00     0.002 A 
ENDROOT
BRANCH   1   7
ATOM      7  C1  UNL d   1       2.797  -2.076   5.998  0.00  0.00     0.055 C 
ATOM      8  C   UNL d   1       1.790  -1.055   5.488  0.00  0.00     0.019 C 
ENDBRANCH   1   7
TORSDOF 1
ENDMDL
