MODEL 1
REMARK minimizedAffinity 9.57987022
REMARK minimizedRMSD -1
REMARK  1 active torsions:
REMARK  status: ('A' for Active; 'I' for Inactive)
REMARK    1  A    between atoms: C1_2  and  C2_3 
ROOT
ATOM      1  C2  UNL d   1      -3.744   3.417  -5.217  0.00  0.00    -0.077 A 
ATOM      2  C3  UNL d   1      -2.672   2.963  -5.999  0.00  0.00     0.002 A 
ATOM      3  C4  UNL d   1      -2.027   1.765  -5.687  0.00  0.00     0.002 A 
ATOM      4  C5  UNL d   1      -2.449   1.009  -4.595  0.00  0.00    -0.004 A 
ATOM      5  C6  UNL d   1      -3.512   1.453  -3.810  0.00  0.00     0.002 A 
ATOM      6  C7  UNL d   1      -4.157   2.651  -4.120  0.00  0.00     0.002 A 
ENDROOT
BRANCH   1   7
ATOM      7  C1  UNL d   1      -4.472   4.684  -5.582  0.00  0.00     0.055 C 
ATOM      8  C   UNL d   1      -3.669   5.916  -5.192  0.00  0.00     0.019 C 
ENDBRANCH   1   7
TORSDOF 1
ENDMDL
