MODEL 1
REMARK minimizedAffinity 7.77346849
REMARK minimizedRMSD -1
REMARK  1 active torsions:
REMARK  status: ('A' for Active; 'I' for Inactive)
REMARK    1  A    between atoms: C1_2  and  C2_3 
ROOT
ATOM      1  C2  UNL d   1       1.014  -5.124  -0.199  0.00  0.00    -0.077 A 
ATOM      2  C3  UNL d   1       0.160  -5.736  -1.127  0.00  0.00     0.002 A 
ATOM      3  C4  UNL d   1      -0.496  -4.973  -2.095  0.00  0.00     0.002 A 
ATOM      4  C5  UNL d   1      -0.301  -3.594  -2.146  0.00  0.00    -0.004 A 
ATOM      5  C6  UNL d   1       0.544  -2.975  -1.227  0.00  0.00     0.002 A 
ATOM      6  C7  UNL d   1       1.200  -3.737  -0.258  0.00  0.00     0.002 A 
ENDROOT
BRANCH   1   7
ATOM      7  C1  UNL d   1       1.760  -5.952   0.814  0.00  0.00     0.055 C 
ATOM      8  C   UNL d   1       3.245  -5.619   0.815  0.00  0.00     0.019 C 
ENDBRANCH   1   7
TORSDOF 1
ENDMDL
