MODEL 1
REMARK minimizedAffinity -4.26156902
REMARK minimizedRMSD -1
REMARK  1 active torsions:
REMARK  status: ('A' for Active; 'I' for Inactive)
REMARK    1  A    between atoms: C1_2  and  C2_3 
ROOT
ATOM      1  C2  UNL d   1      -0.050  -0.277  -0.341  0.00  0.00    -0.073 A 
ATOM      2  C3  UNL d   1       0.904   0.735  -0.187  0.00  0.00    -0.002 A 
ATOM      3  C4  UNL d   1       1.261   1.179   1.087  0.00  0.00     0.004 A 
ATOM      4  C5  UNL d   1       0.674   0.611   2.218  0.00  0.00    -0.004 A 
ATOM      5  C6  UNL d   1      -0.273  -0.409   2.085  0.00  0.00    -0.075 A 
ATOM      6  C7  UNL d   1      -0.915  -1.029   3.292  0.00  0.00     0.076 C 
ATOM      7  C8  UNL d   1      -0.628  -0.848   0.802  0.00  0.00     0.001 A 
ENDROOT
BRANCH   1   8
ATOM      8  C1  UNL d   1      -0.434  -0.764  -1.714  0.00  0.00     0.053 C 
ATOM      9  C   UNL d   1       0.764  -1.288  -2.489  0.00  0.00     0.018 C 
ENDBRANCH   1   8
TORSDOF 1
ENDMDL
