MODEL 1
REMARK minimizedAffinity -4.05995131
REMARK minimizedRMSD -1
REMARK  1 active torsions:
REMARK  status: ('A' for Active; 'I' for Inactive)
REMARK    1  A    between atoms: C1_2  and  C2_3 
ROOT
ATOM      1  C2  UNL d   1       0.320  -0.129   0.070  0.00  0.00    -0.073 A 
ATOM      2  C3  UNL d   1       1.511   0.505   0.443  0.00  0.00    -0.002 A 
ATOM      3  C4  UNL d   1       1.758   0.809   1.782  0.00  0.00     0.004 A 
ATOM      4  C5  UNL d   1       0.822   0.477   2.762  0.00  0.00    -0.004 A 
ATOM      5  C6  UNL d   1      -0.368  -0.167   2.410  0.00  0.00    -0.075 A 
ATOM      6  C7  UNL d   1      -1.386  -0.529   3.452  0.00  0.00     0.076 C 
ATOM      7  C8  UNL d   1      -0.611  -0.467   1.063  0.00  0.00     0.001 A 
ENDROOT
BRANCH   1   8
ATOM      8  C1  UNL d   1       0.052  -0.465  -1.374  0.00  0.00     0.053 C 
ATOM      9  C   UNL d   1       1.316  -0.887  -2.106  0.00  0.00     0.018 C 
ENDBRANCH   1   8
TORSDOF 1
ENDMDL
