MODEL 1
REMARK minimizedAffinity -5.28050852
REMARK minimizedRMSD -1
REMARK  1 active torsions:
REMARK  status: ('A' for Active; 'I' for Inactive)
REMARK    1  A    between atoms: C1_2  and  C2_3 
ROOT
ATOM      1  C2  UNL d   1       0.086   0.543  -0.004  0.00  0.00    -0.073 A 
ATOM      2  C3  UNL d   1       1.386   1.009   0.220  0.00  0.00    -0.002 A 
ATOM      3  C4  UNL d   1       1.965   0.904   1.486  0.00  0.00     0.004 A 
ATOM      4  C5  UNL d   1       1.253   0.327   2.537  0.00  0.00    -0.004 A 
ATOM      5  C6  UNL d   1      -0.044  -0.155   2.331  0.00  0.00    -0.075 A 
ATOM      6  C7  UNL d   1      -0.824  -0.776   3.452  0.00  0.00     0.076 C 
ATOM      7  C8  UNL d   1      -0.619  -0.044   1.057  0.00  0.00     0.001 A 
ENDROOT
BRANCH   1   8
ATOM      8  C1  UNL d   1      -0.541   0.647  -1.370  0.00  0.00     0.053 C 
ATOM      9  C   UNL d   1       0.448   0.317  -2.477  0.00  0.00     0.018 C 
ENDBRANCH   1   8
TORSDOF 1
ENDMDL
