MODEL 1
REMARK minimizedAffinity -5.09735537
REMARK minimizedRMSD -1
REMARK  1 active torsions:
REMARK  status: ('A' for Active; 'I' for Inactive)
REMARK    1  A    between atoms: C1_2  and  C2_3 
ROOT
ATOM      1  C2  UNL d   1       0.613  -0.379  -1.142  0.00  0.00    -0.073 A 
ATOM      2  C3  UNL d   1       0.029  -1.554  -1.629  0.00  0.00    -0.002 A 
ATOM      3  C4  UNL d   1       0.416  -2.074  -2.865  0.00  0.00     0.004 A 
ATOM      4  C5  UNL d   1       1.395  -1.429  -3.622  0.00  0.00    -0.004 A 
ATOM      5  C6  UNL d   1       1.999  -0.261  -3.147  0.00  0.00    -0.075 A 
ATOM      6  C7  UNL d   1       3.051   0.445  -3.951  0.00  0.00     0.076 C 
ATOM      7  C8  UNL d   1       1.602   0.257  -1.907  0.00  0.00     0.001 A 
ENDROOT
BRANCH   1   8
ATOM      8  C1  UNL d   1       0.203   0.183   0.194  0.00  0.00     0.053 C 
ATOM      9  C   UNL d   1      -0.984  -0.561   0.785  0.00  0.00     0.018 C 
ENDBRANCH   1   8
TORSDOF 1
ENDMDL
