MODEL 1
REMARK minimizedAffinity -4.90985584
REMARK minimizedRMSD -1
REMARK  1 active torsions:
REMARK  status: ('A' for Active; 'I' for Inactive)
REMARK    1  A    between atoms: C1_2  and  C2_3 
ROOT
ATOM      1  C2  UNL d   1       0.322  -0.400  -0.142  0.00  0.00    -0.073 A 
ATOM      2  C3  UNL d   1      -0.688  -1.222   0.372  0.00  0.00    -0.002 A 
ATOM      3  C4  UNL d   1      -0.976  -1.215   1.737  0.00  0.00     0.004 A 
ATOM      4  C5  UNL d   1      -0.263  -0.384   2.601  0.00  0.00    -0.004 A 
ATOM      5  C6  UNL d   1       0.742   0.453   2.105  0.00  0.00    -0.075 A 
ATOM      6  C7  UNL d   1       1.519   1.352   3.021  0.00  0.00     0.076 C 
ATOM      7  C8  UNL d   1       1.027   0.439   0.733  0.00  0.00     0.001 A 
ENDROOT
BRANCH   1   8
ATOM      8  C1  UNL d   1       0.632  -0.399  -1.616  0.00  0.00     0.053 C 
ATOM      9  C   UNL d   1       1.193  -1.733  -2.082  0.00  0.00     0.018 C 
ENDBRANCH   1   8
TORSDOF 1
ENDMDL
