MODEL 1
REMARK minimizedAffinity -1.16933763
REMARK minimizedRMSD -1
REMARK  1 active torsions:
REMARK  status: ('A' for Active; 'I' for Inactive)
REMARK    1  A    between atoms: C1_2  and  C2_3 
ROOT
ATOM      1  C2  UNL d   1      -0.249   0.224   2.168  0.00  0.00    -0.073 A 
ATOM      2  C3  UNL d   1       1.015   0.185   1.568  0.00  0.00    -0.002 A 
ATOM      3  C4  UNL d   1       1.134   0.146   0.178  0.00  0.00     0.004 A 
ATOM      4  C5  UNL d   1      -0.006   0.152  -0.625  0.00  0.00    -0.004 A 
ATOM      5  C6  UNL d   1      -1.277   0.203  -0.044  0.00  0.00    -0.075 A 
ATOM      6  C7  UNL d   1      -2.514   0.208  -0.894  0.00  0.00     0.076 C 
ATOM      7  C8  UNL d   1      -1.389   0.239   1.352  0.00  0.00     0.001 A 
ENDROOT
BRANCH   1   8
ATOM      8  C1  UNL d   1      -0.383   0.274   3.668  0.00  0.00     0.053 C 
ATOM      9  C   UNL d   1      -1.700  -0.319   4.143  0.00  0.00     0.018 C 
ENDBRANCH   1   8
TORSDOF 1
ENDMDL
