MODEL 1
REMARK minimizedAffinity -3.60646296
REMARK minimizedRMSD -1
REMARK  1 active torsions:
REMARK  status: ('A' for Active; 'I' for Inactive)
REMARK    1  A    between atoms: C1_2  and  C2_3 
ROOT
ATOM      1  C2  UNL d   1      -0.040   0.201   0.210  0.00  0.00    -0.073 A 
ATOM      2  C3  UNL d   1       1.297   0.524   0.470  0.00  0.00    -0.002 A 
ATOM      3  C4  UNL d   1       1.766   0.582   1.783  0.00  0.00     0.004 A 
ATOM      4  C5  UNL d   1       0.907   0.310   2.848  0.00  0.00    -0.004 A 
ATOM      5  C6  UNL d   1      -0.429  -0.027   2.608  0.00  0.00    -0.075 A 
ATOM      6  C7  UNL d   1      -1.367  -0.320   3.743  0.00  0.00     0.076 C 
ATOM      7  C8  UNL d   1      -0.894  -0.080   1.287  0.00  0.00     0.001 A 
ENDROOT
BRANCH   1   8
ATOM      8  C1  UNL d   1      -0.550   0.131  -1.206  0.00  0.00     0.053 C 
ATOM      9  C   UNL d   1       0.583   0.014  -2.214  0.00  0.00     0.018 C 
ENDBRANCH   1   8
TORSDOF 1
ENDMDL
