MODEL 1
REMARK minimizedAffinity -5.17657042
REMARK minimizedRMSD -1
REMARK  1 active torsions:
REMARK  status: ('A' for Active; 'I' for Inactive)
REMARK    1  A    between atoms: C1_2  and  C2_3 
ROOT
ATOM      1  C2  UNL d   1       0.423   0.049   0.115  0.00  0.00    -0.073 A 
ATOM      2  C3  UNL d   1       1.761   0.254   0.468  0.00  0.00    -0.002 A 
ATOM      3  C4  UNL d   1       2.156   0.184   1.805  0.00  0.00     0.004 A 
ATOM      4  C5  UNL d   1       1.220  -0.099   2.799  0.00  0.00    -0.004 A 
ATOM      5  C6  UNL d   1      -0.120  -0.320   2.465  0.00  0.00    -0.075 A 
ATOM      6  C7  UNL d   1      -1.139  -0.623   3.523  0.00  0.00     0.076 C 
ATOM      7  C8  UNL d   1      -0.509  -0.244   1.121  0.00  0.00     0.001 A 
ENDROOT
BRANCH   1   8
ATOM      8  C1  UNL d   1      -0.008   0.117  -1.328  0.00  0.00     0.053 C 
ATOM      9  C   UNL d   1       0.868  -0.743  -2.225  0.00  0.00     0.018 C 
ENDBRANCH   1   8
TORSDOF 1
ENDMDL
