MODEL 1
REMARK minimizedAffinity -2.71951485
REMARK minimizedRMSD -1
REMARK  0 active torsions:
REMARK  status: ('A' for Active; 'I' for Inactive)
ROOT
ATOM      1  C   UNL d   1      -3.691  -0.867   0.377  0.00  0.00     0.172 C 
ATOM      2  N   UNL d   1      -2.279  -0.583   0.266  0.00  0.00    -0.070 N 
ATOM      3  C1  UNL d   1      -1.445  -0.263   1.304  0.00  0.00    -0.004 A 
ATOM      4  C2  UNL d   1      -0.183  -0.067   0.786  0.00  0.00    -0.047 A 
ATOM      5  C3  UNL d   1      -0.262  -0.275  -0.611  0.00  0.00    -0.047 A 
ATOM      6  C4  UNL d   1      -1.571  -0.593  -0.906  0.00  0.00    -0.004 A 
ENDROOT
TORSDOF 0
ENDMDL
