MODEL 1
REMARK minimizedAffinity -2.33910942
REMARK minimizedRMSD -1
REMARK  0 active torsions:
REMARK  status: ('A' for Active; 'I' for Inactive)
ROOT
ATOM      1  C   UNL d   1       0.317  -0.876   2.290  0.00  0.00     0.172 C 
ATOM      2  N   UNL d   1       0.133  -0.244   1.005  0.00  0.00    -0.070 N 
ATOM      3  C1  UNL d   1      -0.286   1.044   0.801  0.00  0.00    -0.004 A 
ATOM      4  C2  UNL d   1      -0.332   1.263  -0.558  0.00  0.00    -0.047 A 
ATOM      5  C3  UNL d   1       0.072   0.065  -1.194  0.00  0.00    -0.047 A 
ATOM      6  C4  UNL d   1       0.354  -0.851  -0.203  0.00  0.00    -0.004 A 
ENDROOT
TORSDOF 0
ENDMDL
