MODEL 1
REMARK minimizedAffinity -3.28204823
REMARK minimizedRMSD -1
REMARK  0 active torsions:
REMARK  status: ('A' for Active; 'I' for Inactive)
ROOT
ATOM      1  C   UNL d   1      -0.498   0.476  -1.279  0.00  0.00     0.172 C 
ATOM      2  N   UNL d   1       0.321   0.083  -0.157  0.00  0.00    -0.070 N 
ATOM      3  C1  UNL d   1       1.384  -0.778  -0.207  0.00  0.00    -0.004 A 
ATOM      4  C2  UNL d   1       1.897  -0.891   1.068  0.00  0.00    -0.047 A 
ATOM      5  C3  UNL d   1       1.113  -0.070   1.913  0.00  0.00    -0.047 A 
ATOM      6  C4  UNL d   1       0.145   0.521   1.129  0.00  0.00    -0.004 A 
ENDROOT
TORSDOF 0
ENDMDL
