MODEL 1
REMARK minimizedAffinity -0.698105574
REMARK minimizedRMSD -1
REMARK  0 active torsions:
REMARK  status: ('A' for Active; 'I' for Inactive)
ROOT
ATOM      1  C   UNL d   1      -0.980   1.788  -2.158  0.00  0.00     0.172 C 
ATOM      2  N   UNL d   1      -0.113   0.940  -1.374  0.00  0.00    -0.070 N 
ATOM      3  C1  UNL d   1       0.124   1.065  -0.031  0.00  0.00    -0.004 A 
ATOM      4  C2  UNL d   1       1.003   0.070   0.337  0.00  0.00    -0.047 A 
ATOM      5  C3  UNL d   1       1.305  -0.679  -0.825  0.00  0.00    -0.047 A 
ATOM      6  C4  UNL d   1       0.601  -0.118  -1.869  0.00  0.00    -0.004 A 
ENDROOT
TORSDOF 0
ENDMDL
