MODEL 1
REMARK minimizedAffinity -2.33167744
REMARK minimizedRMSD -1
REMARK  0 active torsions:
REMARK  status: ('A' for Active; 'I' for Inactive)
ROOT
ATOM      1  C   UNL d   1      -0.006  -1.245   2.587  0.00  0.00     0.172 C 
ATOM      2  N   UNL d   1       0.009  -0.614   1.288  0.00  0.00    -0.070 N 
ATOM      3  C1  UNL d   1       0.945  -0.822   0.310  0.00  0.00    -0.004 A 
ATOM      4  C2  UNL d   1       0.607  -0.038  -0.772  0.00  0.00    -0.047 A 
ATOM      5  C3  UNL d   1      -0.573   0.666  -0.432  0.00  0.00    -0.047 A 
ATOM      6  C4  UNL d   1      -0.921   0.291   0.848  0.00  0.00    -0.004 A 
ENDROOT
TORSDOF 0
ENDMDL
