MODEL 1
REMARK minimizedAffinity 4.03433228
REMARK minimizedRMSD -1
REMARK  1 active torsions:
REMARK  status: ('A' for Active; 'I' for Inactive)
REMARK    1  A    between atoms: C1_2  and  C2_3 
ROOT
ATOM      1  C2  UNL d   1       1.920   2.176   2.064  0.00  0.00    -0.081 A 
ATOM      2  C3  UNL d   1       1.974   1.573   0.801  0.00  0.00     0.006 A 
ATOM      3  C4  UNL d   1       3.101   1.728  -0.010  0.00  0.00     0.002 A 
ATOM      4  C5  UNL d   1       4.194   2.481   0.431  0.00  0.00    -0.080 A 
ATOM      5  C6  UNL d   1       5.422   2.630  -0.417  0.00  0.00     0.076 C 
ATOM      6  C7  UNL d   1       4.133   3.097   1.685  0.00  0.00     0.002 A 
ATOM      7  C8  UNL d   1       3.007   2.943   2.497  0.00  0.00     0.006 A 
ENDROOT
BRANCH   1   8
ATOM      8  C1  UNL d   1       0.733   1.957   2.968  0.00  0.00     0.054 C 
ATOM      9  C   UNL d   1       0.864   0.656   3.747  0.00  0.00     0.018 C 
ENDBRANCH   1   8
TORSDOF 1
ENDMDL
