MODEL 1
REMARK minimizedAffinity 0.204059452
REMARK minimizedRMSD -1
REMARK  1 active torsions:
REMARK  status: ('A' for Active; 'I' for Inactive)
REMARK    1  A    between atoms: C1_2  and  C2_3 
ROOT
ATOM      1  C2  UNL d   1       2.915  -0.556  -0.736  0.00  0.00    -0.081 A 
ATOM      2  C3  UNL d   1       2.811  -1.942  -0.911  0.00  0.00     0.006 A 
ATOM      3  C4  UNL d   1       1.600  -2.597  -0.672  0.00  0.00     0.002 A 
ATOM      4  C5  UNL d   1       0.473  -1.877  -0.263  0.00  0.00    -0.080 A 
ATOM      5  C6  UNL d   1      -0.841  -2.564  -0.032  0.00  0.00     0.076 C 
ATOM      6  C7  UNL d   1       0.581  -0.495  -0.072  0.00  0.00     0.002 A 
ATOM      7  C8  UNL d   1       1.791   0.160  -0.310  0.00  0.00     0.006 A 
ENDROOT
BRANCH   1   8
ATOM      8  C1  UNL d   1       4.201   0.162  -1.055  0.00  0.00     0.054 C 
ATOM      9  C   UNL d   1       4.124   1.632  -0.671  0.00  0.00     0.018 C 
ENDBRANCH   1   8
TORSDOF 1
ENDMDL
