MODEL 1
REMARK minimizedAffinity 1.77454507
REMARK minimizedRMSD -1
REMARK  1 active torsions:
REMARK  status: ('A' for Active; 'I' for Inactive)
REMARK    1  A    between atoms: C1_2  and  C2_3 
ROOT
ATOM      1  C2  UNL d   1       2.328  -0.170  -0.357  0.00  0.00    -0.081 A 
ATOM      2  C3  UNL d   1       3.433   0.061  -1.186  0.00  0.00     0.006 A 
ATOM      3  C4  UNL d   1       3.900  -0.941  -2.039  0.00  0.00     0.002 A 
ATOM      4  C5  UNL d   1       3.266  -2.187  -2.085  0.00  0.00    -0.080 A 
ATOM      5  C6  UNL d   1       3.739  -3.261  -3.019  0.00  0.00     0.076 C 
ATOM      6  C7  UNL d   1       2.173  -2.424  -1.245  0.00  0.00     0.002 A 
ATOM      7  C8  UNL d   1       1.706  -1.423  -0.390  0.00  0.00     0.006 A 
ENDROOT
BRANCH   1   8
ATOM      8  C1  UNL d   1       1.782   0.930   0.517  0.00  0.00     0.054 C 
ATOM      9  C   UNL d   1       0.304   1.171   0.245  0.00  0.00     0.018 C 
ENDBRANCH   1   8
TORSDOF 1
ENDMDL
