MODEL 1
REMARK minimizedAffinity 1.90319085
REMARK minimizedRMSD -1
REMARK  1 active torsions:
REMARK  status: ('A' for Active; 'I' for Inactive)
REMARK    1  A    between atoms: C1_2  and  C2_3 
ROOT
ATOM      1  C2  UNL d   1       1.964  -0.143  -0.258  0.00  0.00    -0.081 A 
ATOM      2  C3  UNL d   1       2.361  -1.481  -0.365  0.00  0.00     0.006 A 
ATOM      3  C4  UNL d   1       1.413  -2.487  -0.569  0.00  0.00     0.002 A 
ATOM      4  C5  UNL d   1       0.055  -2.170  -0.678  0.00  0.00    -0.080 A 
ATOM      5  C6  UNL d   1      -0.970  -3.237  -0.927  0.00  0.00     0.076 C 
ATOM      6  C7  UNL d   1      -0.344  -0.835  -0.553  0.00  0.00     0.002 A 
ATOM      7  C8  UNL d   1       0.603   0.171  -0.348  0.00  0.00     0.006 A 
ENDROOT
BRANCH   1   8
ATOM      8  C1  UNL d   1       2.990   0.951  -0.102  0.00  0.00     0.054 C 
ATOM      9  C   UNL d   1       4.169   0.741  -1.041  0.00  0.00     0.018 C 
ENDBRANCH   1   8
TORSDOF 1
ENDMDL
