MODEL 1
REMARK minimizedAffinity -0.054532215
REMARK minimizedRMSD -1
REMARK  1 active torsions:
REMARK  status: ('A' for Active; 'I' for Inactive)
REMARK    1  A    between atoms: C1_2  and  C2_3 
ROOT
ATOM      1  C2  UNL d   1       1.870   1.639   0.547  0.00  0.00    -0.081 A 
ATOM      2  C3  UNL d   1       2.330   1.853   1.852  0.00  0.00     0.006 A 
ATOM      3  C4  UNL d   1       1.485   2.401   2.820  0.00  0.00     0.002 A 
ATOM      4  C5  UNL d   1       0.164   2.736   2.502  0.00  0.00    -0.080 A 
ATOM      5  C6  UNL d   1      -0.762   3.297   3.539  0.00  0.00     0.076 C 
ATOM      6  C7  UNL d   1      -0.290   2.539   1.193  0.00  0.00     0.002 A 
ATOM      7  C8  UNL d   1       0.555   1.992   0.225  0.00  0.00     0.006 A 
ENDROOT
BRANCH   1   8
ATOM      8  C1  UNL d   1       2.758   0.989  -0.482  0.00  0.00     0.054 C 
ATOM      9  C   UNL d   1       4.167   1.564  -0.440  0.00  0.00     0.018 C 
ENDBRANCH   1   8
TORSDOF 1
ENDMDL
