MODEL 1
REMARK minimizedAffinity 3.14420581
REMARK minimizedRMSD -1
REMARK  3 active torsions:
REMARK  status: ('A' for Active; 'I' for Inactive)
REMARK    1  A    between atoms: C3'_2  and  C2'_3 
REMARK    2  A    between atoms: C2'_3  and  C1'_4 
REMARK    3  A    between atoms: C1'_4  and  C1_5 
ROOT
ATOM      1  C1  N4B d   1       4.387  -4.441  -2.157  0.00  0.00    -0.075 A 
ATOM      2  C2  N4B d   1       3.468  -5.471  -1.859  0.00  0.00     0.002 A 
ATOM      3  C3  N4B d   1       2.456  -5.764  -2.740  0.00  0.00     0.002 A 
ATOM      4  C4  N4B d   1       2.333  -5.032  -3.911  0.00  0.00    -0.004 A 
ATOM      5  C5  N4B d   1       3.240  -4.056  -4.204  0.00  0.00     0.002 A 
ATOM      6  C6  N4B d   1       4.264  -3.753  -3.329  0.00  0.00     0.002 A 
ENDROOT
BRANCH   1   7
ATOM      7  C1' N4B d   1       5.458  -4.026  -1.185  0.00  0.00     0.057 C 
BRANCH   7   8
ATOM      8  C2' N4B d   1       5.175  -2.606  -0.704  0.00  0.00     0.009 C 
BRANCH   8   9
ATOM      9  C3' N4B d   1       3.818  -2.107  -1.171  0.00  0.00     0.004 C 
ATOM     10  C4' N4B d   1       2.929  -1.694  -0.037  0.00  0.00     0.003 C 
ENDBRANCH   8   9
ENDBRANCH   7   8
ENDBRANCH   1   7
TORSDOF 3
ENDMDL
