MODEL 1
REMARK minimizedAffinity 16.9218025
REMARK minimizedRMSD -1
REMARK  3 active torsions:
REMARK  status: ('A' for Active; 'I' for Inactive)
REMARK    1  A    between atoms: C3'_2  and  C2'_3 
REMARK    2  A    between atoms: C2'_3  and  C1'_4 
REMARK    3  A    between atoms: C1'_4  and  C1_5 
ROOT
ATOM      1  C1  N4B d   1       3.890  -3.855  -3.146  0.00  0.00    -0.075 A 
ATOM      2  C2  N4B d   1       2.951  -4.910  -3.104  0.00  0.00     0.002 A 
ATOM      3  C3  N4B d   1       3.143  -5.966  -2.248  0.00  0.00     0.002 A 
ATOM      4  C4  N4B d   1       4.270  -6.000  -1.441  0.00  0.00    -0.004 A 
ATOM      5  C5  N4B d   1       5.159  -4.965  -1.469  0.00  0.00     0.002 A 
ATOM      6  C6  N4B d   1       4.977  -3.895  -2.321  0.00  0.00     0.002 A 
ENDROOT
BRANCH   1   7
ATOM      7  C1' N4B d   1       3.768  -2.721  -4.126  0.00  0.00     0.057 C 
BRANCH   7   8
ATOM      8  C2' N4B d   1       4.076  -1.408  -3.413  0.00  0.00     0.009 C 
BRANCH   8   9
ATOM      9  C3' N4B d   1       2.840  -0.810  -2.764  0.00  0.00     0.004 C 
ATOM     10  C4' N4B d   1       2.757  -1.103  -1.295  0.00  0.00     0.003 C 
ENDBRANCH   8   9
ENDBRANCH   7   8
ENDBRANCH   1   7
TORSDOF 3
ENDMDL
