MODEL 1
REMARK minimizedAffinity 6.29956484
REMARK minimizedRMSD -1
REMARK  3 active torsions:
REMARK  status: ('A' for Active; 'I' for Inactive)
REMARK    1  A    between atoms: C3'_2  and  C2'_3 
REMARK    2  A    between atoms: C2'_3  and  C1'_4 
REMARK    3  A    between atoms: C1'_4  and  C1_5 
ROOT
ATOM      1  C1  N4B d   1       3.063  -3.634  -0.219  0.00  0.00    -0.075 A 
ATOM      2  C2  N4B d   1       4.145  -4.521  -0.408  0.00  0.00     0.002 A 
ATOM      3  C3  N4B d   1       5.300  -4.077  -1.005  0.00  0.00     0.002 A 
ATOM      4  C4  N4B d   1       5.387  -2.762  -1.436  0.00  0.00    -0.004 A 
ATOM      5  C5  N4B d   1       4.347  -1.905  -1.226  0.00  0.00     0.002 A 
ATOM      6  C6  N4B d   1       3.182  -2.336  -0.624  0.00  0.00     0.002 A 
ENDROOT
BRANCH   1   7
ATOM      7  C1' N4B d   1       1.749  -4.095   0.351  0.00  0.00     0.057 C 
BRANCH   7   8
ATOM      8  C2' N4B d   1       0.959  -4.821  -0.734  0.00  0.00     0.009 C 
BRANCH   8   9
ATOM      9  C3' N4B d   1       1.745  -5.974  -1.333  0.00  0.00     0.004 C 
ATOM     10  C4' N4B d   1       1.696  -5.994  -2.832  0.00  0.00     0.003 C 
ENDBRANCH   8   9
ENDBRANCH   7   8
ENDBRANCH   1   7
TORSDOF 3
ENDMDL
