MODEL 1
REMARK minimizedAffinity 4.83243036
REMARK minimizedRMSD -1
REMARK  3 active torsions:
REMARK  status: ('A' for Active; 'I' for Inactive)
REMARK    1  A    between atoms: C3'_2  and  C2'_3 
REMARK    2  A    between atoms: C2'_3  and  C1'_4 
REMARK    3  A    between atoms: C1'_4  and  C1_5 
ROOT
ATOM      1  C1  N4B d   1       3.909  -4.114  -2.483  0.00  0.00    -0.075 A 
ATOM      2  C2  N4B d   1       3.895  -3.234  -1.378  0.00  0.00     0.002 A 
ATOM      3  C3  N4B d   1       3.912  -1.876  -1.582  0.00  0.00     0.002 A 
ATOM      4  C4  N4B d   1       3.963  -1.377  -2.875  0.00  0.00    -0.004 A 
ATOM      5  C5  N4B d   1       3.951  -2.233  -3.937  0.00  0.00     0.002 A 
ATOM      6  C6  N4B d   1       3.929  -3.600  -3.747  0.00  0.00     0.002 A 
ENDROOT
BRANCH   1   7
ATOM      7  C1' N4B d   1       3.978  -5.606  -2.309  0.00  0.00     0.057 C 
BRANCH   7   8
ATOM      8  C2' N4B d   1       5.392  -5.997  -1.890  0.00  0.00     0.009 C 
BRANCH   8   9
ATOM      9  C3' N4B d   1       5.877  -5.185  -0.701  0.00  0.00     0.004 C 
ATOM     10  C4' N4B d   1       5.984  -5.999   0.554  0.00  0.00     0.003 C 
ENDBRANCH   8   9
ENDBRANCH   7   8
ENDBRANCH   1   7
TORSDOF 3
ENDMDL
