MODEL 1
REMARK minimizedAffinity -2.98917699
REMARK minimizedRMSD -1
REMARK  3 active torsions:
REMARK  status: ('A' for Active; 'I' for Inactive)
REMARK    1  A    between atoms: C3'_2  and  C2'_3 
REMARK    2  A    between atoms: C2'_3  and  C1'_4 
REMARK    3  A    between atoms: C1'_4  and  C1_5 
ROOT
ATOM      1  C1  N4B d   1      -1.965   5.676  -0.198  0.00  0.00    -0.075 A 
ATOM      2  C2  N4B d   1      -3.004   5.659  -1.155  0.00  0.00     0.002 A 
ATOM      3  C3  N4B d   1      -4.309   5.810  -0.753  0.00  0.00     0.002 A 
ATOM      4  C4  N4B d   1      -4.599   5.959   0.594  0.00  0.00    -0.004 A 
ATOM      5  C5  N4B d   1      -3.588   6.000   1.509  0.00  0.00     0.002 A 
ATOM      6  C6  N4B d   1      -2.272   5.854   1.120  0.00  0.00     0.002 A 
ENDROOT
BRANCH   1   7
ATOM      7  C1' N4B d   1      -0.531   5.429  -0.579  0.00  0.00     0.057 C 
BRANCH   7   8
ATOM      8  C2' N4B d   1      -0.398   4.016  -1.140  0.00  0.00     0.009 C 
BRANCH   8   9
ATOM      9  C3' N4B d   1      -0.151   2.992  -0.046  0.00  0.00     0.004 C 
ATOM     10  C4' N4B d   1      -0.628   1.619  -0.418  0.00  0.00     0.003 C 
ENDBRANCH   8   9
ENDBRANCH   7   8
ENDBRANCH   1   7
TORSDOF 3
ENDMDL
