MODEL 1
REMARK minimizedAffinity -4.00863314
REMARK minimizedRMSD -1
REMARK  2 active torsions:
REMARK  status: ('A' for Active; 'I' for Inactive)
REMARK    1  A    between atoms: C2'_3  and  C1'_4 
REMARK    2  A    between atoms: C1'_4  and  C1_5 
ROOT
ATOM      1  C1  I4B d   1      -0.340  -0.217   0.018  0.00  0.00    -0.075 A 
ATOM      2  C2  I4B d   1       0.047   1.083   0.224  0.00  0.00     0.003 A 
ATOM      3  C3  I4B d   1       1.412   1.396   0.436  0.00  0.00     0.002 A 
ATOM      4  C4  I4B d   1       2.342   0.378   0.485  0.00  0.00    -0.004 A 
ATOM      5  C5  I4B d   1       1.951  -0.937   0.254  0.00  0.00     0.002 A 
ATOM      6  C6  I4B d   1       0.604  -1.236   0.007  0.00  0.00     0.003 A 
ENDROOT
BRANCH   1   7
ATOM      7  C1' I4B d   1      -1.794  -0.516  -0.170  0.00  0.00     0.060 C 
BRANCH   7   8
ATOM      8  C2' I4B d   1      -2.148  -0.220  -1.613  0.00  0.00    -0.013 C 
ATOM      9  C4' I4B d   1      -2.722  -1.434  -2.294  0.00  0.00     0.013 C 
ATOM     10  C3' I4B d   1      -3.123   0.919  -1.626  0.00  0.00     0.013 C 
ENDBRANCH   7   8
ENDBRANCH   1   7
TORSDOF 2
ENDMDL
