MODEL 1
REMARK minimizedAffinity 5.40627193
REMARK minimizedRMSD -1
REMARK  2 active torsions:
REMARK  status: ('A' for Active; 'I' for Inactive)
REMARK    1  A    between atoms: C2'_3  and  C1'_4 
REMARK    2  A    between atoms: C1'_4  and  C1_5 
ROOT
ATOM      1  C1  I4B d   1      -1.057   0.922  -0.065  0.00  0.00    -0.075 A 
ATOM      2  C2  I4B d   1       0.038   0.150  -0.362  0.00  0.00     0.003 A 
ATOM      3  C3  I4B d   1       1.343   0.675  -0.207  0.00  0.00     0.002 A 
ATOM      4  C4  I4B d   1       1.506   1.985   0.196  0.00  0.00    -0.004 A 
ATOM      5  C5  I4B d   1       0.395   2.759   0.518  0.00  0.00     0.002 A 
ATOM      6  C6  I4B d   1      -0.894   2.221   0.399  0.00  0.00     0.003 A 
ENDROOT
BRANCH   1   7
ATOM      7  C1' I4B d   1      -2.423   0.347  -0.270  0.00  0.00     0.060 C 
BRANCH   7   8
ATOM      8  C2' I4B d   1      -2.823   0.598  -1.710  0.00  0.00    -0.013 C 
ATOM      9  C4' I4B d   1      -3.515  -0.602  -2.301  0.00  0.00     0.013 C 
ATOM     10  C3' I4B d   1      -3.712   1.805  -1.739  0.00  0.00     0.013 C 
ENDBRANCH   7   8
ENDBRANCH   1   7
TORSDOF 2
ENDMDL
