MODEL 1
REMARK minimizedAffinity -5.93718052
REMARK minimizedRMSD -1
REMARK  2 active torsions:
REMARK  status: ('A' for Active; 'I' for Inactive)
REMARK    1  A    between atoms: C2'_3  and  C1'_4 
REMARK    2  A    between atoms: C1'_4  and  C1_5 
ROOT
ATOM      1  C1  I4B d   1      -0.157   0.163  -1.263  0.00  0.00    -0.075 A 
ATOM      2  C2  I4B d   1      -1.529   0.142  -1.260  0.00  0.00     0.003 A 
ATOM      3  C3  I4B d   1      -2.237  -0.377  -2.371  0.00  0.00     0.002 A 
ATOM      4  C4  I4B d   1      -1.538  -0.816  -3.477  0.00  0.00    -0.004 A 
ATOM      5  C5  I4B d   1      -0.146  -0.816  -3.469  0.00  0.00     0.002 A 
ATOM      6  C6  I4B d   1       0.550  -0.335  -2.350  0.00  0.00     0.003 A 
ENDROOT
BRANCH   1   7
ATOM      7  C1' I4B d   1       0.558   0.749  -0.086  0.00  0.00     0.060 C 
BRANCH   7   8
ATOM      8  C2' I4B d   1       1.715  -0.166   0.260  0.00  0.00    -0.013 C 
ATOM      9  C4' I4B d   1       2.590   0.441   1.325  0.00  0.00     0.013 C 
ATOM     10  C3' I4B d   1       1.149  -1.480   0.707  0.00  0.00     0.013 C 
ENDBRANCH   7   8
ENDBRANCH   1   7
TORSDOF 2
ENDMDL
