MODEL 1
REMARK minimizedAffinity -2.84593558
REMARK minimizedRMSD -1
REMARK  2 active torsions:
REMARK  status: ('A' for Active; 'I' for Inactive)
REMARK    1  A    between atoms: C2'_3  and  C1'_4 
REMARK    2  A    between atoms: C1'_4  and  C1_5 
ROOT
ATOM      1  C1  I4B d   1       0.652   0.173   0.671  0.00  0.00    -0.075 A 
ATOM      2  C2  I4B d   1       0.579  -1.196   0.609  0.00  0.00     0.003 A 
ATOM      3  C3  I4B d   1       1.651  -1.989   1.084  0.00  0.00     0.002 A 
ATOM      4  C4  I4B d   1       2.790  -1.376   1.564  0.00  0.00    -0.004 A 
ATOM      5  C5  I4B d   1       2.853   0.012   1.648  0.00  0.00     0.002 A 
ATOM      6  C6  I4B d   1       1.772   0.792   1.210  0.00  0.00     0.003 A 
ENDROOT
BRANCH   1   7
ATOM      7  C1' I4B d   1      -0.485   0.981   0.130  0.00  0.00     0.060 C 
BRANCH   7   8
ATOM      8  C2' I4B d   1      -0.659   0.621  -1.331  0.00  0.00    -0.013 C 
ATOM      9  C4' I4B d   1      -2.094   0.773  -1.763  0.00  0.00     0.013 C 
ATOM     10  C3' I4B d   1       0.244   1.506  -2.137  0.00  0.00     0.013 C 
ENDBRANCH   7   8
ENDBRANCH   1   7
TORSDOF 2
ENDMDL
