MODEL 1
REMARK minimizedAffinity -5.7018466
REMARK minimizedRMSD -1
REMARK  2 active torsions:
REMARK  status: ('A' for Active; 'I' for Inactive)
REMARK    1  A    between atoms: C2'_3  and  C1'_4 
REMARK    2  A    between atoms: C1'_4  and  C1_5 
ROOT
ATOM      1  C1  I4B d   1      -0.781   0.210  -0.770  0.00  0.00    -0.075 A 
ATOM      2  C2  I4B d   1      -2.128   0.132  -0.516  0.00  0.00     0.003 A 
ATOM      3  C3  I4B d   1      -3.046  -0.025  -1.582  0.00  0.00     0.002 A 
ATOM      4  C4  I4B d   1      -2.582  -0.048  -2.881  0.00  0.00    -0.004 A 
ATOM      5  C5  I4B d   1      -1.215   0.009  -3.136  0.00  0.00     0.002 A 
ATOM      6  C6  I4B d   1      -0.307   0.126  -2.073  0.00  0.00     0.003 A 
ENDROOT
BRANCH   1   7
ATOM      7  C1' I4B d   1       0.159   0.409   0.377  0.00  0.00     0.060 C 
BRANCH   7   8
ATOM      8  C2' I4B d   1       1.123  -0.760   0.398  0.00  0.00    -0.013 C 
ATOM      9  C4' I4B d   1       2.361  -0.431   1.190  0.00  0.00     0.013 C 
ATOM     10  C3' I4B d   1       0.406  -1.941   0.979  0.00  0.00     0.013 C 
ENDBRANCH   7   8
ENDBRANCH   1   7
TORSDOF 2
ENDMDL
