MODEL 1
REMARK minimizedAffinity -4.69220066
REMARK minimizedRMSD -1
REMARK  2 active torsions:
REMARK  status: ('A' for Active; 'I' for Inactive)
REMARK    1  A    between atoms: C2'_3  and  C1'_4 
REMARK    2  A    between atoms: C1'_4  and  C1_5 
ROOT
ATOM      1  C1  I4B d   1       1.175   0.403  -0.668  0.00  0.00    -0.075 A 
ATOM      2  C2  I4B d   1       1.468   1.220   0.395  0.00  0.00     0.003 A 
ATOM      3  C3  I4B d   1       2.484   0.858   1.313  0.00  0.00     0.002 A 
ATOM      4  C4  I4B d   1       3.141  -0.345   1.159  0.00  0.00    -0.004 A 
ATOM      5  C5  I4B d   1       2.859  -1.161   0.068  0.00  0.00     0.002 A 
ATOM      6  C6  I4B d   1       1.878  -0.779  -0.859  0.00  0.00     0.003 A 
ENDROOT
BRANCH   1   7
ATOM      7  C1' I4B d   1       0.074   0.800  -1.600  0.00  0.00     0.060 C 
BRANCH   7   8
ATOM      8  C2' I4B d   1      -1.095  -0.136  -1.367  0.00  0.00    -0.013 C 
ATOM      9  C4' I4B d   1      -1.499  -0.154   0.083  0.00  0.00     0.013 C 
ATOM     10  C3' I4B d   1      -2.229   0.313  -2.240  0.00  0.00     0.013 C 
ENDBRANCH   7   8
ENDBRANCH   1   7
TORSDOF 2
ENDMDL
