MODEL 1
REMARK minimizedAffinity -1.91366744
REMARK minimizedRMSD -1
REMARK  0 active torsions:
REMARK  status: ('A' for Active; 'I' for Inactive)
ROOT
ATOM      1  C   UNL d   1      -0.601   0.843  -0.823  0.00  0.00     0.172 C 
ATOM      2  N   UNL d   1       0.630   0.186  -0.449  0.00  0.00    -0.070 N 
ATOM      3  C1  UNL d   1       1.294  -0.749  -1.197  0.00  0.00    -0.004 A 
ATOM      4  C2  UNL d   1       2.419  -1.128  -0.496  0.00  0.00    -0.047 A 
ATOM      5  C3  UNL d   1       2.430  -0.395   0.714  0.00  0.00    -0.047 A 
ATOM      6  C4  UNL d   1       1.312   0.411   0.717  0.00  0.00    -0.004 A 
ENDROOT
TORSDOF 0
ENDMDL
