MODEL 1
REMARK minimizedAffinity -2.7445128
REMARK minimizedRMSD -1
REMARK  0 active torsions:
REMARK  status: ('A' for Active; 'I' for Inactive)
ROOT
ATOM      1  C   UNL d   1      -0.917  -1.710   3.220  0.00  0.00     0.172 C 
ATOM      2  N   UNL d   1       0.228  -1.050   2.637  0.00  0.00    -0.070 N 
ATOM      3  C1  UNL d   1       1.495  -1.043   3.156  0.00  0.00    -0.004 A 
ATOM      4  C2  UNL d   1       2.294  -0.308   2.308  0.00  0.00    -0.047 A 
ATOM      5  C3  UNL d   1       1.479   0.143   1.242  0.00  0.00    -0.047 A 
ATOM      6  C4  UNL d   1       0.205  -0.331   1.472  0.00  0.00    -0.004 A 
ENDROOT
TORSDOF 0
ENDMDL
