MODEL 1
REMARK minimizedAffinity 1.25523365
REMARK minimizedRMSD -1
REMARK  0 active torsions:
REMARK  status: ('A' for Active; 'I' for Inactive)
ROOT
ATOM      1  C   UNL d   1       1.098   2.381  -5.305  0.00  0.00     0.172 C 
ATOM      2  N   UNL d   1       0.558   2.974  -4.104  0.00  0.00    -0.070 N 
ATOM      3  C1  UNL d   1       0.959   4.160  -3.550  0.00  0.00    -0.004 A 
ATOM      4  C2  UNL d   1       0.203   4.374  -2.418  0.00  0.00    -0.047 A 
ATOM      5  C3  UNL d   1      -0.682   3.278  -2.286  0.00  0.00    -0.047 A 
ATOM      6  C4  UNL d   1      -0.441   2.426  -3.344  0.00  0.00    -0.004 A 
ENDROOT
TORSDOF 0
ENDMDL
