MODEL 1
REMARK minimizedAffinity -1.6713661
REMARK minimizedRMSD -1
REMARK  0 active torsions:
REMARK  status: ('A' for Active; 'I' for Inactive)
ROOT
ATOM      1  C   UNL d   1      -0.605   1.530  -1.040  0.00  0.00     0.172 C 
ATOM      2  N   UNL d   1       0.375   0.652  -0.444  0.00  0.00    -0.070 N 
ATOM      3  C1  UNL d   1       0.762  -0.564  -0.940  0.00  0.00    -0.004 A 
ATOM      4  C2  UNL d   1       1.712  -1.084  -0.087  0.00  0.00    -0.047 A 
ATOM      5  C3  UNL d   1       1.900  -0.148   0.958  0.00  0.00    -0.047 A 
ATOM      6  C4  UNL d   1       1.060   0.917   0.711  0.00  0.00    -0.004 A 
ENDROOT
TORSDOF 0
ENDMDL
