MODEL 1
REMARK minimizedAffinity -2.48791862
REMARK minimizedRMSD -1
REMARK  0 active torsions:
REMARK  status: ('A' for Active; 'I' for Inactive)
ROOT
ATOM      1  C   UNL d   1      -1.893  -0.663  -0.838  0.00  0.00     0.172 C 
ATOM      2  N   UNL d   1      -0.559  -0.603  -0.289  0.00  0.00    -0.070 N 
ATOM      3  C1  UNL d   1      -0.236  -0.216   0.984  0.00  0.00    -0.004 A 
ATOM      4  C2  UNL d   1       1.133  -0.295   1.115  0.00  0.00    -0.047 A 
ATOM      5  C3  UNL d   1       1.652  -0.744  -0.123  0.00  0.00    -0.047 A 
ATOM      6  C4  UNL d   1       0.583  -0.926  -0.974  0.00  0.00    -0.004 A 
ENDROOT
TORSDOF 0
ENDMDL
