MODEL 1
REMARK minimizedAffinity -4.05494547
REMARK minimizedRMSD -1
REMARK  0 active torsions:
REMARK  status: ('A' for Active; 'I' for Inactive)
ROOT
ATOM      1  C   UNL d   1      -0.028   0.005  -0.580  0.00  0.00     0.172 C 
ATOM      2  N   UNL d   1       0.354  -0.366   0.762  0.00  0.00    -0.070 N 
ATOM      3  C1  UNL d   1       1.613  -0.724   1.164  0.00  0.00    -0.004 A 
ATOM      4  C2  UNL d   1       1.563  -1.002   2.513  0.00  0.00    -0.047 A 
ATOM      5  C3  UNL d   1       0.227  -0.806   2.936  0.00  0.00    -0.047 A 
ATOM      6  C4  UNL d   1      -0.500  -0.412   1.832  0.00  0.00    -0.004 A 
ENDROOT
TORSDOF 0
ENDMDL
