MODEL 1
REMARK minimizedAffinity -1.46621633
REMARK minimizedRMSD -1
REMARK  0 active torsions:
REMARK  status: ('A' for Active; 'I' for Inactive)
ROOT
ATOM      1  C   UNL d   1      -0.657  -2.194   2.979  0.00  0.00     0.172 C 
ATOM      2  N   UNL d   1      -0.323  -1.303   1.892  0.00  0.00    -0.070 N 
ATOM      3  C1  UNL d   1       0.944  -0.997   1.471  0.00  0.00    -0.004 A 
ATOM      4  C2  UNL d   1       0.836  -0.117   0.416  0.00  0.00    -0.047 A 
ATOM      5  C3  UNL d   1      -0.542   0.115   0.196  0.00  0.00    -0.047 A 
ATOM      6  C4  UNL d   1      -1.237  -0.632   1.124  0.00  0.00    -0.004 A 
ENDROOT
TORSDOF 0
ENDMDL
