MODEL 1
REMARK minimizedAffinity -0.39804253
REMARK minimizedRMSD -1
REMARK  0 active torsions:
REMARK  status: ('A' for Active; 'I' for Inactive)
ROOT
ATOM      1  C   UNL d   1      -1.372   3.220  -1.992  0.00  0.00     0.172 C 
ATOM      2  N   UNL d   1      -0.280   3.451  -2.908  0.00  0.00    -0.070 N 
ATOM      3  C1  UNL d   1      -0.025   2.730  -4.043  0.00  0.00    -0.004 A 
ATOM      4  C2  UNL d   1       1.099   3.263  -4.637  0.00  0.00    -0.047 A 
ATOM      5  C3  UNL d   1       1.535   4.340  -3.830  0.00  0.00    -0.047 A 
ATOM      6  C4  UNL d   1       0.663   4.435  -2.766  0.00  0.00    -0.004 A 
ENDROOT
TORSDOF 0
ENDMDL
