MODEL 1
REMARK minimizedAffinity -4.50592899
REMARK minimizedRMSD -1
REMARK  0 active torsions:
REMARK  status: ('A' for Active; 'I' for Inactive)
ROOT
ATOM      1  C1  DEN d   1      -2.499   0.211   0.171  0.00  0.00     0.130 A 
ATOM      2  C2  DEN d   1      -2.495  -1.246   0.278  0.00  0.00    -0.031 A 
ATOM      3  C3  DEN d   1      -1.092  -1.691   0.392  0.00  0.00     0.027 A 
ATOM      4  C4  DEN d   1       1.064  -0.275   0.417  0.00  0.00     0.027 A 
ATOM      5  C5  DEN d   1       1.567   1.005   0.342  0.00  0.00    -0.003 A 
ATOM      6  C6  DEN d   1       0.759   2.098   0.171  0.00  0.00     0.001 A 
ATOM      7  C7  DEN d   1      -0.600   1.936   0.116  0.00  0.00     0.017 A 
ATOM      8  C8  DEN d   1      -1.114   0.647   0.184  0.00  0.00    -0.094 A 
ATOM      9  C9  DEN d   1      -0.282  -0.444   0.369  0.00  0.00    -0.072 A 
ENDROOT
TORSDOF 0
ENDMDL
