MODEL 1
REMARK minimizedAffinity -6.42676163
REMARK minimizedRMSD -1
REMARK  0 active torsions:
REMARK  status: ('A' for Active; 'I' for Inactive)
ROOT
ATOM      1  C1  DEN d   1       0.812   0.061  -0.021  0.00  0.00     0.130 A 
ATOM      2  C2  DEN d   1       0.869   1.154  -0.988  0.00  0.00    -0.031 A 
ATOM      3  C3  DEN d   1      -0.466   1.286  -1.606  0.00  0.00     0.027 A 
ATOM      4  C4  DEN d   1      -2.605  -0.083  -1.156  0.00  0.00     0.027 A 
ATOM      5  C5  DEN d   1      -3.140  -1.123  -0.428  0.00  0.00    -0.003 A 
ATOM      6  C6  DEN d   1      -2.392  -1.857   0.454  0.00  0.00     0.001 A 
ATOM      7  C7  DEN d   1      -1.078  -1.532   0.665  0.00  0.00     0.017 A 
ATOM      8  C8  DEN d   1      -0.530  -0.489  -0.071  0.00  0.00    -0.094 A 
ATOM      9  C9  DEN d   1      -1.306   0.249  -0.948  0.00  0.00    -0.072 A 
ENDROOT
TORSDOF 0
ENDMDL
