MODEL 1
REMARK minimizedAffinity 0.122721903
REMARK minimizedRMSD -1
REMARK  0 active torsions:
REMARK  status: ('A' for Active; 'I' for Inactive)
ROOT
ATOM      1  C1  DEN d   1       2.886   4.518   1.797  0.00  0.00     0.130 A 
ATOM      2  C2  DEN d   1       2.273   3.255   2.200  0.00  0.00    -0.031 A 
ATOM      3  C3  DEN d   1       2.737   2.205   1.271  0.00  0.00     0.027 A 
ATOM      4  C4  DEN d   1       4.341   2.411  -0.739  0.00  0.00     0.027 A 
ATOM      5  C5  DEN d   1       5.107   3.285  -1.479  0.00  0.00    -0.003 A 
ATOM      6  C6  DEN d   1       5.159   4.625  -1.202  0.00  0.00     0.001 A 
ATOM      7  C7  DEN d   1       4.467   5.124  -0.130  0.00  0.00     0.017 A 
ATOM      8  C8  DEN d   1       3.687   4.251   0.616  0.00  0.00    -0.094 A 
ATOM      9  C9  DEN d   1       3.657   2.897   0.328  0.00  0.00    -0.072 A 
ENDROOT
TORSDOF 0
ENDMDL
