MODEL 1
REMARK minimizedAffinity -3.71687961
REMARK minimizedRMSD -1
REMARK  0 active torsions:
REMARK  status: ('A' for Active; 'I' for Inactive)
ROOT
ATOM      1  C1  DEN d   1       1.321   3.232   0.750  0.00  0.00     0.130 A 
ATOM      2  C2  DEN d   1       2.636   3.321   1.379  0.00  0.00    -0.031 A 
ATOM      3  C3  DEN d   1       3.177   1.953   1.503  0.00  0.00     0.027 A 
ATOM      4  C4  DEN d   1       2.114  -0.284   0.782  0.00  0.00     0.027 A 
ATOM      5  C5  DEN d   1       1.003  -0.867   0.214  0.00  0.00    -0.003 A 
ATOM      6  C6  DEN d   1      -0.085  -0.134  -0.181  0.00  0.00     0.001 A 
ATOM      7  C7  DEN d   1      -0.067   1.230  -0.054  0.00  0.00     0.017 A 
ATOM      8  C8  DEN d   1       1.047   1.824   0.525  0.00  0.00    -0.094 A 
ATOM      9  C9  DEN d   1       2.141   1.067   0.906  0.00  0.00    -0.072 A 
ENDROOT
TORSDOF 0
ENDMDL
