MODEL 1
REMARK minimizedAffinity 2.18778968
REMARK minimizedRMSD -1
REMARK  0 active torsions:
REMARK  status: ('A' for Active; 'I' for Inactive)
ROOT
ATOM      1  C1  DEN d   1       0.792  -0.730  -0.855  0.00  0.00     0.130 A 
ATOM      2  C2  DEN d   1       0.693   0.666  -1.274  0.00  0.00    -0.031 A 
ATOM      3  C3  DEN d   1       0.476   1.490  -0.068  0.00  0.00     0.027 A 
ATOM      4  C4  DEN d   1       0.289   0.745   2.395  0.00  0.00     0.027 A 
ATOM      5  C5  DEN d   1       0.298  -0.340   3.243  0.00  0.00    -0.003 A 
ATOM      6  C6  DEN d   1       0.437  -1.623   2.785  0.00  0.00     0.001 A 
ATOM      7  C7  DEN d   1       0.618  -1.851   1.447  0.00  0.00     0.017 A 
ATOM      8  C8  DEN d   1       0.603  -0.762   0.584  0.00  0.00    -0.094 A 
ATOM      9  C9  DEN d   1       0.474   0.529   1.068  0.00  0.00    -0.072 A 
ENDROOT
TORSDOF 0
ENDMDL
