MODEL 1
REMARK minimizedAffinity -2.59549356
REMARK minimizedRMSD -1
REMARK  0 active torsions:
REMARK  status: ('A' for Active; 'I' for Inactive)
ROOT
ATOM      1  C1  DEN d   1       1.608   2.237   1.768  0.00  0.00     0.130 A 
ATOM      2  C2  DEN d   1       2.943   2.525   1.251  0.00  0.00    -0.031 A 
ATOM      3  C3  DEN d   1       3.162   1.684   0.057  0.00  0.00     0.027 A 
ATOM      4  C4  DEN d   1       1.569  -0.024  -1.037  0.00  0.00     0.027 A 
ATOM      5  C5  DEN d   1       0.330  -0.620  -0.950  0.00  0.00    -0.003 A 
ATOM      6  C6  DEN d   1      -0.548  -0.333   0.061  0.00  0.00     0.001 A 
ATOM      7  C7  DEN d   1      -0.219   0.608   1.000  0.00  0.00     0.017 A 
ATOM      8  C8  DEN d   1       1.031   1.208   0.922  0.00  0.00    -0.094 A 
ATOM      9  C9  DEN d   1       1.901   0.913  -0.114  0.00  0.00    -0.072 A 
ENDROOT
TORSDOF 0
ENDMDL
