MODEL 1
REMARK minimizedAffinity -4.60048723
REMARK minimizedRMSD -1
REMARK  0 active torsions:
REMARK  status: ('A' for Active; 'I' for Inactive)
ROOT
ATOM      1  C1  DEN d   1       1.471   3.119   1.085  0.00  0.00     0.130 A 
ATOM      2  C2  DEN d   1       2.834   2.921   1.568  0.00  0.00    -0.031 A 
ATOM      3  C3  DEN d   1       3.182   1.498   1.385  0.00  0.00     0.027 A 
ATOM      4  C4  DEN d   1       1.751  -0.409   0.401  0.00  0.00     0.027 A 
ATOM      5  C5  DEN d   1       0.522  -0.729  -0.134  0.00  0.00    -0.003 A 
ATOM      6  C6  DEN d   1      -0.479   0.196  -0.268  0.00  0.00     0.001 A 
ATOM      7  C7  DEN d   1      -0.255   1.497   0.097  0.00  0.00     0.017 A 
ATOM      8  C8  DEN d   1       0.978   1.826   0.644  0.00  0.00    -0.094 A 
ATOM      9  C9  DEN d   1       1.982   0.880   0.759  0.00  0.00    -0.072 A 
ENDROOT
TORSDOF 0
ENDMDL
