MODEL 1
REMARK minimizedAffinity -2.93831754
REMARK minimizedRMSD -1
REMARK  0 active torsions:
REMARK  status: ('A' for Active; 'I' for Inactive)
ROOT
ATOM      1  C1  DEN d   1      -0.485   1.502  -1.341  0.00  0.00     0.130 A 
ATOM      2  C2  DEN d   1      -1.247   0.269  -1.161  0.00  0.00    -0.031 A 
ATOM      3  C3  DEN d   1      -0.456  -0.635  -0.302  0.00  0.00     0.027 A 
ATOM      4  C4  DEN d   1       1.860  -0.245   0.765  0.00  0.00     0.027 A 
ATOM      5  C5  DEN d   1       2.904   0.645   0.888  0.00  0.00    -0.003 A 
ATOM      6  C6  DEN d   1       2.907   1.859   0.254  0.00  0.00     0.001 A 
ATOM      7  C7  DEN d   1       1.824   2.236  -0.496  0.00  0.00     0.017 A 
ATOM      8  C8  DEN d   1       0.771   1.341  -0.630  0.00  0.00    -0.094 A 
ATOM      9  C9  DEN d   1       0.781   0.123   0.028  0.00  0.00    -0.072 A 
ENDROOT
TORSDOF 0
ENDMDL
