MODEL 1
REMARK minimizedAffinity -2.36738086
REMARK minimizedRMSD -1
REMARK  0 active torsions:
REMARK  status: ('A' for Active; 'I' for Inactive)
ROOT
ATOM      1  C1  DEN d   1       0.229   0.433   0.421  0.00  0.00     0.130 A 
ATOM      2  C2  DEN d   1       0.813   0.898  -0.835  0.00  0.00    -0.031 A 
ATOM      3  C3  DEN d   1      -0.008   0.370  -1.943  0.00  0.00     0.027 A 
ATOM      4  C4  DEN d   1      -2.118  -1.110  -1.837  0.00  0.00     0.027 A 
ATOM      5  C5  DEN d   1      -2.985  -1.770  -0.994  0.00  0.00    -0.003 A 
ATOM      6  C6  DEN d   1      -2.823  -1.770   0.366  0.00  0.00     0.001 A 
ATOM      7  C7  DEN d   1      -1.796  -1.059   0.927  0.00  0.00     0.017 A 
ATOM      8  C8  DEN d   1      -0.913  -0.397   0.084  0.00  0.00    -0.094 A 
ATOM      9  C9  DEN d   1      -1.100  -0.399  -1.288  0.00  0.00    -0.072 A 
ENDROOT
TORSDOF 0
ENDMDL
