MODEL 1
REMARK minimizedAffinity -3.86315846
REMARK minimizedRMSD -1
REMARK  0 active torsions:
REMARK  status: ('A' for Active; 'I' for Inactive)
ROOT
ATOM      1  C1  DEN d   1       1.768   3.244   1.039  0.00  0.00     0.130 A 
ATOM      2  C2  DEN d   1       3.185   3.071   1.348  0.00  0.00    -0.031 A 
ATOM      3  C3  DEN d   1       3.551   1.673   1.044  0.00  0.00     0.027 A 
ATOM      4  C4  DEN d   1       2.071  -0.229   0.127  0.00  0.00     0.027 A 
ATOM      5  C5  DEN d   1       0.798  -0.566  -0.278  0.00  0.00    -0.003 A 
ATOM      6  C6  DEN d   1      -0.240   0.327  -0.240  0.00  0.00     0.001 A 
ATOM      7  C7  DEN d   1      -0.014   1.615   0.170  0.00  0.00     0.017 A 
ATOM      8  C8  DEN d   1       1.266   1.959   0.586  0.00  0.00    -0.094 A 
ATOM      9  C9  DEN d   1       2.304   1.045   0.529  0.00  0.00    -0.072 A 
ENDROOT
TORSDOF 0
ENDMDL
