MODEL 1
REMARK minimizedAffinity -1.92908609
REMARK minimizedRMSD -1
REMARK  0 active torsions:
REMARK  status: ('A' for Active; 'I' for Inactive)
ROOT
ATOM      1  C1  DEN d   1      -0.735   1.949  -0.143  0.00  0.00     0.130 A 
ATOM      2  C2  DEN d   1      -0.913   0.570  -0.587  0.00  0.00    -0.031 A 
ATOM      3  C3  DEN d   1       0.313  -0.181  -0.248  0.00  0.00     0.027 A 
ATOM      4  C4  DEN d   1       2.456   0.654   0.917  0.00  0.00     0.027 A 
ATOM      5  C5  DEN d   1       3.079   1.752   1.469  0.00  0.00    -0.003 A 
ATOM      6  C6  DEN d   1       2.493   2.990   1.491  0.00  0.00     0.001 A 
ATOM      7  C7  DEN d   1       1.228   3.151   0.992  0.00  0.00     0.017 A 
ATOM      8  C8  DEN d   1       0.596   2.050   0.427  0.00  0.00    -0.094 A 
ATOM      9  C9  DEN d   1       1.201   0.804   0.426  0.00  0.00    -0.072 A 
ENDROOT
TORSDOF 0
ENDMDL
