MODEL 1
REMARK minimizedAffinity -2.03974891
REMARK minimizedRMSD -1
REMARK  0 active torsions:
REMARK  status: ('A' for Active; 'I' for Inactive)
ROOT
ATOM      1  C1  DEN d   1       4.419   2.558  -2.118  0.00  0.00     0.130 A 
ATOM      2  C2  DEN d   1       4.754   3.945  -2.427  0.00  0.00    -0.031 A 
ATOM      3  C3  DEN d   1       4.184   4.800  -1.367  0.00  0.00     0.027 A 
ATOM      4  C4  DEN d   1       2.825   4.114   0.715  0.00  0.00     0.027 A 
ATOM      5  C5  DEN d   1       2.278   3.051   1.398  0.00  0.00    -0.003 A 
ATOM      6  C6  DEN d   1       2.376   1.762   0.943  0.00  0.00     0.001 A 
ATOM      7  C7  DEN d   1       3.075   1.500  -0.205  0.00  0.00     0.017 A 
ATOM      8  C8  DEN d   1       3.624   2.568  -0.903  0.00  0.00    -0.094 A 
ATOM      9  C9  DEN d   1       3.524   3.861  -0.420  0.00  0.00    -0.072 A 
ENDROOT
TORSDOF 0
ENDMDL
