MODEL 1
REMARK minimizedAffinity -5.07970047
REMARK minimizedRMSD -1
REMARK  0 active torsions:
REMARK  status: ('A' for Active; 'I' for Inactive)
ROOT
ATOM      1  C1  DEN d   1       0.419  -0.685   1.128  0.00  0.00     0.130 A 
ATOM      2  C2  DEN d   1       1.640   0.083   0.902  0.00  0.00    -0.031 A 
ATOM      3  C3  DEN d   1       1.470   0.853  -0.347  0.00  0.00     0.027 A 
ATOM      4  C4  DEN d   1      -0.556   0.932  -1.941  0.00  0.00     0.027 A 
ATOM      5  C5  DEN d   1      -1.822   0.441  -2.173  0.00  0.00    -0.003 A 
ATOM      6  C6  DEN d   1      -2.411  -0.479  -1.347  0.00  0.00     0.001 A 
ATOM      7  C7  DEN d   1      -1.752  -0.902  -0.223  0.00  0.00     0.017 A 
ATOM      8  C8  DEN d   1      -0.472  -0.417   0.014  0.00  0.00    -0.094 A 
ATOM      9  C9  DEN d   1       0.101   0.522  -0.827  0.00  0.00    -0.072 A 
ENDROOT
TORSDOF 0
ENDMDL
