MODEL 1
REMARK minimizedAffinity 6.67636871
REMARK minimizedRMSD -1
REMARK  0 active torsions:
REMARK  status: ('A' for Active; 'I' for Inactive)
ROOT
ATOM      1  C   UNL d   1      -1.621  -1.955   3.054  0.00  0.00     0.172 C 
ATOM      2  N   UNL d   1      -0.234  -1.595   3.230  0.00  0.00    -0.070 N 
ATOM      3  C1  UNL d   1       0.241  -0.638   4.087  0.00  0.00    -0.004 A 
ATOM      4  C2  UNL d   1       1.612  -0.600   3.959  0.00  0.00    -0.047 A 
ATOM      5  C3  UNL d   1       1.975  -1.566   2.991  0.00  0.00    -0.047 A 
ATOM      6  C4  UNL d   1       0.813  -2.168   2.556  0.00  0.00    -0.004 A 
ENDROOT
TORSDOF 0
ENDMDL
