MODEL 1
REMARK minimizedAffinity 1.75805283
REMARK minimizedRMSD -1
REMARK  0 active torsions:
REMARK  status: ('A' for Active; 'I' for Inactive)
ROOT
ATOM      1  C   UNL d   1       1.501  -0.282  -5.625  0.00  0.00     0.172 C 
ATOM      2  N   UNL d   1       2.884  -0.370  -5.220  0.00  0.00    -0.070 N 
ATOM      3  C1  UNL d   1       3.334  -0.824  -4.009  0.00  0.00    -0.004 A 
ATOM      4  C2  UNL d   1       4.710  -0.751  -4.016  0.00  0.00    -0.047 A 
ATOM      5  C3  UNL d   1       5.101  -0.235  -5.274  0.00  0.00    -0.047 A 
ATOM      6  C4  UNL d   1       3.951  -0.008  -6.000  0.00  0.00    -0.004 A 
ENDROOT
TORSDOF 0
ENDMDL
