MODEL 1
REMARK minimizedAffinity -1.60406756
REMARK minimizedRMSD -1
REMARK  0 active torsions:
REMARK  status: ('A' for Active; 'I' for Inactive)
ROOT
ATOM      1  C   UNL d   1       3.195  -0.469  -5.639  0.00  0.00     0.172 C 
ATOM      2  N   UNL d   1       1.866  -0.835  -5.209  0.00  0.00    -0.070 N 
ATOM      3  C1  UNL d   1       1.559  -1.530  -4.070  0.00  0.00    -0.004 A 
ATOM      4  C2  UNL d   1       0.189  -1.675  -4.021  0.00  0.00    -0.047 A 
ATOM      5  C3  UNL d   1      -0.345  -1.045  -5.170  0.00  0.00    -0.047 A 
ATOM      6  C4  UNL d   1       0.715  -0.534  -5.888  0.00  0.00    -0.004 A 
ENDROOT
TORSDOF 0
ENDMDL
