MODEL 1
REMARK minimizedAffinity 3.03976393
REMARK minimizedRMSD -1
REMARK  0 active torsions:
REMARK  status: ('A' for Active; 'I' for Inactive)
ROOT
ATOM      1  C   UNL d   1       1.833  -1.463   2.930  0.00  0.00     0.172 C 
ATOM      2  N   UNL d   1       0.389  -1.440   2.927  0.00  0.00    -0.070 N 
ATOM      3  C1  UNL d   1      -0.392  -0.315   2.956  0.00  0.00    -0.004 A 
ATOM      4  C2  UNL d   1      -1.710  -0.716   2.941  0.00  0.00    -0.047 A 
ATOM      5  C3  UNL d   1      -1.723  -2.130   2.902  0.00  0.00    -0.047 A 
ATOM      6  C4  UNL d   1      -0.410  -2.552   2.894  0.00  0.00    -0.004 A 
ENDROOT
TORSDOF 0
ENDMDL
