MODEL 1
REMARK minimizedAffinity 0.408181965
REMARK minimizedRMSD -1
REMARK  0 active torsions:
REMARK  status: ('A' for Active; 'I' for Inactive)
ROOT
ATOM      1  C   UNL d   1       1.972  -0.004  -5.944  0.00  0.00     0.172 C 
ATOM      2  N   UNL d   1       3.282  -0.117  -5.346  0.00  0.00    -0.070 N 
ATOM      3  C1  UNL d   1       3.539  -0.476  -4.050  0.00  0.00    -0.004 A 
ATOM      4  C2  UNL d   1       4.906  -0.466  -3.873  0.00  0.00    -0.047 A 
ATOM      5  C3  UNL d   1       5.490  -0.087  -5.105  0.00  0.00    -0.047 A 
ATOM      6  C4  UNL d   1       4.462   0.124  -6.000  0.00  0.00    -0.004 A 
ENDROOT
TORSDOF 0
ENDMDL
