MODEL 1
REMARK minimizedAffinity 0.397534788
REMARK minimizedRMSD -1
REMARK  0 active torsions:
REMARK  status: ('A' for Active; 'I' for Inactive)
ROOT
ATOM      1  C   UNL d   1      -0.601  -0.852  -4.880  0.00  0.00     0.172 C 
ATOM      2  N   UNL d   1       0.839  -0.747  -4.925  0.00  0.00    -0.070 N 
ATOM      3  C1  UNL d   1       1.575  -0.327  -6.000  0.00  0.00    -0.004 A 
ATOM      4  C2  UNL d   1       2.905  -0.367  -5.642  0.00  0.00    -0.047 A 
ATOM      5  C3  UNL d   1       2.971  -0.829  -4.306  0.00  0.00    -0.047 A 
ATOM      6  C4  UNL d   1       1.677  -1.056  -3.886  0.00  0.00    -0.004 A 
ENDROOT
TORSDOF 0
ENDMDL
