MODEL 1
REMARK minimizedAffinity 2.75568962
REMARK minimizedRMSD -1
REMARK  0 active torsions:
REMARK  status: ('A' for Active; 'I' for Inactive)
ROOT
ATOM      1  C   UNL d   1       3.525  -1.135  -5.066  0.00  0.00     0.172 C 
ATOM      2  N   UNL d   1       2.100  -0.935  -5.187  0.00  0.00    -0.070 N 
ATOM      3  C1  UNL d   1       1.490  -0.016  -5.999  0.00  0.00    -0.004 A 
ATOM      4  C2  UNL d   1       0.128  -0.140  -5.827  0.00  0.00    -0.047 A 
ATOM      5  C3  UNL d   1      -0.087  -1.168  -4.879  0.00  0.00    -0.047 A 
ATOM      6  C4  UNL d   1       1.150  -1.642  -4.499  0.00  0.00    -0.004 A 
ENDROOT
TORSDOF 0
ENDMDL
