MODEL 1
REMARK minimizedAffinity 8.918396
REMARK minimizedRMSD -1
REMARK  0 active torsions:
REMARK  status: ('A' for Active; 'I' for Inactive)
ROOT
ATOM      1  C4' PXY d   1      -1.714   4.599  -3.530  0.00  0.00     0.077 C 
ATOM      2  C1' PXY d   1       0.656   1.095   0.410  0.00  0.00     0.077 C 
ATOM      3  C1  PXY d   1       0.044   2.023  -0.620  0.00  0.00    -0.082 A 
ATOM      4  C2  PXY d   1      -1.230   1.883  -0.952  0.00  0.00     0.003 A 
ATOM      5  C3  PXY d   1      -1.791   2.692  -1.906  0.00  0.00     0.003 A 
ATOM      6  C4  PXY d   1      -1.056   3.691  -2.487  0.00  0.00    -0.082 A 
ATOM      7  C5  PXY d   1       0.241   3.847  -2.146  0.00  0.00     0.003 A 
ATOM      8  C6  PXY d   1       0.803   2.988  -1.206  0.00  0.00     0.003 A 
ENDROOT
TORSDOF 0
ENDMDL
