MODEL 1
REMARK minimizedAffinity 10.6564064
REMARK minimizedRMSD -1
REMARK  0 active torsions:
REMARK  status: ('A' for Active; 'I' for Inactive)
ROOT
ATOM      1  C4' PXY d   1       0.760  -0.377   5.220  0.00  0.00     0.077 C 
ATOM      2  C1' PXY d   1      -2.255  -3.259   1.218  0.00  0.00     0.077 C 
ATOM      3  C1  PXY d   1      -1.453  -2.505   2.261  0.00  0.00    -0.082 A 
ATOM      4  C2  PXY d   1      -1.887  -2.456   3.510  0.00  0.00     0.003 A 
ATOM      5  C3  PXY d   1      -1.191  -1.751   4.458  0.00  0.00     0.003 A 
ATOM      6  C4  PXY d   1      -0.012  -1.135   4.137  0.00  0.00    -0.082 A 
ATOM      7  C5  PXY d   1       0.443  -1.189   2.867  0.00  0.00     0.003 A 
ATOM      8  C6  PXY d   1      -0.300  -1.875   1.910  0.00  0.00     0.003 A 
ENDROOT
TORSDOF 0
ENDMDL
