MODEL 1
REMARK minimizedAffinity 5.2818265
REMARK minimizedRMSD -1
REMARK  0 active torsions:
REMARK  status: ('A' for Active; 'I' for Inactive)
ROOT
ATOM      1  C4' PXY d   1       0.410  -2.992   1.230  0.00  0.00     0.077 C 
ATOM      2  C1' PXY d   1      -1.472  -0.320   5.998  0.00  0.00     0.077 C 
ATOM      3  C1  PXY d   1      -0.974  -1.009   4.743  0.00  0.00    -0.082 A 
ATOM      4  C2  PXY d   1      -1.545  -2.134   4.345  0.00  0.00     0.003 A 
ATOM      5  C3  PXY d   1      -1.086  -2.788   3.230  0.00  0.00     0.003 A 
ATOM      6  C4  PXY d   1      -0.066  -2.256   2.486  0.00  0.00    -0.082 A 
ATOM      7  C5  PXY d   1       0.514  -1.103   2.880  0.00  0.00     0.003 A 
ATOM      8  C6  PXY d   1       0.061  -0.477   4.038  0.00  0.00     0.003 A 
ENDROOT
TORSDOF 0
ENDMDL
