MODEL 1
REMARK minimizedAffinity 5.07394361
REMARK minimizedRMSD -1
REMARK  0 active torsions:
REMARK  status: ('A' for Active; 'I' for Inactive)
ROOT
ATOM      1  C4' PXY d   1      -1.977   4.144  -4.154  0.00  0.00     0.077 C 
ATOM      2  C1' PXY d   1       1.333   2.039   0.091  0.00  0.00     0.077 C 
ATOM      3  C1  PXY d   1       0.462   2.579  -1.026  0.00  0.00    -0.082 A 
ATOM      4  C2  PXY d   1       0.656   3.810  -1.469  0.00  0.00     0.003 A 
ATOM      5  C3  PXY d   1      -0.143   4.326  -2.457  0.00  0.00     0.003 A 
ATOM      6  C4  PXY d   1      -1.116   3.554  -3.034  0.00  0.00    -0.082 A 
ATOM      7  C5  PXY d   1      -1.313   2.293  -2.595  0.00  0.00     0.003 A 
ATOM      8  C6  PXY d   1      -0.518   1.802  -1.563  0.00  0.00     0.003 A 
ENDROOT
TORSDOF 0
ENDMDL
