MODEL 1
REMARK minimizedAffinity 13.6504221
REMARK minimizedRMSD -1
REMARK  0 active torsions:
REMARK  status: ('A' for Active; 'I' for Inactive)
ROOT
ATOM      1  C4' PXY d   1      -1.616  -0.358   5.999  0.00  0.00     0.077 C 
ATOM      2  C1' PXY d   1       0.964  -2.015   1.099  0.00  0.00     0.077 C 
ATOM      3  C1  PXY d   1       0.299  -1.579   2.390  0.00  0.00    -0.082 A 
ATOM      4  C2  PXY d   1      -0.951  -1.936   2.634  0.00  0.00     0.003 A 
ATOM      5  C3  PXY d   1      -1.578  -1.524   3.782  0.00  0.00     0.003 A 
ATOM      6  C4  PXY d   1      -0.901  -0.783   4.713  0.00  0.00    -0.082 A 
ATOM      7  C5  PXY d   1       0.378  -0.423   4.476  0.00  0.00     0.003 A 
ATOM      8  C6  PXY d   1       0.983  -0.817   3.286  0.00  0.00     0.003 A 
ENDROOT
TORSDOF 0
ENDMDL
