MODEL 1
REMARK minimizedAffinity 7.91020012
REMARK minimizedRMSD -1
REMARK  0 active torsions:
REMARK  status: ('A' for Active; 'I' for Inactive)
ROOT
ATOM      1  C4' PXY d   1       0.946  -3.086   1.759  0.00  0.00     0.077 C 
ATOM      2  C1' PXY d   1      -2.249  -0.800   6.000  0.00  0.00     0.077 C 
ATOM      3  C1  PXY d   1      -1.415  -1.412   4.891  0.00  0.00    -0.082 A 
ATOM      4  C2  PXY d   1      -0.371  -0.751   4.418  0.00  0.00     0.003 A 
ATOM      5  C3  PXY d   1       0.375  -1.275   3.394  0.00  0.00     0.003 A 
ATOM      6  C4  PXY d   1       0.081  -2.512   2.885  0.00  0.00    -0.082 A 
ATOM      7  C5  PXY d   1      -0.976  -3.197   3.369  0.00  0.00     0.003 A 
ATOM      8  C6  PXY d   1      -1.746  -2.629   4.381  0.00  0.00     0.003 A 
ENDROOT
TORSDOF 0
ENDMDL
