MODEL 1
REMARK minimizedAffinity 11.9495277
REMARK minimizedRMSD -1
REMARK  0 active torsions:
REMARK  status: ('A' for Active; 'I' for Inactive)
ROOT
ATOM      1  C4' PXY d   1       3.786  -0.721   1.721  0.00  0.00     0.077 C 
ATOM      2  C1' PXY d   1      -0.896  -0.934   5.104  0.00  0.00     0.077 C 
ATOM      3  C1  PXY d   1       0.330  -0.891   4.213  0.00  0.00    -0.082 A 
ATOM      4  C2  PXY d   1       1.318  -0.059   4.499  0.00  0.00     0.003 A 
ATOM      5  C3  PXY d   1       2.419   0.017   3.686  0.00  0.00     0.003 A 
ATOM      6  C4  PXY d   1       2.534  -0.806   2.598  0.00  0.00    -0.082 A 
ATOM      7  C5  PXY d   1       1.535  -1.665   2.305  0.00  0.00     0.003 A 
ATOM      8  C6  PXY d   1       0.407  -1.697   3.120  0.00  0.00     0.003 A 
ENDROOT
TORSDOF 0
ENDMDL
