MODEL 1
REMARK minimizedAffinity 14.3271255
REMARK minimizedRMSD -1
REMARK  0 active torsions:
REMARK  status: ('A' for Active; 'I' for Inactive)
ROOT
ATOM      1  C4' PXY d   1      -4.740   1.783  -2.896  0.00  0.00     0.077 C 
ATOM      2  C1' PXY d   1       0.693   3.453  -1.846  0.00  0.00     0.077 C 
ATOM      3  C1  PXY d   1      -0.736   3.027  -2.121  0.00  0.00    -0.082 A 
ATOM      4  C2  PXY d   1      -1.128   1.805  -1.800  0.00  0.00     0.003 A 
ATOM      5  C3  PXY d   1      -2.407   1.393  -2.071  0.00  0.00     0.003 A 
ATOM      6  C4  PXY d   1      -3.310   2.259  -2.628  0.00  0.00    -0.082 A 
ATOM      7  C5  PXY d   1      -2.921   3.511  -2.949  0.00  0.00     0.003 A 
ATOM      8  C6  PXY d   1      -1.606   3.896  -2.704  0.00  0.00     0.003 A 
ENDROOT
TORSDOF 0
ENDMDL
