MODEL 1
REMARK minimizedAffinity 10.4177485
REMARK minimizedRMSD -1
REMARK  0 active torsions:
REMARK  status: ('A' for Active; 'I' for Inactive)
ROOT
ATOM      1  C4' PXY d   1      -5.999   2.011  -2.016  0.00  0.00     0.077 C 
ATOM      2  C1' PXY d   1      -0.324   3.065  -2.324  0.00  0.00     0.077 C 
ATOM      3  C1  PXY d   1      -1.813   2.797  -2.233  0.00  0.00    -0.082 A 
ATOM      4  C2  PXY d   1      -2.309   1.681  -2.743  0.00  0.00     0.003 A 
ATOM      5  C3  PXY d   1      -3.657   1.437  -2.698  0.00  0.00     0.003 A 
ATOM      6  C4  PXY d   1      -4.500   2.319  -2.077  0.00  0.00    -0.082 A 
ATOM      7  C5  PXY d   1      -4.001   3.455  -1.545  0.00  0.00     0.003 A 
ATOM      8  C6  PXY d   1      -2.634   3.703  -1.638  0.00  0.00     0.003 A 
ENDROOT
TORSDOF 0
ENDMDL
