MODEL 1
REMARK minimizedAffinity 8.23400688
REMARK minimizedRMSD -1
REMARK  0 active torsions:
REMARK  status: ('A' for Active; 'I' for Inactive)
ROOT
ATOM      1  C4' PXY d   1       5.542  -5.911  -6.000  0.00  0.00     0.077 C 
ATOM      2  C1' PXY d   1       4.718  -0.798  -3.432  0.00  0.00     0.077 C 
ATOM      3  C1  PXY d   1       4.922  -2.138  -4.111  0.00  0.00    -0.082 A 
ATOM      4  C2  PXY d   1       5.779  -3.007  -3.598  0.00  0.00     0.003 A 
ATOM      5  C3  PXY d   1       5.999  -4.210  -4.217  0.00  0.00     0.003 A 
ATOM      6  C4  PXY d   1       5.297  -4.550  -5.343  0.00  0.00    -0.082 A 
ATOM      7  C5  PXY d   1       4.414  -3.673  -5.865  0.00  0.00     0.003 A 
ATOM      8  C6  PXY d   1       4.234  -2.440  -5.245  0.00  0.00     0.003 A 
ENDROOT
TORSDOF 0
ENDMDL
