MODEL 1
REMARK minimizedAffinity 8.65800285
REMARK minimizedRMSD -1
REMARK  0 active torsions:
REMARK  status: ('A' for Active; 'I' for Inactive)
ROOT
ATOM      1  C4' PXY d   1      -0.416  -0.705   4.006  0.00  0.00     0.077 C 
ATOM      2  C1' PXY d   1       2.615  -3.674   0.080  0.00  0.00     0.077 C 
ATOM      3  C1  PXY d   1       1.830  -2.887   1.111  0.00  0.00    -0.082 A 
ATOM      4  C2  PXY d   1       0.884  -3.489   1.812  0.00  0.00     0.003 A 
ATOM      5  C3  PXY d   1       0.142  -2.785   2.725  0.00  0.00     0.003 A 
ATOM      6  C4  PXY d   1       0.409  -1.463   2.961  0.00  0.00    -0.082 A 
ATOM      7  C5  PXY d   1       1.380  -0.843   2.258  0.00  0.00     0.003 A 
ATOM      8  C6  PXY d   1       2.093  -1.566   1.306  0.00  0.00     0.003 A 
ENDROOT
TORSDOF 0
ENDMDL
