MODEL 1
REMARK minimizedAffinity 5.24517155
REMARK minimizedRMSD -1
REMARK  0 active torsions:
REMARK  status: ('A' for Active; 'I' for Inactive)
ROOT
ATOM      1  C4' PXY d   1      -2.529  -2.975   4.852  0.00  0.00     0.077 C 
ATOM      2  C1' PXY d   1       1.851  -0.691   1.849  0.00  0.00     0.077 C 
ATOM      3  C1  PXY d   1       0.706  -1.283   2.646  0.00  0.00    -0.082 A 
ATOM      4  C2  PXY d   1       0.218  -2.466   2.312  0.00  0.00     0.003 A 
ATOM      5  C3  PXY d   1      -0.839  -3.002   3.003  0.00  0.00     0.003 A 
ATOM      6  C4  PXY d   1      -1.367  -2.343   4.080  0.00  0.00    -0.082 A 
ATOM      7  C5  PXY d   1      -0.868  -1.140   4.435  0.00  0.00     0.003 A 
ATOM      8  C6  PXY d   1       0.178  -0.595   3.695  0.00  0.00     0.003 A 
ENDROOT
TORSDOF 0
ENDMDL
