MODEL 1
REMARK minimizedAffinity 7.75392199
REMARK minimizedRMSD -1
REMARK  0 active torsions:
REMARK  status: ('A' for Active; 'I' for Inactive)
ROOT
ATOM      1  C4' PXY d   1       1.211  -1.031   1.698  0.00  0.00     0.077 C 
ATOM      2  C1' PXY d   1       5.657  -0.200  -1.901  0.00  0.00     0.077 C 
ATOM      3  C1  PXY d   1       4.490  -0.405  -0.955  0.00  0.00    -0.082 A 
ATOM      4  C2  PXY d   1       4.375  -1.546  -0.296  0.00  0.00     0.003 A 
ATOM      5  C3  PXY d   1       3.308  -1.761   0.538  0.00  0.00     0.003 A 
ATOM      6  C4  PXY d   1       2.378  -0.777   0.741  0.00  0.00    -0.082 A 
ATOM      7  C5  PXY d   1       2.494   0.394   0.080  0.00  0.00     0.003 A 
ATOM      8  C6  PXY d   1       3.562   0.577  -0.794  0.00  0.00     0.003 A 
ENDROOT
TORSDOF 0
ENDMDL
