MODEL 1
REMARK minimizedAffinity 10.8969841
REMARK minimizedRMSD -1
REMARK  0 active torsions:
REMARK  status: ('A' for Active; 'I' for Inactive)
ROOT
ATOM      1  C4' PXY d   1      -2.860  -2.786   3.039  0.00  0.00     0.077 C 
ATOM      2  C1' PXY d   1      -5.550  -5.837  -1.069  0.00  0.00     0.077 C 
ATOM      3  C1  PXY d   1      -4.855  -5.029   0.009  0.00  0.00    -0.082 A 
ATOM      4  C2  PXY d   1      -3.534  -5.015   0.067  0.00  0.00     0.003 A 
ATOM      5  C3  PXY d   1      -2.889  -4.316   1.055  0.00  0.00     0.003 A 
ATOM      6  C4  PXY d   1      -3.604  -3.580   1.961  0.00  0.00    -0.082 A 
ATOM      7  C5  PXY d   1      -4.953  -3.580   1.903  0.00  0.00     0.003 A 
ATOM      8  C6  PXY d   1      -5.589  -4.330   0.917  0.00  0.00     0.003 A 
ENDROOT
TORSDOF 0
ENDMDL
