MODEL 1
REMARK minimizedAffinity 4.47630215
REMARK minimizedRMSD -1
REMARK  0 active torsions:
REMARK  status: ('A' for Active; 'I' for Inactive)
ROOT
ATOM      1  C4' PXY d   1      -1.670   3.813  -4.305  0.00  0.00     0.077 C 
ATOM      2  C1' PXY d   1       1.467   1.904   0.159  0.00  0.00     0.077 C 
ATOM      3  C1  PXY d   1       0.640   2.392  -1.014  0.00  0.00    -0.082 A 
ATOM      4  C2  PXY d   1       0.955   3.533  -1.606  0.00  0.00     0.003 A 
ATOM      5  C3  PXY d   1       0.199   4.005  -2.648  0.00  0.00     0.003 A 
ATOM      6  C4  PXY d   1      -0.858   3.277  -3.123  0.00  0.00    -0.082 A 
ATOM      7  C5  PXY d   1      -1.179   2.106  -2.532  0.00  0.00     0.003 A 
ATOM      8  C6  PXY d   1      -0.424   1.665  -1.449  0.00  0.00     0.003 A 
ENDROOT
TORSDOF 0
ENDMDL
