MODEL 1
REMARK minimizedAffinity 11.2679062
REMARK minimizedRMSD -1
REMARK  0 active torsions:
REMARK  status: ('A' for Active; 'I' for Inactive)
ROOT
ATOM      1  C4' PXY d   1      -2.694  -3.124   2.318  0.00  0.00     0.077 C 
ATOM      2  C1' PXY d   1       2.232  -0.099   2.238  0.00  0.00     0.077 C 
ATOM      3  C1  PXY d   1       0.938  -0.889   2.272  0.00  0.00    -0.082 A 
ATOM      4  C2  PXY d   1       0.743  -1.861   1.395  0.00  0.00     0.003 A 
ATOM      5  C3  PXY d   1      -0.434  -2.565   1.391  0.00  0.00     0.003 A 
ATOM      6  C4  PXY d   1      -1.399  -2.306   2.327  0.00  0.00    -0.082 A 
ATOM      7  C5  PXY d   1      -1.203  -1.323   3.232  0.00  0.00     0.003 A 
ATOM      8  C6  PXY d   1      -0.018  -0.593   3.193  0.00  0.00     0.003 A 
ENDROOT
TORSDOF 0
ENDMDL
