MODEL 1
REMARK minimizedAffinity 24.5314198
REMARK minimizedRMSD -1
REMARK  0 active torsions:
REMARK  status: ('A' for Active; 'I' for Inactive)
ROOT
ATOM      1  C4' PXY d   1       0.517   2.837  -0.215  0.00  0.00     0.077 C 
ATOM      2  C1' PXY d   1       1.725  -2.244   2.263  0.00  0.00     0.077 C 
ATOM      3  C1  PXY d   1       1.419  -0.906   1.618  0.00  0.00    -0.082 A 
ATOM      4  C2  PXY d   1       0.167  -0.589   1.332  0.00  0.00     0.003 A 
ATOM      5  C3  PXY d   1      -0.124   0.603   0.720  0.00  0.00     0.003 A 
ATOM      6  C4  PXY d   1       0.871   1.502   0.445  0.00  0.00    -0.082 A 
ATOM      7  C5  PXY d   1       2.150   1.190   0.744  0.00  0.00     0.003 A 
ATOM      8  C6  PXY d   1       2.429  -0.042   1.327  0.00  0.00     0.003 A 
ENDROOT
TORSDOF 0
ENDMDL
