MODEL 1
REMARK minimizedAffinity 17.2482414
REMARK minimizedRMSD -1
REMARK  0 active torsions:
REMARK  status: ('A' for Active; 'I' for Inactive)
ROOT
ATOM      1  C4' PXY d   1       5.548  -2.897  -5.813  0.00  0.00     0.077 C 
ATOM      2  C1' PXY d   1       0.657  -5.961  -5.490  0.00  0.00     0.077 C 
ATOM      3  C1  PXY d   1       1.933  -5.147  -5.577  0.00  0.00    -0.082 A 
ATOM      4  C2  PXY d   1       3.060  -5.734  -5.946  0.00  0.00     0.003 A 
ATOM      5  C3  PXY d   1       4.229  -5.019  -5.998  0.00  0.00     0.003 A 
ATOM      6  C4  PXY d   1       4.234  -3.678  -5.721  0.00  0.00    -0.082 A 
ATOM      7  C5  PXY d   1       3.086  -3.070  -5.354  0.00  0.00     0.003 A 
ATOM      8  C6  PXY d   1       1.918  -3.822  -5.267  0.00  0.00     0.003 A 
ENDROOT
TORSDOF 0
ENDMDL
