MODEL 1
REMARK minimizedAffinity 21.3552589
REMARK minimizedRMSD -1
REMARK  0 active torsions:
REMARK  status: ('A' for Active; 'I' for Inactive)
ROOT
ATOM      1  C4' PXY d   1      -1.518   5.997  -4.969  0.00  0.00     0.077 C 
ATOM      2  C1' PXY d   1       0.404   2.878  -0.498  0.00  0.00     0.077 C 
ATOM      3  C1  PXY d   1      -0.100   3.685  -1.678  0.00  0.00    -0.082 A 
ATOM      4  C2  PXY d   1       0.122   4.989  -1.722  0.00  0.00     0.003 A 
ATOM      5  C3  PXY d   1      -0.355   5.739  -2.766  0.00  0.00     0.003 A 
ATOM      6  C4  PXY d   1      -1.020   5.140  -3.802  0.00  0.00    -0.082 A 
ATOM      7  C5  PXY d   1      -1.241   3.809  -3.770  0.00  0.00     0.003 A 
ATOM      8  C6  PXY d   1      -0.785   3.072  -2.681  0.00  0.00     0.003 A 
ENDROOT
TORSDOF 0
ENDMDL
