MODEL 1
REMARK minimizedAffinity -4.20386028
REMARK minimizedRMSD -1
REMARK  0 active torsions:
REMARK  status: ('A' for Active; 'I' for Inactive)
ROOT
ATOM      1  O1  BZF d   1       1.599   2.753   2.259  0.00  0.00    -0.204 OA
ATOM      2  C2  BZF d   1       2.113   3.326   1.111  0.00  0.00     0.174 A 
ATOM      3  C3  BZF d   1       2.147   2.429   0.104  0.00  0.00    -0.012 A 
ATOM      4  C3A BZF d   1       1.537   1.247   0.631  0.00  0.00    -0.107 A 
ATOM      5  C4  BZF d   1       1.265   0.017   0.104  0.00  0.00     0.055 A 
ATOM      6  C5  BZF d   1       0.727  -0.940   0.906  0.00  0.00    -0.016 A 
ATOM      7  C6  BZF d   1       0.454  -0.703   2.237  0.00  0.00     0.022 A 
ATOM      8  C7  BZF d   1       0.702   0.504   2.802  0.00  0.00     0.029 A 
ATOM      9  C7A BZF d   1       1.214   1.483   1.987  0.00  0.00     0.058 A 
ENDROOT
TORSDOF 0
ENDMDL
