MODEL 1
REMARK minimizedAffinity 4.29989004
REMARK minimizedRMSD -1
REMARK  0 active torsions:
REMARK  status: ('A' for Active; 'I' for Inactive)
ROOT
ATOM      1  O1  BZF d   1       1.087  -0.640   1.142  0.00  0.00    -0.204 OA
ATOM      2  C2  BZF d   1       0.217  -1.476   1.816  0.00  0.00     0.174 A 
ATOM      3  C3  BZF d   1      -0.882  -1.721   1.074  0.00  0.00    -0.012 A 
ATOM      4  C3A BZF d   1      -0.645  -1.068  -0.177  0.00  0.00    -0.107 A 
ATOM      5  C4  BZF d   1      -1.366  -0.961  -1.332  0.00  0.00     0.055 A 
ATOM      6  C5  BZF d   1      -0.884  -0.190  -2.342  0.00  0.00    -0.016 A 
ATOM      7  C6  BZF d   1       0.309   0.492  -2.230  0.00  0.00     0.022 A 
ATOM      8  C7  BZF d   1       1.062   0.413  -1.105  0.00  0.00     0.029 A 
ATOM      9  C7A BZF d   1       0.594  -0.392  -0.095  0.00  0.00     0.058 A 
ENDROOT
TORSDOF 0
ENDMDL
