MODEL 1
REMARK minimizedAffinity -4.25307083
REMARK minimizedRMSD -1
REMARK  0 active torsions:
REMARK  status: ('A' for Active; 'I' for Inactive)
ROOT
ATOM      1  O1  BZF d   1      -0.127  -0.494  -1.807  0.00  0.00    -0.204 OA
ATOM      2  C2  BZF d   1      -1.482  -0.240  -1.716  0.00  0.00     0.174 A 
ATOM      3  C3  BZF d   1      -1.854  -0.082  -0.429  0.00  0.00    -0.012 A 
ATOM      4  C3A BZF d   1      -0.640  -0.155   0.325  0.00  0.00    -0.107 A 
ATOM      5  C4  BZF d   1      -0.355  -0.054   1.657  0.00  0.00     0.055 A 
ATOM      6  C5  BZF d   1       0.924  -0.245   2.074  0.00  0.00    -0.016 A 
ATOM      7  C6  BZF d   1       1.940  -0.544   1.190  0.00  0.00     0.022 A 
ATOM      8  C7  BZF d   1       1.707  -0.650  -0.141  0.00  0.00     0.029 A 
ATOM      9  C7A BZF d   1       0.421  -0.424  -0.570  0.00  0.00     0.058 A 
ENDROOT
TORSDOF 0
ENDMDL
