MODEL 1
REMARK minimizedAffinity -4.29306793
REMARK minimizedRMSD -1
REMARK  0 active torsions:
REMARK  status: ('A' for Active; 'I' for Inactive)
ROOT
ATOM      1  O1  BZF d   1       2.400   2.102   0.524  0.00  0.00    -0.204 OA
ATOM      2  C2  BZF d   1       2.651   2.830   1.671  0.00  0.00     0.174 A 
ATOM      3  C3  BZF d   1       1.981   2.314   2.722  0.00  0.00    -0.012 A 
ATOM      4  C3A BZF d   1       1.339   1.139   2.218  0.00  0.00    -0.107 A 
ATOM      5  C4  BZF d   1       0.540   0.188   2.786  0.00  0.00     0.055 A 
ATOM      6  C5  BZF d   1       0.017  -0.791   2.002  0.00  0.00    -0.016 A 
ATOM      7  C6  BZF d   1       0.268  -0.846   0.647  0.00  0.00     0.022 A 
ATOM      8  C7  BZF d   1       1.058   0.071   0.038  0.00  0.00     0.029 A 
ATOM      9  C7A BZF d   1       1.615   1.043   0.834  0.00  0.00     0.058 A 
ENDROOT
TORSDOF 0
ENDMDL
