MODEL 1
REMARK minimizedAffinity -1.86958599
REMARK minimizedRMSD -1
REMARK  0 active torsions:
REMARK  status: ('A' for Active; 'I' for Inactive)
ROOT
ATOM      1  O1  BZF d   1      -1.370  -1.739  -0.045  0.00  0.00    -0.204 OA
ATOM      2  C2  BZF d   1      -2.284  -1.564  -1.065  0.00  0.00     0.174 A 
ATOM      3  C3  BZF d   1      -1.984  -0.469  -1.794  0.00  0.00    -0.012 A 
ATOM      4  C3A BZF d   1      -0.756   0.021  -1.248  0.00  0.00    -0.107 A 
ATOM      5  C4  BZF d   1       0.055   1.076  -1.557  0.00  0.00     0.055 A 
ATOM      6  C5  BZF d   1       1.144   1.322  -0.782  0.00  0.00    -0.016 A 
ATOM      7  C6  BZF d   1       1.449   0.537   0.311  0.00  0.00     0.022 A 
ATOM      8  C7  BZF d   1       0.678  -0.523   0.655  0.00  0.00     0.029 A 
ATOM      9  C7A BZF d   1      -0.405  -0.794  -0.146  0.00  0.00     0.058 A 
ENDROOT
TORSDOF 0
ENDMDL
