MODEL 1
REMARK minimizedAffinity -3.98229671
REMARK minimizedRMSD -1
REMARK  0 active torsions:
REMARK  status: ('A' for Active; 'I' for Inactive)
ROOT
ATOM      1  O1  BZF d   1       0.583  -0.598   1.204  0.00  0.00    -0.204 OA
ATOM      2  C2  BZF d   1       0.734   0.527   0.417  0.00  0.00     0.174 A 
ATOM      3  C3  BZF d   1      -0.237   0.590  -0.517  0.00  0.00    -0.012 A 
ATOM      4  C3A BZF d   1      -1.099  -0.518  -0.240  0.00  0.00    -0.107 A 
ATOM      5  C4  BZF d   1      -2.249  -0.979  -0.814  0.00  0.00     0.055 A 
ATOM      6  C5  BZF d   1      -2.802  -2.131  -0.351  0.00  0.00    -0.016 A 
ATOM      7  C6  BZF d   1      -2.230  -2.848   0.679  0.00  0.00     0.022 A 
ATOM      8  C7  BZF d   1      -1.092  -2.428   1.283  0.00  0.00     0.029 A 
ATOM      9  C7A BZF d   1      -0.548  -1.247   0.839  0.00  0.00     0.058 A 
ENDROOT
TORSDOF 0
ENDMDL
