MODEL 1
REMARK minimizedAffinity -6.26896667
REMARK minimizedRMSD -1
REMARK  0 active torsions:
REMARK  status: ('A' for Active; 'I' for Inactive)
ROOT
ATOM      1  O1  BZF d   1       0.264  -1.214   1.876  0.00  0.00    -0.204 OA
ATOM      2  C2  BZF d   1       0.557   0.035   1.363  0.00  0.00     0.174 A 
ATOM      3  C3  BZF d   1      -0.333   0.382   0.412  0.00  0.00    -0.012 A 
ATOM      4  C3A BZF d   1      -1.293  -0.679   0.389  0.00  0.00    -0.107 A 
ATOM      5  C4  BZF d   1      -2.428  -0.903  -0.337  0.00  0.00     0.055 A 
ATOM      6  C5  BZF d   1      -3.099  -2.073  -0.169  0.00  0.00    -0.016 A 
ATOM      7  C6  BZF d   1      -2.661  -3.041   0.711  0.00  0.00     0.022 A 
ATOM      8  C7  BZF d   1      -1.544  -2.862   1.456  0.00  0.00     0.029 A 
ATOM      9  C7A BZF d   1      -0.882  -1.667   1.313  0.00  0.00     0.058 A 
ENDROOT
TORSDOF 0
ENDMDL
