MODEL 1
REMARK minimizedAffinity -5.85714865
REMARK minimizedRMSD -1
REMARK  0 active torsions:
REMARK  status: ('A' for Active; 'I' for Inactive)
ROOT
ATOM      1  O1  BZF d   1      -2.194  -1.476   0.919  0.00  0.00    -0.204 OA
ATOM      2  C2  BZF d   1      -3.131  -1.413  -0.094  0.00  0.00     0.174 A 
ATOM      3  C3  BZF d   1      -2.738  -0.555  -1.057  0.00  0.00    -0.012 A 
ATOM      4  C3A BZF d   1      -1.433  -0.120  -0.663  0.00  0.00    -0.107 A 
ATOM      5  C4  BZF d   1      -0.517   0.726  -1.221  0.00  0.00     0.055 A 
ATOM      6  C5  BZF d   1       0.632   0.992  -0.546  0.00  0.00    -0.016 A 
ATOM      7  C6  BZF d   1       0.895   0.436   0.688  0.00  0.00     0.022 A 
ATOM      8  C7  BZF d   1       0.020  -0.413   1.279  0.00  0.00     0.029 A 
ATOM      9  C7A BZF d   1      -1.128  -0.710   0.585  0.00  0.00     0.058 A 
ENDROOT
TORSDOF 0
ENDMDL
