MODEL 1
REMARK minimizedAffinity 0.899896085
REMARK minimizedRMSD -1
REMARK  0 active torsions:
REMARK  status: ('A' for Active; 'I' for Inactive)
ROOT
ATOM      1  O1  BZF d   1      -1.195   0.318  -2.103  0.00  0.00    -0.204 OA
ATOM      2  C2  BZF d   1      -0.002   0.920  -1.752  0.00  0.00     0.174 A 
ATOM      3  C3  BZF d   1       0.565   0.284  -0.706  0.00  0.00    -0.012 A 
ATOM      4  C3A BZF d   1      -0.283  -0.837  -0.443  0.00  0.00    -0.107 A 
ATOM      5  C4  BZF d   1      -0.239  -1.854   0.468  0.00  0.00     0.055 A 
ATOM      6  C5  BZF d   1      -1.261  -2.749   0.508  0.00  0.00    -0.016 A 
ATOM      7  C6  BZF d   1      -2.343  -2.654  -0.342  0.00  0.00     0.022 A 
ATOM      8  C7  BZF d   1      -2.429  -1.666  -1.265  0.00  0.00     0.029 A 
ATOM      9  C7A BZF d   1      -1.382  -0.779  -1.331  0.00  0.00     0.058 A 
ENDROOT
TORSDOF 0
ENDMDL
