MODEL 1
REMARK minimizedAffinity -5.88746834
REMARK minimizedRMSD -1
REMARK  0 active torsions:
REMARK  status: ('A' for Active; 'I' for Inactive)
ROOT
ATOM      1  O1  BZF d   1       0.388   0.042   1.338  0.00  0.00    -0.204 OA
ATOM      2  C2  BZF d   1       0.838   0.780   0.261  0.00  0.00     0.174 A 
ATOM      3  C3  BZF d   1       0.015   0.633  -0.797  0.00  0.00    -0.012 A 
ATOM      4  C3A BZF d   1      -1.064  -0.179  -0.324  0.00  0.00    -0.107 A 
ATOM      5  C4  BZF d   1      -2.203  -0.658  -0.906  0.00  0.00     0.055 A 
ATOM      6  C5  BZF d   1      -3.013  -1.483  -0.191  0.00  0.00    -0.016 A 
ATOM      7  C6  BZF d   1      -2.711  -1.854   1.103  0.00  0.00     0.022 A 
ATOM      8  C7  BZF d   1      -1.595  -1.400   1.724  0.00  0.00     0.029 A 
ATOM      9  C7A BZF d   1      -0.792  -0.540   1.016  0.00  0.00     0.058 A 
ENDROOT
TORSDOF 0
ENDMDL
