MODEL 1
REMARK minimizedAffinity -4.45575094
REMARK minimizedRMSD -1
REMARK  0 active torsions:
REMARK  status: ('A' for Active; 'I' for Inactive)
ROOT
ATOM      1  O1  BZF d   1      -0.566   0.091  -1.611  0.00  0.00    -0.204 OA
ATOM      2  C2  BZF d   1      -1.934  -0.095  -1.569  0.00  0.00     0.174 A 
ATOM      3  C3  BZF d   1      -2.327  -0.480  -0.338  0.00  0.00    -0.012 A 
ATOM      4  C3A BZF d   1      -1.141  -0.450   0.462  0.00  0.00    -0.107 A 
ATOM      5  C4  BZF d   1      -0.889  -0.715   1.778  0.00  0.00     0.055 A 
ATOM      6  C5  BZF d   1       0.392  -0.663   2.229  0.00  0.00    -0.016 A 
ATOM      7  C6  BZF d   1       1.444  -0.353   1.392  0.00  0.00     0.022 A 
ATOM      8  C7  BZF d   1       1.243  -0.077   0.080  0.00  0.00     0.029 A 
ATOM      9  C7A BZF d   1      -0.054  -0.098  -0.371  0.00  0.00     0.058 A 
ENDROOT
TORSDOF 0
ENDMDL
