MODEL 1
REMARK minimizedAffinity -3.9745214
REMARK minimizedRMSD -1
REMARK  3 active torsions:
REMARK  status: ('A' for Active; 'I' for Inactive)
REMARK    1  A    between atoms: C3'_2  and  C2'_3 
REMARK    2  A    between atoms: C2'_3  and  C1'_4 
REMARK    3  A    between atoms: C1'_4  and  C1_5 
ROOT
ATOM      1  C1  N4B d   1      -0.507   1.016  -1.115  0.00  0.00    -0.075 A 
ATOM      2  C2  N4B d   1      -0.517   2.413  -1.321  0.00  0.00     0.002 A 
ATOM      3  C3  N4B d   1      -1.211   2.946  -2.379  0.00  0.00     0.002 A 
ATOM      4  C4  N4B d   1      -1.885   2.105  -3.252  0.00  0.00    -0.004 A 
ATOM      5  C5  N4B d   1      -1.891   0.758  -3.032  0.00  0.00     0.002 A 
ATOM      6  C6  N4B d   1      -1.201   0.209  -1.970  0.00  0.00     0.002 A 
ENDROOT
BRANCH   1   7
ATOM      7  C1' N4B d   1       0.308   0.379  -0.023  0.00  0.00     0.057 C 
BRANCH   7   8
ATOM      8  C2' N4B d   1       1.669  -0.023  -0.583  0.00  0.00     0.009 C 
BRANCH   8   9
ATOM      9  C3' N4B d   1       2.165  -1.329   0.013  0.00  0.00     0.004 C 
ATOM     10  C4' N4B d   1       2.560  -1.197   1.454  0.00  0.00     0.003 C 
ENDBRANCH   8   9
ENDBRANCH   7   8
ENDBRANCH   1   7
TORSDOF 3
ENDMDL
