MODEL 1
REMARK minimizedAffinity 0.195321321
REMARK minimizedRMSD -1
REMARK  3 active torsions:
REMARK  status: ('A' for Active; 'I' for Inactive)
REMARK    1  A    between atoms: C3'_2  and  C2'_3 
REMARK    2  A    between atoms: C2'_3  and  C1'_4 
REMARK    3  A    between atoms: C1'_4  and  C1_5 
ROOT
ATOM      1  C1  N4B d   1      -0.929   0.936  -0.756  0.00  0.00    -0.075 A 
ATOM      2  C2  N4B d   1      -2.034   0.059  -0.829  0.00  0.00     0.002 A 
ATOM      3  C3  N4B d   1      -2.934   0.173  -1.861  0.00  0.00     0.002 A 
ATOM      4  C4  N4B d   1      -2.761   1.164  -2.815  0.00  0.00    -0.004 A 
ATOM      5  C5  N4B d   1      -1.678   1.991  -2.751  0.00  0.00     0.002 A 
ATOM      6  C6  N4B d   1      -0.763   1.885  -1.722  0.00  0.00     0.002 A 
ENDROOT
BRANCH   1   7
ATOM      7  C1' N4B d   1       0.033   0.905   0.400  0.00  0.00     0.057 C 
BRANCH   7   8
ATOM      8  C2' N4B d   1       1.428   1.272  -0.101  0.00  0.00     0.009 C 
BRANCH   8   9
ATOM      9  C3' N4B d   1       2.331   0.055  -0.207  0.00  0.00     0.004 C 
ATOM     10  C4' N4B d   1       2.531  -0.397  -1.623  0.00  0.00     0.003 C 
ENDBRANCH   8   9
ENDBRANCH   7   8
ENDBRANCH   1   7
TORSDOF 3
ENDMDL
