MODEL 1
REMARK minimizedAffinity -1.67367506
REMARK minimizedRMSD -1
REMARK  3 active torsions:
REMARK  status: ('A' for Active; 'I' for Inactive)
REMARK    1  A    between atoms: C3'_2  and  C2'_3 
REMARK    2  A    between atoms: C2'_3  and  C1'_4 
REMARK    3  A    between atoms: C1'_4  and  C1_5 
ROOT
ATOM      1  C1  N4B d   1       0.563  -1.432   1.623  0.00  0.00    -0.075 A 
ATOM      2  C2  N4B d   1      -0.469  -0.682   1.017  0.00  0.00     0.002 A 
ATOM      3  C3  N4B d   1      -1.666  -0.509   1.668  0.00  0.00     0.002 A 
ATOM      4  C4  N4B d   1      -1.859  -1.089   2.913  0.00  0.00    -0.004 A 
ATOM      5  C5  N4B d   1      -0.849  -1.791   3.502  0.00  0.00     0.002 A 
ATOM      6  C6  N4B d   1       0.360  -1.970   2.861  0.00  0.00     0.002 A 
ENDROOT
BRANCH   1   7
ATOM      7  C1' N4B d   1       1.857  -1.721   0.913  0.00  0.00     0.057 C 
BRANCH   7   8
ATOM      8  C2' N4B d   1       1.759  -1.226  -0.527  0.00  0.00     0.009 C 
BRANCH   8   9
ATOM      9  C3' N4B d   1       2.234   0.211  -0.667  0.00  0.00     0.004 C 
ATOM     10  C4' N4B d   1       2.937   0.466  -1.967  0.00  0.00     0.003 C 
ENDBRANCH   8   9
ENDBRANCH   7   8
ENDBRANCH   1   7
TORSDOF 3
ENDMDL
