MODEL 1
REMARK minimizedAffinity -3.06324339
REMARK minimizedRMSD -1
REMARK  3 active torsions:
REMARK  status: ('A' for Active; 'I' for Inactive)
REMARK    1  A    between atoms: C3'_2  and  C2'_3 
REMARK    2  A    between atoms: C2'_3  and  C1'_4 
REMARK    3  A    between atoms: C1'_4  and  C1_5 
ROOT
ATOM      1  C1  N4B d   1      -1.560   1.743  -0.189  0.00  0.00    -0.075 A 
ATOM      2  C2  N4B d   1      -0.969   3.009  -0.393  0.00  0.00     0.002 A 
ATOM      3  C3  N4B d   1      -1.043   3.611  -1.625  0.00  0.00     0.002 A 
ATOM      4  C4  N4B d   1      -1.684   2.960  -2.668  0.00  0.00    -0.004 A 
ATOM      5  C5  N4B d   1      -2.274   1.749  -2.456  0.00  0.00     0.002 A 
ATOM      6  C6  N4B d   1      -2.211   1.134  -1.222  0.00  0.00     0.002 A 
ENDROOT
BRANCH   1   7
ATOM      7  C1' N4B d   1      -1.431   1.007   1.117  0.00  0.00     0.057 C 
BRANCH   7   8
ATOM      8  C2' N4B d   1      -0.699  -0.311   0.879  0.00  0.00     0.009 C 
BRANCH   8   9
ATOM      9  C3' N4B d   1       0.790  -0.102   0.662  0.00  0.00     0.004 C 
ATOM     10  C4' N4B d   1       1.530  -1.387   0.440  0.00  0.00     0.003 C 
ENDBRANCH   8   9
ENDBRANCH   7   8
ENDBRANCH   1   7
TORSDOF 3
ENDMDL
