MODEL 1
REMARK minimizedAffinity 6.19596338
REMARK minimizedRMSD -1
REMARK  3 active torsions:
REMARK  status: ('A' for Active; 'I' for Inactive)
REMARK    1  A    between atoms: C3'_2  and  C2'_3 
REMARK    2  A    between atoms: C2'_3  and  C1'_4 
REMARK    3  A    between atoms: C1'_4  and  C1_5 
ROOT
ATOM      1  C1  N4B d   1      -3.221   1.312  -1.646  0.00  0.00    -0.075 A 
ATOM      2  C2  N4B d   1      -3.962   1.515  -2.831  0.00  0.00     0.002 A 
ATOM      3  C3  N4B d   1      -3.427   2.254  -3.857  0.00  0.00     0.002 A 
ATOM      4  C4  N4B d   1      -2.166   2.813  -3.715  0.00  0.00    -0.004 A 
ATOM      5  C5  N4B d   1      -1.446   2.591  -2.577  0.00  0.00     0.002 A 
ATOM      6  C6  N4B d   1      -1.970   1.847  -1.539  0.00  0.00     0.002 A 
ENDROOT
BRANCH   1   7
ATOM      7  C1' N4B d   1      -3.798   0.583  -0.463  0.00  0.00     0.057 C 
BRANCH   7   8
ATOM      8  C2' N4B d   1      -3.582   1.419   0.794  0.00  0.00     0.009 C 
BRANCH   8   9
ATOM      9  C3' N4B d   1      -3.053   0.584   1.948  0.00  0.00     0.004 C 
ATOM     10  C4' N4B d   1      -1.569   0.381   1.885  0.00  0.00     0.003 C 
ENDBRANCH   8   9
ENDBRANCH   7   8
ENDBRANCH   1   7
TORSDOF 3
ENDMDL
