MODEL 1
REMARK minimizedAffinity -0.506355703
REMARK minimizedRMSD -1
REMARK  3 active torsions:
REMARK  status: ('A' for Active; 'I' for Inactive)
REMARK    1  A    between atoms: C3'_2  and  C2'_3 
REMARK    2  A    between atoms: C2'_3  and  C1'_4 
REMARK    3  A    between atoms: C1'_4  and  C1_5 
ROOT
ATOM      1  C1  N4B d   1      -2.666   0.165  -1.183  0.00  0.00    -0.075 A 
ATOM      2  C2  N4B d   1      -1.942   0.581  -0.044  0.00  0.00     0.002 A 
ATOM      3  C3  N4B d   1      -1.415  -0.353   0.814  0.00  0.00     0.002 A 
ATOM      4  C4  N4B d   1      -1.616  -1.702   0.566  0.00  0.00    -0.004 A 
ATOM      5  C5  N4B d   1      -2.294  -2.097  -0.550  0.00  0.00     0.002 A 
ATOM      6  C6  N4B d   1      -2.825  -1.169  -1.423  0.00  0.00     0.002 A 
ENDROOT
BRANCH   1   7
ATOM      7  C1' N4B d   1      -3.333   1.149  -2.104  0.00  0.00     0.057 C 
BRANCH   7   8
ATOM      8  C2' N4B d   1      -2.485   1.313  -3.361  0.00  0.00     0.009 C 
BRANCH   8   9
ATOM      9  C3' N4B d   1      -1.892   2.707  -3.469  0.00  0.00     0.004 C 
ATOM     10  C4' N4B d   1      -0.495   2.787  -2.930  0.00  0.00     0.003 C 
ENDBRANCH   8   9
ENDBRANCH   7   8
ENDBRANCH   1   7
TORSDOF 3
ENDMDL
