MODEL 1
REMARK minimizedAffinity 4.79248381
REMARK minimizedRMSD -1
REMARK  3 active torsions:
REMARK  status: ('A' for Active; 'I' for Inactive)
REMARK    1  A    between atoms: C3'_2  and  C2'_3 
REMARK    2  A    between atoms: C2'_3  and  C1'_4 
REMARK    3  A    between atoms: C1'_4  and  C1_5 
ROOT
ATOM      1  C1  N4B d   1       2.708  -1.790  -0.592  0.00  0.00    -0.075 A 
ATOM      2  C2  N4B d   1       2.001  -3.000  -0.768  0.00  0.00     0.002 A 
ATOM      3  C3  N4B d   1       1.369  -3.586   0.301  0.00  0.00     0.002 A 
ATOM      4  C4  N4B d   1       1.445  -2.994   1.553  0.00  0.00    -0.004 A 
ATOM      5  C5  N4B d   1       2.109  -1.813   1.708  0.00  0.00     0.002 A 
ATOM      6  C6  N4B d   1       2.746  -1.210   0.642  0.00  0.00     0.002 A 
ENDROOT
BRANCH   1   7
ATOM      7  C1' N4B d   1       3.487  -1.156  -1.712  0.00  0.00     0.057 C 
BRANCH   7   8
ATOM      8  C2' N4B d   1       3.365   0.362  -1.611  0.00  0.00     0.009 C 
BRANCH   8   9
ATOM      9  C3' N4B d   1       4.042   1.065  -2.775  0.00  0.00     0.004 C 
ATOM     10  C4' N4B d   1       5.390   1.616  -2.416  0.00  0.00     0.003 C 
ENDBRANCH   8   9
ENDBRANCH   7   8
ENDBRANCH   1   7
TORSDOF 3
ENDMDL
