MODEL 1
REMARK minimizedAffinity 3.08303332
REMARK minimizedRMSD -1
REMARK  3 active torsions:
REMARK  status: ('A' for Active; 'I' for Inactive)
REMARK    1  A    between atoms: C3'_2  and  C2'_3 
REMARK    2  A    between atoms: C2'_3  and  C1'_4 
REMARK    3  A    between atoms: C1'_4  and  C1_5 
ROOT
ATOM      1  C1  N4B d   1      -1.848   2.618  -1.642  0.00  0.00    -0.075 A 
ATOM      2  C2  N4B d   1      -1.670   2.597  -0.241  0.00  0.00     0.002 A 
ATOM      3  C3  N4B d   1      -2.239   1.597   0.508  0.00  0.00     0.002 A 
ATOM      4  C4  N4B d   1      -3.002   0.621  -0.116  0.00  0.00    -0.004 A 
ATOM      5  C5  N4B d   1      -3.148   0.634  -1.473  0.00  0.00     0.002 A 
ATOM      6  C6  N4B d   1      -2.578   1.631  -2.239  0.00  0.00     0.002 A 
ENDROOT
BRANCH   1   7
ATOM      7  C1' N4B d   1      -1.317   3.738  -2.494  0.00  0.00     0.057 C 
BRANCH   7   8
ATOM      8  C2' N4B d   1       0.140   3.453  -2.846  0.00  0.00     0.009 C 
BRANCH   8   9
ATOM      9  C3' N4B d   1       0.514   4.007  -4.210  0.00  0.00     0.004 C 
ATOM     10  C4' N4B d   1       1.041   5.410  -4.142  0.00  0.00     0.003 C 
ENDBRANCH   8   9
ENDBRANCH   7   8
ENDBRANCH   1   7
TORSDOF 3
ENDMDL
