MODEL 1
REMARK minimizedAffinity -3.4753294
REMARK minimizedRMSD -1
REMARK  1 active torsions:
REMARK  status: ('A' for Active; 'I' for Inactive)
REMARK    1  A    between atoms: C1_2  and  C2_3 
ROOT
ATOM      1  C2  UNL d   1       1.790   2.337   0.665  0.00  0.00    -0.081 A 
ATOM      2  C3  UNL d   1       2.136   0.993   0.486  0.00  0.00     0.006 A 
ATOM      3  C4  UNL d   1       1.145   0.020   0.338  0.00  0.00     0.002 A 
ATOM      4  C5  UNL d   1      -0.208   0.376   0.358  0.00  0.00    -0.080 A 
ATOM      5  C6  UNL d   1      -1.281  -0.655   0.170  0.00  0.00     0.076 C 
ATOM      6  C7  UNL d   1      -0.555   1.717   0.555  0.00  0.00     0.002 A 
ATOM      7  C8  UNL d   1       0.436   2.690   0.703  0.00  0.00     0.006 A 
ENDROOT
BRANCH   1   8
ATOM      8  C1  UNL d   1       2.857   3.398   0.760  0.00  0.00     0.054 C 
ATOM      9  C   UNL d   1       2.413   4.691   0.091  0.00  0.00     0.018 C 
ENDBRANCH   1   8
TORSDOF 1
ENDMDL
