MODEL 1
REMARK minimizedAffinity 3.61188412
REMARK minimizedRMSD -1
REMARK  1 active torsions:
REMARK  status: ('A' for Active; 'I' for Inactive)
REMARK    1  A    between atoms: C1_2  and  C2_3 
ROOT
ATOM      1  C2  UNL d   1      -1.924  -1.268  -1.257  0.00  0.00    -0.081 A 
ATOM      2  C3  UNL d   1      -1.063  -1.017  -0.182  0.00  0.00     0.006 A 
ATOM      3  C4  UNL d   1      -0.924   0.277   0.327  0.00  0.00     0.002 A 
ATOM      4  C5  UNL d   1      -1.649   1.338  -0.226  0.00  0.00    -0.080 A 
ATOM      5  C6  UNL d   1      -1.533   2.726   0.330  0.00  0.00     0.076 C 
ATOM      6  C7  UNL d   1      -2.496   1.090  -1.311  0.00  0.00     0.002 A 
ATOM      7  C8  UNL d   1      -2.634  -0.203  -1.821  0.00  0.00     0.006 A 
ENDROOT
BRANCH   1   8
ATOM      8  C1  UNL d   1      -2.124  -2.673  -1.766  0.00  0.00     0.054 C 
ATOM      9  C   UNL d   1      -1.118  -3.016  -2.855  0.00  0.00     0.018 C 
ENDBRANCH   1   8
TORSDOF 1
ENDMDL
