MODEL 1
REMARK minimizedAffinity -0.765347838
REMARK minimizedRMSD -1
REMARK  1 active torsions:
REMARK  status: ('A' for Active; 'I' for Inactive)
REMARK    1  A    between atoms: C1_2  and  C2_3 
ROOT
ATOM      1  C2  UNL d   1       0.367   0.306   0.174  0.00  0.00    -0.081 A 
ATOM      2  C3  UNL d   1       0.901  -0.045  -1.072  0.00  0.00     0.006 A 
ATOM      3  C4  UNL d   1       0.382  -1.128  -1.785  0.00  0.00     0.002 A 
ATOM      4  C5  UNL d   1      -0.685  -1.872  -1.270  0.00  0.00    -0.080 A 
ATOM      5  C6  UNL d   1      -1.272  -3.018  -2.039  0.00  0.00     0.076 C 
ATOM      6  C7  UNL d   1      -1.208  -1.532  -0.018  0.00  0.00     0.002 A 
ATOM      7  C8  UNL d   1      -0.688  -0.449   0.697  0.00  0.00     0.006 A 
ENDROOT
BRANCH   1   8
ATOM      8  C1  UNL d   1       0.882   1.513   0.916  0.00  0.00     0.054 C 
ATOM      9  C   UNL d   1       2.403   1.534   0.949  0.00  0.00     0.018 C 
ENDBRANCH   1   8
TORSDOF 1
ENDMDL
