MODEL 1
REMARK minimizedAffinity -5.75680351
REMARK minimizedRMSD -1
REMARK  1 active torsions:
REMARK  status: ('A' for Active; 'I' for Inactive)
REMARK    1  A    between atoms: C1_2  and  C2_3 
ROOT
ATOM      1  C2  UNL d   1       0.211   0.197   0.559  0.00  0.00    -0.081 A 
ATOM      2  C3  UNL d   1       1.518   0.400   0.098  0.00  0.00     0.006 A 
ATOM      3  C4  UNL d   1       2.014   1.693  -0.079  0.00  0.00     0.002 A 
ATOM      4  C5  UNL d   1       1.216   2.805   0.209  0.00  0.00    -0.080 A 
ATOM      5  C6  UNL d   1       1.746   4.199   0.052  0.00  0.00     0.076 C 
ATOM      6  C7  UNL d   1      -0.096   2.603   0.653  0.00  0.00     0.002 A 
ATOM      7  C8  UNL d   1      -0.593   1.310   0.829  0.00  0.00     0.006 A 
ENDROOT
BRANCH   1   8
ATOM      8  C1  UNL d   1      -0.305  -1.196   0.812  0.00  0.00     0.054 C 
ATOM      9  C   UNL d   1      -0.593  -1.925  -0.493  0.00  0.00     0.018 C 
ENDBRANCH   1   8
TORSDOF 1
ENDMDL
