MODEL 1
REMARK minimizedAffinity -5.27635193
REMARK minimizedRMSD -1
REMARK  1 active torsions:
REMARK  status: ('A' for Active; 'I' for Inactive)
REMARK    1  A    between atoms: C1_2  and  C2_3 
ROOT
ATOM      1  C2  UNL d   1      -0.029   0.963   0.041  0.00  0.00    -0.081 A 
ATOM      2  C3  UNL d   1       1.149   1.243  -0.663  0.00  0.00     0.006 A 
ATOM      3  C4  UNL d   1       1.783   2.479  -0.517  0.00  0.00     0.002 A 
ATOM      4  C5  UNL d   1       1.256   3.451   0.340  0.00  0.00    -0.080 A 
ATOM      5  C6  UNL d   1       1.944   4.770   0.529  0.00  0.00     0.076 C 
ATOM      6  C7  UNL d   1       0.070   3.177   1.030  0.00  0.00     0.002 A 
ATOM      7  C8  UNL d   1      -0.565   1.942   0.884  0.00  0.00     0.006 A 
ENDROOT
BRANCH   1   8
ATOM      8  C1  UNL d   1      -0.680  -0.393  -0.065  0.00  0.00     0.054 C 
ATOM      9  C   UNL d   1       0.346  -1.479  -0.354  0.00  0.00     0.018 C 
ENDBRANCH   1   8
TORSDOF 1
ENDMDL
