MODEL 1
REMARK minimizedAffinity -6.02658176
REMARK minimizedRMSD -1
REMARK  1 active torsions:
REMARK  status: ('A' for Active; 'I' for Inactive)
REMARK    1  A    between atoms: C1_2  and  C2_3 
ROOT
ATOM      1  C2  UNL d   1      -0.329  -0.802   0.026  0.00  0.00    -0.081 A 
ATOM      2  C3  UNL d   1      -1.164   0.322   0.020  0.00  0.00     0.006 A 
ATOM      3  C4  UNL d   1      -0.622   1.606   0.116  0.00  0.00     0.002 A 
ATOM      4  C5  UNL d   1       0.762   1.788   0.212  0.00  0.00    -0.080 A 
ATOM      5  C6  UNL d   1       1.358   3.162   0.285  0.00  0.00     0.076 C 
ATOM      6  C7  UNL d   1       1.594   0.663   0.236  0.00  0.00     0.002 A 
ATOM      7  C8  UNL d   1       1.053  -0.621   0.141  0.00  0.00     0.006 A 
ENDROOT
BRANCH   1   8
ATOM      8  C1  UNL d   1      -0.906  -2.185  -0.142  0.00  0.00     0.054 C 
ATOM      9  C   UNL d   1      -0.535  -2.778  -1.494  0.00  0.00     0.018 C 
ENDBRANCH   1   8
TORSDOF 1
ENDMDL
