MODEL 1
REMARK minimizedAffinity -4.12115812
REMARK minimizedRMSD -1
REMARK  1 active torsions:
REMARK  status: ('A' for Active; 'I' for Inactive)
REMARK    1  A    between atoms: C1_2  and  C2_3 
ROOT
ATOM      1  C2  UNL d   1       1.634   2.433   1.000  0.00  0.00    -0.081 A 
ATOM      2  C3  UNL d   1       0.360   2.967   0.770  0.00  0.00     0.006 A 
ATOM      3  C4  UNL d   1      -0.714   2.129   0.462  0.00  0.00     0.002 A 
ATOM      4  C5  UNL d   1      -0.534   0.744   0.385  0.00  0.00    -0.080 A 
ATOM      5  C6  UNL d   1      -1.685  -0.170   0.084  0.00  0.00     0.076 C 
ATOM      6  C7  UNL d   1       0.742   0.211   0.597  0.00  0.00     0.002 A 
ATOM      7  C8  UNL d   1       1.817   1.049   0.905  0.00  0.00     0.006 A 
ENDROOT
BRANCH   1   8
ATOM      8  C1  UNL d   1       2.781   3.328   1.396  0.00  0.00     0.054 C 
ATOM      9  C   UNL d   1       3.605   2.708   2.515  0.00  0.00     0.018 C 
ENDBRANCH   1   8
TORSDOF 1
ENDMDL
