MODEL 1
REMARK minimizedAffinity -4.07893705
REMARK minimizedRMSD -1
REMARK  1 active torsions:
REMARK  status: ('A' for Active; 'I' for Inactive)
REMARK    1  A    between atoms: C1_2  and  C2_3 
ROOT
ATOM      1  C2  UNL d   1      -0.252   1.311   0.826  0.00  0.00    -0.081 A 
ATOM      2  C3  UNL d   1       0.832   0.564   0.348  0.00  0.00     0.006 A 
ATOM      3  C4  UNL d   1       0.687  -0.798   0.074  0.00  0.00     0.002 A 
ATOM      4  C5  UNL d   1      -0.545  -1.434   0.264  0.00  0.00    -0.080 A 
ATOM      5  C6  UNL d   1      -0.722  -2.888  -0.056  0.00  0.00     0.076 C 
ATOM      6  C7  UNL d   1      -1.623  -0.692   0.758  0.00  0.00     0.002 A 
ATOM      7  C8  UNL d   1      -1.478   0.670   1.034  0.00  0.00     0.006 A 
ENDROOT
BRANCH   1   8
ATOM      8  C1  UNL d   1      -0.116   2.793   1.062  0.00  0.00     0.054 C 
ATOM      9  C   UNL d   1       1.340   3.231   1.008  0.00  0.00     0.018 C 
ENDBRANCH   1   8
TORSDOF 1
ENDMDL
