MODEL 1
REMARK minimizedAffinity -2.27132344
REMARK minimizedRMSD -1
REMARK  1 active torsions:
REMARK  status: ('A' for Active; 'I' for Inactive)
REMARK    1  A    between atoms: C1_2  and  C2_3 
ROOT
ATOM      1  C2  UNL d   1      -0.805  -1.401  -0.191  0.00  0.00    -0.081 A 
ATOM      2  C3  UNL d   1      -1.986  -0.799   0.260  0.00  0.00     0.006 A 
ATOM      3  C4  UNL d   1      -1.992   0.541   0.655  0.00  0.00     0.002 A 
ATOM      4  C5  UNL d   1      -0.819   1.302   0.598  0.00  0.00    -0.080 A 
ATOM      5  C6  UNL d   1      -0.819   2.750   0.990  0.00  0.00     0.076 C 
ATOM      6  C7  UNL d   1       0.364   0.696   0.164  0.00  0.00     0.002 A 
ATOM      7  C8  UNL d   1       0.371  -0.644  -0.230  0.00  0.00     0.006 A 
ENDROOT
BRANCH   1   8
ATOM      8  C1  UNL d   1      -0.810  -2.828  -0.678  0.00  0.00     0.054 C 
ATOM      9  C   UNL d   1      -1.002  -2.896  -2.187  0.00  0.00     0.018 C 
ENDBRANCH   1   8
TORSDOF 1
ENDMDL
