MODEL 1
REMARK minimizedAffinity -5.20868301
REMARK minimizedRMSD -1
REMARK  1 active torsions:
REMARK  status: ('A' for Active; 'I' for Inactive)
REMARK    1  A    between atoms: C1_2  and  C2_3 
ROOT
ATOM      1  C2  UNL d   1       0.081  -0.182  -0.322  0.00  0.00    -0.081 A 
ATOM      2  C3  UNL d   1      -0.911   0.797  -0.181  0.00  0.00     0.006 A 
ATOM      3  C4  UNL d   1      -0.563   2.142  -0.035  0.00  0.00     0.002 A 
ATOM      4  C5  UNL d   1       0.780   2.532  -0.036  0.00  0.00    -0.080 A 
ATOM      5  C6  UNL d   1       1.166   3.975   0.089  0.00  0.00     0.076 C 
ATOM      6  C7  UNL d   1       1.772   1.552  -0.160  0.00  0.00     0.002 A 
ATOM      7  C8  UNL d   1       1.424   0.207  -0.305  0.00  0.00     0.006 A 
ENDROOT
BRANCH   1   8
ATOM      8  C1  UNL d   1      -0.293  -1.625  -0.545  0.00  0.00     0.054 C 
ATOM      9  C   UNL d   1      -0.093  -2.031  -1.998  0.00  0.00     0.018 C 
ENDBRANCH   1   8
TORSDOF 1
ENDMDL
