MODEL 1
REMARK minimizedAffinity -4.21787024
REMARK minimizedRMSD -1
REMARK  1 active torsions:
REMARK  status: ('A' for Active; 'I' for Inactive)
REMARK    1  A    between atoms: C1_2  and  C2_3 
ROOT
ATOM      1  C2  UNL d   1      -0.867  -1.602  -1.281  0.00  0.00    -0.081 A 
ATOM      2  C3  UNL d   1      -1.467  -0.358  -1.509  0.00  0.00     0.006 A 
ATOM      3  C4  UNL d   1      -1.181   0.729  -0.680  0.00  0.00     0.002 A 
ATOM      4  C5  UNL d   1      -0.284   0.593   0.385  0.00  0.00    -0.080 A 
ATOM      5  C6  UNL d   1       0.055   1.760   1.265  0.00  0.00     0.076 C 
ATOM      6  C7  UNL d   1       0.302  -0.654   0.624  0.00  0.00     0.002 A 
ATOM      7  C8  UNL d   1       0.016  -1.742  -0.204  0.00  0.00     0.006 A 
ENDROOT
BRANCH   1   8
ATOM      8  C1  UNL d   1      -1.124  -2.759  -2.212  0.00  0.00     0.054 C 
ATOM      9  C   UNL d   1      -1.079  -4.087  -1.470  0.00  0.00     0.018 C 
ENDBRANCH   1   8
TORSDOF 1
ENDMDL
