MODEL 1
REMARK minimizedAffinity -5.08623219
REMARK minimizedRMSD -1
REMARK  1 active torsions:
REMARK  status: ('A' for Active; 'I' for Inactive)
REMARK    1  A    between atoms: C1_2  and  C2_3 
ROOT
ATOM      1  C2  UNL d   1      -0.077  -1.063   0.018  0.00  0.00    -0.081 A 
ATOM      2  C3  UNL d   1      -1.098  -0.140   0.276  0.00  0.00     0.006 A 
ATOM      3  C4  UNL d   1      -0.816   1.226   0.348  0.00  0.00     0.002 A 
ATOM      4  C5  UNL d   1       0.489   1.692   0.155  0.00  0.00    -0.080 A 
ATOM      5  C6  UNL d   1       0.800   3.159   0.200  0.00  0.00     0.076 C 
ATOM      6  C7  UNL d   1       1.512   0.769  -0.085  0.00  0.00     0.002 A 
ATOM      7  C8  UNL d   1       1.230  -0.598  -0.156  0.00  0.00     0.006 A 
ENDROOT
BRANCH   1   8
ATOM      8  C1  UNL d   1      -0.389  -2.531  -0.125  0.00  0.00     0.054 C 
ATOM      9  C   UNL d   1      -0.118  -3.020  -1.540  0.00  0.00     0.018 C 
ENDBRANCH   1   8
TORSDOF 1
ENDMDL
