MODEL 1
REMARK minimizedAffinity -4.89478636
REMARK minimizedRMSD -1
REMARK  1 active torsions:
REMARK  status: ('A' for Active; 'I' for Inactive)
REMARK    1  A    between atoms: C1_2  and  C2_3 
ROOT
ATOM      1  C2  UNL d   1       0.826   2.564   0.688  0.00  0.00    -0.081 A 
ATOM      2  C3  UNL d   1       2.147   2.405   1.123  0.00  0.00     0.006 A 
ATOM      3  C4  UNL d   1       2.741   1.141   1.136  0.00  0.00     0.002 A 
ATOM      4  C5  UNL d   1       2.027   0.017   0.706  0.00  0.00    -0.080 A 
ATOM      5  C6  UNL d   1       2.663  -1.341   0.686  0.00  0.00     0.076 C 
ATOM      6  C7  UNL d   1       0.702   0.173   0.288  0.00  0.00     0.002 A 
ATOM      7  C8  UNL d   1       0.107   1.437   0.276  0.00  0.00     0.006 A 
ENDROOT
BRANCH   1   8
ATOM      8  C1  UNL d   1       0.204   3.935   0.612  0.00  0.00     0.054 C 
ATOM      9  C   UNL d   1       1.248   5.000   0.307  0.00  0.00     0.018 C 
ENDBRANCH   1   8
TORSDOF 1
ENDMDL
