MODEL 1
REMARK minimizedAffinity -5.26019573
REMARK minimizedRMSD -1
REMARK  2 active torsions:
REMARK  status: ('A' for Active; 'I' for Inactive)
REMARK    1  A    between atoms: C2'_3  and  C1'_4 
REMARK    2  A    between atoms: C1'_4  and  C1_5 
ROOT
ATOM      1  C1  I4B d   1      -1.058  -0.178   0.219  0.00  0.00    -0.075 A 
ATOM      2  C2  I4B d   1      -0.671  -1.393   0.727  0.00  0.00     0.003 A 
ATOM      3  C3  I4B d   1       0.667  -1.598   1.143  0.00  0.00     0.002 A 
ATOM      4  C4  I4B d   1       1.590  -0.584   0.987  0.00  0.00    -0.004 A 
ATOM      5  C5  I4B d   1       1.190   0.655   0.493  0.00  0.00     0.002 A 
ATOM      6  C6  I4B d   1      -0.145   0.863   0.118  0.00  0.00     0.003 A 
ENDROOT
BRANCH   1   7
ATOM      7  C1' I4B d   1      -2.471  -0.006  -0.241  0.00  0.00     0.060 C 
BRANCH   7   8
ATOM      8  C2' I4B d   1      -2.441   0.391  -1.703  0.00  0.00    -0.013 C 
ATOM      9  C4' I4B d   1      -2.852  -0.756  -2.588  0.00  0.00     0.013 C 
ATOM     10  C3' I4B d   1      -3.354   1.567  -1.882  0.00  0.00     0.013 C 
ENDBRANCH   7   8
ENDBRANCH   1   7
TORSDOF 2
ENDMDL
