MODEL 1
REMARK minimizedAffinity -2.43306661
REMARK minimizedRMSD -1
REMARK  2 active torsions:
REMARK  status: ('A' for Active; 'I' for Inactive)
REMARK    1  A    between atoms: C2'_3  and  C1'_4 
REMARK    2  A    between atoms: C1'_4  and  C1_5 
ROOT
ATOM      1  C1  I4B d   1      -0.959   0.371  -0.007  0.00  0.00    -0.075 A 
ATOM      2  C2  I4B d   1      -0.171  -0.689   0.368  0.00  0.00     0.003 A 
ATOM      3  C3  I4B d   1       1.176  -0.477   0.748  0.00  0.00     0.002 A 
ATOM      4  C4  I4B d   1       1.706   0.796   0.691  0.00  0.00    -0.004 A 
ATOM      5  C5  I4B d   1       0.900   1.873   0.334  0.00  0.00     0.002 A 
ATOM      6  C6  I4B d   1      -0.444   1.662  -0.006  0.00  0.00     0.003 A 
ENDROOT
BRANCH   1   7
ATOM      7  C1' I4B d   1      -2.368   0.107  -0.434  0.00  0.00     0.060 C 
BRANCH   7   8
ATOM      8  C2' I4B d   1      -2.463   0.377  -1.922  0.00  0.00    -0.013 C 
ATOM      9  C4' I4B d   1      -2.906  -0.851  -2.672  0.00  0.00     0.013 C 
ATOM     10  C3' I4B d   1      -3.422   1.512  -2.126  0.00  0.00     0.013 C 
ENDBRANCH   7   8
ENDBRANCH   1   7
TORSDOF 2
ENDMDL
