MODEL 1
REMARK minimizedAffinity -4.93935776
REMARK minimizedRMSD -1
REMARK  2 active torsions:
REMARK  status: ('A' for Active; 'I' for Inactive)
REMARK    1  A    between atoms: C2'_3  and  C1'_4 
REMARK    2  A    between atoms: C1'_4  and  C1_5 
ROOT
ATOM      1  C1  I4B d   1      -0.469  -0.052  -0.232  0.00  0.00    -0.075 A 
ATOM      2  C2  I4B d   1       0.240   1.109  -0.050  0.00  0.00     0.003 A 
ATOM      3  C3  I4B d   1       1.631   1.062   0.212  0.00  0.00     0.002 A 
ATOM      4  C4  I4B d   1       2.258  -0.160   0.334  0.00  0.00    -0.004 A 
ATOM      5  C5  I4B d   1       1.543  -1.336   0.127  0.00  0.00     0.002 A 
ATOM      6  C6  I4B d   1       0.173  -1.282  -0.170  0.00  0.00     0.003 A 
ENDROOT
BRANCH   1   7
ATOM      7  C1' I4B d   1      -1.942   0.033  -0.475  0.00  0.00     0.060 C 
BRANCH   7   8
ATOM      8  C2' I4B d   1      -2.162   0.178  -1.967  0.00  0.00    -0.013 C 
ATOM      9  C4' I4B d   1      -2.396  -1.160  -2.616  0.00  0.00     0.013 C 
ATOM     10  C3' I4B d   1      -3.331   1.094  -2.176  0.00  0.00     0.013 C 
ENDBRANCH   7   8
ENDBRANCH   1   7
TORSDOF 2
ENDMDL
