MODEL 1
REMARK minimizedAffinity -4.76879072
REMARK minimizedRMSD -1
REMARK  2 active torsions:
REMARK  status: ('A' for Active; 'I' for Inactive)
REMARK    1  A    between atoms: C2'_3  and  C1'_4 
REMARK    2  A    between atoms: C1'_4  and  C1_5 
ROOT
ATOM      1  C1  I4B d   1       0.648   0.209   0.825  0.00  0.00    -0.075 A 
ATOM      2  C2  I4B d   1       1.885   0.303   1.411  0.00  0.00     0.003 A 
ATOM      3  C3  I4B d   1       2.366  -0.745   2.234  0.00  0.00     0.002 A 
ATOM      4  C4  I4B d   1       1.561  -1.837   2.483  0.00  0.00    -0.004 A 
ATOM      5  C5  I4B d   1       0.316  -1.942   1.869  0.00  0.00     0.002 A 
ATOM      6  C6  I4B d   1      -0.139  -0.918   1.025  0.00  0.00     0.003 A 
ENDROOT
BRANCH   1   7
ATOM      7  C1' I4B d   1       0.158   1.348  -0.012  0.00  0.00     0.060 C 
BRANCH   7   8
ATOM      8  C2' I4B d   1       0.632   2.636   0.631  0.00  0.00    -0.013 C 
ATOM      9  C4' I4B d   1       1.457   3.453  -0.329  0.00  0.00     0.013 C 
ATOM     10  C3' I4B d   1      -0.577   3.396   1.089  0.00  0.00     0.013 C 
ENDBRANCH   7   8
ENDBRANCH   1   7
TORSDOF 2
ENDMDL
