MODEL 1
REMARK minimizedAffinity -4.67737532
REMARK minimizedRMSD -1
REMARK  2 active torsions:
REMARK  status: ('A' for Active; 'I' for Inactive)
REMARK    1  A    between atoms: C2'_3  and  C1'_4 
REMARK    2  A    between atoms: C1'_4  and  C1_5 
ROOT
ATOM      1  C1  I4B d   1      -0.159  -0.177  -0.101  0.00  0.00    -0.075 A 
ATOM      2  C2  I4B d   1       0.101   0.942   0.651  0.00  0.00     0.003 A 
ATOM      3  C3  I4B d   1       1.436   1.308   0.946  0.00  0.00     0.002 A 
ATOM      4  C4  I4B d   1       2.472   0.505   0.515  0.00  0.00    -0.004 A 
ATOM      5  C5  I4B d   1       2.209  -0.615  -0.267  0.00  0.00     0.002 A 
ATOM      6  C6  I4B d   1       0.886  -0.952  -0.588  0.00  0.00     0.003 A 
ENDROOT
BRANCH   1   7
ATOM      7  C1' I4B d   1      -1.582  -0.553  -0.367  0.00  0.00     0.060 C 
BRANCH   7   8
ATOM      8  C2' I4B d   1      -1.780  -0.601  -1.868  0.00  0.00    -0.013 C 
ATOM      9  C4' I4B d   1      -2.397  -1.907  -2.295  0.00  0.00     0.013 C 
ATOM     10  C3' I4B d   1      -2.646   0.560  -2.258  0.00  0.00     0.013 C 
ENDBRANCH   7   8
ENDBRANCH   1   7
TORSDOF 2
ENDMDL
