MODEL 1
REMARK minimizedAffinity -2.65838981
REMARK minimizedRMSD -1
REMARK  2 active torsions:
REMARK  status: ('A' for Active; 'I' for Inactive)
REMARK    1  A    between atoms: C2'_3  and  C1'_4 
REMARK    2  A    between atoms: C1'_4  and  C1_5 
ROOT
ATOM      1  C1  I4B d   1      -0.280   0.064  -0.187  0.00  0.00    -0.075 A 
ATOM      2  C2  I4B d   1       0.359  -1.001   0.397  0.00  0.00     0.003 A 
ATOM      3  C3  I4B d   1       1.673  -0.852   0.904  0.00  0.00     0.002 A 
ATOM      4  C4  I4B d   1       2.324   0.356   0.762  0.00  0.00    -0.004 A 
ATOM      5  C5  I4B d   1       1.665   1.441   0.191  0.00  0.00     0.002 A 
ATOM      6  C6  I4B d   1       0.350   1.298  -0.276  0.00  0.00     0.003 A 
ENDROOT
BRANCH   1   7
ATOM      7  C1' I4B d   1      -1.655  -0.137  -0.741  0.00  0.00     0.060 C 
BRANCH   7   8
ATOM      8  C2' I4B d   1      -1.531  -0.324  -2.239  0.00  0.00    -0.013 C 
ATOM      9  C4' I4B d   1      -1.591  -1.782  -2.613  0.00  0.00     0.013 C 
ATOM     10  C3' I4B d   1      -2.636   0.449  -2.895  0.00  0.00     0.013 C 
ENDBRANCH   7   8
ENDBRANCH   1   7
TORSDOF 2
ENDMDL
