MODEL 1
REMARK minimizedAffinity 7.54711771
REMARK minimizedRMSD -1
REMARK  0 active torsions:
REMARK  status: ('A' for Active; 'I' for Inactive)
ROOT
ATOM      1  C   UNL d   1       2.224  -0.499   2.541  0.00  0.00     0.077 C 
ATOM      2  C1  UNL d   1       0.821   0.013   2.682  0.00  0.00    -0.074 A 
ATOM      3  C2  UNL d   1      -0.211  -0.829   3.109  0.00  0.00    -0.005 A 
ATOM      4  C3  UNL d   1      -1.509  -0.336   3.244  0.00  0.00     0.006 A 
ATOM      5  C4  UNL d   1      -1.788   1.000   2.954  0.00  0.00    -0.005 A 
ATOM      6  C5  UNL d   1      -0.768   1.856   2.527  0.00  0.00    -0.074 A 
ATOM      7  C6  UNL d   1      -1.048   3.298   2.220  0.00  0.00     0.077 C 
ATOM      8  C7  UNL d   1       0.535   1.356   2.400  0.00  0.00    -0.001 A 
ENDROOT
TORSDOF 0
ENDMDL
