MODEL 1
REMARK minimizedAffinity 4.58347416
REMARK minimizedRMSD -1
REMARK  0 active torsions:
REMARK  status: ('A' for Active; 'I' for Inactive)
ROOT
ATOM      1  C   UNL d   1       0.931  -0.299   1.860  0.00  0.00     0.077 C 
ATOM      2  C1  UNL d   1      -0.400   0.391   1.890  0.00  0.00    -0.074 A 
ATOM      3  C2  UNL d   1      -0.800   1.133   3.007  0.00  0.00    -0.005 A 
ATOM      4  C3  UNL d   1      -2.037   1.777   3.017  0.00  0.00     0.006 A 
ATOM      5  C4  UNL d   1      -2.885   1.688   1.913  0.00  0.00    -0.005 A 
ATOM      6  C5  UNL d   1      -2.501   0.952   0.787  0.00  0.00    -0.074 A 
ATOM      7  C6  UNL d   1      -3.397   0.853  -0.412  0.00  0.00     0.077 C 
ATOM      8  C7  UNL d   1      -1.254   0.313   0.782  0.00  0.00    -0.001 A 
ENDROOT
TORSDOF 0
ENDMDL
