MODEL 1
REMARK minimizedAffinity 0.128033608
REMARK minimizedRMSD -1
REMARK  0 active torsions:
REMARK  status: ('A' for Active; 'I' for Inactive)
ROOT
ATOM      1  C   UNL d   1       1.187  -0.375   0.303  0.00  0.00     0.077 C 
ATOM      2  C1  UNL d   1       0.048   0.067   1.173  0.00  0.00    -0.074 A 
ATOM      3  C2  UNL d   1      -1.278  -0.161   0.791  0.00  0.00    -0.005 A 
ATOM      4  C3  UNL d   1      -2.327   0.247   1.615  0.00  0.00     0.006 A 
ATOM      5  C4  UNL d   1      -2.061   0.886   2.827  0.00  0.00    -0.005 A 
ATOM      6  C5  UNL d   1      -0.742   1.122   3.225  0.00  0.00    -0.074 A 
ATOM      7  C6  UNL d   1      -0.438   1.798   4.529  0.00  0.00     0.077 C 
ATOM      8  C7  UNL d   1       0.307   0.702   2.395  0.00  0.00    -0.001 A 
ENDROOT
TORSDOF 0
ENDMDL
