MODEL 1
REMARK minimizedAffinity 8.35771179
REMARK minimizedRMSD -1
REMARK  0 active torsions:
REMARK  status: ('A' for Active; 'I' for Inactive)
ROOT
ATOM      1  C   UNL d   1      -3.632   1.682  -0.311  0.00  0.00     0.077 C 
ATOM      2  C1  UNL d   1      -2.620   0.874   0.447  0.00  0.00    -0.074 A 
ATOM      3  C2  UNL d   1      -2.293   1.189   1.769  0.00  0.00    -0.005 A 
ATOM      4  C3  UNL d   1      -1.358   0.422   2.464  0.00  0.00     0.006 A 
ATOM      5  C4  UNL d   1      -0.741  -0.665   1.845  0.00  0.00    -0.005 A 
ATOM      6  C5  UNL d   1      -1.055  -0.996   0.523  0.00  0.00    -0.074 A 
ATOM      7  C6  UNL d   1      -0.409  -2.167  -0.155  0.00  0.00     0.077 C 
ATOM      8  C7  UNL d   1      -2.002  -0.225  -0.167  0.00  0.00    -0.001 A 
ENDROOT
TORSDOF 0
ENDMDL
