MODEL 1
REMARK minimizedAffinity -2.73373604
REMARK minimizedRMSD -1
REMARK  0 active torsions:
REMARK  status: ('A' for Active; 'I' for Inactive)
ROOT
ATOM      1  C   UNL d   1      -3.020   1.143  -0.117  0.00  0.00     0.077 C 
ATOM      2  C1  UNL d   1      -3.877   2.266  -0.621  0.00  0.00    -0.074 A 
ATOM      3  C2  UNL d   1      -5.212   2.049  -0.975  0.00  0.00    -0.005 A 
ATOM      4  C3  UNL d   1      -5.999   3.106  -1.433  0.00  0.00     0.006 A 
ATOM      5  C4  UNL d   1      -5.459   4.388  -1.541  0.00  0.00    -0.005 A 
ATOM      6  C5  UNL d   1      -4.126   4.625  -1.190  0.00  0.00    -0.074 A 
ATOM      7  C6  UNL d   1      -3.534   5.999  -1.291  0.00  0.00     0.077 C 
ATOM      8  C7  UNL d   1      -3.344   3.559  -0.725  0.00  0.00    -0.001 A 
ENDROOT
TORSDOF 0
ENDMDL
