MODEL 1
REMARK minimizedAffinity -1.32710528
REMARK minimizedRMSD -1
REMARK  0 active torsions:
REMARK  status: ('A' for Active; 'I' for Inactive)
ROOT
ATOM      1  C   UNL d   1       2.981  -0.628   2.035  0.00  0.00     0.077 C 
ATOM      2  C1  UNL d   1       1.851   0.306   2.352  0.00  0.00    -0.074 A 
ATOM      3  C2  UNL d   1       2.090   1.542   2.960  0.00  0.00    -0.005 A 
ATOM      4  C3  UNL d   1       1.031   2.405   3.241  0.00  0.00     0.006 A 
ATOM      5  C4  UNL d   1      -0.277   2.040   2.917  0.00  0.00    -0.005 A 
ATOM      6  C5  UNL d   1      -0.535   0.808   2.308  0.00  0.00    -0.074 A 
ATOM      7  C6  UNL d   1      -1.933   0.404   1.945  0.00  0.00     0.077 C 
ATOM      8  C7  UNL d   1       0.536  -0.050   2.023  0.00  0.00    -0.001 A 
ENDROOT
TORSDOF 0
ENDMDL
