MODEL 1
REMARK minimizedAffinity 4.52072334
REMARK minimizedRMSD -1
REMARK  0 active torsions:
REMARK  status: ('A' for Active; 'I' for Inactive)
ROOT
ATOM      1  C   UNL d   1      -0.432   2.352   3.985  0.00  0.00     0.077 C 
ATOM      2  C1  UNL d   1      -0.575   1.348   2.880  0.00  0.00    -0.074 A 
ATOM      3  C2  UNL d   1      -1.838   0.922   2.455  0.00  0.00    -0.005 A 
ATOM      4  C3  UNL d   1      -1.955  -0.006   1.420  0.00  0.00     0.006 A 
ATOM      5  C4  UNL d   1      -0.813  -0.516   0.800  0.00  0.00    -0.005 A 
ATOM      6  C5  UNL d   1       0.457  -0.100   1.211  0.00  0.00    -0.074 A 
ATOM      7  C6  UNL d   1       1.694  -0.631   0.549  0.00  0.00     0.077 C 
ATOM      8  C7  UNL d   1       0.567   0.837   2.247  0.00  0.00    -0.001 A 
ENDROOT
TORSDOF 0
ENDMDL
