MODEL 1
REMARK minimizedAffinity 4.98116636
REMARK minimizedRMSD -1
REMARK  0 active torsions:
REMARK  status: ('A' for Active; 'I' for Inactive)
ROOT
ATOM      1  C   UNL d   1      -1.162  -2.146  -0.941  0.00  0.00     0.077 C 
ATOM      2  C1  UNL d   1      -1.714  -1.630   0.355  0.00  0.00    -0.074 A 
ATOM      3  C2  UNL d   1      -2.635  -2.379   1.093  0.00  0.00    -0.005 A 
ATOM      4  C3  UNL d   1      -3.132  -1.890   2.301  0.00  0.00     0.006 A 
ATOM      5  C4  UNL d   1      -2.715  -0.648   2.782  0.00  0.00    -0.005 A 
ATOM      6  C5  UNL d   1      -1.794   0.115   2.057  0.00  0.00    -0.074 A 
ATOM      7  C6  UNL d   1      -1.327   1.447   2.564  0.00  0.00     0.077 C 
ATOM      8  C7  UNL d   1      -1.293  -0.387   0.848  0.00  0.00    -0.001 A 
ENDROOT
TORSDOF 0
ENDMDL
