MODEL 1
REMARK minimizedAffinity 12.4287262
REMARK minimizedRMSD -1
REMARK  0 active torsions:
REMARK  status: ('A' for Active; 'I' for Inactive)
ROOT
ATOM      1  C   UNL d   1      -4.309   1.738  -0.215  0.00  0.00     0.077 C 
ATOM      2  C1  UNL d   1      -3.235   1.170   0.664  0.00  0.00    -0.074 A 
ATOM      3  C2  UNL d   1      -2.370   2.007   1.376  0.00  0.00    -0.005 A 
ATOM      4  C3  UNL d   1      -1.382   1.464   2.196  0.00  0.00     0.006 A 
ATOM      5  C4  UNL d   1      -1.248   0.079   2.313  0.00  0.00    -0.005 A 
ATOM      6  C5  UNL d   1      -2.104  -0.774   1.609  0.00  0.00    -0.074 A 
ATOM      7  C6  UNL d   1      -1.980  -2.264   1.731  0.00  0.00     0.077 C 
ATOM      8  C7  UNL d   1      -3.099  -0.220   0.792  0.00  0.00    -0.001 A 
ENDROOT
TORSDOF 0
ENDMDL
