MODEL 1
REMARK minimizedAffinity 5.96676159
REMARK minimizedRMSD -1
REMARK  0 active torsions:
REMARK  status: ('A' for Active; 'I' for Inactive)
ROOT
ATOM      1  C   UNL d   1       3.554  -0.352   2.906  0.00  0.00     0.077 C 
ATOM      2  C1  UNL d   1       2.265  -0.379   2.141  0.00  0.00    -0.074 A 
ATOM      3  C2  UNL d   1       2.225  -0.824   0.815  0.00  0.00    -0.005 A 
ATOM      4  C3  UNL d   1       1.017  -0.853   0.119  0.00  0.00     0.006 A 
ATOM      5  C4  UNL d   1      -0.162  -0.437   0.740  0.00  0.00    -0.005 A 
ATOM      6  C5  UNL d   1      -0.142   0.010   2.065  0.00  0.00    -0.074 A 
ATOM      7  C6  UNL d   1      -1.401   0.451   2.750  0.00  0.00     0.077 C 
ATOM      8  C7  UNL d   1       1.075   0.029   2.760  0.00  0.00    -0.001 A 
ENDROOT
TORSDOF 0
ENDMDL
