MODEL 1
REMARK minimizedAffinity 11.4478779
REMARK minimizedRMSD -1
REMARK  0 active torsions:
REMARK  status: ('A' for Active; 'I' for Inactive)
ROOT
ATOM      1  C   UNL d   1       2.564  -2.899   0.735  0.00  0.00     0.124 A 
ATOM      2  C1  UNL d   1       2.827  -3.099  -0.613  0.00  0.00     0.062 A 
ATOM      3  C2  UNL d   1       2.687  -2.049  -1.517  0.00  0.00     0.162 A 
ATOM      4  C3  UNL d   1       2.283  -0.790  -1.075  0.00  0.00    -0.034 A 
ATOM      5  C4  UNL d   1       2.019  -0.597   0.282  0.00  0.00     0.162 A 
ATOM      6  C5  UNL d   1       2.160  -1.649   1.181  0.00  0.00     0.062 A 
ATOM      7  F   UNL d   1       1.905  -1.454   2.483  0.00  0.00    -0.097 F 
ATOM      8  F1  UNL d   1       1.629   0.602   0.741  0.00  0.00    -0.096 F 
ATOM      9  I   UNL d   1       2.073   0.782  -2.422  0.00  0.00    -0.060 I 
ATOM     10  F2  UNL d   1       2.949  -2.271  -2.813  0.00  0.00    -0.096 F 
ATOM     11  F3  UNL d   1       3.216  -4.306  -1.047  0.00  0.00    -0.097 F 
ATOM     12  F4  UNL d   1       2.698  -3.911   1.602  0.00  0.00    -0.092 F 
ENDROOT
TORSDOF 0
ENDMDL
