MODEL 1
REMARK minimizedAffinity 15.3018951
REMARK minimizedRMSD -1
REMARK  0 active torsions:
REMARK  status: ('A' for Active; 'I' for Inactive)
ROOT
ATOM      1  C   UNL d   1       0.594  -1.424  -0.509  0.00  0.00     0.124 A 
ATOM      2  C1  UNL d   1       0.038  -1.309   0.758  0.00  0.00     0.062 A 
ATOM      3  C2  UNL d   1       0.845  -1.399   1.888  0.00  0.00     0.162 A 
ATOM      4  C3  UNL d   1       2.218  -1.604   1.757  0.00  0.00    -0.034 A 
ATOM      5  C4  UNL d   1       2.771  -1.719   0.480  0.00  0.00     0.162 A 
ATOM      6  C5  UNL d   1       1.960  -1.628  -0.646  0.00  0.00     0.062 A 
ATOM      7  F   UNL d   1       2.500  -1.739  -1.869  0.00  0.00    -0.097 F 
ATOM      8  F1  UNL d   1       4.088  -1.916   0.319  0.00  0.00    -0.096 F 
ATOM      9  I   UNL d   1       3.429  -1.738   3.445  0.00  0.00    -0.060 I 
ATOM     10  F2  UNL d   1       0.280  -1.285   3.099  0.00  0.00    -0.096 F 
ATOM     11  F3  UNL d   1      -1.282  -1.113   0.893  0.00  0.00    -0.097 F 
ATOM     12  F4  UNL d   1      -0.185  -1.338  -1.594  0.00  0.00    -0.092 F 
ENDROOT
TORSDOF 0
ENDMDL
