MODEL 1
REMARK minimizedAffinity 10.1946764
REMARK minimizedRMSD -1
REMARK  0 active torsions:
REMARK  status: ('A' for Active; 'I' for Inactive)
ROOT
ATOM      1  C   UNL d   1       2.665  -2.461   0.718  0.00  0.00     0.124 A 
ATOM      2  C1  UNL d   1       2.703  -2.306   2.096  0.00  0.00     0.062 A 
ATOM      3  C2  UNL d   1       1.661  -1.664   2.758  0.00  0.00     0.162 A 
ATOM      4  C3  UNL d   1       0.570  -1.171   2.042  0.00  0.00    -0.034 A 
ATOM      5  C4  UNL d   1       0.539  -1.329   0.655  0.00  0.00     0.162 A 
ATOM      6  C5  UNL d   1       1.583  -1.972  -0.002  0.00  0.00     0.062 A 
ATOM      7  F   UNL d   1       1.544  -2.120  -1.334  0.00  0.00    -0.097 F 
ATOM      8  F1  UNL d   1      -0.494  -0.867  -0.064  0.00  0.00    -0.096 F 
ATOM      9  I   UNL d   1      -0.990  -0.209   3.028  0.00  0.00    -0.060 I 
ATOM     10  F2  UNL d   1       1.725  -1.529   4.091  0.00  0.00    -0.096 F 
ATOM     11  F3  UNL d   1       3.748  -2.777   2.793  0.00  0.00    -0.097 F 
ATOM     12  F4  UNL d   1       3.669  -3.079   0.083  0.00  0.00    -0.092 F 
ENDROOT
TORSDOF 0
ENDMDL
