MODEL 1
REMARK minimizedAffinity 9.86563015
REMARK minimizedRMSD -1
REMARK  0 active torsions:
REMARK  status: ('A' for Active; 'I' for Inactive)
ROOT
ATOM      1  C   UNL d   1       3.037  -1.964   0.609  0.00  0.00     0.124 A 
ATOM      2  C1  UNL d   1       1.910  -1.594  -0.111  0.00  0.00     0.062 A 
ATOM      3  C2  UNL d   1       0.755  -1.191   0.553  0.00  0.00     0.162 A 
ATOM      4  C3  UNL d   1       0.722  -1.154   1.948  0.00  0.00    -0.034 A 
ATOM      5  C4  UNL d   1       1.860  -1.528   2.665  0.00  0.00     0.162 A 
ATOM      6  C5  UNL d   1       3.011  -1.931   1.996  0.00  0.00     0.062 A 
ATOM      7  F   UNL d   1       4.099  -2.288   2.694  0.00  0.00    -0.097 F 
ATOM      8  F1  UNL d   1       1.862  -1.505   4.006  0.00  0.00    -0.096 F 
ATOM      9  I   UNL d   1      -1.002  -0.551   2.945  0.00  0.00    -0.060 I 
ATOM     10  F2  UNL d   1      -0.319  -0.839  -0.168  0.00  0.00    -0.096 F 
ATOM     11  F3  UNL d   1       1.932  -1.627  -1.451  0.00  0.00    -0.097 F 
ATOM     12  F4  UNL d   1       4.146  -2.353  -0.033  0.00  0.00    -0.092 F 
ENDROOT
TORSDOF 0
ENDMDL
