MODEL 1
REMARK minimizedAffinity 13.2257462
REMARK minimizedRMSD -1
REMARK  0 active torsions:
REMARK  status: ('A' for Active; 'I' for Inactive)
ROOT
ATOM      1  C   UNL d   1       2.847  -2.179   1.472  0.00  0.00     0.124 A 
ATOM      2  C1  UNL d   1       2.370  -0.912   1.780  0.00  0.00     0.062 A 
ATOM      3  C2  UNL d   1       1.916  -0.070   0.768  0.00  0.00     0.162 A 
ATOM      4  C3  UNL d   1       1.935  -0.493  -0.561  0.00  0.00    -0.034 A 
ATOM      5  C4  UNL d   1       2.417  -1.768  -0.862  0.00  0.00     0.162 A 
ATOM      6  C5  UNL d   1       2.870  -2.606   0.152  0.00  0.00     0.062 A 
ATOM      7  F   UNL d   1       3.330  -3.829  -0.147  0.00  0.00    -0.097 F 
ATOM      8  F1  UNL d   1       2.450  -2.207  -2.129  0.00  0.00    -0.096 F 
ATOM      9  I   UNL d   1       1.257   0.762  -2.076  0.00  0.00    -0.060 I 
ATOM     10  F2  UNL d   1       1.461   1.148   1.094  0.00  0.00    -0.096 F 
ATOM     11  F3  UNL d   1       2.348  -0.496   3.054  0.00  0.00    -0.097 F 
ATOM     12  F4  UNL d   1       3.285  -2.986   2.447  0.00  0.00    -0.092 F 
ENDROOT
TORSDOF 0
ENDMDL
