MODEL 1
REMARK minimizedAffinity 15.4058371
REMARK minimizedRMSD -1
REMARK  0 active torsions:
REMARK  status: ('A' for Active; 'I' for Inactive)
ROOT
ATOM      1  O1  BZF d   1       1.012   3.112  -1.832  0.00  0.00    -0.204 OA
ATOM      2  C2  BZF d   1       2.224   2.522  -1.529  0.00  0.00     0.174 A 
ATOM      3  C3  BZF d   1       2.466   2.579  -0.204  0.00  0.00    -0.012 A 
ATOM      4  C3A BZF d   1       1.292   3.164   0.368  0.00  0.00    -0.107 A 
ATOM      5  C4  BZF d   1       0.922   3.467   1.647  0.00  0.00     0.055 A 
ATOM      6  C5  BZF d   1      -0.262   4.099   1.860  0.00  0.00    -0.016 A 
ATOM      7  C6  BZF d   1      -1.097   4.447   0.818  0.00  0.00     0.022 A 
ATOM      8  C7  BZF d   1      -0.775   4.163  -0.468  0.00  0.00     0.029 A 
ATOM      9  C7A BZF d   1       0.406   3.495  -0.683  0.00  0.00     0.058 A 
ENDROOT
TORSDOF 0
ENDMDL
