MODEL 1
REMARK minimizedAffinity 5.74362373
REMARK minimizedRMSD -1
REMARK  0 active torsions:
REMARK  status: ('A' for Active; 'I' for Inactive)
ROOT
ATOM      1  O1  BZF d   1       1.673   2.081  -5.998  0.00  0.00    -0.204 OA
ATOM      2  C2  BZF d   1       2.937   1.523  -5.979  0.00  0.00     0.174 A 
ATOM      3  C3  BZF d   1       3.883   2.484  -6.000  0.00  0.00    -0.012 A 
ATOM      4  C3A BZF d   1       3.166   3.720  -5.940  0.00  0.00    -0.107 A 
ATOM      5  C4  BZF d   1       3.553   5.030  -5.913  0.00  0.00     0.055 A 
ATOM      6  C5  BZF d   1       2.602   6.000  -5.929  0.00  0.00    -0.016 A 
ATOM      7  C6  BZF d   1       1.257   5.697  -5.976  0.00  0.00     0.022 A 
ATOM      8  C7  BZF d   1       0.824   4.413  -5.999  0.00  0.00     0.029 A 
ATOM      9  C7A BZF d   1       1.782   3.430  -5.950  0.00  0.00     0.058 A 
ENDROOT
TORSDOF 0
ENDMDL
