MODEL 1
REMARK minimizedAffinity 10.3900032
REMARK minimizedRMSD -1
REMARK  0 active torsions:
REMARK  status: ('A' for Active; 'I' for Inactive)
ROOT
ATOM      1  O1  BZF d   1       4.579  -2.932  -3.962  0.00  0.00    -0.204 OA
ATOM      2  C2  BZF d   1       3.613  -3.717  -4.561  0.00  0.00     0.174 A 
ATOM      3  C3  BZF d   1       2.724  -2.954  -5.229  0.00  0.00    -0.012 A 
ATOM      4  C3A BZF d   1       3.215  -1.615  -5.114  0.00  0.00    -0.107 A 
ATOM      5  C4  BZF d   1       2.775  -0.410  -5.582  0.00  0.00     0.055 A 
ATOM      6  C5  BZF d   1       3.443   0.719  -5.230  0.00  0.00    -0.016 A 
ATOM      7  C6  BZF d   1       4.551   0.681  -4.409  0.00  0.00     0.022 A 
ATOM      8  C7  BZF d   1       5.028  -0.491  -3.924  0.00  0.00     0.029 A 
ATOM      9  C7A BZF d   1       4.374  -1.637  -4.305  0.00  0.00     0.058 A 
ENDROOT
TORSDOF 0
ENDMDL
