MODEL 1
REMARK minimizedAffinity 8.3550024
REMARK minimizedRMSD -1
REMARK  0 active torsions:
REMARK  status: ('A' for Active; 'I' for Inactive)
ROOT
ATOM      1  O1  BZF d   1      -1.048  -4.103   2.340  0.00  0.00    -0.204 OA
ATOM      2  C2  BZF d   1      -2.119  -3.897   3.187  0.00  0.00     0.174 A 
ATOM      3  C3  BZF d   1      -2.978  -2.999   2.663  0.00  0.00    -0.012 A 
ATOM      4  C3A BZF d   1      -2.455  -2.689   1.368  0.00  0.00    -0.107 A 
ATOM      5  C4  BZF d   1      -2.872  -1.870   0.358  0.00  0.00     0.055 A 
ATOM      6  C5  BZF d   1      -2.094  -1.737  -0.748  0.00  0.00    -0.016 A 
ATOM      7  C6  BZF d   1      -0.892  -2.402  -0.875  0.00  0.00     0.022 A 
ATOM      8  C7  BZF d   1      -0.438  -3.228   0.098  0.00  0.00     0.029 A 
ATOM      9  C7A BZF d   1      -1.238  -3.391   1.203  0.00  0.00     0.058 A 
ENDROOT
TORSDOF 0
ENDMDL
