MODEL 1
REMARK minimizedAffinity 11.7814484
REMARK minimizedRMSD -1
REMARK  0 active torsions:
REMARK  status: ('A' for Active; 'I' for Inactive)
ROOT
ATOM      1  O1  BZF d   1      -0.972  -5.235   3.154  0.00  0.00    -0.204 OA
ATOM      2  C2  BZF d   1      -1.884  -5.937   3.917  0.00  0.00     0.174 A 
ATOM      3  C3  BZF d   1      -2.778  -5.101   4.483  0.00  0.00    -0.012 A 
ATOM      4  C3A BZF d   1      -2.457  -3.804   3.971  0.00  0.00    -0.107 A 
ATOM      5  C4  BZF d   1      -2.997  -2.563   4.151  0.00  0.00     0.055 A 
ATOM      6  C5  BZF d   1      -2.402  -1.492   3.563  0.00  0.00    -0.016 A 
ATOM      7  C6  BZF d   1      -1.264  -1.624   2.795  0.00  0.00     0.022 A 
ATOM      8  C7  BZF d   1      -0.694  -2.836   2.583  0.00  0.00     0.029 A 
ATOM      9  C7A BZF d   1      -1.313  -3.924   3.149  0.00  0.00     0.058 A 
ENDROOT
TORSDOF 0
ENDMDL
