MODEL 1
REMARK minimizedAffinity 7.92032242
REMARK minimizedRMSD -1
REMARK  0 active torsions:
REMARK  status: ('A' for Active; 'I' for Inactive)
ROOT
ATOM      1  O1  BZF d   1       1.409   5.580  -5.898  0.00  0.00    -0.204 OA
ATOM      2  C2  BZF d   1       0.214   4.891  -5.823  0.00  0.00     0.174 A 
ATOM      3  C3  BZF d   1       0.427   3.560  -5.839  0.00  0.00    -0.012 A 
ATOM      4  C3A BZF d   1       1.850   3.406  -5.836  0.00  0.00    -0.107 A 
ATOM      5  C4  BZF d   1       2.677   2.319  -5.832  0.00  0.00     0.055 A 
ATOM      6  C5  BZF d   1       4.020   2.511  -5.904  0.00  0.00    -0.016 A 
ATOM      7  C6  BZF d   1       4.570   3.774  -5.987  0.00  0.00     0.022 A 
ATOM      8  C7  BZF d   1       3.790   4.882  -5.990  0.00  0.00     0.029 A 
ATOM      9  C7A BZF d   1       2.434   4.693  -5.883  0.00  0.00     0.058 A 
ENDROOT
TORSDOF 0
ENDMDL
