MODEL 1
REMARK minimizedAffinity 6.77382278
REMARK minimizedRMSD -1
REMARK  0 active torsions:
REMARK  status: ('A' for Active; 'I' for Inactive)
ROOT
ATOM      1  O1  BZF d   1       0.228   3.737  -5.973  0.00  0.00    -0.204 OA
ATOM      2  C2  BZF d   1      -0.491   4.916  -5.998  0.00  0.00     0.174 A 
ATOM      3  C3  BZF d   1       0.334   5.982  -5.945  0.00  0.00    -0.012 A 
ATOM      4  C3A BZF d   1       1.656   5.435  -5.975  0.00  0.00    -0.107 A 
ATOM      5  C4  BZF d   1       2.903   5.993  -5.964  0.00  0.00     0.055 A 
ATOM      6  C5  BZF d   1       3.990   5.178  -5.928  0.00  0.00    -0.016 A 
ATOM      7  C6  BZF d   1       3.867   3.805  -5.898  0.00  0.00     0.022 A 
ATOM      8  C7  BZF d   1       2.652   3.206  -5.913  0.00  0.00     0.029 A 
ATOM      9  C7A BZF d   1       1.552   4.025  -5.983  0.00  0.00     0.058 A 
ENDROOT
TORSDOF 0
ENDMDL
