MODEL 1
REMARK minimizedAffinity 13.1745644
REMARK minimizedRMSD -1
REMARK  0 active torsions:
REMARK  status: ('A' for Active; 'I' for Inactive)
ROOT
ATOM      1  O1  BZF d   1      -0.737  -0.581   5.017  0.00  0.00    -0.204 OA
ATOM      2  C2  BZF d   1      -0.242   0.697   4.841  0.00  0.00     0.174 A 
ATOM      3  C3  BZF d   1      -0.200   1.018   3.532  0.00  0.00    -0.012 A 
ATOM      4  C3A BZF d   1      -0.787  -0.096   2.852  0.00  0.00    -0.107 A 
ATOM      5  C4  BZF d   1      -1.042  -0.365   1.538  0.00  0.00     0.055 A 
ATOM      6  C5  BZF d   1      -1.557  -1.576   1.200  0.00  0.00    -0.016 A 
ATOM      7  C6  BZF d   1      -1.824  -2.542   2.148  0.00  0.00     0.022 A 
ATOM      8  C7  BZF d   1      -1.592  -2.319   3.465  0.00  0.00     0.029 A 
ATOM      9  C7A BZF d   1      -1.102  -1.084   3.813  0.00  0.00     0.058 A 
ENDROOT
TORSDOF 0
ENDMDL
