MODEL 1
REMARK minimizedAffinity 9.66826916
REMARK minimizedRMSD -1
REMARK  0 active torsions:
REMARK  status: ('A' for Active; 'I' for Inactive)
ROOT
ATOM      1  O1  BZF d   1       1.611   5.212  -5.735  0.00  0.00    -0.204 OA
ATOM      2  C2  BZF d   1       2.719   5.994  -5.998  0.00  0.00     0.174 A 
ATOM      3  C3  BZF d   1       3.562   6.000  -4.945  0.00  0.00    -0.012 A 
ATOM      4  C3A BZF d   1       2.986   5.095  -3.998  0.00  0.00    -0.107 A 
ATOM      5  C4  BZF d   1       3.367   4.666  -2.759  0.00  0.00     0.055 A 
ATOM      6  C5  BZF d   1       2.544   3.836  -2.066  0.00  0.00    -0.016 A 
ATOM      7  C6  BZF d   1       1.333   3.420  -2.578  0.00  0.00     0.022 A 
ATOM      8  C7  BZF d   1       0.914   3.816  -3.805  0.00  0.00     0.029 A 
ATOM      9  C7A BZF d   1       1.759   4.628  -4.522  0.00  0.00     0.058 A 
ENDROOT
TORSDOF 0
ENDMDL
