MODEL 1
REMARK minimizedAffinity 14.4629545
REMARK minimizedRMSD -1
REMARK  0 active torsions:
REMARK  status: ('A' for Active; 'I' for Inactive)
ROOT
ATOM      1  O1  BZF d   1      -1.079   4.712   1.804  0.00  0.00    -0.204 OA
ATOM      2  C2  BZF d   1      -2.040   4.051   2.545  0.00  0.00     0.174 A 
ATOM      3  C3  BZF d   1      -1.608   2.825   2.903  0.00  0.00    -0.012 A 
ATOM      4  C3A BZF d   1      -0.260   2.748   2.430  0.00  0.00    -0.107 A 
ATOM      5  C4  BZF d   1       0.704   1.783   2.495  0.00  0.00     0.055 A 
ATOM      6  C5  BZF d   1       1.892   1.993   1.869  0.00  0.00    -0.016 A 
ATOM      7  C6  BZF d   1       2.148   3.152   1.166  0.00  0.00     0.022 A 
ATOM      8  C7  BZF d   1       1.224   4.140   1.078  0.00  0.00     0.029 A 
ATOM      9  C7A BZF d   1       0.035   3.945   1.737  0.00  0.00     0.058 A 
ENDROOT
TORSDOF 0
ENDMDL
