MODEL 1
REMARK minimizedAffinity 4.54565811
REMARK minimizedRMSD -1
REMARK  0 active torsions:
REMARK  status: ('A' for Active; 'I' for Inactive)
ROOT
ATOM      1  O1  BZF d   1      -4.169  -3.851  -4.190  0.00  0.00    -0.204 OA
ATOM      2  C2  BZF d   1      -3.140  -3.464  -5.026  0.00  0.00     0.174 A 
ATOM      3  C3  BZF d   1      -2.306  -2.611  -4.395  0.00  0.00    -0.012 A 
ATOM      4  C3A BZF d   1      -2.798  -2.528  -3.054  0.00  0.00    -0.107 A 
ATOM      5  C4  BZF d   1      -2.383  -1.850  -1.943  0.00  0.00     0.055 A 
ATOM      6  C5  BZF d   1      -3.127  -1.926  -0.808  0.00  0.00    -0.016 A 
ATOM      7  C6  BZF d   1      -4.290  -2.664  -0.750  0.00  0.00     0.022 A 
ATOM      8  C7  BZF d   1      -4.739  -3.358  -1.825  0.00  0.00     0.029 A 
ATOM      9  C7A BZF d   1      -3.972  -3.310  -2.964  0.00  0.00     0.058 A 
ENDROOT
TORSDOF 0
ENDMDL
