MODEL 1
REMARK minimizedAffinity 11.2303715
REMARK minimizedRMSD -1
REMARK  0 active torsions:
REMARK  status: ('A' for Active; 'I' for Inactive)
ROOT
ATOM      1  O1  BZF d   1      -0.422  -3.295   1.589  0.00  0.00    -0.204 OA
ATOM      2  C2  BZF d   1      -1.206  -3.140   2.715  0.00  0.00     0.174 A 
ATOM      3  C3  BZF d   1      -2.337  -2.467   2.422  0.00  0.00    -0.012 A 
ATOM      4  C3A BZF d   1      -2.298  -2.264   1.006  0.00  0.00    -0.107 A 
ATOM      5  C4  BZF d   1      -3.148  -1.668   0.119  0.00  0.00     0.055 A 
ATOM      6  C5  BZF d   1      -2.780  -1.572  -1.186  0.00  0.00    -0.016 A 
ATOM      7  C6  BZF d   1      -1.569  -2.056  -1.636  0.00  0.00     0.022 A 
ATOM      8  C7  BZF d   1      -0.695  -2.659  -0.795  0.00  0.00     0.029 A 
ATOM      9  C7A BZF d   1      -1.078  -2.787   0.518  0.00  0.00     0.058 A 
ENDROOT
TORSDOF 0
ENDMDL
