MODEL 1
REMARK minimizedAffinity 7.30706215
REMARK minimizedRMSD -1
REMARK  0 active torsions:
REMARK  status: ('A' for Active; 'I' for Inactive)
ROOT
ATOM      1  O1  BZF d   1      -2.510  -1.501  -5.207  0.00  0.00    -0.204 OA
ATOM      2  C2  BZF d   1      -2.334  -2.619  -6.000  0.00  0.00     0.174 A 
ATOM      3  C3  BZF d   1      -1.868  -3.653  -5.271  0.00  0.00    -0.012 A 
ATOM      4  C3A BZF d   1      -1.832  -3.178  -3.922  0.00  0.00    -0.107 A 
ATOM      5  C4  BZF d   1      -1.473  -3.748  -2.734  0.00  0.00     0.055 A 
ATOM      6  C5  BZF d   1      -1.483  -2.989  -1.607  0.00  0.00    -0.016 A 
ATOM      7  C6  BZF d   1      -1.840  -1.657  -1.632  0.00  0.00     0.022 A 
ATOM      8  C7  BZF d   1      -2.209  -1.048  -2.785  0.00  0.00     0.029 A 
ATOM      9  C7A BZF d   1      -2.231  -1.821  -3.921  0.00  0.00     0.058 A 
ENDROOT
TORSDOF 0
ENDMDL
