MODEL 1
REMARK minimizedAffinity 4.09246159
REMARK minimizedRMSD -1
REMARK  0 active torsions:
REMARK  status: ('A' for Active; 'I' for Inactive)
ROOT
ATOM      1  O1  BZF d   1       1.184   3.937   0.626  0.00  0.00    -0.204 OA
ATOM      2  C2  BZF d   1       0.531   4.017   1.841  0.00  0.00     0.174 A 
ATOM      3  C3  BZF d   1       0.876   2.985   2.638  0.00  0.00    -0.012 A 
ATOM      4  C3A BZF d   1       1.873   2.263   1.908  0.00  0.00    -0.107 A 
ATOM      5  C4  BZF d   1       2.613   1.148   2.181  0.00  0.00     0.055 A 
ATOM      6  C5  BZF d   1       3.447   0.659   1.226  0.00  0.00    -0.016 A 
ATOM      7  C6  BZF d   1       3.562   1.255  -0.013  0.00  0.00     0.022 A 
ATOM      8  C7  BZF d   1       2.852   2.366  -0.328  0.00  0.00     0.029 A 
ATOM      9  C7A BZF d   1       2.034   2.882   0.647  0.00  0.00     0.058 A 
ENDROOT
TORSDOF 0
ENDMDL
