MODEL 1
REMARK minimizedAffinity 6.64052439
REMARK minimizedRMSD -1
REMARK  0 active torsions:
REMARK  status: ('A' for Active; 'I' for Inactive)
ROOT
ATOM      1  O1  BZF d   1      -0.939  -3.634  -2.204  0.00  0.00    -0.204 OA
ATOM      2  C2  BZF d   1      -1.834  -2.853  -2.909  0.00  0.00     0.174 A 
ATOM      3  C3  BZF d   1      -2.594  -2.120  -2.069  0.00  0.00    -0.012 A 
ATOM      4  C3A BZF d   1      -2.083  -2.396  -0.762  0.00  0.00    -0.107 A 
ATOM      5  C4  BZF d   1      -2.413  -1.955   0.488  0.00  0.00     0.055 A 
ATOM      6  C5  BZF d   1      -1.767  -2.475   1.564  0.00  0.00    -0.016 A 
ATOM      7  C6  BZF d   1      -0.790  -3.439   1.428  0.00  0.00     0.022 A 
ATOM      8  C7  BZF d   1      -0.424  -3.904   0.209  0.00  0.00     0.029 A 
ATOM      9  C7A BZF d   1      -1.052  -3.357  -0.883  0.00  0.00     0.058 A 
ENDROOT
TORSDOF 0
ENDMDL
