MODEL 1
REMARK minimizedAffinity 3.61915779
REMARK minimizedRMSD -1
REMARK  0 active torsions:
REMARK  status: ('A' for Active; 'I' for Inactive)
ROOT
ATOM      1  O1  BZF d   1       1.269   4.973   1.448  0.00  0.00    -0.204 OA
ATOM      2  C2  BZF d   1       2.265   4.075   1.117  0.00  0.00     0.174 A 
ATOM      3  C3  BZF d   1       2.001   3.480  -0.064  0.00  0.00    -0.012 A 
ATOM      4  C3A BZF d   1       0.808   4.109  -0.543  0.00  0.00    -0.107 A 
ATOM      5  C4  BZF d   1       0.057   3.959  -1.673  0.00  0.00     0.055 A 
ATOM      6  C5  BZF d   1      -1.091   4.674  -1.803  0.00  0.00    -0.016 A 
ATOM      7  C6  BZF d   1      -1.521   5.543  -0.821  0.00  0.00     0.022 A 
ATOM      8  C7  BZF d   1      -0.807   5.729   0.316  0.00  0.00     0.029 A 
ATOM      9  C7A BZF d   1       0.371   5.032   0.435  0.00  0.00     0.058 A 
ENDROOT
TORSDOF 0
ENDMDL
