MODEL 1
REMARK minimizedAffinity -2.98338675
REMARK minimizedRMSD -1
REMARK  0 active torsions:
REMARK  status: ('A' for Active; 'I' for Inactive)
ROOT
ATOM      1  C4' PXY d   1      -1.280  -0.104   0.812  0.00  0.00     0.077 C 
ATOM      2  C1' PXY d   1       2.648  -4.293   0.149  0.00  0.00     0.077 C 
ATOM      3  C1  PXY d   1       1.626  -3.188   0.330  0.00  0.00    -0.082 A 
ATOM      4  C2  PXY d   1       0.337  -3.466   0.232  0.00  0.00     0.003 A 
ATOM      5  C3  PXY d   1      -0.599  -2.473   0.361  0.00  0.00     0.003 A 
ATOM      6  C4  PXY d   1      -0.214  -1.191   0.646  0.00  0.00    -0.082 A 
ATOM      7  C5  PXY d   1       1.100  -0.900   0.759  0.00  0.00     0.003 A 
ATOM      8  C6  PXY d   1       2.036  -1.915   0.584  0.00  0.00     0.003 A 
ENDROOT
TORSDOF 0
ENDMDL
