MODEL 1
REMARK minimizedAffinity -4.01374102
REMARK minimizedRMSD -1
REMARK  0 active torsions:
REMARK  status: ('A' for Active; 'I' for Inactive)
ROOT
ATOM      1  C4' PXY d   1       3.711  -3.908  -0.438  0.00  0.00     0.077 C 
ATOM      2  C1' PXY d   1      -0.691  -0.361   0.771  0.00  0.00     0.077 C 
ATOM      3  C1  PXY d   1       0.470  -1.281   0.449  0.00  0.00    -0.082 A 
ATOM      4  C2  PXY d   1       0.253  -2.577   0.290  0.00  0.00     0.003 A 
ATOM      5  C3  PXY d   1       1.296  -3.428   0.030  0.00  0.00     0.003 A 
ATOM      6  C4  PXY d   1       2.567  -2.940  -0.121  0.00  0.00    -0.082 A 
ATOM      7  C5  PXY d   1       2.795  -1.618   0.030  0.00  0.00     0.003 A 
ATOM      8  C6  PXY d   1       1.728  -0.777   0.334  0.00  0.00     0.003 A 
ENDROOT
TORSDOF 0
ENDMDL
