MODEL 1
REMARK minimizedAffinity -6.48025036
REMARK minimizedRMSD -1
REMARK  0 active torsions:
REMARK  status: ('A' for Active; 'I' for Inactive)
ROOT
ATOM      1  C4' PXY d   1      -1.187  -0.222   0.915  0.00  0.00     0.077 C 
ATOM      2  C1' PXY d   1       3.256  -3.814   0.038  0.00  0.00     0.077 C 
ATOM      3  C1  PXY d   1       2.099  -2.865   0.275  0.00  0.00    -0.082 A 
ATOM      4  C2  PXY d   1       0.857  -3.315   0.201  0.00  0.00     0.003 A 
ATOM      5  C3  PXY d   1      -0.202  -2.463   0.381  0.00  0.00     0.003 A 
ATOM      6  C4  PXY d   1       0.013  -1.147   0.692  0.00  0.00    -0.082 A 
ATOM      7  C5  PXY d   1       1.277  -0.682   0.780  0.00  0.00     0.003 A 
ATOM      8  C6  PXY d   1       2.337  -1.554   0.553  0.00  0.00     0.003 A 
ENDROOT
TORSDOF 0
ENDMDL
