MODEL 1
REMARK minimizedAffinity 8.82295895
REMARK minimizedRMSD -1
REMARK  0 active torsions:
REMARK  status: ('A' for Active; 'I' for Inactive)
ROOT
ATOM      1  C4' PXY d   1       0.005  -4.469  -1.690  0.00  0.00     0.077 C 
ATOM      2  C1' PXY d   1       0.292   0.033   1.923  0.00  0.00     0.077 C 
ATOM      3  C1  PXY d   1       0.228  -1.152   0.980  0.00  0.00    -0.082 A 
ATOM      4  C2  PXY d   1      -0.508  -1.076  -0.117  0.00  0.00     0.003 A 
ATOM      5  C3  PXY d   1      -0.602  -2.149  -0.965  0.00  0.00     0.003 A 
ATOM      6  C4  PXY d   1       0.106  -3.294  -0.714  0.00  0.00    -0.082 A 
ATOM      7  C5  PXY d   1       0.868  -3.376   0.398  0.00  0.00     0.003 A 
ATOM      8  C6  PXY d   1       0.917  -2.289   1.266  0.00  0.00     0.003 A 
ENDROOT
TORSDOF 0
ENDMDL
