MODEL 1
REMARK minimizedAffinity -3.76281524
REMARK minimizedRMSD -1
REMARK  0 active torsions:
REMARK  status: ('A' for Active; 'I' for Inactive)
ROOT
ATOM      1  C4' PXY d   1      -0.577  -0.521   0.762  0.00  0.00     0.077 C 
ATOM      2  C1' PXY d   1       3.546  -4.461  -0.182  0.00  0.00     0.077 C 
ATOM      3  C1  PXY d   1       2.473  -3.420   0.071  0.00  0.00    -0.082 A 
ATOM      4  C2  PXY d   1       1.204  -3.789   0.133  0.00  0.00     0.003 A 
ATOM      5  C3  PXY d   1       0.219  -2.857   0.330  0.00  0.00     0.003 A 
ATOM      6  C4  PXY d   1       0.540  -1.539   0.518  0.00  0.00    -0.082 A 
ATOM      7  C5  PXY d   1       1.833  -1.155   0.466  0.00  0.00     0.003 A 
ATOM      8  C6  PXY d   1       2.815  -2.112   0.225  0.00  0.00     0.003 A 
ENDROOT
TORSDOF 0
ENDMDL
