MODEL 1
REMARK minimizedAffinity -1.88604355
REMARK minimizedRMSD -1
REMARK  0 active torsions:
REMARK  status: ('A' for Active; 'I' for Inactive)
ROOT
ATOM      1  C4' PXY d   1       3.042  -4.338  -0.225  0.00  0.00     0.077 C 
ATOM      2  C1' PXY d   1      -0.886  -0.253   0.914  0.00  0.00     0.077 C 
ATOM      3  C1  PXY d   1       0.139  -1.332   0.624  0.00  0.00    -0.082 A 
ATOM      4  C2  PXY d   1       1.319  -0.997   0.130  0.00  0.00     0.003 A 
ATOM      5  C3  PXY d   1       2.246  -1.963  -0.168  0.00  0.00     0.003 A 
ATOM      6  C4  PXY d   1       1.981  -3.281   0.092  0.00  0.00    -0.082 A 
ATOM      7  C5  PXY d   1       0.783  -3.630   0.607  0.00  0.00     0.003 A 
ATOM      8  C6  PXY d   1      -0.160  -2.638   0.864  0.00  0.00     0.003 A 
ENDROOT
TORSDOF 0
ENDMDL
