MODEL 1
REMARK minimizedAffinity 0.0926575214
REMARK minimizedRMSD -1
REMARK  0 active torsions:
REMARK  status: ('A' for Active; 'I' for Inactive)
ROOT
ATOM      1  C4' PXY d   1       1.629  -3.406   0.362  0.00  0.00     0.077 C 
ATOM      2  C1' PXY d   1      -1.773   1.034   1.819  0.00  0.00     0.077 C 
ATOM      3  C1  PXY d   1      -0.870  -0.123   1.439  0.00  0.00    -0.082 A 
ATOM      4  C2  PXY d   1      -1.348  -1.110   0.698  0.00  0.00     0.003 A 
ATOM      5  C3  PXY d   1      -0.555  -2.179   0.372  0.00  0.00     0.003 A 
ATOM      6  C4  PXY d   1       0.757  -2.214   0.762  0.00  0.00    -0.082 A 
ATOM      7  C5  PXY d   1       1.255  -1.205   1.509  0.00  0.00     0.003 A 
ATOM      8  C6  PXY d   1       0.422  -0.149   1.864  0.00  0.00     0.003 A 
ENDROOT
TORSDOF 0
ENDMDL
