MODEL 1
REMARK minimizedAffinity -5.52874804
REMARK minimizedRMSD -1
REMARK  0 active torsions:
REMARK  status: ('A' for Active; 'I' for Inactive)
ROOT
ATOM      1  C4' PXY d   1       3.778  -4.155  -0.338  0.00  0.00     0.077 C 
ATOM      2  C1' PXY d   1      -0.658  -0.646   0.854  0.00  0.00     0.077 C 
ATOM      3  C1  PXY d   1       0.511  -1.556   0.535  0.00  0.00    -0.082 A 
ATOM      4  C2  PXY d   1       0.331  -2.867   0.505  0.00  0.00     0.003 A 
ATOM      5  C3  PXY d   1       1.384  -3.707   0.250  0.00  0.00     0.003 A 
ATOM      6  C4  PXY d   1       2.624  -3.197  -0.030  0.00  0.00    -0.082 A 
ATOM      7  C5  PXY d   1       2.814  -1.861  -0.013  0.00  0.00     0.003 A 
ATOM      8  C6  PXY d   1       1.741  -1.027   0.289  0.00  0.00     0.003 A 
ENDROOT
TORSDOF 0
ENDMDL
