MODEL 1
REMARK minimizedAffinity -0.473024815
REMARK minimizedRMSD -1
REMARK  0 active torsions:
REMARK  status: ('A' for Active; 'I' for Inactive)
ROOT
ATOM      1  C4' PXY d   1       2.789  -4.549  -0.479  0.00  0.00     0.077 C 
ATOM      2  C1' PXY d   1      -0.912  -0.394   1.089  0.00  0.00     0.077 C 
ATOM      3  C1  PXY d   1       0.065  -1.475   0.670  0.00  0.00    -0.082 A 
ATOM      4  C2  PXY d   1      -0.300  -2.746   0.732  0.00  0.00     0.003 A 
ATOM      5  C3  PXY d   1       0.582  -3.738   0.388  0.00  0.00     0.003 A 
ATOM      6  C4  PXY d   1       1.832  -3.423  -0.075  0.00  0.00    -0.082 A 
ATOM      7  C5  PXY d   1       2.207  -2.129  -0.151  0.00  0.00     0.003 A 
ATOM      8  C6  PXY d   1       1.312  -1.139   0.242  0.00  0.00     0.003 A 
ENDROOT
TORSDOF 0
ENDMDL
