MODEL 1
REMARK minimizedAffinity -5.1534853
REMARK minimizedRMSD -1
REMARK  0 active torsions:
REMARK  status: ('A' for Active; 'I' for Inactive)
ROOT
ATOM      1  C4' PXY d   1      -0.410  -0.743   0.764  0.00  0.00     0.077 C 
ATOM      2  C1' PXY d   1       3.772  -4.570  -0.371  0.00  0.00     0.077 C 
ATOM      3  C1  PXY d   1       2.684  -3.558  -0.069  0.00  0.00    -0.082 A 
ATOM      4  C2  PXY d   1       1.451  -3.974   0.170  0.00  0.00     0.003 A 
ATOM      5  C3  PXY d   1       0.449  -3.071   0.413  0.00  0.00     0.003 A 
ATOM      6  C4  PXY d   1       0.722  -1.730   0.464  0.00  0.00    -0.082 A 
ATOM      7  C5  PXY d   1       1.980  -1.298   0.232  0.00  0.00     0.003 A 
ATOM      8  C6  PXY d   1       2.974  -2.228  -0.054  0.00  0.00     0.003 A 
ENDROOT
TORSDOF 0
ENDMDL
