MODEL 1
REMARK minimizedAffinity -0.655682147
REMARK minimizedRMSD -1
REMARK  0 active torsions:
REMARK  status: ('A' for Active; 'I' for Inactive)
ROOT
ATOM      1  C4' PXY d   1       4.913   4.503  -0.966  0.00  0.00     0.077 C 
ATOM      2  C1' PXY d   1       2.019   0.755  -4.282  0.00  0.00     0.077 C 
ATOM      3  C1  PXY d   1       2.780   1.729  -3.403  0.00  0.00    -0.082 A 
ATOM      4  C2  PXY d   1       2.599   3.030  -3.560  0.00  0.00     0.003 A 
ATOM      5  C3  PXY d   1       3.302   3.925  -2.796  0.00  0.00     0.003 A 
ATOM      6  C4  PXY d   1       4.160   3.483  -1.824  0.00  0.00    -0.082 A 
ATOM      7  C5  PXY d   1       4.342   2.157  -1.651  0.00  0.00     0.003 A 
ATOM      8  C6  PXY d   1       3.649   1.265  -2.465  0.00  0.00     0.003 A 
ENDROOT
TORSDOF 0
ENDMDL
