MODEL 1
REMARK minimizedAffinity -3.96901226
REMARK minimizedRMSD -1
REMARK  0 active torsions:
REMARK  status: ('A' for Active; 'I' for Inactive)
ROOT
ATOM      1  C4' PXY d   1       3.382  -3.708  -0.541  0.00  0.00     0.077 C 
ATOM      2  C1' PXY d   1      -0.989  -0.317   1.135  0.00  0.00     0.077 C 
ATOM      3  C1  PXY d   1       0.162  -1.196   0.689  0.00  0.00    -0.082 A 
ATOM      4  C2  PXY d   1       0.027  -2.512   0.711  0.00  0.00     0.003 A 
ATOM      5  C3  PXY d   1       1.068  -3.323   0.341  0.00  0.00     0.003 A 
ATOM      6  C4  PXY d   1       2.243  -2.781  -0.107  0.00  0.00    -0.082 A 
ATOM      7  C5  PXY d   1       2.385  -1.439  -0.143  0.00  0.00     0.003 A 
ATOM      8  C6  PXY d   1       1.330  -0.634   0.276  0.00  0.00     0.003 A 
ENDROOT
TORSDOF 0
ENDMDL
