MODEL 1
REMARK minimizedAffinity -0.769419551
REMARK minimizedRMSD -1
REMARK  0 active torsions:
REMARK  status: ('A' for Active; 'I' for Inactive)
ROOT
ATOM      1  C4' PXY d   1      -0.007  -0.648   0.372  0.00  0.00     0.077 C 
ATOM      2  C1' PXY d   1       3.748  -5.010  -0.159  0.00  0.00     0.077 C 
ATOM      3  C1  PXY d   1       2.773  -3.859  -0.014  0.00  0.00    -0.082 A 
ATOM      4  C2  PXY d   1       1.472  -4.102   0.006  0.00  0.00     0.003 A 
ATOM      5  C3  PXY d   1       0.575  -3.070   0.105  0.00  0.00     0.003 A 
ATOM      6  C4  PXY d   1       1.015  -1.780   0.237  0.00  0.00    -0.082 A 
ATOM      7  C5  PXY d   1       2.340  -1.525   0.228  0.00  0.00     0.003 A 
ATOM      8  C6  PXY d   1       3.233  -2.582   0.086  0.00  0.00     0.003 A 
ENDROOT
TORSDOF 0
ENDMDL
