MODEL 1
REMARK minimizedAffinity 2.25445247
REMARK minimizedRMSD -1
REMARK  0 active torsions:
REMARK  status: ('A' for Active; 'I' for Inactive)
ROOT
ATOM      1  C4' PXY d   1      -2.809  -1.229   0.047  0.00  0.00     0.077 C 
ATOM      2  C1' PXY d   1       2.816  -0.926   1.346  0.00  0.00     0.077 C 
ATOM      3  C1  PXY d   1       1.344  -1.014   0.995  0.00  0.00    -0.082 A 
ATOM      4  C2  PXY d   1       0.522  -0.050   1.378  0.00  0.00     0.003 A 
ATOM      5  C3  PXY d   1      -0.818  -0.129   1.097  0.00  0.00     0.003 A 
ATOM      6  C4  PXY d   1      -1.313  -1.178   0.371  0.00  0.00    -0.082 A 
ATOM      7  C5  PXY d   1      -0.479  -2.160  -0.033  0.00  0.00     0.003 A 
ATOM      8  C6  PXY d   1       0.871  -2.082   0.298  0.00  0.00     0.003 A 
ENDROOT
TORSDOF 0
ENDMDL
