MODEL 1
REMARK minimizedAffinity -6.23256063
REMARK minimizedRMSD -1
REMARK  0 active torsions:
REMARK  status: ('A' for Active; 'I' for Inactive)
ROOT
ATOM      1  C4' PXY d   1       4.102  -4.126  -0.195  0.00  0.00     0.077 C 
ATOM      2  C1' PXY d   1      -0.335  -0.622   1.010  0.00  0.00     0.077 C 
ATOM      3  C1  PXY d   1       0.835  -1.531   0.690  0.00  0.00    -0.082 A 
ATOM      4  C2  PXY d   1       0.620  -2.812   0.438  0.00  0.00     0.003 A 
ATOM      5  C3  PXY d   1       1.670  -3.654   0.179  0.00  0.00     0.003 A 
ATOM      6  C4  PXY d   1       2.949  -3.169   0.124  0.00  0.00    -0.082 A 
ATOM      7  C5  PXY d   1       3.177  -1.862   0.369  0.00  0.00     0.003 A 
ATOM      8  C6  PXY d   1       2.101  -1.032   0.671  0.00  0.00     0.003 A 
ENDROOT
TORSDOF 0
ENDMDL
