MODEL 1
REMARK minimizedAffinity -3.96761203
REMARK minimizedRMSD -1
REMARK  0 active torsions:
REMARK  status: ('A' for Active; 'I' for Inactive)
ROOT
ATOM      1  C4' PXY d   1       1.973  -3.701  -0.015  0.00  0.00     0.077 C 
ATOM      2  C1' PXY d   1      -1.843   0.422   1.346  0.00  0.00     0.077 C 
ATOM      3  C1  PXY d   1      -0.852  -0.668   0.990  0.00  0.00    -0.082 A 
ATOM      4  C2  PXY d   1       0.442  -0.465   1.182  0.00  0.00     0.003 A 
ATOM      5  C3  PXY d   1       1.354  -1.428   0.836  0.00  0.00     0.003 A 
ATOM      6  C4  PXY d   1       0.935  -2.632   0.338  0.00  0.00    -0.082 A 
ATOM      7  C5  PXY d   1      -0.383  -2.852   0.150  0.00  0.00     0.003 A 
ATOM      8  C6  PXY d   1      -1.291  -1.846   0.469  0.00  0.00     0.003 A 
ENDROOT
TORSDOF 0
ENDMDL
