MODEL 1
REMARK minimizedAffinity -3.66681886
REMARK minimizedRMSD -1
REMARK  0 active torsions:
REMARK  status: ('A' for Active; 'I' for Inactive)
ROOT
ATOM      1  C4' PXY d   1       3.209  -3.871  -0.067  0.00  0.00     0.077 C 
ATOM      2  C1' PXY d   1      -1.160  -0.226   0.953  0.00  0.00     0.077 C 
ATOM      3  C1  PXY d   1      -0.022  -1.192   0.689  0.00  0.00    -0.082 A 
ATOM      4  C2  PXY d   1       1.226  -0.751   0.702  0.00  0.00     0.003 A 
ATOM      5  C3  PXY d   1       2.265  -1.605   0.434  0.00  0.00     0.003 A 
ATOM      6  C4  PXY d   1       2.029  -2.933   0.203  0.00  0.00    -0.082 A 
ATOM      7  C5  PXY d   1       0.759  -3.392   0.198  0.00  0.00     0.003 A 
ATOM      8  C6  PXY d   1      -0.285  -2.502   0.432  0.00  0.00     0.003 A 
ENDROOT
TORSDOF 0
ENDMDL
