MODEL 1
REMARK minimizedAffinity -5.22337103
REMARK minimizedRMSD -1
REMARK  0 active torsions:
REMARK  status: ('A' for Active; 'I' for Inactive)
ROOT
ATOM      1  C4' PXY d   1       3.828  -3.913   0.096  0.00  0.00     0.077 C 
ATOM      2  C1' PXY d   1      -0.802  -0.530   0.825  0.00  0.00     0.077 C 
ATOM      3  C1  PXY d   1       0.419  -1.407   0.629  0.00  0.00    -0.082 A 
ATOM      4  C2  PXY d   1       0.272  -2.718   0.521  0.00  0.00     0.003 A 
ATOM      5  C3  PXY d   1       1.368  -3.529   0.375  0.00  0.00     0.003 A 
ATOM      6  C4  PXY d   1       2.623  -2.988   0.286  0.00  0.00    -0.082 A 
ATOM      7  C5  PXY d   1       2.780  -1.651   0.384  0.00  0.00     0.003 A 
ATOM      8  C6  PXY d   1       1.658  -0.849   0.573  0.00  0.00     0.003 A 
ENDROOT
TORSDOF 0
ENDMDL
