MODEL 1
REMARK minimizedAffinity 8.30116844
REMARK minimizedRMSD -1
REMARK  0 active torsions:
REMARK  status: ('A' for Active; 'I' for Inactive)
ROOT
ATOM      1  C4' PXY d   1      -5.979  -4.196   0.003  0.00  0.00     0.077 C 
ATOM      2  C1' PXY d   1      -4.307  -5.579   5.361  0.00  0.00     0.077 C 
ATOM      3  C1  PXY d   1      -4.743  -5.204   3.958  0.00  0.00    -0.082 A 
ATOM      4  C2  PXY d   1      -5.565  -6.000   3.294  0.00  0.00     0.003 A 
ATOM      5  C3  PXY d   1      -5.944  -5.692   2.012  0.00  0.00     0.003 A 
ATOM      6  C4  PXY d   1      -5.520  -4.530   1.425  0.00  0.00    -0.082 A 
ATOM      7  C5  PXY d   1      -4.690  -3.707   2.100  0.00  0.00     0.003 A 
ATOM      8  C6  PXY d   1      -4.284  -4.059   3.384  0.00  0.00     0.003 A 
ENDROOT
TORSDOF 0
ENDMDL
