MODEL 1
REMARK minimizedAffinity -6.12557125
REMARK minimizedRMSD -1
REMARK  0 active torsions:
REMARK  status: ('A' for Active; 'I' for Inactive)
ROOT
ATOM      1  C4' PXY d   1       3.402  -4.269  -0.010  0.00  0.00     0.077 C 
ATOM      2  C1' PXY d   1      -0.392  -0.036   1.036  0.00  0.00     0.077 C 
ATOM      3  C1  PXY d   1       0.594  -1.155   0.765  0.00  0.00    -0.082 A 
ATOM      4  C2  PXY d   1       1.891  -0.895   0.754  0.00  0.00     0.003 A 
ATOM      5  C3  PXY d   1       2.795  -1.888   0.479  0.00  0.00     0.003 A 
ATOM      6  C4  PXY d   1       2.370  -3.172   0.267  0.00  0.00    -0.082 A 
ATOM      7  C5  PXY d   1       1.049  -3.448   0.288  0.00  0.00     0.003 A 
ATOM      8  C6  PXY d   1       0.145  -2.417   0.528  0.00  0.00     0.003 A 
ENDROOT
TORSDOF 0
ENDMDL
