MODEL 1
REMARK minimizedAffinity 9.10144997
REMARK minimizedRMSD -1
REMARK  0 active torsions:
REMARK  status: ('A' for Active; 'I' for Inactive)
ROOT
ATOM      1  O1  BZF d   1       2.546   5.108   5.938  0.00  0.00    -0.204 OA
ATOM      2  C2  BZF d   1       2.133   6.000   4.968  0.00  0.00     0.174 A 
ATOM      3  C3  BZF d   1       2.836   5.828   3.830  0.00  0.00    -0.012 A 
ATOM      4  C3A BZF d   1       3.682   4.701   4.076  0.00  0.00    -0.107 A 
ATOM      5  C4  BZF d   1       4.602   4.034   3.319  0.00  0.00     0.055 A 
ATOM      6  C5  BZF d   1       5.309   3.019   3.882  0.00  0.00    -0.016 A 
ATOM      7  C6  BZF d   1       5.126   2.648   5.198  0.00  0.00     0.022 A 
ATOM      8  C7  BZF d   1       4.220   3.276   5.987  0.00  0.00     0.029 A 
ATOM      9  C7A BZF d   1       3.481   4.281   5.412  0.00  0.00     0.058 A 
ENDROOT
TORSDOF 0
ENDMDL
