MODEL 1
REMARK minimizedAffinity 7.361166
REMARK minimizedRMSD -1
REMARK  0 active torsions:
REMARK  status: ('A' for Active; 'I' for Inactive)
ROOT
ATOM      1  O1  BZF d   1       4.543   0.108  -1.983  0.00  0.00    -0.204 OA
ATOM      2  C2  BZF d   1       4.595   0.858  -0.824  0.00  0.00     0.174 A 
ATOM      3  C3  BZF d   1       3.827   0.307   0.138  0.00  0.00    -0.012 A 
ATOM      4  C3A BZF d   1       3.332  -0.910  -0.427  0.00  0.00    -0.107 A 
ATOM      5  C4  BZF d   1       2.527  -1.906   0.047  0.00  0.00     0.055 A 
ATOM      6  C5  BZF d   1       2.174  -2.922  -0.784  0.00  0.00    -0.016 A 
ATOM      7  C6  BZF d   1       2.603  -2.971  -2.094  0.00  0.00     0.022 A 
ATOM      8  C7  BZF d   1       3.407  -2.008  -2.608  0.00  0.00     0.029 A 
ATOM      9  C7A BZF d   1       3.792  -0.998  -1.762  0.00  0.00     0.058 A 
ENDROOT
TORSDOF 0
ENDMDL
