MODEL 1
REMARK minimizedAffinity 8.07383442
REMARK minimizedRMSD -1
REMARK  0 active torsions:
REMARK  status: ('A' for Active; 'I' for Inactive)
ROOT
ATOM      1  O1  BZF d   1      -1.576  -2.403   5.998  0.00  0.00    -0.204 OA
ATOM      2  C2  BZF d   1      -0.466  -1.598   5.827  0.00  0.00     0.174 A 
ATOM      3  C3  BZF d   1       0.613  -2.336   5.492  0.00  0.00    -0.012 A 
ATOM      4  C3A BZF d   1       0.127  -3.675   5.360  0.00  0.00    -0.107 A 
ATOM      5  C4  BZF d   1       0.718  -4.860   5.028  0.00  0.00     0.055 A 
ATOM      6  C5  BZF d   1      -0.021  -6.000   5.062  0.00  0.00    -0.016 A 
ATOM      7  C6  BZF d   1      -1.351  -5.992   5.426  0.00  0.00     0.022 A 
ATOM      8  C7  BZF d   1      -1.983  -4.840   5.759  0.00  0.00     0.029 A 
ATOM      9  C7A BZF d   1      -1.247  -3.682   5.694  0.00  0.00     0.058 A 
ENDROOT
TORSDOF 0
ENDMDL
