MODEL 1
REMARK minimizedAffinity 10.5239735
REMARK minimizedRMSD -1
REMARK  0 active torsions:
REMARK  status: ('A' for Active; 'I' for Inactive)
ROOT
ATOM      1  O1  BZF d   1      -2.005  -0.020   2.527  0.00  0.00    -0.204 OA
ATOM      2  C2  BZF d   1      -3.254  -0.276   1.993  0.00  0.00     0.174 A 
ATOM      3  C3  BZF d   1      -3.159  -0.602   0.688  0.00  0.00    -0.012 A 
ATOM      4  C3A BZF d   1      -1.756  -0.636   0.410  0.00  0.00    -0.107 A 
ATOM      5  C4  BZF d   1      -1.027  -0.914  -0.712  0.00  0.00     0.055 A 
ATOM      6  C5  BZF d   1       0.325  -0.786  -0.669  0.00  0.00    -0.016 A 
ATOM      7  C6  BZF d   1       0.980  -0.379   0.474  0.00  0.00     0.022 A 
ATOM      8  C7  BZF d   1       0.301  -0.097   1.612  0.00  0.00     0.029 A 
ATOM      9  C7A BZF d   1      -1.063  -0.256   1.582  0.00  0.00     0.058 A 
ENDROOT
TORSDOF 0
ENDMDL
