MODEL 1
REMARK minimizedAffinity 10.142911
REMARK minimizedRMSD -1
REMARK  0 active torsions:
REMARK  status: ('A' for Active; 'I' for Inactive)
ROOT
ATOM      1  O1  BZF d   1       1.726  -0.457   0.300  0.00  0.00    -0.204 OA
ATOM      2  C2  BZF d   1       1.887  -0.223   1.652  0.00  0.00     0.174 A 
ATOM      3  C3  BZF d   1       0.718  -0.379   2.306  0.00  0.00    -0.012 A 
ATOM      4  C3A BZF d   1      -0.212  -0.822   1.314  0.00  0.00    -0.107 A 
ATOM      5  C4  BZF d   1      -1.535  -1.162   1.353  0.00  0.00     0.055 A 
ATOM      6  C5  BZF d   1      -2.168  -1.482   0.194  0.00  0.00    -0.016 A 
ATOM      7  C6  BZF d   1      -1.513  -1.467  -1.020  0.00  0.00     0.022 A 
ATOM      8  C7  BZF d   1      -0.200  -1.141  -1.108  0.00  0.00     0.029 A 
ATOM      9  C7A BZF d   1       0.451  -0.850   0.066  0.00  0.00     0.058 A 
ENDROOT
TORSDOF 0
ENDMDL
