MODEL 1
REMARK minimizedAffinity 10.8146334
REMARK minimizedRMSD -1
REMARK  0 active torsions:
REMARK  status: ('A' for Active; 'I' for Inactive)
ROOT
ATOM      1  O1  BZF d   1       1.695   0.211  -0.136  0.00  0.00    -0.204 OA
ATOM      2  C2  BZF d   1       1.980   0.344   1.209  0.00  0.00     0.174 A 
ATOM      3  C3  BZF d   1       0.906   0.028   1.960  0.00  0.00    -0.012 A 
ATOM      4  C3A BZF d   1      -0.087  -0.414   1.029  0.00  0.00    -0.107 A 
ATOM      5  C4  BZF d   1      -1.365  -0.875   1.168  0.00  0.00     0.055 A 
ATOM      6  C5  BZF d   1      -2.091  -1.153   0.053  0.00  0.00    -0.016 A 
ATOM      7  C6  BZF d   1      -1.574  -0.976  -1.213  0.00  0.00     0.022 A 
ATOM      8  C7  BZF d   1      -0.309  -0.526  -1.401  0.00  0.00     0.029 A 
ATOM      9  C7A BZF d   1       0.438  -0.276  -0.276  0.00  0.00     0.058 A 
ENDROOT
TORSDOF 0
ENDMDL
