MODEL 1
REMARK minimizedAffinity 7.49484158
REMARK minimizedRMSD -1
REMARK  0 active torsions:
REMARK  status: ('A' for Active; 'I' for Inactive)
ROOT
ATOM      1  O1  BZF d   1      -4.586   3.009   3.011  0.00  0.00    -0.204 OA
ATOM      2  C2  BZF d   1      -5.038   1.947   2.250  0.00  0.00     0.174 A 
ATOM      3  C3  BZF d   1      -4.002   1.246   1.745  0.00  0.00    -0.012 A 
ATOM      4  C3A BZF d   1      -2.831   1.856   2.295  0.00  0.00    -0.107 A 
ATOM      5  C4  BZF d   1      -1.495   1.597   2.179  0.00  0.00     0.055 A 
ATOM      6  C5  BZF d   1      -0.606   2.426   2.788  0.00  0.00    -0.016 A 
ATOM      7  C6  BZF d   1      -1.018   3.524   3.514  0.00  0.00     0.022 A 
ATOM      8  C7  BZF d   1      -2.332   3.818   3.662  0.00  0.00     0.029 A 
ATOM      9  C7A BZF d   1      -3.234   2.964   3.076  0.00  0.00     0.058 A 
ENDROOT
TORSDOF 0
ENDMDL
