MODEL 1
REMARK minimizedAffinity 4.1129446
REMARK minimizedRMSD -1
REMARK  0 active torsions:
REMARK  status: ('A' for Active; 'I' for Inactive)
ROOT
ATOM      1  O1  BZF d   1      -3.456  -0.131   1.948  0.00  0.00    -0.204 OA
ATOM      2  C2  BZF d   1      -4.315  -0.436   0.910  0.00  0.00     0.174 A 
ATOM      3  C3  BZF d   1      -3.624  -0.723  -0.213  0.00  0.00    -0.012 A 
ATOM      4  C3A BZF d   1      -2.247  -0.680   0.172  0.00  0.00    -0.107 A 
ATOM      5  C4  BZF d   1      -1.077  -0.893  -0.501  0.00  0.00     0.055 A 
ATOM      6  C5  BZF d   1       0.102  -0.699   0.147  0.00  0.00    -0.016 A 
ATOM      7  C6  BZF d   1       0.148  -0.287   1.463  0.00  0.00     0.022 A 
ATOM      8  C7  BZF d   1      -0.985  -0.068   2.172  0.00  0.00     0.029 A 
ATOM      9  C7A BZF d   1      -2.178  -0.295   1.531  0.00  0.00     0.058 A 
ENDROOT
TORSDOF 0
ENDMDL
