MODEL 1
REMARK minimizedAffinity 6.87342834
REMARK minimizedRMSD -1
REMARK  0 active torsions:
REMARK  status: ('A' for Active; 'I' for Inactive)
ROOT
ATOM      1  O1  BZF d   1       1.583  -3.834   4.394  0.00  0.00    -0.204 OA
ATOM      2  C2  BZF d   1       2.482  -4.496   5.208  0.00  0.00     0.174 A 
ATOM      3  C3  BZF d   1       1.846  -5.383   6.000  0.00  0.00    -0.012 A 
ATOM      4  C3A BZF d   1       0.474  -5.334   5.595  0.00  0.00    -0.107 A 
ATOM      5  C4  BZF d   1      -0.648  -5.999   5.999  0.00  0.00     0.055 A 
ATOM      6  C5  BZF d   1      -1.846  -5.665   5.450  0.00  0.00    -0.016 A 
ATOM      7  C6  BZF d   1      -1.959  -4.670   4.501  0.00  0.00     0.022 A 
ATOM      8  C7  BZF d   1      -0.872  -3.987   4.065  0.00  0.00     0.029 A 
ATOM      9  C7A BZF d   1       0.344  -4.345   4.593  0.00  0.00     0.058 A 
ENDROOT
TORSDOF 0
ENDMDL
