MODEL 1
REMARK minimizedAffinity 17.0182056
REMARK minimizedRMSD -1
REMARK  0 active torsions:
REMARK  status: ('A' for Active; 'I' for Inactive)
ROOT
ATOM      1  O1  BZF d   1      -1.852  -4.017   4.944  0.00  0.00    -0.204 OA
ATOM      2  C2  BZF d   1      -2.529  -5.046   5.570  0.00  0.00     0.174 A 
ATOM      3  C3  BZF d   1      -1.669  -5.995   5.996  0.00  0.00    -0.012 A 
ATOM      4  C3A BZF d   1      -0.367  -5.485   5.694  0.00  0.00    -0.107 A 
ATOM      5  C4  BZF d   1       0.897  -5.962   5.891  0.00  0.00     0.055 A 
ATOM      6  C5  BZF d   1       1.953  -5.253   5.414  0.00  0.00    -0.016 A 
ATOM      7  C6  BZF d   1       1.782  -4.066   4.732  0.00  0.00     0.022 A 
ATOM      8  C7  BZF d   1       0.547  -3.549   4.517  0.00  0.00     0.029 A 
ATOM      9  C7A BZF d   1      -0.520  -4.248   5.026  0.00  0.00     0.058 A 
ENDROOT
TORSDOF 0
ENDMDL
