MODEL 1
REMARK minimizedAffinity 14.6725664
REMARK minimizedRMSD -1
REMARK  0 active torsions:
REMARK  status: ('A' for Active; 'I' for Inactive)
ROOT
ATOM      1  O1  BZF d   1       1.050  -3.536  -2.064  0.00  0.00    -0.204 OA
ATOM      2  C2  BZF d   1       2.430  -3.483  -2.050  0.00  0.00     0.174 A 
ATOM      3  C3  BZF d   1       2.859  -2.375  -1.411  0.00  0.00    -0.012 A 
ATOM      4  C3A BZF d   1       1.674  -1.741  -0.920  0.00  0.00    -0.107 A 
ATOM      5  C4  BZF d   1       1.449  -0.609  -0.191  0.00  0.00     0.055 A 
ATOM      6  C5  BZF d   1       0.168  -0.229   0.060  0.00  0.00    -0.016 A 
ATOM      7  C6  BZF d   1      -0.909  -0.954  -0.407  0.00  0.00     0.022 A 
ATOM      8  C7  BZF d   1      -0.735  -2.087  -1.130  0.00  0.00     0.029 A 
ATOM      9  C7A BZF d   1       0.558  -2.491  -1.357  0.00  0.00     0.058 A 
ENDROOT
TORSDOF 0
ENDMDL
