MODEL 1
REMARK minimizedAffinity 8.86435223
REMARK minimizedRMSD -1
REMARK  0 active torsions:
REMARK  status: ('A' for Active; 'I' for Inactive)
ROOT
ATOM      1  C2' OXE d   1       4.034   0.401  -1.640  0.00  0.00     0.078 C 
ATOM      2  C1' OXE d   1       2.984  -2.198  -1.801  0.00  0.00     0.078 C 
ATOM      3  C1  OXE d   1       2.194  -1.166  -1.035  0.00  0.00    -0.078 A 
ATOM      4  C2  OXE d   1       2.738   0.091  -0.921  0.00  0.00    -0.078 A 
ATOM      5  C3  OXE d   1       2.026   1.094  -0.272  0.00  0.00     0.003 A 
ATOM      6  C4  OXE d   1       0.833   0.797   0.399  0.00  0.00    -0.002 A 
ATOM      7  C5  OXE d   1       0.281  -0.487   0.330  0.00  0.00    -0.002 A 
ATOM      8  C6  OXE d   1       0.926  -1.467  -0.417  0.00  0.00     0.003 A 
ENDROOT
TORSDOF 0
ENDMDL
