MODEL 1
REMARK minimizedAffinity 1.19456053
REMARK minimizedRMSD -1
REMARK  0 active torsions:
REMARK  status: ('A' for Active; 'I' for Inactive)
ROOT
ATOM      1  C2' OXE d   1      -0.137  -1.934  -0.798  0.00  0.00     0.078 C 
ATOM      2  C1' OXE d   1       0.401   0.815  -0.622  0.00  0.00     0.078 C 
ATOM      3  C1  OXE d   1       1.570  -0.120  -0.811  0.00  0.00    -0.078 A 
ATOM      4  C2  OXE d   1       1.302  -1.467  -0.849  0.00  0.00    -0.078 A 
ATOM      5  C3  OXE d   1       2.337  -2.370  -1.076  0.00  0.00     0.003 A 
ATOM      6  C4  OXE d   1       3.666  -1.930  -1.112  0.00  0.00    -0.002 A 
ATOM      7  C5  OXE d   1       3.964  -0.566  -1.035  0.00  0.00    -0.002 A 
ATOM      8  C6  OXE d   1       2.927   0.354  -0.927  0.00  0.00     0.003 A 
ENDROOT
TORSDOF 0
ENDMDL
