MODEL 1
REMARK minimizedAffinity -1.35803604
REMARK minimizedRMSD -1
REMARK  0 active torsions:
REMARK  status: ('A' for Active; 'I' for Inactive)
ROOT
ATOM      1  C2' OXE d   1       2.270  -0.168  -0.425  0.00  0.00     0.078 C 
ATOM      2  C1' OXE d   1       4.522   1.135  -1.480  0.00  0.00     0.078 C 
ATOM      3  C1  OXE d   1       4.242  -0.273  -1.943  0.00  0.00    -0.078 A 
ATOM      4  C2  OXE d   1       3.165  -0.919  -1.387  0.00  0.00    -0.078 A 
ATOM      5  C3  OXE d   1       2.830  -2.199  -1.820  0.00  0.00     0.003 A 
ATOM      6  C4  OXE d   1       3.669  -2.891  -2.703  0.00  0.00    -0.002 A 
ATOM      7  C5  OXE d   1       4.793  -2.265  -3.251  0.00  0.00    -0.002 A 
ATOM      8  C6  OXE d   1       5.070  -0.944  -2.915  0.00  0.00     0.003 A 
ENDROOT
TORSDOF 0
ENDMDL
