MODEL 1
REMARK minimizedAffinity -0.497315615
REMARK minimizedRMSD -1
REMARK  0 active torsions:
REMARK  status: ('A' for Active; 'I' for Inactive)
ROOT
ATOM      1  C2' OXE d   1      -0.432  -1.217  -2.409  0.00  0.00     0.078 C 
ATOM      2  C1' OXE d   1       2.118  -1.149  -1.237  0.00  0.00     0.078 C 
ATOM      3  C1  OXE d   1       0.961  -0.605  -0.436  0.00  0.00    -0.078 A 
ATOM      4  C2  OXE d   1      -0.275  -0.600  -1.036  0.00  0.00    -0.078 A 
ATOM      5  C3  OXE d   1      -1.386  -0.160  -0.321  0.00  0.00     0.003 A 
ATOM      6  C4  OXE d   1      -1.231   0.419   0.944  0.00  0.00    -0.002 A 
ATOM      7  C5  OXE d   1       0.026   0.460   1.557  0.00  0.00    -0.002 A 
ATOM      8  C6  OXE d   1       1.123  -0.086   0.899  0.00  0.00     0.003 A 
ENDROOT
TORSDOF 0
ENDMDL
