MODEL 1
REMARK minimizedAffinity 4.29860067
REMARK minimizedRMSD -1
REMARK  0 active torsions:
REMARK  status: ('A' for Active; 'I' for Inactive)
ROOT
ATOM      1  C2' OXE d   1       3.424  -0.281  -1.244  0.00  0.00     0.078 C 
ATOM      2  C1' OXE d   1       2.426  -2.702  -2.255  0.00  0.00     0.078 C 
ATOM      3  C1  OXE d   1       1.466  -1.794  -1.527  0.00  0.00    -0.078 A 
ATOM      4  C2  OXE d   1       1.974  -0.633  -0.995  0.00  0.00    -0.078 A 
ATOM      5  C3  OXE d   1       1.121   0.265  -0.360  0.00  0.00     0.003 A 
ATOM      6  C4  OXE d   1      -0.217  -0.073  -0.125  0.00  0.00    -0.002 A 
ATOM      7  C5  OXE d   1      -0.746  -1.269  -0.624  0.00  0.00    -0.002 A 
ATOM      8  C6  OXE d   1       0.071  -2.119  -1.362  0.00  0.00     0.003 A 
ENDROOT
TORSDOF 0
ENDMDL
