MODEL 1
REMARK minimizedAffinity -1.73494363
REMARK minimizedRMSD -1
REMARK  0 active torsions:
REMARK  status: ('A' for Active; 'I' for Inactive)
ROOT
ATOM      1  C2' OXE d   1      -0.987  -0.407  -2.177  0.00  0.00     0.078 C 
ATOM      2  C1' OXE d   1      -0.474  -2.973  -1.161  0.00  0.00     0.078 C 
ATOM      3  C1  OXE d   1       0.558  -1.900  -0.916  0.00  0.00    -0.078 A 
ATOM      4  C2  OXE d   1       0.320  -0.659  -1.457  0.00  0.00    -0.078 A 
ATOM      5  C3  OXE d   1       1.213   0.381  -1.214  0.00  0.00     0.003 A 
ATOM      6  C4  OXE d   1       2.424   0.137  -0.556  0.00  0.00    -0.002 A 
ATOM      7  C5  OXE d   1       2.704  -1.129  -0.032  0.00  0.00    -0.002 A 
ATOM      8  C6  OXE d   1       1.764  -2.146  -0.166  0.00  0.00     0.003 A 
ENDROOT
TORSDOF 0
ENDMDL
