MODEL 1
REMARK minimizedAffinity 13.2304611
REMARK minimizedRMSD -1
REMARK  0 active torsions:
REMARK  status: ('A' for Active; 'I' for Inactive)
ROOT
ATOM      1  C   UNL d   1      -1.888  -2.895   0.212  0.00  0.00    -0.002 A 
ATOM      2  C1  UNL d   1      -0.945  -3.761   0.748  0.00  0.00     0.010 A 
ATOM      3  C2  UNL d   1      -0.405  -3.528   2.014  0.00  0.00     0.041 A 
ATOM      4  C3  UNL d   1      -0.835  -2.400   2.741  0.00  0.00    -0.075 A 
ATOM      5  S   UNL d   1      -0.313  -1.915   4.311  0.00  0.00     0.015 SA
ATOM      6  C4  UNL d   1      -1.330  -0.547   4.308  0.00  0.00     0.022 A 
ATOM      7  C5  UNL d   1      -2.056  -0.448   3.145  0.00  0.00     0.026 A 
ATOM      8  C6  UNL d   1      -1.784  -1.514   2.223  0.00  0.00    -0.082 A 
ATOM      9  C7  UNL d   1      -2.311  -1.778   0.936  0.00  0.00     0.045 A 
ENDROOT
TORSDOF 0
ENDMDL
