MODEL 1
REMARK minimizedAffinity 19.268055
REMARK minimizedRMSD -1
REMARK  0 active torsions:
REMARK  status: ('A' for Active; 'I' for Inactive)
ROOT
ATOM      1  C   UNL d   1       6.000  -0.766  -4.009  0.00  0.00    -0.002 A 
ATOM      2  C1  UNL d   1       6.000   0.620  -4.087  0.00  0.00     0.010 A 
ATOM      3  C2  UNL d   1       4.945   1.361  -3.550  0.00  0.00     0.041 A 
ATOM      4  C3  UNL d   1       3.881   0.680  -2.927  0.00  0.00    -0.075 A 
ATOM      5  S   UNL d   1       2.484   1.379  -2.198  0.00  0.00     0.015 SA
ATOM      6  C4  UNL d   1       1.854  -0.144  -1.767  0.00  0.00     0.022 A 
ATOM      7  C5  UNL d   1       2.677  -1.173  -2.161  0.00  0.00     0.026 A 
ATOM      8  C6  UNL d   1       3.859  -0.715  -2.836  0.00  0.00    -0.082 A 
ATOM      9  C7  UNL d   1       4.942  -1.438  -3.390  0.00  0.00     0.045 A 
ENDROOT
TORSDOF 0
ENDMDL
