MODEL 1
REMARK minimizedAffinity 7.12469435
REMARK minimizedRMSD -1
REMARK  0 active torsions:
REMARK  status: ('A' for Active; 'I' for Inactive)
ROOT
ATOM      1  C   UNL d   1      -2.061  -1.599  -0.000  0.00  0.00    -0.002 A 
ATOM      2  C1  UNL d   1      -0.885  -2.167  -0.469  0.00  0.00     0.010 A 
ATOM      3  C2  UNL d   1      -0.623  -3.524  -0.272  0.00  0.00     0.041 A 
ATOM      4  C3  UNL d   1      -1.573  -4.309   0.409  0.00  0.00    -0.075 A 
ATOM      5  S   UNL d   1      -1.468  -5.993   0.765  0.00  0.00     0.015 SA
ATOM      6  C4  UNL d   1      -2.982  -5.999   1.547  0.00  0.00     0.022 A 
ATOM      7  C5  UNL d   1      -3.568  -4.755   1.546  0.00  0.00     0.026 A 
ATOM      8  C6  UNL d   1      -2.766  -3.761   0.890  0.00  0.00    -0.082 A 
ATOM      9  C7  UNL d   1      -3.002  -2.382   0.675  0.00  0.00     0.045 A 
ENDROOT
TORSDOF 0
ENDMDL
