MODEL 1
REMARK minimizedAffinity 13.7214518
REMARK minimizedRMSD -1
REMARK  0 active torsions:
REMARK  status: ('A' for Active; 'I' for Inactive)
ROOT
ATOM      1  C   UNL d   1      -1.122  -0.874   3.087  0.00  0.00    -0.002 A 
ATOM      2  C1  UNL d   1      -1.273  -0.142   1.917  0.00  0.00     0.010 A 
ATOM      3  C2  UNL d   1      -1.219  -0.773   0.673  0.00  0.00     0.041 A 
ATOM      4  C3  UNL d   1      -1.010  -2.165   0.623  0.00  0.00    -0.075 A 
ATOM      5  S   UNL d   1      -0.909  -3.151  -0.788  0.00  0.00     0.015 SA
ATOM      6  C4  UNL d   1      -0.663  -4.567   0.129  0.00  0.00     0.022 A 
ATOM      7  C5  UNL d   1      -0.655  -4.312   1.479  0.00  0.00     0.026 A 
ATOM      8  C6  UNL d   1      -0.856  -2.924   1.787  0.00  0.00    -0.082 A 
ATOM      9  C7  UNL d   1      -0.914  -2.255   3.033  0.00  0.00     0.045 A 
ENDROOT
TORSDOF 0
ENDMDL
