MODEL 1
REMARK minimizedAffinity 7.99087048
REMARK minimizedRMSD -1
REMARK  0 active torsions:
REMARK  status: ('A' for Active; 'I' for Inactive)
ROOT
ATOM      1  C   UNL d   1      -2.095  -1.897   1.933  0.00  0.00    -0.002 A 
ATOM      2  C1  UNL d   1      -1.259  -3.004   1.937  0.00  0.00     0.010 A 
ATOM      3  C2  UNL d   1      -0.870  -3.605   0.738  0.00  0.00     0.041 A 
ATOM      4  C3  UNL d   1      -1.339  -3.068  -0.477  0.00  0.00    -0.075 A 
ATOM      5  S   UNL d   1      -0.993  -3.638  -2.067  0.00  0.00     0.015 SA
ATOM      6  C4  UNL d   1      -1.947  -2.425  -2.790  0.00  0.00     0.022 A 
ATOM      7  C5  UNL d   1      -2.523  -1.597  -1.855  0.00  0.00     0.026 A 
ATOM      8  C6  UNL d   1      -2.181  -1.954  -0.507  0.00  0.00    -0.082 A 
ATOM      9  C7  UNL d   1      -2.559  -1.368   0.725  0.00  0.00     0.045 A 
ENDROOT
TORSDOF 0
ENDMDL
