MODEL 1
REMARK minimizedAffinity 2.81573725
REMARK minimizedRMSD -1
REMARK  0 active torsions:
REMARK  status: ('A' for Active; 'I' for Inactive)
ROOT
ATOM      1  C   UNL d   1      -2.266  -2.395  -1.883  0.00  0.00    -0.002 A 
ATOM      2  C1  UNL d   1      -1.906  -3.735  -1.869  0.00  0.00     0.010 A 
ATOM      3  C2  UNL d   1      -1.366  -4.313  -0.718  0.00  0.00     0.041 A 
ATOM      4  C3  UNL d   1      -1.196  -3.515   0.430  0.00  0.00    -0.075 A 
ATOM      5  S   UNL d   1      -0.556  -4.008   1.953  0.00  0.00     0.015 SA
ATOM      6  C4  UNL d   1      -0.748  -2.452   2.621  0.00  0.00     0.022 A 
ATOM      7  C5  UNL d   1      -1.285  -1.565   1.718  0.00  0.00     0.026 A 
ATOM      8  C6  UNL d   1      -1.553  -2.163   0.441  0.00  0.00    -0.082 A 
ATOM      9  C7  UNL d   1      -2.096  -1.606  -0.742  0.00  0.00     0.045 A 
ENDROOT
TORSDOF 0
ENDMDL
