MODEL 1
REMARK minimizedAffinity 9.55190086
REMARK minimizedRMSD -1
REMARK  0 active torsions:
REMARK  status: ('A' for Active; 'I' for Inactive)
ROOT
ATOM      1  C   UNL d   1      -1.117  -3.174   0.764  0.00  0.00    -0.002 A 
ATOM      2  C1  UNL d   1      -1.489  -1.883   0.419  0.00  0.00     0.010 A 
ATOM      3  C2  UNL d   1      -1.762  -0.934   1.407  0.00  0.00     0.041 A 
ATOM      4  C3  UNL d   1      -1.652  -1.309   2.760  0.00  0.00    -0.075 A 
ATOM      5  S   UNL d   1      -1.936  -0.315   4.140  0.00  0.00     0.015 SA
ATOM      6  C4  UNL d   1      -1.569  -1.581   5.220  0.00  0.00     0.022 A 
ATOM      7  C5  UNL d   1      -1.236  -2.741   4.561  0.00  0.00     0.026 A 
ATOM      8  C6  UNL d   1      -1.278  -2.603   3.133  0.00  0.00    -0.082 A 
ATOM      9  C7  UNL d   1      -1.009  -3.542   2.108  0.00  0.00     0.045 A 
ENDROOT
TORSDOF 0
ENDMDL
