MODEL 1
REMARK minimizedAffinity 8.16743565
REMARK minimizedRMSD -1
REMARK  0 active torsions:
REMARK  status: ('A' for Active; 'I' for Inactive)
ROOT
ATOM      1  C   UNL d   1      -0.895  -2.255   2.987  0.00  0.00    -0.002 A 
ATOM      2  C1  UNL d   1      -0.391  -3.482   2.581  0.00  0.00     0.010 A 
ATOM      3  C2  UNL d   1      -0.523  -3.901   1.255  0.00  0.00     0.041 A 
ATOM      4  C3  UNL d   1      -1.176  -3.056   0.336  0.00  0.00    -0.075 A 
ATOM      5  S   UNL d   1      -1.454  -3.360  -1.338  0.00  0.00     0.015 SA
ATOM      6  C4  UNL d   1      -2.248  -1.867  -1.554  0.00  0.00     0.022 A 
ATOM      7  C5  UNL d   1      -2.309  -1.143  -0.387  0.00  0.00     0.026 A 
ATOM      8  C6  UNL d   1      -1.692  -1.816   0.721  0.00  0.00    -0.082 A 
ATOM      9  C7  UNL d   1      -1.543  -1.420   2.072  0.00  0.00     0.045 A 
ENDROOT
TORSDOF 0
ENDMDL
