MODEL 1
REMARK minimizedAffinity 5.93206692
REMARK minimizedRMSD -1
REMARK  0 active torsions:
REMARK  status: ('A' for Active; 'I' for Inactive)
ROOT
ATOM      1  C   UNL d   1      -0.674  -3.742   1.413  0.00  0.00    -0.002 A 
ATOM      2  C1  UNL d   1      -1.252  -2.570   1.880  0.00  0.00     0.010 A 
ATOM      3  C2  UNL d   1      -1.883  -1.690   0.999  0.00  0.00     0.041 A 
ATOM      4  C3  UNL d   1      -1.925  -2.011  -0.372  0.00  0.00    -0.075 A 
ATOM      5  S   UNL d   1      -2.644  -1.084  -1.635  0.00  0.00     0.015 SA
ATOM      6  C4  UNL d   1      -2.201  -2.223  -2.824  0.00  0.00     0.022 A 
ATOM      7  C5  UNL d   1      -1.521  -3.290  -2.288  0.00  0.00     0.026 A 
ATOM      8  C6  UNL d   1      -1.350  -3.186  -0.866  0.00  0.00    -0.082 A 
ATOM      9  C7  UNL d   1      -0.717  -4.058   0.053  0.00  0.00     0.045 A 
ENDROOT
TORSDOF 0
ENDMDL
