MODEL 1
REMARK minimizedAffinity 19.8225212
REMARK minimizedRMSD -1
REMARK  0 active torsions:
REMARK  status: ('A' for Active; 'I' for Inactive)
ROOT
ATOM      1  C   UNL d   1      -5.948  -1.026   0.792  0.00  0.00    -0.002 A 
ATOM      2  C1  UNL d   1      -5.999  -2.205   1.521  0.00  0.00     0.010 A 
ATOM      3  C2  UNL d   1      -4.829  -2.906   1.822  0.00  0.00     0.041 A 
ATOM      4  C3  UNL d   1      -3.595  -2.395   1.374  0.00  0.00    -0.075 A 
ATOM      5  S   UNL d   1      -2.034  -3.082   1.625  0.00  0.00     0.015 SA
ATOM      6  C4  UNL d   1      -1.262  -1.825   0.770  0.00  0.00     0.022 A 
ATOM      7  C5  UNL d   1      -2.158  -0.896   0.298  0.00  0.00     0.026 A 
ATOM      8  C6  UNL d   1      -3.518  -1.209   0.639  0.00  0.00    -0.082 A 
ATOM      9  C7  UNL d   1      -4.722  -0.522   0.349  0.00  0.00     0.045 A 
ENDROOT
TORSDOF 0
ENDMDL
