MODEL 1
REMARK minimizedAffinity 4.61206627
REMARK minimizedRMSD -1
REMARK  0 active torsions:
REMARK  status: ('A' for Active; 'I' for Inactive)
ROOT
ATOM      1  C   UNL d   1      -4.786   2.663   5.983  0.00  0.00    -0.002 A 
ATOM      2  C1  UNL d   1      -5.983   1.962   6.000  0.00  0.00     0.010 A 
ATOM      3  C2  UNL d   1      -5.988   0.566   5.999  0.00  0.00     0.041 A 
ATOM      4  C3  UNL d   1      -4.758  -0.120   5.984  0.00  0.00    -0.075 A 
ATOM      5  S   UNL d   1      -4.520  -1.828   5.981  0.00  0.00     0.015 SA
ATOM      6  C4  UNL d   1      -2.824  -1.667   5.958  0.00  0.00     0.022 A 
ATOM      7  C5  UNL d   1      -2.431  -0.349   5.952  0.00  0.00     0.026 A 
ATOM      8  C6  UNL d   1      -3.539   0.564   5.967  0.00  0.00    -0.082 A 
ATOM      9  C7  UNL d   1      -3.567   1.979   5.967  0.00  0.00     0.045 A 
ENDROOT
TORSDOF 0
ENDMDL
