MODEL 1
REMARK minimizedAffinity 6.16107321
REMARK minimizedRMSD -1
REMARK  0 active torsions:
REMARK  status: ('A' for Active; 'I' for Inactive)
ROOT
ATOM      1  N1  IND d   1      -0.569   2.744   1.934  0.00  0.00    -0.196 N 
ATOM      2  C2  IND d   1       0.710   2.262   1.945  0.00  0.00     0.054 A 
ATOM      3  C3  IND d   1       0.729   0.987   2.394  0.00  0.00    -0.031 A 
ATOM      4  C4  IND d   1      -1.233  -0.538   3.067  0.00  0.00     0.051 A 
ATOM      5  C5  IND d   1      -2.586  -0.532   3.256  0.00  0.00    -0.031 A 
ATOM      6  C6  IND d   1      -3.352   0.588   3.007  0.00  0.00     0.015 A 
ATOM      7  C7  IND d   1      -2.792   1.745   2.545  0.00  0.00    -0.016 A 
ATOM      8  C8  IND d   1      -1.417   1.745   2.359  0.00  0.00    -0.047 A 
ATOM      9  C9  IND d   1      -0.629   0.625   2.651  0.00  0.00    -0.096 A 
ATOM     10  HN1 IND d   1      -0.804   3.537   1.700  0.00  0.00     0.298 HD
ENDROOT
TORSDOF 0
ENDMDL
