MODEL 1
REMARK minimizedAffinity 13.482707
REMARK minimizedRMSD -1
REMARK  0 active torsions:
REMARK  status: ('A' for Active; 'I' for Inactive)
ROOT
ATOM      1  N1  IND d   1       4.501  -0.762   2.571  0.00  0.00    -0.196 N 
ATOM      2  C2  IND d   1       5.809  -0.368   2.634  0.00  0.00     0.054 A 
ATOM      3  C3  IND d   1       5.999   0.749   1.897  0.00  0.00    -0.031 A 
ATOM      4  C4  IND d   1       4.286   2.157   0.588  0.00  0.00     0.051 A 
ATOM      5  C5  IND d   1       2.974   2.175   0.206  0.00  0.00    -0.031 A 
ATOM      6  C6  IND d   1       2.086   1.197   0.603  0.00  0.00     0.015 A 
ATOM      7  C7  IND d   1       2.475   0.166   1.410  0.00  0.00    -0.016 A 
ATOM      8  C8  IND d   1       3.808   0.140   1.794  0.00  0.00    -0.047 A 
ATOM      9  C9  IND d   1       4.724   1.107   1.359  0.00  0.00    -0.096 A 
ATOM     10  HN1 IND d   1       4.168  -1.457   2.952  0.00  0.00     0.298 HD
ENDROOT
TORSDOF 0
ENDMDL
