MODEL 1
REMARK minimizedAffinity 13.8998404
REMARK minimizedRMSD -1
REMARK  0 active torsions:
REMARK  status: ('A' for Active; 'I' for Inactive)
ROOT
ATOM      1  N1  IND d   1       3.224  -0.524   1.811  0.00  0.00    -0.196 N 
ATOM      2  C2  IND d   1       4.125   0.086   0.983  0.00  0.00     0.054 A 
ATOM      3  C3  IND d   1       3.639   1.272   0.552  0.00  0.00    -0.031 A 
ATOM      4  C4  IND d   1       1.434   2.454   1.158  0.00  0.00     0.051 A 
ATOM      5  C5  IND d   1       0.269   2.272   1.849  0.00  0.00    -0.031 A 
ATOM      6  C6  IND d   1       0.025   1.126   2.579  0.00  0.00     0.015 A 
ATOM      7  C7  IND d   1       0.947   0.121   2.655  0.00  0.00    -0.016 A 
ATOM      8  C8  IND d   1       2.129   0.299   1.950  0.00  0.00    -0.047 A 
ATOM      9  C9  IND d   1       2.364   1.441   1.173  0.00  0.00    -0.096 A 
ATOM     10  HN1 IND d   1       3.325  -1.293   2.182  0.00  0.00     0.298 HD
ENDROOT
TORSDOF 0
ENDMDL
