MODEL 1
REMARK minimizedAffinity 7.07228947
REMARK minimizedRMSD -1
REMARK  0 active torsions:
REMARK  status: ('A' for Active; 'I' for Inactive)
ROOT
ATOM      1  N1  IND d   1       3.557  -0.408   1.649  0.00  0.00    -0.196 N 
ATOM      2  C2  IND d   1       4.481   0.169   0.824  0.00  0.00     0.054 A 
ATOM      3  C3  IND d   1       4.086   1.414   0.474  0.00  0.00    -0.031 A 
ATOM      4  C4  IND d   1       2.012   2.743   1.221  0.00  0.00     0.051 A 
ATOM      5  C5  IND d   1       0.857   2.621   1.942  0.00  0.00    -0.031 A 
ATOM      6  C6  IND d   1       0.538   1.462   2.618  0.00  0.00     0.015 A 
ATOM      7  C7  IND d   1       1.371   0.379   2.608  0.00  0.00    -0.016 A 
ATOM      8  C8  IND d   1       2.541   0.496   1.871  0.00  0.00    -0.047 A 
ATOM      9  C9  IND d   1       2.850   1.655   1.148  0.00  0.00    -0.096 A 
ATOM     10  HN1 IND d   1       3.602  -1.203   1.975  0.00  0.00     0.298 HD
ENDROOT
TORSDOF 0
ENDMDL
