MODEL 1
REMARK minimizedAffinity 3.80958056
REMARK minimizedRMSD -1
REMARK  0 active torsions:
REMARK  status: ('A' for Active; 'I' for Inactive)
ROOT
ATOM      1  N1  IND d   1      -4.441  -4.489  -4.238  0.00  0.00    -0.196 N 
ATOM      2  C2  IND d   1      -5.331  -4.953  -3.311  0.00  0.00     0.054 A 
ATOM      3  C3  IND d   1      -5.007  -4.501  -2.079  0.00  0.00    -0.031 A 
ATOM      4  C4  IND d   1      -3.116  -2.904  -1.369  0.00  0.00     0.051 A 
ATOM      5  C5  IND d   1      -2.023  -2.244  -1.856  0.00  0.00    -0.031 A 
ATOM      6  C6  IND d   1      -1.675  -2.298  -3.191  0.00  0.00     0.015 A 
ATOM      7  C7  IND d   1      -2.416  -3.007  -4.093  0.00  0.00    -0.016 A 
ATOM      8  C8  IND d   1      -3.523  -3.684  -3.600  0.00  0.00    -0.047 A 
ATOM      9  C9  IND d   1      -3.857  -3.668  -2.239  0.00  0.00    -0.096 A 
ATOM     10  HN1 IND d   1      -4.452  -4.669  -5.079  0.00  0.00     0.298 HD
ENDROOT
TORSDOF 0
ENDMDL
