MODEL 1
REMARK minimizedAffinity 3.81903529
REMARK minimizedRMSD -1
REMARK  0 active torsions:
REMARK  status: ('A' for Active; 'I' for Inactive)
ROOT
ATOM      1  N1  IND d   1       4.579  -0.588   2.294  0.00  0.00    -0.196 N 
ATOM      2  C2  IND d   1       5.874  -0.155   2.361  0.00  0.00     0.054 A 
ATOM      3  C3  IND d   1       5.999   1.047   1.754  0.00  0.00    -0.031 A 
ATOM      4  C4  IND d   1       4.193   2.530   0.675  0.00  0.00     0.051 A 
ATOM      5  C5  IND d   1       2.868   2.543   0.339  0.00  0.00    -0.031 A 
ATOM      6  C6  IND d   1       2.028   1.492   0.647  0.00  0.00     0.015 A 
ATOM      7  C7  IND d   1       2.482   0.390   1.314  0.00  0.00    -0.016 A 
ATOM      8  C8  IND d   1       3.828   0.371   1.650  0.00  0.00    -0.047 A 
ATOM      9  C9  IND d   1       4.694   1.415   1.303  0.00  0.00    -0.096 A 
ATOM     10  HN1 IND d   1       4.283  -1.335   2.602  0.00  0.00     0.298 HD
ENDROOT
TORSDOF 0
ENDMDL
