MODEL 1
REMARK minimizedAffinity -3.5425539
REMARK minimizedRMSD -1
REMARK  0 active torsions:
REMARK  status: ('A' for Active; 'I' for Inactive)
ROOT
ATOM      1  N1  IND d   1       2.542  -0.278   0.857  0.00  0.00    -0.196 N 
ATOM      2  C2  IND d   1       1.763   0.740   0.382  0.00  0.00     0.054 A 
ATOM      3  C3  IND d   1       2.447   1.906   0.404  0.00  0.00    -0.031 A 
ATOM      4  C4  IND d   1       4.889   2.357   1.082  0.00  0.00     0.051 A 
ATOM      5  C5  IND d   1       5.988   1.747   1.617  0.00  0.00    -0.031 A 
ATOM      6  C6  IND d   1       5.997   0.403   1.930  0.00  0.00     0.015 A 
ATOM      7  C7  IND d   1       4.904  -0.387   1.707  0.00  0.00    -0.016 A 
ATOM      8  C8  IND d   1       3.783   0.231   1.171  0.00  0.00    -0.047 A 
ATOM      9  C9  IND d   1       3.755   1.603   0.891  0.00  0.00    -0.096 A 
ATOM     10  HN1 IND d   1       2.298  -1.098   0.944  0.00  0.00     0.298 HD
ENDROOT
TORSDOF 0
ENDMDL
