MODEL 1
REMARK minimizedAffinity -3.8404181
REMARK minimizedRMSD -1
REMARK  0 active torsions:
REMARK  status: ('A' for Active; 'I' for Inactive)
ROOT
ATOM      1  N1  IND d   1      -5.628   4.630   5.999  0.00  0.00    -0.196 N 
ATOM      2  C2  IND d   1      -5.793   5.553   5.004  0.00  0.00     0.054 A 
ATOM      3  C3  IND d   1      -5.625   4.975   3.793  0.00  0.00    -0.031 A 
ATOM      4  C4  IND d   1      -5.177   2.508   3.207  0.00  0.00     0.051 A 
ATOM      5  C5  IND d   1      -4.913   1.296   3.779  0.00  0.00    -0.031 A 
ATOM      6  C6  IND d   1      -4.876   1.129   5.148  0.00  0.00     0.015 A 
ATOM      7  C7  IND d   1      -5.114   2.170   6.000  0.00  0.00    -0.016 A 
ATOM      8  C8  IND d   1      -5.375   3.404   5.422  0.00  0.00    -0.047 A 
ATOM      9  C9  IND d   1      -5.372   3.589   4.034  0.00  0.00    -0.096 A 
ATOM     10  HN1 IND d   1      -5.675   4.788   6.843  0.00  0.00     0.298 HD
ENDROOT
TORSDOF 0
ENDMDL
