MODEL 1
REMARK minimizedAffinity 8.63156891
REMARK minimizedRMSD -1
REMARK  0 active torsions:
REMARK  status: ('A' for Active; 'I' for Inactive)
ROOT
ATOM      1  N1  IND d   1      -4.323   0.221   2.637  0.00  0.00    -0.196 N 
ATOM      2  C2  IND d   1      -4.058   1.492   3.066  0.00  0.00     0.054 A 
ATOM      3  C3  IND d   1      -4.475   1.655   4.341  0.00  0.00    -0.031 A 
ATOM      4  C4  IND d   1      -5.528  -0.058   5.949  0.00  0.00     0.051 A 
ATOM      5  C5  IND d   1      -6.000  -1.340   5.999  0.00  0.00    -0.031 A 
ATOM      6  C6  IND d   1      -5.933  -2.185   4.910  0.00  0.00     0.015 A 
ATOM      7  C7  IND d   1      -5.379  -1.781   3.728  0.00  0.00    -0.016 A 
ATOM      8  C8  IND d   1      -4.905  -0.478   3.671  0.00  0.00    -0.047 A 
ATOM      9  C9  IND d   1      -5.009   0.398   4.760  0.00  0.00    -0.096 A 
ATOM     10  HN1 IND d   1      -4.155  -0.089   1.853  0.00  0.00     0.298 HD
ENDROOT
TORSDOF 0
ENDMDL
