MODEL 1
REMARK minimizedAffinity 13.0077915
REMARK minimizedRMSD -1
REMARK  0 active torsions:
REMARK  status: ('A' for Active; 'I' for Inactive)
ROOT
ATOM      1  N1  IND d   1      -1.468  -3.842  -2.981  0.00  0.00    -0.196 N 
ATOM      2  C2  IND d   1      -2.667  -3.250  -2.699  0.00  0.00     0.054 A 
ATOM      3  C3  IND d   1      -2.578  -2.526  -1.561  0.00  0.00    -0.031 A 
ATOM      4  C4  IND d   1      -0.536  -2.090  -0.055  0.00  0.00     0.051 A 
ATOM      5  C5  IND d   1       0.772  -2.446   0.115  0.00  0.00    -0.031 A 
ATOM      6  C6  IND d   1       1.415  -3.301  -0.758  0.00  0.00     0.015 A 
ATOM      7  C7  IND d   1       0.773  -3.825  -1.844  0.00  0.00    -0.016 A 
ATOM      8  C8  IND d   1      -0.558  -3.471  -2.016  0.00  0.00    -0.047 A 
ATOM      9  C9  IND d   1      -1.227  -2.638  -1.110  0.00  0.00    -0.096 A 
ATOM     10  HN1 IND d   1      -1.309  -4.359  -3.650  0.00  0.00     0.298 HD
ENDROOT
TORSDOF 0
ENDMDL
