MODEL 1
REMARK minimizedAffinity 19.1219578
REMARK minimizedRMSD -1
REMARK  0 active torsions:
REMARK  status: ('A' for Active; 'I' for Inactive)
ROOT
ATOM      1  N1  IND d   1       3.928   0.410   0.509  0.00  0.00    -0.196 N 
ATOM      2  C2  IND d   1       3.094   0.835  -0.487  0.00  0.00     0.054 A 
ATOM      3  C3  IND d   1       1.870   1.117   0.014  0.00  0.00    -0.031 A 
ATOM      4  C4  IND d   1       1.044   1.050   2.451  0.00  0.00     0.051 A 
ATOM      5  C5  IND d   1       1.433   0.690   3.711  0.00  0.00    -0.031 A 
ATOM      6  C6  IND d   1       2.701   0.211   3.974  0.00  0.00     0.015 A 
ATOM      7  C7  IND d   1       3.634   0.084   2.984  0.00  0.00    -0.016 A 
ATOM      8  C8  IND d   1       3.240   0.442   1.702  0.00  0.00    -0.047 A 
ATOM      9  C9  IND d   1       1.942   0.889   1.422  0.00  0.00    -0.096 A 
ATOM     10  HN1 IND d   1       4.746   0.163   0.408  0.00  0.00     0.298 HD
ENDROOT
TORSDOF 0
ENDMDL
