MODEL 1
REMARK minimizedAffinity 10.9647045
REMARK minimizedRMSD -1
REMARK  0 active torsions:
REMARK  status: ('A' for Active; 'I' for Inactive)
ROOT
ATOM      1  N1  IND d   1      -3.182  -3.177  -2.355  0.00  0.00    -0.196 N 
ATOM      2  C2  IND d   1      -2.449  -3.507  -3.460  0.00  0.00     0.054 A 
ATOM      3  C3  IND d   1      -1.149  -3.675  -3.129  0.00  0.00    -0.031 A 
ATOM      4  C4  IND d   1      -0.022  -3.559  -0.817  0.00  0.00     0.051 A 
ATOM      5  C5  IND d   1      -0.275  -3.254   0.491  0.00  0.00    -0.031 A 
ATOM      6  C6  IND d   1      -1.537  -2.903   0.926  0.00  0.00     0.015 A 
ATOM      7  C7  IND d   1      -2.599  -2.855   0.068  0.00  0.00    -0.016 A 
ATOM      8  C8  IND d   1      -2.344  -3.158  -1.262  0.00  0.00    -0.047 A 
ATOM      9  C9  IND d   1      -1.057  -3.473  -1.718  0.00  0.00    -0.096 A 
ATOM     10  HN1 IND d   1      -4.026  -3.009  -2.344  0.00  0.00     0.298 HD
ENDROOT
TORSDOF 0
ENDMDL
