MODEL 1
REMARK minimizedAffinity 15.233942
REMARK minimizedRMSD -1
REMARK  0 active torsions:
REMARK  status: ('A' for Active; 'I' for Inactive)
ROOT
ATOM      1  N1  IND d   1       1.580  -2.820  -6.000  0.00  0.00    -0.196 N 
ATOM      2  C2  IND d   1       2.385  -3.371  -5.042  0.00  0.00     0.054 A 
ATOM      3  C3  IND d   1       1.717  -3.480  -3.872  0.00  0.00    -0.031 A 
ATOM      4  C4  IND d   1      -0.735  -2.914  -3.329  0.00  0.00     0.051 A 
ATOM      5  C5  IND d   1      -1.856  -2.351  -3.872  0.00  0.00    -0.031 A 
ATOM      6  C6  IND d   1      -1.891  -1.909  -5.179  0.00  0.00     0.015 A 
ATOM      7  C7  IND d   1      -0.804  -2.025  -5.999  0.00  0.00    -0.016 A 
ATOM      8  C8  IND d   1       0.338  -2.589  -5.449  0.00  0.00    -0.047 A 
ATOM      9  C9  IND d   1       0.392  -3.001  -4.111  0.00  0.00    -0.096 A 
ATOM     10  HN1 IND d   1       1.810  -2.647  -6.810  0.00  0.00     0.298 HD
ENDROOT
TORSDOF 0
ENDMDL
