MODEL 1
REMARK minimizedAffinity 6.11213398
REMARK minimizedRMSD -1
REMARK  0 active torsions:
REMARK  status: ('A' for Active; 'I' for Inactive)
ROOT
ATOM      1  N1  IND d   1       3.754   3.831  -6.000  0.00  0.00    -0.196 N 
ATOM      2  C2  IND d   1       3.670   4.891  -5.141  0.00  0.00     0.054 A 
ATOM      3  C3  IND d   1       4.021   4.512  -3.891  0.00  0.00    -0.031 A 
ATOM      4  C4  IND d   1       4.863   2.230  -3.050  0.00  0.00     0.051 A 
ATOM      5  C5  IND d   1       5.073   0.942  -3.457  0.00  0.00    -0.031 A 
ATOM      6  C6  IND d   1       4.852   0.544  -4.760  0.00  0.00     0.015 A 
ATOM      7  C7  IND d   1       4.421   1.426  -5.711  0.00  0.00    -0.016 A 
ATOM      8  C8  IND d   1       4.201   2.733  -5.299  0.00  0.00    -0.047 A 
ATOM      9  C9  IND d   1       4.383   3.132  -3.969  0.00  0.00    -0.096 A 
ATOM     10  HN1 IND d   1       3.560   3.848  -6.837  0.00  0.00     0.298 HD
ENDROOT
TORSDOF 0
ENDMDL
