MODEL 1
REMARK minimizedAffinity 9.53123474
REMARK minimizedRMSD -1
REMARK  0 active torsions:
REMARK  status: ('A' for Active; 'I' for Inactive)
ROOT
ATOM      1  N1  IND d   1       4.334  -0.611   3.107  0.00  0.00    -0.196 N 
ATOM      2  C2  IND d   1       5.403  -0.554   2.257  0.00  0.00     0.054 A 
ATOM      3  C3  IND d   1       5.061   0.077   1.112  0.00  0.00    -0.031 A 
ATOM      4  C4  IND d   1       2.832   1.187   0.459  0.00  0.00     0.051 A 
ATOM      5  C5  IND d   1       1.548   1.362   0.894  0.00  0.00    -0.031 A 
ATOM      6  C6  IND d   1       1.119   0.881   2.114  0.00  0.00     0.015 A 
ATOM      7  C7  IND d   1       1.965   0.214   2.954  0.00  0.00    -0.016 A 
ATOM      8  C8  IND d   1       3.268   0.029   2.513  0.00  0.00    -0.047 A 
ATOM      9  C9  IND d   1       3.697   0.477   1.257  0.00  0.00    -0.096 A 
ATOM     10  HN1 IND d   1       4.328  -0.983   3.882  0.00  0.00     0.298 HD
ENDROOT
TORSDOF 0
ENDMDL
