MODEL 1
REMARK minimizedAffinity 14.5477152
REMARK minimizedRMSD -1
REMARK  0 active torsions:
REMARK  status: ('A' for Active; 'I' for Inactive)
ROOT
ATOM      1  N1  IND d   1      -3.546  -3.001  -1.328  0.00  0.00    -0.196 N 
ATOM      2  C2  IND d   1      -2.890  -2.866  -2.519  0.00  0.00     0.054 A 
ATOM      3  C3  IND d   1      -1.574  -2.644  -2.309  0.00  0.00    -0.031 A 
ATOM      4  C4  IND d   1      -0.261  -2.565  -0.096  0.00  0.00     0.051 A 
ATOM      5  C5  IND d   1      -0.433  -2.597   1.260  0.00  0.00    -0.031 A 
ATOM      6  C6  IND d   1      -1.675  -2.773   1.834  0.00  0.00     0.015 A 
ATOM      7  C7  IND d   1      -2.796  -2.934   1.070  0.00  0.00    -0.016 A 
ATOM      8  C8  IND d   1      -2.627  -2.894  -0.307  0.00  0.00    -0.047 A 
ATOM      9  C9  IND d   1      -1.375  -2.674  -0.895  0.00  0.00    -0.096 A 
ATOM     10  HN1 IND d   1      -4.391  -3.131  -1.232  0.00  0.00     0.298 HD
ENDROOT
TORSDOF 0
ENDMDL
