MODEL 1
REMARK minimizedAffinity 8.57029343
REMARK minimizedRMSD -1
REMARK  0 active torsions:
REMARK  status: ('A' for Active; 'I' for Inactive)
ROOT
ATOM      1  N1  IND d   1      -3.264  -3.072  -1.838  0.00  0.00    -0.196 N 
ATOM      2  C2  IND d   1      -2.583  -3.307  -2.999  0.00  0.00     0.054 A 
ATOM      3  C3  IND d   1      -1.264  -3.463  -2.747  0.00  0.00    -0.031 A 
ATOM      4  C4  IND d   1      -0.019  -3.473  -0.494  0.00  0.00     0.051 A 
ATOM      5  C5  IND d   1      -0.210  -3.263   0.843  0.00  0.00    -0.031 A 
ATOM      6  C6  IND d   1      -1.454  -2.976   1.366  0.00  0.00     0.015 A 
ATOM      7  C7  IND d   1      -2.561  -2.898   0.568  0.00  0.00    -0.016 A 
ATOM      8  C8  IND d   1      -2.370  -3.104  -0.791  0.00  0.00    -0.047 A 
ATOM      9  C9  IND d   1      -1.102  -3.353  -1.332  0.00  0.00    -0.096 A 
ATOM     10  HN1 IND d   1      -4.109  -2.928  -1.772  0.00  0.00     0.298 HD
ENDROOT
TORSDOF 0
ENDMDL
