MODEL 1
REMARK minimizedAffinity 8.06960869
REMARK minimizedRMSD -1
REMARK  1 active torsions:
REMARK  status: ('A' for Active; 'I' for Inactive)
REMARK    1  A    between atoms: C1_2  and  C2_3 
ROOT
ATOM      1  C2  UNL d   1       2.555   0.316  -1.595  0.00  0.00    -0.073 A 
ATOM      2  C3  UNL d   1       2.040   0.187  -2.890  0.00  0.00    -0.002 A 
ATOM      3  C4  UNL d   1       1.825  -1.077  -3.441  0.00  0.00     0.004 A 
ATOM      4  C5  UNL d   1       2.115  -2.223  -2.702  0.00  0.00    -0.004 A 
ATOM      5  C6  UNL d   1       2.618  -2.116  -1.401  0.00  0.00    -0.075 A 
ATOM      6  C7  UNL d   1       2.937  -3.339  -0.593  0.00  0.00     0.076 C 
ATOM      7  C8  UNL d   1       2.834  -0.843  -0.856  0.00  0.00     0.001 A 
ENDROOT
BRANCH   1   8
ATOM      8  C1  UNL d   1       2.783   1.678  -0.994  0.00  0.00     0.053 C 
ATOM      9  C   UNL d   1       4.042   1.722  -0.143  0.00  0.00     0.018 C 
ENDBRANCH   1   8
TORSDOF 1
ENDMDL
