MODEL 1
REMARK minimizedAffinity 12.2747231
REMARK minimizedRMSD -1
REMARK  1 active torsions:
REMARK  status: ('A' for Active; 'I' for Inactive)
REMARK    1  A    between atoms: C1_2  and  C2_3 
ROOT
ATOM      1  C2  UNL d   1       3.386  -3.507  -0.811  0.00  0.00    -0.073 A 
ATOM      2  C3  UNL d   1       3.016  -2.160  -0.731  0.00  0.00    -0.002 A 
ATOM      3  C4  UNL d   1       1.953  -1.673  -1.493  0.00  0.00     0.004 A 
ATOM      4  C5  UNL d   1       1.245  -2.529  -2.337  0.00  0.00    -0.004 A 
ATOM      5  C6  UNL d   1       1.591  -3.881  -2.422  0.00  0.00    -0.075 A 
ATOM      6  C7  UNL d   1       0.841  -4.814  -3.326  0.00  0.00     0.076 C 
ATOM      7  C8  UNL d   1       2.662  -4.362  -1.655  0.00  0.00     0.001 A 
ENDROOT
BRANCH   1   8
ATOM      8  C1  UNL d   1       4.529  -4.038   0.014  0.00  0.00     0.053 C 
ATOM      9  C   UNL d   1       5.213  -5.221  -0.653  0.00  0.00     0.018 C 
ENDBRANCH   1   8
TORSDOF 1
ENDMDL
