MODEL 1
REMARK minimizedAffinity -2.7061944
REMARK minimizedRMSD -1
REMARK  1 active torsions:
REMARK  status: ('A' for Active; 'I' for Inactive)
REMARK    1  A    between atoms: C1_2  and  C2_3 
ROOT
ATOM      1  C2  UNL d   1      -5.773  -5.299   1.451  0.00  0.00    -0.073 A 
ATOM      2  C3  UNL d   1      -5.901  -5.996   2.658  0.00  0.00    -0.002 A 
ATOM      3  C4  UNL d   1      -5.696  -5.342   3.874  0.00  0.00     0.004 A 
ATOM      4  C5  UNL d   1      -5.369  -3.986   3.896  0.00  0.00    -0.004 A 
ATOM      5  C6  UNL d   1      -5.250  -3.270   2.700  0.00  0.00    -0.075 A 
ATOM      6  C7  UNL d   1      -4.897  -1.812   2.707  0.00  0.00     0.076 C 
ATOM      7  C8  UNL d   1      -5.454  -3.934   1.483  0.00  0.00     0.001 A 
ENDROOT
BRANCH   1   8
ATOM      8  C1  UNL d   1      -6.000  -6.000   0.136  0.00  0.00     0.053 C 
ATOM      9  C   UNL d   1      -4.754  -5.993  -0.735  0.00  0.00     0.018 C 
ENDBRANCH   1   8
TORSDOF 1
ENDMDL
