MODEL 1
REMARK minimizedAffinity 17.4892712
REMARK minimizedRMSD -1
REMARK  1 active torsions:
REMARK  status: ('A' for Active; 'I' for Inactive)
REMARK    1  A    between atoms: C1_2  and  C2_3 
ROOT
ATOM      1  C2  UNL d   1      -3.677   1.392   3.774  0.00  0.00    -0.073 A 
ATOM      2  C3  UNL d   1      -2.491   1.535   3.044  0.00  0.00    -0.002 A 
ATOM      3  C4  UNL d   1      -2.187   0.646   2.012  0.00  0.00     0.004 A 
ATOM      4  C5  UNL d   1      -3.067  -0.389   1.695  0.00  0.00    -0.004 A 
ATOM      5  C6  UNL d   1      -4.262  -0.541   2.405  0.00  0.00    -0.075 A 
ATOM      6  C7  UNL d   1      -5.218  -1.650   2.078  0.00  0.00     0.076 C 
ATOM      7  C8  UNL d   1      -4.559   0.354   3.442  0.00  0.00     0.001 A 
ENDROOT
BRANCH   1   8
ATOM      8  C1  UNL d   1      -4.013   2.353   4.885  0.00  0.00     0.053 C 
ATOM      9  C   UNL d   1      -5.252   3.176   4.572  0.00  0.00     0.018 C 
ENDBRANCH   1   8
TORSDOF 1
ENDMDL
