MODEL 1
REMARK minimizedAffinity 14.2073116
REMARK minimizedRMSD -1
REMARK  1 active torsions:
REMARK  status: ('A' for Active; 'I' for Inactive)
REMARK    1  A    between atoms: C1_2  and  C2_3 
ROOT
ATOM      1  C2  UNL d   1      -3.756  -1.090   3.901  0.00  0.00    -0.073 A 
ATOM      2  C3  UNL d   1      -3.747  -0.530   2.618  0.00  0.00    -0.002 A 
ATOM      3  C4  UNL d   1      -3.381   0.803   2.433  0.00  0.00     0.004 A 
ATOM      4  C5  UNL d   1      -3.013   1.588   3.525  0.00  0.00    -0.004 A 
ATOM      5  C6  UNL d   1      -3.004   1.044   4.814  0.00  0.00    -0.075 A 
ATOM      6  C7  UNL d   1      -2.612   1.876   6.000  0.00  0.00     0.076 C 
ATOM      7  C8  UNL d   1      -3.375  -0.295   4.992  0.00  0.00     0.001 A 
ENDROOT
BRANCH   1   8
ATOM      8  C1  UNL d   1      -4.144  -2.531   4.105  0.00  0.00     0.053 C 
ATOM      9  C   UNL d   1      -2.949  -3.397   4.470  0.00  0.00     0.018 C 
ENDBRANCH   1   8
TORSDOF 1
ENDMDL
