MODEL 1
REMARK minimizedAffinity 7.47605801
REMARK minimizedRMSD -1
REMARK  1 active torsions:
REMARK  status: ('A' for Active; 'I' for Inactive)
REMARK    1  A    between atoms: C1_2  and  C2_3 
ROOT
ATOM      1  C2  UNL d   1      -3.992   1.496   3.918  0.00  0.00    -0.073 A 
ATOM      2  C3  UNL d   1      -2.710   1.589   3.364  0.00  0.00    -0.002 A 
ATOM      3  C4  UNL d   1      -2.301   0.692   2.377  0.00  0.00     0.004 A 
ATOM      4  C5  UNL d   1      -3.170  -0.301   1.927  0.00  0.00    -0.004 A 
ATOM      5  C6  UNL d   1      -4.460  -0.404   2.460  0.00  0.00    -0.075 A 
ATOM      6  C7  UNL d   1      -5.406  -1.468   1.989  0.00  0.00     0.076 C 
ATOM      7  C8  UNL d   1      -4.862   0.499   3.453  0.00  0.00     0.001 A 
ENDROOT
BRANCH   1   8
ATOM      8  C1  UNL d   1      -4.440   2.466   4.980  0.00  0.00     0.053 C 
ATOM      9  C   UNL d   1      -5.787   3.090   4.650  0.00  0.00     0.018 C 
ENDBRANCH   1   8
TORSDOF 1
ENDMDL
