MODEL 1
REMARK minimizedAffinity 3.36388946
REMARK minimizedRMSD -1
REMARK  1 active torsions:
REMARK  status: ('A' for Active; 'I' for Inactive)
REMARK    1  A    between atoms: C1_2  and  C2_3 
ROOT
ATOM      1  C2  UNL d   1       3.662  -3.779  -1.271  0.00  0.00    -0.073 A 
ATOM      2  C3  UNL d   1       2.434  -3.712  -1.939  0.00  0.00    -0.002 A 
ATOM      3  C4  UNL d   1       2.363  -3.965  -3.310  0.00  0.00     0.004 A 
ATOM      4  C5  UNL d   1       3.515  -4.294  -4.024  0.00  0.00    -0.004 A 
ATOM      5  C6  UNL d   1       4.749  -4.378  -3.371  0.00  0.00    -0.075 A 
ATOM      6  C7  UNL d   1       5.999  -4.728  -4.125  0.00  0.00     0.076 C 
ATOM      7  C8  UNL d   1       4.813  -4.120  -1.995  0.00  0.00     0.001 A 
ENDROOT
BRANCH   1   8
ATOM      8  C1  UNL d   1       3.743  -3.513   0.210  0.00  0.00     0.053 C 
ATOM      9  C   UNL d   1       3.758  -2.025   0.522  0.00  0.00     0.018 C 
ENDBRANCH   1   8
TORSDOF 1
ENDMDL
