MODEL 1
REMARK minimizedAffinity -2.45456576
REMARK minimizedRMSD -1
REMARK  1 active torsions:
REMARK  status: ('A' for Active; 'I' for Inactive)
REMARK    1  A    between atoms: C1_2  and  C2_3 
ROOT
ATOM      1  C2  UNL d   1       3.049  -3.998  -3.572  0.00  0.00    -0.073 A 
ATOM      2  C3  UNL d   1       2.669  -3.189  -4.649  0.00  0.00    -0.002 A 
ATOM      3  C4  UNL d   1       3.368  -3.245  -5.855  0.00  0.00     0.004 A 
ATOM      4  C5  UNL d   1       4.450  -4.114  -6.000  0.00  0.00    -0.004 A 
ATOM      5  C6  UNL d   1       4.838  -4.940  -4.939  0.00  0.00    -0.075 A 
ATOM      6  C7  UNL d   1       6.000  -5.879  -5.078  0.00  0.00     0.076 C 
ATOM      7  C8  UNL d   1       4.132  -4.876  -3.730  0.00  0.00     0.001 A 
ENDROOT
BRANCH   1   8
ATOM      8  C1  UNL d   1       2.293  -3.946  -2.270  0.00  0.00     0.053 C 
ATOM      9  C   UNL d   1       1.898  -2.526  -1.897  0.00  0.00     0.018 C 
ENDBRANCH   1   8
TORSDOF 1
ENDMDL
