MODEL 1
REMARK minimizedAffinity 15.9679956
REMARK minimizedRMSD -1
REMARK  1 active torsions:
REMARK  status: ('A' for Active; 'I' for Inactive)
REMARK    1  A    between atoms: C1_2  and  C2_3 
ROOT
ATOM      1  C2  UNL d   1      -3.824   2.103   5.015  0.00  0.00    -0.073 A 
ATOM      2  C3  UNL d   1      -3.239   1.261   5.968  0.00  0.00    -0.002 A 
ATOM      3  C4  UNL d   1      -1.855   1.086   5.999  0.00  0.00     0.004 A 
ATOM      4  C5  UNL d   1      -1.042   1.754   5.083  0.00  0.00    -0.004 A 
ATOM      5  C6  UNL d   1      -1.607   2.608   4.131  0.00  0.00    -0.075 A 
ATOM      6  C7  UNL d   1      -0.747   3.333   3.137  0.00  0.00     0.076 C 
ATOM      7  C8  UNL d   1      -2.998   2.778   4.105  0.00  0.00     0.001 A 
ENDROOT
BRANCH   1   8
ATOM      8  C1  UNL d   1      -5.317   2.301   4.982  0.00  0.00     0.053 C 
ATOM      9  C   UNL d   1      -5.696   3.770   4.879  0.00  0.00     0.018 C 
ENDBRANCH   1   8
TORSDOF 1
ENDMDL
