MODEL 1
REMARK minimizedAffinity 8.14199257
REMARK minimizedRMSD -1
REMARK  1 active torsions:
REMARK  status: ('A' for Active; 'I' for Inactive)
REMARK    1  A    between atoms: C1_2  and  C2_3 
ROOT
ATOM      1  C2  UNL d   1       4.186  -4.816  -1.833  0.00  0.00    -0.073 A 
ATOM      2  C3  UNL d   1       2.890  -4.426  -2.193  0.00  0.00    -0.002 A 
ATOM      3  C4  UNL d   1       2.604  -4.062  -3.509  0.00  0.00     0.004 A 
ATOM      4  C5  UNL d   1       3.605  -4.090  -4.479  0.00  0.00    -0.004 A 
ATOM      5  C6  UNL d   1       4.903  -4.487  -4.142  0.00  0.00    -0.075 A 
ATOM      6  C7  UNL d   1       5.992  -4.520  -5.173  0.00  0.00     0.076 C 
ATOM      7  C8  UNL d   1       5.184  -4.849  -2.817  0.00  0.00     0.001 A 
ENDROOT
BRANCH   1   8
ATOM      8  C1  UNL d   1       4.498  -5.216  -0.414  0.00  0.00     0.053 C 
ATOM      9  C   UNL d   1       5.931  -4.881  -0.030  0.00  0.00     0.018 C 
ENDBRANCH   1   8
TORSDOF 1
ENDMDL
