MODEL 1
REMARK minimizedAffinity -4.56690502
REMARK minimizedRMSD -1
REMARK  0 active torsions:
REMARK  status: ('A' for Active; 'I' for Inactive)
ROOT
ATOM      1  C1  BNZ d   1      -1.129  -1.235   1.024  0.00  0.00     0.000 A 
ATOM      2  C2  BNZ d   1      -1.240  -2.538   0.617  0.00  0.00     0.000 A 
ATOM      3  C3  BNZ d   1      -0.264  -3.119  -0.142  0.00  0.00     0.000 A 
ATOM      4  C4  BNZ d   1       0.801  -2.387  -0.528  0.00  0.00     0.000 A 
ATOM      5  C5  BNZ d   1       0.923  -1.069  -0.134  0.00  0.00     0.000 A 
ATOM      6  C6  BNZ d   1      -0.043  -0.499   0.663  0.00  0.00     0.000 A 
ENDROOT
TORSDOF 0
ENDMDL
