MODEL 1
REMARK minimizedAffinity -4.27710533
REMARK minimizedRMSD -1
REMARK  0 active torsions:
REMARK  status: ('A' for Active; 'I' for Inactive)
ROOT
ATOM      1  C1  BNZ d   1       0.992  -0.876  -0.168  0.00  0.00     0.000 A 
ATOM      2  C2  BNZ d   1       0.940  -2.239  -0.039  0.00  0.00     0.000 A 
ATOM      3  C3  BNZ d   1      -0.167  -2.851   0.479  0.00  0.00     0.000 A 
ATOM      4  C4  BNZ d   1      -1.203  -2.099   0.903  0.00  0.00     0.000 A 
ATOM      5  C5  BNZ d   1      -1.162  -0.723   0.788  0.00  0.00     0.000 A 
ATOM      6  C6  BNZ d   1      -0.062  -0.113   0.230  0.00  0.00     0.000 A 
ENDROOT
TORSDOF 0
ENDMDL
