MODEL 1
REMARK minimizedAffinity -3.20003223
REMARK minimizedRMSD -1
REMARK  0 active torsions:
REMARK  status: ('A' for Active; 'I' for Inactive)
ROOT
ATOM      1  C1  BNZ d   1      -0.984  -1.471   0.717  0.00  0.00     0.000 A 
ATOM      2  C2  BNZ d   1      -1.135  -0.113   0.814  0.00  0.00     0.000 A 
ATOM      3  C3  BNZ d   1      -0.172   0.734   0.341  0.00  0.00     0.000 A 
ATOM      4  C4  BNZ d   1       0.957   0.223  -0.191  0.00  0.00     0.000 A 
ATOM      5  C5  BNZ d   1       1.128  -1.144  -0.287  0.00  0.00     0.000 A 
ATOM      6  C6  BNZ d   1       0.139  -1.993   0.154  0.00  0.00     0.000 A 
ENDROOT
TORSDOF 0
ENDMDL
