MODEL 1
REMARK minimizedAffinity -2.93427944
REMARK minimizedRMSD -1
REMARK  0 active torsions:
REMARK  status: ('A' for Active; 'I' for Inactive)
ROOT
ATOM      1  C1  BNZ d   1      -0.883  -1.793   1.127  0.00  0.00     0.000 A 
ATOM      2  C2  BNZ d   1      -0.047  -2.565   0.365  0.00  0.00     0.000 A 
ATOM      3  C3  BNZ d   1       0.706  -2.008  -0.631  0.00  0.00     0.000 A 
ATOM      4  C4  BNZ d   1       0.593  -0.689  -0.889  0.00  0.00     0.000 A 
ATOM      5  C5  BNZ d   1      -0.252   0.101  -0.136  0.00  0.00     0.000 A 
ATOM      6  C6  BNZ d   1      -0.980  -0.456   0.891  0.00  0.00     0.000 A 
ENDROOT
TORSDOF 0
ENDMDL
