MODEL 1
REMARK minimizedAffinity -4.39574099
REMARK minimizedRMSD -1
REMARK  0 active torsions:
REMARK  status: ('A' for Active; 'I' for Inactive)
ROOT
ATOM      1  C1  BNZ d   1       0.891  -2.191  -0.558  0.00  0.00     0.000 A 
ATOM      2  C2  BNZ d   1       0.808  -0.824  -0.562  0.00  0.00     0.000 A 
ATOM      3  C3  BNZ d   1      -0.083  -0.174   0.244  0.00  0.00     0.000 A 
ATOM      4  C4  BNZ d   1      -0.918  -0.891   1.024  0.00  0.00     0.000 A 
ATOM      5  C5  BNZ d   1      -0.853  -2.271   1.033  0.00  0.00     0.000 A 
ATOM      6  C6  BNZ d   1       0.072  -2.920   0.248  0.00  0.00     0.000 A 
ENDROOT
TORSDOF 0
ENDMDL
