MODEL 1
REMARK minimizedAffinity -5.45455074
REMARK minimizedRMSD -1
REMARK  0 active torsions:
REMARK  status: ('A' for Active; 'I' for Inactive)
ROOT
ATOM      1  C1  BNZ d   1       0.024  -1.318   0.199  0.00  0.00     0.000 A 
ATOM      2  C2  BNZ d   1       0.224  -2.653  -0.030  0.00  0.00     0.000 A 
ATOM      3  C3  BNZ d   1       0.586  -3.104  -1.269  0.00  0.00     0.000 A 
ATOM      4  C4  BNZ d   1       0.707  -2.225  -2.285  0.00  0.00     0.000 A 
ATOM      5  C5  BNZ d   1       0.498  -0.877  -2.072  0.00  0.00     0.000 A 
ATOM      6  C6  BNZ d   1       0.173  -0.423  -0.814  0.00  0.00     0.000 A 
ENDROOT
TORSDOF 0
ENDMDL
