MODEL 1
REMARK minimizedAffinity -4.07872391
REMARK minimizedRMSD -1
REMARK  0 active torsions:
REMARK  status: ('A' for Active; 'I' for Inactive)
ROOT
ATOM      1  C1  BNZ d   1      -1.480  -1.910   0.835  0.00  0.00     0.000 A 
ATOM      2  C2  BNZ d   1      -1.248  -0.638   1.286  0.00  0.00     0.000 A 
ATOM      3  C3  BNZ d   1      -0.234   0.116   0.764  0.00  0.00     0.000 A 
ATOM      4  C4  BNZ d   1       0.570  -0.416  -0.178  0.00  0.00     0.000 A 
ATOM      5  C5  BNZ d   1       0.355  -1.701  -0.637  0.00  0.00     0.000 A 
ATOM      6  C6  BNZ d   1      -0.691  -2.442  -0.137  0.00  0.00     0.000 A 
ENDROOT
TORSDOF 0
ENDMDL
