MODEL 1
REMARK minimizedAffinity -4.53701258
REMARK minimizedRMSD -1
REMARK  0 active torsions:
REMARK  status: ('A' for Active; 'I' for Inactive)
ROOT
ATOM      1  C1  BNZ d   1      -0.951  -2.283   0.279  0.00  0.00     0.000 A 
ATOM      2  C2  BNZ d   1       0.123  -3.132   0.300  0.00  0.00     0.000 A 
ATOM      3  C3  BNZ d   1       1.382  -2.662   0.551  0.00  0.00     0.000 A 
ATOM      4  C4  BNZ d   1       1.570  -1.340   0.741  0.00  0.00     0.000 A 
ATOM      5  C5  BNZ d   1       0.499  -0.470   0.713  0.00  0.00     0.000 A 
ATOM      6  C6  BNZ d   1      -0.772  -0.952   0.499  0.00  0.00     0.000 A 
ENDROOT
TORSDOF 0
ENDMDL
