MODEL 1
REMARK minimizedAffinity -3.81061888
REMARK minimizedRMSD -1
REMARK  0 active torsions:
REMARK  status: ('A' for Active; 'I' for Inactive)
ROOT
ATOM      1  C1  BNZ d   1      -0.556  -0.073   0.488  0.00  0.00     0.000 A 
ATOM      2  C2  BNZ d   1      -0.885  -1.047   1.393  0.00  0.00     0.000 A 
ATOM      3  C3  BNZ d   1      -0.400  -2.318   1.260  0.00  0.00     0.000 A 
ATOM      4  C4  BNZ d   1       0.378  -2.624   0.203  0.00  0.00     0.000 A 
ATOM      5  C5  BNZ d   1       0.711  -1.656  -0.724  0.00  0.00     0.000 A 
ATOM      6  C6  BNZ d   1       0.254  -0.367  -0.566  0.00  0.00     0.000 A 
ENDROOT
TORSDOF 0
ENDMDL
