MODEL 1
REMARK minimizedAffinity -3.97946501
REMARK minimizedRMSD -1
REMARK  0 active torsions:
REMARK  status: ('A' for Active; 'I' for Inactive)
ROOT
ATOM      1  C1  BNZ d   1      -0.251  -2.990  -0.139  0.00  0.00     0.000 A 
ATOM      2  C2  BNZ d   1       0.283  -2.151  -1.080  0.00  0.00     0.000 A 
ATOM      3  C3  BNZ d   1       0.320  -0.800  -0.873  0.00  0.00     0.000 A 
ATOM      4  C4  BNZ d   1      -0.212  -0.288   0.255  0.00  0.00     0.000 A 
ATOM      5  C5  BNZ d   1      -0.763  -1.120   1.209  0.00  0.00     0.000 A 
ATOM      6  C6  BNZ d   1      -0.763  -2.482   1.015  0.00  0.00     0.000 A 
ENDROOT
TORSDOF 0
ENDMDL
