MODEL 1
REMARK minimizedAffinity -5.13844204
REMARK minimizedRMSD -1
REMARK  0 active torsions:
REMARK  status: ('A' for Active; 'I' for Inactive)
ROOT
ATOM      1  C1  BNZ d   1       0.352  -2.979  -1.762  0.00  0.00     0.000 A 
ATOM      2  C2  BNZ d   1       0.186  -3.472  -0.495  0.00  0.00     0.000 A 
ATOM      3  C3  BNZ d   1       0.154  -2.634   0.584  0.00  0.00     0.000 A 
ATOM      4  C4  BNZ d   1       0.329  -1.309   0.400  0.00  0.00     0.000 A 
ATOM      5  C5  BNZ d   1       0.507  -0.798  -0.870  0.00  0.00     0.000 A 
ATOM      6  C6  BNZ d   1       0.499  -1.640  -1.958  0.00  0.00     0.000 A 
ENDROOT
TORSDOF 0
ENDMDL
