MODEL 1
REMARK minimizedAffinity -3.73743224
REMARK minimizedRMSD -1
REMARK  0 active torsions:
REMARK  status: ('A' for Active; 'I' for Inactive)
ROOT
ATOM      1  C1  BNZ d   1      -1.029  -2.578   0.349  0.00  0.00     0.000 A 
ATOM      2  C2  BNZ d   1      -0.889  -1.225   0.503  0.00  0.00     0.000 A 
ATOM      3  C3  BNZ d   1       0.349  -0.646   0.515  0.00  0.00     0.000 A 
ATOM      4  C4  BNZ d   1       1.446  -1.424   0.413  0.00  0.00     0.000 A 
ATOM      5  C5  BNZ d   1       1.322  -2.792   0.266  0.00  0.00     0.000 A 
ATOM      6  C6  BNZ d   1       0.073  -3.366   0.215  0.00  0.00     0.000 A 
ENDROOT
TORSDOF 0
ENDMDL
