MODEL 1
REMARK minimizedAffinity -3.02938938
REMARK minimizedRMSD -1
REMARK  0 active torsions:
REMARK  status: ('A' for Active; 'I' for Inactive)
ROOT
ATOM      1  C1  BNZ d   1      -1.272  -0.719   1.254  0.00  0.00     0.000 A 
ATOM      2  C2  BNZ d   1      -1.056  -2.071   1.290  0.00  0.00     0.000 A 
ATOM      3  C3  BNZ d   1      -0.115  -2.651   0.485  0.00  0.00     0.000 A 
ATOM      4  C4  BNZ d   1       0.578  -1.885  -0.382  0.00  0.00     0.000 A 
ATOM      5  C5  BNZ d   1       0.365  -0.522  -0.437  0.00  0.00     0.000 A 
ATOM      6  C6  BNZ d   1      -0.555   0.063   0.402  0.00  0.00     0.000 A 
ENDROOT
TORSDOF 0
ENDMDL
