MODEL 1
REMARK minimizedAffinity -3.91827917
REMARK minimizedRMSD -1
REMARK  0 active torsions:
REMARK  status: ('A' for Active; 'I' for Inactive)
ROOT
ATOM      1  C1  BNZ d   1       0.946  -1.523  -1.141  0.00  0.00     0.000 A 
ATOM      2  C2  BNZ d   1       0.742  -0.306  -1.735  0.00  0.00     0.000 A 
ATOM      3  C3  BNZ d   1       0.056   0.683  -1.087  0.00  0.00     0.000 A 
ATOM      4  C4  BNZ d   1      -0.458   0.441   0.137  0.00  0.00     0.000 A 
ATOM      5  C5  BNZ d   1      -0.268  -0.784   0.745  0.00  0.00     0.000 A 
ATOM      6  C6  BNZ d   1       0.456  -1.764   0.105  0.00  0.00     0.000 A 
ENDROOT
TORSDOF 0
ENDMDL
