MODEL 1
REMARK minimizedAffinity -3.00158668
REMARK minimizedRMSD -1
REMARK  0 active torsions:
REMARK  status: ('A' for Active; 'I' for Inactive)
ROOT
ATOM      1  C1  BNZ d   1      -0.932  -0.554   0.918  0.00  0.00     0.000 A 
ATOM      2  C2  BNZ d   1      -0.790  -1.910   1.051  0.00  0.00     0.000 A 
ATOM      3  C3  BNZ d   1       0.196  -2.579   0.382  0.00  0.00     0.000 A 
ATOM      4  C4  BNZ d   1       1.013  -1.900  -0.448  0.00  0.00     0.000 A 
ATOM      5  C5  BNZ d   1       0.878  -0.534  -0.600  0.00  0.00     0.000 A 
ATOM      6  C6  BNZ d   1      -0.091   0.142   0.105  0.00  0.00     0.000 A 
ENDROOT
TORSDOF 0
ENDMDL
