MODEL 1
REMARK minimizedAffinity -4.27244806
REMARK minimizedRMSD -1
REMARK  0 active torsions:
REMARK  status: ('A' for Active; 'I' for Inactive)
ROOT
ATOM      1  C1  BNZ d   1      -1.093  -1.559   1.955  0.00  0.00     0.000 A 
ATOM      2  C2  BNZ d   1      -1.375  -0.220   2.010  0.00  0.00     0.000 A 
ATOM      3  C3  BNZ d   1      -0.974   0.621   1.009  0.00  0.00     0.000 A 
ATOM      4  C4  BNZ d   1      -0.259   0.130  -0.023  0.00  0.00     0.000 A 
ATOM      5  C5  BNZ d   1       0.041  -1.216  -0.088  0.00  0.00     0.000 A 
ATOM      6  C6  BNZ d   1      -0.397  -2.066   0.901  0.00  0.00     0.000 A 
ENDROOT
TORSDOF 0
ENDMDL
