MODEL 1
REMARK minimizedAffinity 5.98813438
REMARK minimizedRMSD -1
REMARK  2 active torsions:
REMARK  status: ('A' for Active; 'I' for Inactive)
REMARK    1  A    between atoms: C1_2  and  C2_3 
REMARK    2  A    between atoms: C2_3  and  C3_4 
ROOT
ATOM      1  C3  UNL d   1       3.639  -0.263   0.368  0.00  0.00    -0.075 A 
ATOM      2  C4  UNL d   1       4.824  -0.837  -0.114  0.00  0.00     0.002 A 
ATOM      3  C5  UNL d   1       5.998  -0.086  -0.184  0.00  0.00     0.002 A 
ATOM      4  C6  UNL d   1       6.000   1.248   0.218  0.00  0.00    -0.004 A 
ATOM      5  C7  UNL d   1       4.825   1.834   0.684  0.00  0.00     0.002 A 
ATOM      6  C8  UNL d   1       3.650   1.083   0.758  0.00  0.00     0.002 A 
ENDROOT
BRANCH   1   7
ATOM      7  C2  UNL d   1       2.373  -1.078   0.474  0.00  0.00     0.056 C 
BRANCH   7   8
ATOM      8  C1  UNL d   1       2.406  -2.143   1.575  0.00  0.00     0.007 C 
ATOM      9  C   UNL d   1       1.792  -3.469   1.147  0.00  0.00     0.009 C 
ENDBRANCH   7   8
ENDBRANCH   1   7
TORSDOF 2
ENDMDL
