MODEL 1
REMARK minimizedAffinity 4.26508665
REMARK minimizedRMSD -1
REMARK  2 active torsions:
REMARK  status: ('A' for Active; 'I' for Inactive)
REMARK    1  A    between atoms: C1_2  and  C2_3 
REMARK    2  A    between atoms: C2_3  and  C3_4 
ROOT
ATOM      1  C3  UNL d   1      -0.770  -1.229   2.674  0.00  0.00    -0.075 A 
ATOM      2  C4  UNL d   1      -1.694  -1.276   1.620  0.00  0.00     0.002 A 
ATOM      3  C5  UNL d   1      -2.812  -0.440   1.620  0.00  0.00     0.002 A 
ATOM      4  C6  UNL d   1      -3.024   0.444   2.676  0.00  0.00    -0.004 A 
ATOM      5  C7  UNL d   1      -2.121   0.487   3.736  0.00  0.00     0.002 A 
ATOM      6  C8  UNL d   1      -1.000  -0.345   3.736  0.00  0.00     0.002 A 
ENDROOT
BRANCH   1   7
ATOM      7  C2  UNL d   1       0.456  -2.110   2.665  0.00  0.00     0.056 C 
BRANCH   7   8
ATOM      8  C1  UNL d   1       1.036  -2.358   1.269  0.00  0.00     0.007 C 
ATOM      9  C   UNL d   1       1.989  -3.545   1.217  0.00  0.00     0.009 C 
ENDBRANCH   7   8
ENDBRANCH   1   7
TORSDOF 2
ENDMDL
