MODEL 1
REMARK minimizedAffinity 1.30056965
REMARK minimizedRMSD -1
REMARK  2 active torsions:
REMARK  status: ('A' for Active; 'I' for Inactive)
REMARK    1  A    between atoms: C1_2  and  C2_3 
REMARK    2  A    between atoms: C2_3  and  C3_4 
ROOT
ATOM      1  C3  UNL d   1      -2.361  -0.012   3.275  0.00  0.00    -0.075 A 
ATOM      2  C4  UNL d   1      -2.660  -0.850   2.191  0.00  0.00     0.002 A 
ATOM      3  C5  UNL d   1      -1.709  -1.748   1.706  0.00  0.00     0.002 A 
ATOM      4  C6  UNL d   1      -0.446  -1.812   2.290  0.00  0.00    -0.004 A 
ATOM      5  C7  UNL d   1      -0.132  -0.972   3.357  0.00  0.00     0.002 A 
ATOM      6  C8  UNL d   1      -1.083  -0.076   3.847  0.00  0.00     0.002 A 
ENDROOT
BRANCH   1   7
ATOM      7  C2  UNL d   1      -3.396   0.941   3.823  0.00  0.00     0.056 C 
BRANCH   7   8
ATOM      8  C1  UNL d   1      -4.393   1.449   2.776  0.00  0.00     0.007 C 
ATOM      9  C   UNL d   1      -5.828   1.494   3.286  0.00  0.00     0.009 C 
ENDBRANCH   7   8
ENDBRANCH   1   7
TORSDOF 2
ENDMDL
