MODEL 1
REMARK minimizedAffinity 4.61462021
REMARK minimizedRMSD -1
REMARK  2 active torsions:
REMARK  status: ('A' for Active; 'I' for Inactive)
REMARK    1  A    between atoms: C1_2  and  C2_3 
REMARK    2  A    between atoms: C2_3  and  C3_4 
ROOT
ATOM      1  C3  UNL d   1      -2.748  -0.319   0.677  0.00  0.00    -0.075 A 
ATOM      2  C4  UNL d   1      -3.491   0.626   1.398  0.00  0.00     0.002 A 
ATOM      3  C5  UNL d   1      -3.289   0.790   2.769  0.00  0.00     0.002 A 
ATOM      4  C6  UNL d   1      -2.352   0.005   3.437  0.00  0.00    -0.004 A 
ATOM      5  C7  UNL d   1      -1.620  -0.950   2.733  0.00  0.00     0.002 A 
ATOM      6  C8  UNL d   1      -1.816  -1.112   1.361  0.00  0.00     0.002 A 
ENDROOT
BRANCH   1   7
ATOM      7  C2  UNL d   1      -2.940  -0.480  -0.812  0.00  0.00     0.056 C 
BRANCH   7   8
ATOM      8  C1  UNL d   1      -1.637  -0.436  -1.618  0.00  0.00     0.007 C 
ATOM      9  C   UNL d   1      -1.393   0.907  -2.291  0.00  0.00     0.009 C 
ENDBRANCH   7   8
ENDBRANCH   1   7
TORSDOF 2
ENDMDL
