MODEL 1
REMARK minimizedAffinity 3.47876096
REMARK minimizedRMSD -1
REMARK  2 active torsions:
REMARK  status: ('A' for Active; 'I' for Inactive)
REMARK    1  A    between atoms: C1_2  and  C2_3 
REMARK    2  A    between atoms: C2_3  and  C3_4 
ROOT
ATOM      1  C3  UNL d   1       0.646  -1.153   0.645  0.00  0.00    -0.075 A 
ATOM      2  C4  UNL d   1       1.777  -1.890   0.267  0.00  0.00     0.002 A 
ATOM      3  C5  UNL d   1       2.314  -2.853   1.123  0.00  0.00     0.002 A 
ATOM      4  C6  UNL d   1       1.733  -3.084   2.368  0.00  0.00    -0.004 A 
ATOM      5  C7  UNL d   1       0.619  -2.346   2.760  0.00  0.00     0.002 A 
ATOM      6  C8  UNL d   1       0.077  -1.385   1.905  0.00  0.00     0.002 A 
ENDROOT
BRANCH   1   7
ATOM      7  C2  UNL d   1       0.043  -0.130  -0.288  0.00  0.00     0.056 C 
BRANCH   7   8
ATOM      8  C1  UNL d   1      -0.732  -0.738  -1.463  0.00  0.00     0.007 C 
ATOM      9  C   UNL d   1      -2.243  -0.657  -1.291  0.00  0.00     0.009 C 
ENDBRANCH   7   8
ENDBRANCH   1   7
TORSDOF 2
ENDMDL
