MODEL 1
REMARK minimizedAffinity 9.58603859
REMARK minimizedRMSD -1
REMARK  2 active torsions:
REMARK  status: ('A' for Active; 'I' for Inactive)
REMARK    1  A    between atoms: C1_2  and  C2_3 
REMARK    2  A    between atoms: C2_3  and  C3_4 
ROOT
ATOM      1  C3  UNL d   1       0.497  -2.726   1.757  0.00  0.00    -0.075 A 
ATOM      2  C4  UNL d   1       0.897  -4.061   1.599  0.00  0.00     0.002 A 
ATOM      3  C5  UNL d   1       2.197  -4.368   1.199  0.00  0.00     0.002 A 
ATOM      4  C6  UNL d   1       3.110  -3.347   0.942  0.00  0.00    -0.004 A 
ATOM      5  C7  UNL d   1       2.718  -2.017   1.080  0.00  0.00     0.002 A 
ATOM      6  C8  UNL d   1       1.419  -1.707   1.485  0.00  0.00     0.002 A 
ENDROOT
BRANCH   1   7
ATOM      7  C2  UNL d   1      -0.901  -2.388   2.219  0.00  0.00     0.056 C 
BRANCH   7   8
ATOM      8  C1  UNL d   1      -0.958  -1.278   3.273  0.00  0.00     0.007 C 
ATOM      9  C   UNL d   1      -2.255  -0.480   3.235  0.00  0.00     0.009 C 
ENDBRANCH   7   8
ENDBRANCH   1   7
TORSDOF 2
ENDMDL
