MODEL 1
REMARK minimizedAffinity 1.68956459
REMARK minimizedRMSD -1
REMARK  2 active torsions:
REMARK  status: ('A' for Active; 'I' for Inactive)
REMARK    1  A    between atoms: C1_2  and  C2_3 
REMARK    2  A    between atoms: C2_3  and  C3_4 
ROOT
ATOM      1  C3  UNL d   1       0.698  -2.426   1.934  0.00  0.00    -0.075 A 
ATOM      2  C4  UNL d   1      -0.219  -1.485   1.444  0.00  0.00     0.002 A 
ATOM      3  C5  UNL d   1      -0.958  -0.692   2.322  0.00  0.00     0.002 A 
ATOM      4  C6  UNL d   1      -0.797  -0.836   3.698  0.00  0.00    -0.004 A 
ATOM      5  C7  UNL d   1       0.099  -1.779   4.196  0.00  0.00     0.002 A 
ATOM      6  C8  UNL d   1       0.843  -2.571   3.320  0.00  0.00     0.002 A 
ENDROOT
BRANCH   1   7
ATOM      7  C2  UNL d   1       1.522  -3.266   0.988  0.00  0.00     0.056 C 
BRANCH   7   8
ATOM      8  C1  UNL d   1       1.321  -4.776   1.158  0.00  0.00     0.007 C 
ATOM      9  C   UNL d   1       2.320  -5.608   0.365  0.00  0.00     0.009 C 
ENDBRANCH   7   8
ENDBRANCH   1   7
TORSDOF 2
ENDMDL
