MODEL 1
REMARK minimizedAffinity 9.12653351
REMARK minimizedRMSD -1
REMARK  0 active torsions:
REMARK  status: ('A' for Active; 'I' for Inactive)
ROOT
ATOM      1  C   UNL d   1      -3.350  -0.777   2.792  0.00  0.00     0.023 A 
ATOM      2  C1  UNL d   1      -2.899  -1.700   3.735  0.00  0.00     0.003 A 
ATOM      3  C2  UNL d   1      -1.562  -1.692   4.137  0.00  0.00     0.048 A 
ATOM      4  C3  UNL d   1      -0.682  -0.756   3.593  0.00  0.00     0.023 A 
ATOM      5  C4  UNL d   1      -1.129   0.170   2.650  0.00  0.00     0.048 A 
ATOM      6  C5  UNL d   1      -2.467   0.157   2.250  0.00  0.00     0.003 A 
ATOM      7  I   UNL d   1       1.309  -0.742   4.191  0.00  0.00    -0.146 I 
ENDROOT
TORSDOF 0
ENDMDL
