MODEL 1
REMARK minimizedAffinity 6.43863201
REMARK minimizedRMSD -1
REMARK  0 active torsions:
REMARK  status: ('A' for Active; 'I' for Inactive)
ROOT
ATOM      1  C   UNL d   1      -2.764  -1.133   3.993  0.00  0.00     0.023 A 
ATOM      2  C1  UNL d   1      -3.314  -0.477   2.891  0.00  0.00     0.003 A 
ATOM      3  C2  UNL d   1      -2.490  -0.055   1.846  0.00  0.00     0.048 A 
ATOM      4  C3  UNL d   1      -1.117  -0.293   1.907  0.00  0.00     0.023 A 
ATOM      5  C4  UNL d   1      -0.563  -0.950   3.007  0.00  0.00     0.048 A 
ATOM      6  C5  UNL d   1      -1.390  -1.369   4.050  0.00  0.00     0.003 A 
ATOM      7  I   UNL d   1       0.111   0.334   0.352  0.00  0.00    -0.146 I 
ENDROOT
TORSDOF 0
ENDMDL
