MODEL 1
REMARK minimizedAffinity 3.66408777
REMARK minimizedRMSD -1
REMARK  0 active torsions:
REMARK  status: ('A' for Active; 'I' for Inactive)
ROOT
ATOM      1  C   UNL d   1      -0.532  -0.899   4.172  0.00  0.00     0.023 A 
ATOM      2  C1  UNL d   1       0.563  -0.832   3.310  0.00  0.00     0.003 A 
ATOM      3  C2  UNL d   1       0.382  -0.462   1.976  0.00  0.00     0.048 A 
ATOM      4  C3  UNL d   1      -0.897  -0.159   1.511  0.00  0.00     0.023 A 
ATOM      5  C4  UNL d   1      -1.995  -0.223   2.369  0.00  0.00     0.048 A 
ATOM      6  C5  UNL d   1      -1.809  -0.595   3.702  0.00  0.00     0.003 A 
ATOM      7  I   UNL d   1      -1.169   0.393  -0.475  0.00  0.00    -0.146 I 
ENDROOT
TORSDOF 0
ENDMDL
