MODEL 1
REMARK minimizedAffinity 5.26285172
REMARK minimizedRMSD -1
REMARK  0 active torsions:
REMARK  status: ('A' for Active; 'I' for Inactive)
ROOT
ATOM      1  C   UNL d   1      -2.079  -1.333   4.324  0.00  0.00     0.023 A 
ATOM      2  C1  UNL d   1      -0.934  -0.739   3.792  0.00  0.00     0.003 A 
ATOM      3  C2  UNL d   1      -0.979  -0.139   2.531  0.00  0.00     0.048 A 
ATOM      4  C3  UNL d   1      -2.172  -0.137   1.809  0.00  0.00     0.023 A 
ATOM      5  C4  UNL d   1      -3.319  -0.730   2.337  0.00  0.00     0.048 A 
ATOM      6  C5  UNL d   1      -3.270  -1.329   3.597  0.00  0.00     0.003 A 
ATOM      7  I   UNL d   1      -2.241   0.755  -0.067  0.00  0.00    -0.146 I 
ENDROOT
TORSDOF 0
ENDMDL
