MODEL 1
REMARK minimizedAffinity 5.40274334
REMARK minimizedRMSD -1
REMARK  0 active torsions:
REMARK  status: ('A' for Active; 'I' for Inactive)
ROOT
ATOM      1  C   UNL d   1      -1.813  -0.097   3.505  0.00  0.00     0.023 A 
ATOM      2  C1  UNL d   1      -1.972   0.523   2.266  0.00  0.00     0.003 A 
ATOM      3  C2  UNL d   1      -0.892   0.614   1.385  0.00  0.00     0.048 A 
ATOM      4  C3  UNL d   1       0.344   0.080   1.750  0.00  0.00     0.023 A 
ATOM      5  C4  UNL d   1       0.508  -0.543   2.988  0.00  0.00     0.048 A 
ATOM      6  C5  UNL d   1      -0.575  -0.630   3.866  0.00  0.00     0.003 A 
ATOM      7  I   UNL d   1       1.953   0.213   0.440  0.00  0.00    -0.146 I 
ENDROOT
TORSDOF 0
ENDMDL
