MODEL 1
REMARK minimizedAffinity 10.7604074
REMARK minimizedRMSD -1
REMARK  0 active torsions:
REMARK  status: ('A' for Active; 'I' for Inactive)
ROOT
ATOM      1  C   UNL d   1      -1.630  -1.505   3.861  0.00  0.00     0.023 A 
ATOM      2  C1  UNL d   1      -0.772  -0.528   3.355  0.00  0.00     0.003 A 
ATOM      3  C2  UNL d   1      -1.161   0.244   2.258  0.00  0.00     0.048 A 
ATOM      4  C3  UNL d   1      -2.410   0.035   1.673  0.00  0.00     0.023 A 
ATOM      5  C4  UNL d   1      -3.271  -0.940   2.177  0.00  0.00     0.048 A 
ATOM      6  C5  UNL d   1      -2.878  -1.711   3.272  0.00  0.00     0.003 A 
ATOM      7  I   UNL d   1      -2.991   1.183   0.041  0.00  0.00    -0.146 I 
ENDROOT
TORSDOF 0
ENDMDL
