MODEL 1
REMARK minimizedAffinity 8.34276199
REMARK minimizedRMSD -1
REMARK  0 active torsions:
REMARK  status: ('A' for Active; 'I' for Inactive)
ROOT
ATOM      1  C   UNL d   1      -2.412  -0.859   3.715  0.00  0.00     0.023 A 
ATOM      2  C1  UNL d   1      -1.166  -1.291   4.170  0.00  0.00     0.003 A 
ATOM      3  C2  UNL d   1      -0.011  -0.970   3.454  0.00  0.00     0.048 A 
ATOM      4  C3  UNL d   1      -0.109  -0.217   2.284  0.00  0.00     0.023 A 
ATOM      5  C4  UNL d   1      -1.354   0.218   1.826  0.00  0.00     0.048 A 
ATOM      6  C5  UNL d   1      -2.506  -0.106   2.545  0.00  0.00     0.003 A 
ATOM      7  I   UNL d   1       1.609   0.262   1.217  0.00  0.00    -0.146 I 
ENDROOT
TORSDOF 0
ENDMDL
