MODEL 1
REMARK minimizedAffinity 0.0246943813
REMARK minimizedRMSD -1
REMARK  0 active torsions:
REMARK  status: ('A' for Active; 'I' for Inactive)
ROOT
ATOM      1  C   UNL d   1      -1.506  -0.358   1.508  0.00  0.00     0.023 A 
ATOM      2  C1  UNL d   1      -1.940  -0.655   2.800  0.00  0.00     0.003 A 
ATOM      3  C2  UNL d   1      -1.024  -1.072   3.767  0.00  0.00     0.048 A 
ATOM      4  C3  UNL d   1       0.326  -1.190   3.435  0.00  0.00     0.023 A 
ATOM      5  C4  UNL d   1       0.765  -0.894   2.144  0.00  0.00     0.048 A 
ATOM      6  C5  UNL d   1      -0.156  -0.478   1.180  0.00  0.00     0.003 A 
ATOM      7  I   UNL d   1       1.692  -1.811   4.873  0.00  0.00    -0.146 I 
ENDROOT
TORSDOF 0
ENDMDL
