MODEL 1
REMARK minimizedAffinity 4.13408375
REMARK minimizedRMSD -1
REMARK  0 active torsions:
REMARK  status: ('A' for Active; 'I' for Inactive)
ROOT
ATOM      1  C2' OXE d   1      -1.150  -0.724   4.559  0.00  0.00     0.078 C 
ATOM      2  C1' OXE d   1       1.425  -1.028   3.483  0.00  0.00     0.078 C 
ATOM      3  C1  OXE d   1       0.323  -0.577   2.556  0.00  0.00    -0.078 A 
ATOM      4  C2  OXE d   1      -0.943  -0.476   3.080  0.00  0.00    -0.078 A 
ATOM      5  C3  OXE d   1      -1.984  -0.012   2.283  0.00  0.00     0.003 A 
ATOM      6  C4  OXE d   1      -1.786   0.205   0.914  0.00  0.00    -0.002 A 
ATOM      7  C5  OXE d   1      -0.513   0.069   0.350  0.00  0.00    -0.002 A 
ATOM      8  C6  OXE d   1       0.559  -0.279   1.165  0.00  0.00     0.003 A 
ENDROOT
TORSDOF 0
ENDMDL
