MODEL 1
REMARK minimizedAffinity 2.02547193
REMARK minimizedRMSD -1
REMARK  0 active torsions:
REMARK  status: ('A' for Active; 'I' for Inactive)
ROOT
ATOM      1  C2' OXE d   1       0.785   0.458   0.911  0.00  0.00     0.078 C 
ATOM      2  C1' OXE d   1      -1.855   0.841   0.038  0.00  0.00     0.078 C 
ATOM      3  C1  OXE d   1      -1.645   0.154   1.364  0.00  0.00    -0.078 A 
ATOM      4  C2  OXE d   1      -0.349  -0.072   1.762  0.00  0.00    -0.078 A 
ATOM      5  C3  OXE d   1      -0.100  -0.653   3.002  0.00  0.00     0.003 A 
ATOM      6  C4  OXE d   1      -1.155  -1.148   3.777  0.00  0.00    -0.002 A 
ATOM      7  C5  OXE d   1      -2.481  -0.965   3.372  0.00  0.00    -0.002 A 
ATOM      8  C6  OXE d   1      -2.744  -0.280   2.191  0.00  0.00     0.003 A 
ENDROOT
TORSDOF 0
ENDMDL
