MODEL 1
REMARK minimizedAffinity 8.36169529
REMARK minimizedRMSD -1
REMARK  0 active torsions:
REMARK  status: ('A' for Active; 'I' for Inactive)
ROOT
ATOM      1  C2' OXE d   1      -1.068   0.002  -1.348  0.00  0.00     0.078 C 
ATOM      2  C1' OXE d   1       1.324  -0.206   0.107  0.00  0.00     0.078 C 
ATOM      3  C1  OXE d   1       0.039  -0.056   0.883  0.00  0.00    -0.078 A 
ATOM      4  C2  OXE d   1      -1.121   0.092   0.162  0.00  0.00    -0.078 A 
ATOM      5  C3  OXE d   1      -2.340   0.180   0.828  0.00  0.00     0.003 A 
ATOM      6  C4  OXE d   1      -2.380   0.273   2.225  0.00  0.00    -0.002 A 
ATOM      7  C5  OXE d   1      -1.206   0.164   2.977  0.00  0.00    -0.002 A 
ATOM      8  C6  OXE d   1       0.005  -0.043   2.325  0.00  0.00     0.003 A 
ENDROOT
TORSDOF 0
ENDMDL
