MODEL 1
REMARK minimizedAffinity 7.23175287
REMARK minimizedRMSD -1
REMARK  0 active torsions:
REMARK  status: ('A' for Active; 'I' for Inactive)
ROOT
ATOM      1  C2' OXE d   1      -1.595   0.774   0.274  0.00  0.00     0.078 C 
ATOM      2  C1' OXE d   1       1.103   0.233   0.832  0.00  0.00     0.078 C 
ATOM      3  C1  OXE d   1       0.094  -0.021   1.924  0.00  0.00    -0.078 A 
ATOM      4  C2  OXE d   1      -1.218   0.291   1.658  0.00  0.00    -0.078 A 
ATOM      5  C3  OXE d   1      -2.197   0.025   2.611  0.00  0.00     0.003 A 
ATOM      6  C4  OXE d   1      -1.839  -0.412   3.892  0.00  0.00    -0.002 A 
ATOM      7  C5  OXE d   1      -0.504  -0.698   4.197  0.00  0.00    -0.002 A 
ATOM      8  C6  OXE d   1       0.467  -0.548   3.213  0.00  0.00     0.003 A 
ENDROOT
TORSDOF 0
ENDMDL
