MODEL 1
REMARK minimizedAffinity 10.1841946
REMARK minimizedRMSD -1
REMARK  0 active torsions:
REMARK  status: ('A' for Active; 'I' for Inactive)
ROOT
ATOM      1  C2' OXE d   1      -0.921   1.613   1.462  0.00  0.00     0.078 C 
ATOM      2  C1' OXE d   1      -3.399   0.704   0.506  0.00  0.00     0.078 C 
ATOM      3  C1  OXE d   1      -2.777  -0.037   1.663  0.00  0.00    -0.078 A 
ATOM      4  C2  OXE d   1      -1.542   0.386   2.094  0.00  0.00    -0.078 A 
ATOM      5  C3  OXE d   1      -0.949  -0.228   3.192  0.00  0.00     0.003 A 
ATOM      6  C4  OXE d   1      -1.525  -1.369   3.765  0.00  0.00    -0.002 A 
ATOM      7  C5  OXE d   1      -2.763  -1.840   3.315  0.00  0.00    -0.002 A 
ATOM      8  C6  OXE d   1      -3.421  -1.161   2.295  0.00  0.00     0.003 A 
ENDROOT
TORSDOF 0
ENDMDL
