MODEL 1
REMARK minimizedAffinity 5.34769726
REMARK minimizedRMSD -1
REMARK  0 active torsions:
REMARK  status: ('A' for Active; 'I' for Inactive)
ROOT
ATOM      1  C2' OXE d   1      -0.933   0.845   1.567  0.00  0.00     0.078 C 
ATOM      2  C1' OXE d   1       0.314  -0.639   3.597  0.00  0.00     0.078 C 
ATOM      3  C1  OXE d   1      -1.178  -0.786   3.433  0.00  0.00    -0.078 A 
ATOM      4  C2  OXE d   1      -1.786  -0.021   2.468  0.00  0.00    -0.078 A 
ATOM      5  C3  OXE d   1      -3.152  -0.159   2.238  0.00  0.00     0.003 A 
ATOM      6  C4  OXE d   1      -3.936  -0.954   3.083  0.00  0.00    -0.002 A 
ATOM      7  C5  OXE d   1      -3.342  -1.712   4.098  0.00  0.00    -0.002 A 
ATOM      8  C6  OXE d   1      -1.962  -1.672   4.258  0.00  0.00     0.003 A 
ENDROOT
TORSDOF 0
ENDMDL
