MODEL 1
REMARK minimizedAffinity 17.2567024
REMARK minimizedRMSD -1
REMARK  0 active torsions:
REMARK  status: ('A' for Active; 'I' for Inactive)
ROOT
ATOM      1  C2' OXE d   1       0.142   0.139  -0.617  0.00  0.00     0.078 C 
ATOM      2  C1' OXE d   1       1.574   0.711  -2.963  0.00  0.00     0.078 C 
ATOM      3  C1  OXE d   1       2.111   1.252  -1.661  0.00  0.00    -0.078 A 
ATOM      4  C2  OXE d   1       1.378   1.007  -0.525  0.00  0.00    -0.078 A 
ATOM      5  C3  OXE d   1       1.857   1.436   0.710  0.00  0.00     0.003 A 
ATOM      6  C4  OXE d   1       2.996   2.246   0.786  0.00  0.00    -0.002 A 
ATOM      7  C5  OXE d   1       3.735   2.541  -0.365  0.00  0.00    -0.002 A 
ATOM      8  C6  OXE d   1       3.331   2.018  -1.588  0.00  0.00     0.003 A 
ENDROOT
TORSDOF 0
ENDMDL
