MODEL 1
REMARK minimizedAffinity 2.45868564
REMARK minimizedRMSD -1
REMARK  0 active torsions:
REMARK  status: ('A' for Active; 'I' for Inactive)
ROOT
ATOM      1  C2' OXE d   1      -0.307  -0.320  -0.193  0.00  0.00     0.078 C 
ATOM      2  C1' OXE d   1       0.815   0.575  -2.606  0.00  0.00     0.078 C 
ATOM      3  C1  OXE d   1       1.499   0.972  -1.322  0.00  0.00    -0.078 A 
ATOM      4  C2  OXE d   1       0.917   0.569  -0.144  0.00  0.00    -0.078 A 
ATOM      5  C3  OXE d   1       1.537   0.862   1.067  0.00  0.00     0.003 A 
ATOM      6  C4  OXE d   1       2.663   1.694   1.104  0.00  0.00    -0.002 A 
ATOM      7  C5  OXE d   1       3.249   2.148  -0.082  0.00  0.00    -0.002 A 
ATOM      8  C6  OXE d   1       2.706   1.762  -1.302  0.00  0.00     0.003 A 
ENDROOT
TORSDOF 0
ENDMDL
