MODEL 1
REMARK minimizedAffinity 7.87376833
REMARK minimizedRMSD -1
REMARK  0 active torsions:
REMARK  status: ('A' for Active; 'I' for Inactive)
ROOT
ATOM      1  C2' OXE d   1       0.995  -0.081   1.853  0.00  0.00     0.078 C 
ATOM      2  C1' OXE d   1       0.437  -1.329   4.305  0.00  0.00     0.078 C 
ATOM      3  C1  OXE d   1      -0.730  -0.858   3.474  0.00  0.00    -0.078 A 
ATOM      4  C2  OXE d   1      -0.446  -0.206   2.298  0.00  0.00    -0.078 A 
ATOM      5  C3  OXE d   1      -1.486   0.201   1.467  0.00  0.00     0.003 A 
ATOM      6  C4  OXE d   1      -2.816   0.091   1.890  0.00  0.00    -0.002 A 
ATOM      7  C5  OXE d   1      -3.126  -0.534   3.103  0.00  0.00    -0.002 A 
ATOM      8  C6  OXE d   1      -2.099  -1.051   3.885  0.00  0.00     0.003 A 
ENDROOT
TORSDOF 0
ENDMDL
