MODEL 1
REMARK minimizedAffinity 8.02678967
REMARK minimizedRMSD -1
REMARK  0 active torsions:
REMARK  status: ('A' for Active; 'I' for Inactive)
ROOT
ATOM      1  C4' PXY d   1      -5.987  -5.870  -1.563  0.00  0.00     0.077 C 
ATOM      2  C1' PXY d   1      -2.342  -5.104  -5.984  0.00  0.00     0.077 C 
ATOM      3  C1  PXY d   1      -3.288  -5.305  -4.816  0.00  0.00    -0.082 A 
ATOM      4  C2  PXY d   1      -4.483  -5.833  -5.026  0.00  0.00     0.003 A 
ATOM      5  C3  PXY d   1      -5.363  -5.992  -3.986  0.00  0.00     0.003 A 
ATOM      6  C4  PXY d   1      -4.996  -5.657  -2.710  0.00  0.00    -0.082 A 
ATOM      7  C5  PXY d   1      -3.774  -5.128  -2.487  0.00  0.00     0.003 A 
ATOM      8  C6  PXY d   1      -2.911  -4.936  -3.562  0.00  0.00     0.003 A 
ENDROOT
TORSDOF 0
ENDMDL
