MODEL 1
REMARK minimizedAffinity 13.1808949
REMARK minimizedRMSD -1
REMARK  0 active torsions:
REMARK  status: ('A' for Active; 'I' for Inactive)
ROOT
ATOM      1  C4' PXY d   1       5.721  -5.264  -0.690  0.00  0.00     0.077 C 
ATOM      2  C1' PXY d   1       2.509  -0.505  -0.024  0.00  0.00     0.077 C 
ATOM      3  C1  PXY d   1       3.359  -1.746  -0.207  0.00  0.00    -0.082 A 
ATOM      4  C2  PXY d   1       2.831  -2.939   0.012  0.00  0.00     0.003 A 
ATOM      5  C3  PXY d   1       3.594  -4.071  -0.117  0.00  0.00     0.003 A 
ATOM      6  C4  PXY d   1       4.898  -3.984  -0.527  0.00  0.00    -0.082 A 
ATOM      7  C5  PXY d   1       5.442  -2.771  -0.762  0.00  0.00     0.003 A 
ATOM      8  C6  PXY d   1       4.661  -1.632  -0.585  0.00  0.00     0.003 A 
ENDROOT
TORSDOF 0
ENDMDL
