MODEL 1
REMARK minimizedAffinity 5.61880159
REMARK minimizedRMSD -1
REMARK  0 active torsions:
REMARK  status: ('A' for Active; 'I' for Inactive)
ROOT
ATOM      1  C4' PXY d   1       1.124  -1.355  -1.129  0.00  0.00     0.077 C 
ATOM      2  C1' PXY d   1      -4.119   1.071  -1.320  0.00  0.00     0.077 C 
ATOM      3  C1  PXY d   1      -2.739   0.446  -1.274  0.00  0.00    -0.082 A 
ATOM      4  C2  PXY d   1      -2.612  -0.867  -1.374  0.00  0.00     0.003 A 
ATOM      5  C3  PXY d   1      -1.373  -1.452  -1.302  0.00  0.00     0.003 A 
ATOM      6  C4  PXY d   1      -0.249  -0.680  -1.180  0.00  0.00    -0.082 A 
ATOM      7  C5  PXY d   1      -0.370   0.661  -1.088  0.00  0.00     0.003 A 
ATOM      8  C6  PXY d   1      -1.639   1.232  -1.121  0.00  0.00     0.003 A 
ENDROOT
TORSDOF 0
ENDMDL
