MODEL 1
REMARK minimizedAffinity 2.37888169
REMARK minimizedRMSD -1
REMARK  0 active torsions:
REMARK  status: ('A' for Active; 'I' for Inactive)
ROOT
ATOM      1  C4' PXY d   1      -0.655   3.047  -0.995  0.00  0.00     0.077 C 
ATOM      2  C1' PXY d   1       1.553   4.013   4.259  0.00  0.00     0.077 C 
ATOM      3  C1  PXY d   1       0.967   3.750   2.886  0.00  0.00    -0.082 A 
ATOM      4  C2  PXY d   1       1.596   4.194   1.810  0.00  0.00     0.003 A 
ATOM      5  C3  PXY d   1       1.064   3.992   0.562  0.00  0.00     0.003 A 
ATOM      6  C4  PXY d   1      -0.096   3.282   0.411  0.00  0.00    -0.082 A 
ATOM      7  C5  PXY d   1      -0.738   2.815   1.503  0.00  0.00     0.003 A 
ATOM      8  C6  PXY d   1      -0.203   3.067   2.763  0.00  0.00     0.003 A 
ENDROOT
TORSDOF 0
ENDMDL
