MODEL 1
REMARK minimizedAffinity 10.9109507
REMARK minimizedRMSD -1
REMARK  0 active torsions:
REMARK  status: ('A' for Active; 'I' for Inactive)
ROOT
ATOM      1  C4' PXY d   1       0.757  -0.921   4.092  0.00  0.00     0.077 C 
ATOM      2  C1' PXY d   1       0.351   4.112   1.278  0.00  0.00     0.077 C 
ATOM      3  C1  PXY d   1       0.445   2.794   2.021  0.00  0.00    -0.082 A 
ATOM      4  C2  PXY d   1       1.634   2.283   2.298  0.00  0.00     0.003 A 
ATOM      5  C3  PXY d   1       1.738   1.076   2.941  0.00  0.00     0.003 A 
ATOM      6  C4  PXY d   1       0.614   0.411   3.352  0.00  0.00    -0.082 A 
ATOM      7  C5  PXY d   1      -0.603   0.931   3.082  0.00  0.00     0.003 A 
ATOM      8  C6  PXY d   1      -0.687   2.137   2.392  0.00  0.00     0.003 A 
ENDROOT
TORSDOF 0
ENDMDL
