MODEL 1
REMARK minimizedAffinity 6.53547192
REMARK minimizedRMSD -1
REMARK  0 active torsions:
REMARK  status: ('A' for Active; 'I' for Inactive)
ROOT
ATOM      1  C4' PXY d   1       0.001  -4.875  -0.753  0.00  0.00     0.077 C 
ATOM      2  C1' PXY d   1       5.779  -4.950  -0.917  0.00  0.00     0.077 C 
ATOM      3  C1  PXY d   1       4.264  -4.921  -0.865  0.00  0.00    -0.082 A 
ATOM      4  C2  PXY d   1       3.577  -5.999  -1.206  0.00  0.00     0.003 A 
ATOM      5  C3  PXY d   1       2.206  -5.979  -1.196  0.00  0.00     0.003 A 
ATOM      6  C4  PXY d   1       1.532  -4.862  -0.781  0.00  0.00    -0.082 A 
ATOM      7  C5  PXY d   1       2.226  -3.762  -0.421  0.00  0.00     0.003 A 
ATOM      8  C6  PXY d   1       3.617  -3.788  -0.478  0.00  0.00     0.003 A 
ENDROOT
TORSDOF 0
ENDMDL
