MODEL 1
REMARK minimizedAffinity -0.849764943
REMARK minimizedRMSD -1
REMARK  0 active torsions:
REMARK  status: ('A' for Active; 'I' for Inactive)
ROOT
ATOM      1  C4' PXY d   1      -5.888   0.663   4.490  0.00  0.00     0.077 C 
ATOM      2  C1' PXY d   1      -6.000  -5.094   5.005  0.00  0.00     0.077 C 
ATOM      3  C1  PXY d   1      -5.976  -3.583   4.882  0.00  0.00    -0.082 A 
ATOM      4  C2  PXY d   1      -5.942  -3.025   3.682  0.00  0.00     0.003 A 
ATOM      5  C3  PXY d   1      -5.888  -1.661   3.553  0.00  0.00     0.003 A 
ATOM      6  C4  PXY d   1      -5.923  -0.858   4.662  0.00  0.00    -0.082 A 
ATOM      7  C5  PXY d   1      -5.968  -1.420   5.889  0.00  0.00     0.003 A 
ATOM      8  C6  PXY d   1      -5.981  -2.807   5.999  0.00  0.00     0.003 A 
ENDROOT
TORSDOF 0
ENDMDL
