MODEL 1
REMARK minimizedAffinity -2.94061327
REMARK minimizedRMSD -1
REMARK  0 active torsions:
REMARK  status: ('A' for Active; 'I' for Inactive)
ROOT
ATOM      1  C4' PXY d   1       4.497  -1.020   1.133  0.00  0.00     0.077 C 
ATOM      2  C1' PXY d   1       4.055  -4.897  -3.132  0.00  0.00     0.077 C 
ATOM      3  C1  PXY d   1       4.178  -3.889  -2.007  0.00  0.00    -0.082 A 
ATOM      4  C2  PXY d   1       3.266  -2.938  -1.877  0.00  0.00     0.003 A 
ATOM      5  C3  PXY d   1       3.380  -1.999  -0.885  0.00  0.00     0.003 A 
ATOM      6  C4  PXY d   1       4.408  -2.065   0.017  0.00  0.00    -0.082 A 
ATOM      7  C5  PXY d   1       5.336  -3.038  -0.102  0.00  0.00     0.003 A 
ATOM      8  C6  PXY d   1       5.225  -3.957  -1.141  0.00  0.00     0.003 A 
ENDROOT
TORSDOF 0
ENDMDL
