MODEL 1
REMARK minimizedAffinity 12.1955366
REMARK minimizedRMSD -1
REMARK  0 active torsions:
REMARK  status: ('A' for Active; 'I' for Inactive)
ROOT
ATOM      1  C4' PXY d   1      -0.375   6.000  -4.539  0.00  0.00     0.077 C 
ATOM      2  C1' PXY d   1      -0.495   3.317   0.580  0.00  0.00     0.077 C 
ATOM      3  C1  PXY d   1      -0.472   4.029  -0.758  0.00  0.00    -0.082 A 
ATOM      4  C2  PXY d   1      -0.117   3.366  -1.846  0.00  0.00     0.003 A 
ATOM      5  C3  PXY d   1      -0.061   4.003  -3.059  0.00  0.00     0.003 A 
ATOM      6  C4  PXY d   1      -0.422   5.319  -3.168  0.00  0.00    -0.082 A 
ATOM      7  C5  PXY d   1      -0.795   6.000  -2.064  0.00  0.00     0.003 A 
ATOM      8  C6  PXY d   1      -0.807   5.346  -0.836  0.00  0.00     0.003 A 
ENDROOT
TORSDOF 0
ENDMDL
