MODEL 1
REMARK minimizedAffinity -0.152998149
REMARK minimizedRMSD -1
REMARK  0 active torsions:
REMARK  status: ('A' for Active; 'I' for Inactive)
ROOT
ATOM      1  C   UNL d   1       1.193   0.660  -2.190  0.00  0.00     0.020 A 
ATOM      2  C1  UNL d   1       2.501   1.135  -2.095  0.00  0.00     0.020 A 
ATOM      3  C2  UNL d   1       3.124   1.690  -3.215  0.00  0.00     0.034 A 
ATOM      4  C3  UNL d   1       2.441   1.771  -4.434  0.00  0.00     0.017 A 
ATOM      5  C4  UNL d   1       1.128   1.294  -4.527  0.00  0.00     0.017 A 
ATOM      6  C5  UNL d   1       0.508   0.740  -3.403  0.00  0.00     0.034 A 
ATOM      7 Cl   UNL d   1       0.220   1.360  -5.996  0.00  0.00    -0.070 Cl
ATOM      8 Cl1  UNL d   1       3.273   2.469  -5.777  0.00  0.00    -0.070 Cl
ENDROOT
TORSDOF 0
ENDMDL
