MODEL 1
REMARK minimizedAffinity -0.647536755
REMARK minimizedRMSD -1
REMARK  0 active torsions:
REMARK  status: ('A' for Active; 'I' for Inactive)
ROOT
ATOM      1  C   UNL d   1       1.246   0.798  -2.290  0.00  0.00     0.020 A 
ATOM      2  C1  UNL d   1       2.634   0.917  -2.228  0.00  0.00     0.020 A 
ATOM      3  C2  UNL d   1       3.346   1.380  -3.337  0.00  0.00     0.034 A 
ATOM      4  C3  UNL d   1       2.670   1.726  -4.512  0.00  0.00     0.017 A 
ATOM      5  C4  UNL d   1       1.277   1.607  -4.574  0.00  0.00     0.017 A 
ATOM      6  C5  UNL d   1       0.569   1.143  -3.461  0.00  0.00     0.034 A 
ATOM      7 Cl   UNL d   1       0.373   2.015  -5.990  0.00  0.00    -0.070 Cl
ATOM      8 Cl1  UNL d   1       3.613   2.292  -5.845  0.00  0.00    -0.070 Cl
ENDROOT
TORSDOF 0
ENDMDL
