MODEL 1
REMARK minimizedAffinity 9.16750431
REMARK minimizedRMSD -1
REMARK  0 active torsions:
REMARK  status: ('A' for Active; 'I' for Inactive)
ROOT
ATOM      1  C   UNL d   1       5.473   4.746   4.702  0.00  0.00     0.020 A 
ATOM      2  C1  UNL d   1       5.991   5.886   4.088  0.00  0.00     0.020 A 
ATOM      3  C2  UNL d   1       5.981   5.995   2.696  0.00  0.00     0.034 A 
ATOM      4  C3  UNL d   1       5.452   4.963   1.913  0.00  0.00     0.017 A 
ATOM      5  C4  UNL d   1       4.932   3.819   2.529  0.00  0.00     0.017 A 
ATOM      6  C5  UNL d   1       4.944   3.715   3.924  0.00  0.00     0.034 A 
ATOM      7 Cl   UNL d   1       4.262   2.504   1.630  0.00  0.00    -0.070 Cl
ATOM      8 Cl1  UNL d   1       5.472   5.165   0.197  0.00  0.00    -0.070 Cl
ENDROOT
TORSDOF 0
ENDMDL
