MODEL 1
REMARK minimizedAffinity 3.20265722
REMARK minimizedRMSD -1
REMARK  0 active torsions:
REMARK  status: ('A' for Active; 'I' for Inactive)
ROOT
ATOM      1  C   UNL d   1       1.158   0.555  -2.141  0.00  0.00     0.020 A 
ATOM      2  C1  UNL d   1       2.418   1.140  -2.022  0.00  0.00     0.020 A 
ATOM      3  C2  UNL d   1       3.028   1.716  -3.138  0.00  0.00     0.034 A 
ATOM      4  C3  UNL d   1       2.379   1.709  -4.378  0.00  0.00     0.017 A 
ATOM      5  C4  UNL d   1       1.114   1.121  -4.496  0.00  0.00     0.017 A 
ATOM      6  C5  UNL d   1       0.508   0.546  -3.375  0.00  0.00     0.034 A 
ATOM      7 Cl   UNL d   1       0.251   1.074  -5.993  0.00  0.00    -0.070 Cl
ATOM      8 Cl1  UNL d   1       3.192   2.440  -5.715  0.00  0.00    -0.070 Cl
ENDROOT
TORSDOF 0
ENDMDL
