MODEL 1
REMARK minimizedAffinity -1.55472553
REMARK minimizedRMSD -1
REMARK  0 active torsions:
REMARK  status: ('A' for Active; 'I' for Inactive)
ROOT
ATOM      1  C   UNL d   1       2.411   0.929  -2.094  0.00  0.00     0.020 A 
ATOM      2  C1  UNL d   1       1.089   0.499  -2.196  0.00  0.00     0.020 A 
ATOM      3  C2  UNL d   1       0.408   0.616  -3.410  0.00  0.00     0.034 A 
ATOM      4  C3  UNL d   1       1.050   1.164  -4.527  0.00  0.00     0.017 A 
ATOM      5  C4  UNL d   1       2.377   1.595  -4.423  0.00  0.00     0.017 A 
ATOM      6  C5  UNL d   1       3.054   1.476  -3.205  0.00  0.00     0.034 A 
ATOM      7 Cl   UNL d   1       3.236   2.282  -5.757  0.00  0.00    -0.070 Cl
ATOM      8 Cl1  UNL d   1       0.148   1.278  -5.996  0.00  0.00    -0.070 Cl
ENDROOT
TORSDOF 0
ENDMDL
