MODEL 1
REMARK minimizedAffinity 5.92329645
REMARK minimizedRMSD -1
REMARK  0 active torsions:
REMARK  status: ('A' for Active; 'I' for Inactive)
ROOT
ATOM      1  C   UNL d   1       5.427   5.998  -0.413  0.00  0.00     0.020 A 
ATOM      2  C1  UNL d   1       4.102   5.604  -0.591  0.00  0.00     0.020 A 
ATOM      3  C2  UNL d   1       3.340   5.199   0.508  0.00  0.00     0.034 A 
ATOM      4  C3  UNL d   1       3.904   5.186   1.788  0.00  0.00     0.017 A 
ATOM      5  C4  UNL d   1       5.235   5.582   1.966  0.00  0.00     0.017 A 
ATOM      6  C5  UNL d   1       5.992   5.987   0.862  0.00  0.00     0.034 A 
ATOM      7 Cl   UNL d   1       6.000   5.594   3.516  0.00  0.00    -0.070 Cl
ATOM      8 Cl1  UNL d   1       2.905   4.674   3.102  0.00  0.00    -0.070 Cl
ENDROOT
TORSDOF 0
ENDMDL
