MODEL 1
REMARK minimizedAffinity -2.88468552
REMARK minimizedRMSD -1
REMARK  0 active torsions:
REMARK  status: ('A' for Active; 'I' for Inactive)
ROOT
ATOM      1  C   UNL d   1       3.003   0.959  -2.600  0.00  0.00     0.020 A 
ATOM      2  C1  UNL d   1       2.849  -0.220  -1.871  0.00  0.00     0.020 A 
ATOM      3  C2  UNL d   1       1.597  -0.565  -1.358  0.00  0.00     0.034 A 
ATOM      4  C3  UNL d   1       0.494   0.269  -1.574  0.00  0.00     0.017 A 
ATOM      5  C4  UNL d   1       0.649   1.452  -2.306  0.00  0.00     0.017 A 
ATOM      6  C5  UNL d   1       1.906   1.793  -2.817  0.00  0.00     0.034 A 
ATOM      7 Cl   UNL d   1      -0.665   2.531  -2.614  0.00  0.00    -0.070 Cl
ATOM      8 Cl1  UNL d   1      -1.025  -0.220  -0.912  0.00  0.00    -0.070 Cl
ENDROOT
TORSDOF 0
ENDMDL
