MODEL 1
REMARK minimizedAffinity -0.588919163
REMARK minimizedRMSD -1
REMARK  0 active torsions:
REMARK  status: ('A' for Active; 'I' for Inactive)
ROOT
ATOM      1  C   UNL d   1       1.372   2.212  -4.730  0.00  0.00     0.020 A 
ATOM      2  C1  UNL d   1       2.734   1.979  -4.543  0.00  0.00     0.020 A 
ATOM      3  C2  UNL d   1       3.178   1.322  -3.394  0.00  0.00     0.034 A 
ATOM      4  C3  UNL d   1       2.260   0.897  -2.426  0.00  0.00     0.017 A 
ATOM      5  C4  UNL d   1       0.893   1.132  -2.615  0.00  0.00     0.017 A 
ATOM      6  C5  UNL d   1       0.454   1.790  -3.768  0.00  0.00     0.034 A 
ATOM      7 Cl   UNL d   1      -0.300   0.637  -1.466  0.00  0.00    -0.070 Cl
ATOM      8 Cl1  UNL d   1       2.880   0.091  -1.029  0.00  0.00    -0.070 Cl
ENDROOT
TORSDOF 0
ENDMDL
