MODEL 1
REMARK minimizedAffinity -0.0412635915
REMARK minimizedRMSD -1
REMARK  0 active torsions:
REMARK  status: ('A' for Active; 'I' for Inactive)
ROOT
ATOM      1  C   UNL d   1       3.970   2.116  -4.825  0.00  0.00     0.020 A 
ATOM      2  C1  UNL d   1       3.976   1.835  -3.460  0.00  0.00     0.020 A 
ATOM      3  C2  UNL d   1       2.780   1.535  -2.804  0.00  0.00     0.034 A 
ATOM      4  C3  UNL d   1       1.573   1.516  -3.513  0.00  0.00     0.017 A 
ATOM      5  C4  UNL d   1       1.569   1.798  -4.884  0.00  0.00     0.017 A 
ATOM      6  C5  UNL d   1       2.769   2.097  -5.536  0.00  0.00     0.034 A 
ATOM      7 Cl   UNL d   1       0.120   1.793  -5.826  0.00  0.00    -0.070 Cl
ATOM      8 Cl1  UNL d   1       0.133   1.137  -2.638  0.00  0.00    -0.070 Cl
ENDROOT
TORSDOF 0
ENDMDL
