MODEL 1
REMARK minimizedAffinity 4.04766798
REMARK minimizedRMSD -1
REMARK  0 active torsions:
REMARK  status: ('A' for Active; 'I' for Inactive)
ROOT
ATOM      1  C   UNL d   1       3.773   2.019  -3.274  0.00  0.00     0.020 A 
ATOM      2  C1  UNL d   1       3.873   2.218  -4.650  0.00  0.00     0.020 A 
ATOM      3  C2  UNL d   1       2.729   2.159  -5.449  0.00  0.00     0.034 A 
ATOM      4  C3  UNL d   1       1.480   1.901  -4.872  0.00  0.00     0.017 A 
ATOM      5  C4  UNL d   1       1.381   1.702  -3.490  0.00  0.00     0.017 A 
ATOM      6  C5  UNL d   1       2.530   1.761  -2.695  0.00  0.00     0.034 A 
ATOM      7 Cl   UNL d   1      -0.125   1.378  -2.706  0.00  0.00    -0.070 Cl
ATOM      8 Cl1  UNL d   1       0.108   1.844  -5.920  0.00  0.00    -0.070 Cl
ENDROOT
TORSDOF 0
ENDMDL
