MODEL 1
REMARK minimizedAffinity 2.65085077
REMARK minimizedRMSD -1
REMARK  0 active torsions:
REMARK  status: ('A' for Active; 'I' for Inactive)
ROOT
ATOM      1  C   UNL d   1      -5.861  -1.039   2.640  0.00  0.00     0.020 A 
ATOM      2  C1  UNL d   1      -4.739  -1.794   2.980  0.00  0.00     0.020 A 
ATOM      3  C2  UNL d   1      -3.505  -1.166   3.163  0.00  0.00     0.034 A 
ATOM      4  C3  UNL d   1      -3.390   0.220   3.007  0.00  0.00     0.017 A 
ATOM      5  C4  UNL d   1      -4.517   0.976   2.665  0.00  0.00     0.017 A 
ATOM      6  C5  UNL d   1      -5.750   0.343   2.483  0.00  0.00     0.034 A 
ATOM      7 Cl   UNL d   1      -4.454   2.691   2.455  0.00  0.00    -0.070 Cl
ATOM      8 Cl1  UNL d   1      -1.834   0.930   3.249  0.00  0.00    -0.070 Cl
ENDROOT
TORSDOF 0
ENDMDL
