MODEL 1
REMARK minimizedAffinity 5.48956108
REMARK minimizedRMSD -1
REMARK  0 active torsions:
REMARK  status: ('A' for Active; 'I' for Inactive)
ROOT
ATOM      1  C   UNL d   1       4.327   2.263  -4.813  0.00  0.00     0.020 A 
ATOM      2  C1  UNL d   1       3.202   2.458  -5.613  0.00  0.00     0.020 A 
ATOM      3  C2  UNL d   1       1.931   2.168  -5.113  0.00  0.00     0.034 A 
ATOM      4  C3  UNL d   1       1.782   1.681  -3.809  0.00  0.00     0.017 A 
ATOM      5  C4  UNL d   1       2.912   1.486  -3.007  0.00  0.00     0.017 A 
ATOM      6  C5  UNL d   1       4.182   1.778  -3.513  0.00  0.00     0.034 A 
ATOM      7 Cl   UNL d   1       2.808   0.888  -1.388  0.00  0.00    -0.070 Cl
ATOM      8 Cl1  UNL d   1       0.180   1.344  -3.256  0.00  0.00    -0.070 Cl
ENDROOT
TORSDOF 0
ENDMDL
