MODEL 1
REMARK minimizedAffinity 3.06222916
REMARK minimizedRMSD -1
REMARK  0 active torsions:
REMARK  status: ('A' for Active; 'I' for Inactive)
ROOT
ATOM      1  C   UNL d   1       5.598   4.764   5.166  0.00  0.00     0.020 A 
ATOM      2  C1  UNL d   1       4.509   5.631   5.248  0.00  0.00     0.020 A 
ATOM      3  C2  UNL d   1       3.821   5.999   4.089  0.00  0.00     0.034 A 
ATOM      4  C3  UNL d   1       4.222   5.500   2.844  0.00  0.00     0.017 A 
ATOM      5  C4  UNL d   1       5.315   4.630   2.764  0.00  0.00     0.017 A 
ATOM      6  C5  UNL d   1       6.000   4.265   3.927  0.00  0.00     0.034 A 
ATOM      7 Cl   UNL d   1       5.868   3.974   1.264  0.00  0.00    -0.070 Cl
ATOM      8 Cl1  UNL d   1       3.326   5.997   1.453  0.00  0.00    -0.070 Cl
ENDROOT
TORSDOF 0
ENDMDL
