MODEL 1
REMARK minimizedAffinity 1.38176727
REMARK minimizedRMSD -1
REMARK  0 active torsions:
REMARK  status: ('A' for Active; 'I' for Inactive)
ROOT
ATOM      1  C   UNL d   1       2.742   1.328  -2.247  0.00  0.00     0.020 A 
ATOM      2  C1  UNL d   1       1.507   0.680  -2.247  0.00  0.00     0.020 A 
ATOM      3  C2  UNL d   1       0.745   0.629  -3.416  0.00  0.00     0.034 A 
ATOM      4  C3  UNL d   1       1.217   1.226  -4.590  0.00  0.00     0.017 A 
ATOM      5  C4  UNL d   1       2.457   1.876  -4.590  0.00  0.00     0.017 A 
ATOM      6  C5  UNL d   1       3.215   1.925  -3.416  0.00  0.00     0.034 A 
ATOM      7 Cl   UNL d   1       3.105   2.637  -6.000  0.00  0.00    -0.070 Cl
ATOM      8 Cl1  UNL d   1       0.222   1.124  -5.999  0.00  0.00    -0.070 Cl
ENDROOT
TORSDOF 0
ENDMDL
