MODEL 1
REMARK minimizedAffinity 8.70490551
REMARK minimizedRMSD -1
REMARK  0 active torsions:
REMARK  status: ('A' for Active; 'I' for Inactive)
ROOT
ATOM      1  C   UNL d   1       5.923   5.934   4.107  0.00  0.00     0.020 A 
ATOM      2  C1  UNL d   1       5.311   4.845   4.726  0.00  0.00     0.020 A 
ATOM      3  C2  UNL d   1       4.766   3.818   3.953  0.00  0.00     0.034 A 
ATOM      4  C3  UNL d   1       4.832   3.877   2.556  0.00  0.00     0.017 A 
ATOM      5  C4  UNL d   1       5.446   4.971   1.935  0.00  0.00     0.017 A 
ATOM      6  C5  UNL d   1       5.990   5.997   2.714  0.00  0.00     0.034 A 
ATOM      7 Cl   UNL d   1       5.566   5.115   0.217  0.00  0.00    -0.070 Cl
ATOM      8 Cl1  UNL d   1       4.137   2.572   1.663  0.00  0.00    -0.070 Cl
ENDROOT
TORSDOF 0
ENDMDL
