MODEL 1
REMARK minimizedAffinity -5.09748745
REMARK minimizedRMSD -1
REMARK  0 active torsions:
REMARK  status: ('A' for Active; 'I' for Inactive)
ROOT
ATOM      1  C   UNL d   1       0.527   1.597  -5.441  0.00  0.00     0.020 A 
ATOM      2  C1  UNL d   1       1.588   2.327  -5.974  0.00  0.00     0.020 A 
ATOM      3  C2  UNL d   1       2.734   2.554  -5.208  0.00  0.00     0.034 A 
ATOM      4  C3  UNL d   1       2.820   2.050  -3.905  0.00  0.00     0.017 A 
ATOM      5  C4  UNL d   1       1.754   1.316  -3.371  0.00  0.00     0.017 A 
ATOM      6  C5  UNL d   1       0.610   1.092  -4.143  0.00  0.00     0.034 A 
ATOM      7 Cl   UNL d   1       1.788   0.663  -1.772  0.00  0.00    -0.070 Cl
ATOM      8 Cl1  UNL d   1       4.266   2.368  -3.015  0.00  0.00    -0.070 Cl
ENDROOT
TORSDOF 0
ENDMDL
