MODEL 1
REMARK minimizedAffinity -4.86477518
REMARK minimizedRMSD -1
REMARK  0 active torsions:
REMARK  status: ('A' for Active; 'I' for Inactive)
ROOT
ATOM      1  C   UNL d   1      -0.409  -1.677   0.360  0.00  0.00     0.020 A 
ATOM      2  C1  UNL d   1      -1.214  -0.544   0.474  0.00  0.00     0.020 A 
ATOM      3  C2  UNL d   1      -0.756   0.687   0.001  0.00  0.00     0.034 A 
ATOM      4  C3  UNL d   1       0.510   0.789  -0.588  0.00  0.00     0.017 A 
ATOM      5  C4  UNL d   1       1.316  -0.349  -0.702  0.00  0.00     0.017 A 
ATOM      6  C5  UNL d   1       0.853  -1.580  -0.227  0.00  0.00     0.034 A 
ATOM      7 Cl   UNL d   1       2.889  -0.302  -1.417  0.00  0.00    -0.070 Cl
ATOM      8 Cl1  UNL d   1       1.011   2.344  -1.150  0.00  0.00    -0.070 Cl
ENDROOT
TORSDOF 0
ENDMDL
