MODEL 1
REMARK minimizedAffinity -5.21481133
REMARK minimizedRMSD -1
REMARK  3 active torsions:
REMARK  status: ('A' for Active; 'I' for Inactive)
REMARK    1  A    between atoms: C3'_2  and  C2'_3 
REMARK    2  A    between atoms: C2'_3  and  C1'_4 
REMARK    3  A    between atoms: C1'_4  and  C1_5 
ROOT
ATOM      1  C1  N4B d   1      -0.029  -0.316   0.362  0.00  0.00    -0.075 A 
ATOM      2  C2  N4B d   1      -0.388  -0.167   1.720  0.00  0.00     0.002 A 
ATOM      3  C3  N4B d   1       0.288  -0.865   2.690  0.00  0.00     0.002 A 
ATOM      4  C4  N4B d   1       1.311  -1.728   2.326  0.00  0.00    -0.004 A 
ATOM      5  C5  N4B d   1       1.669  -1.847   1.015  0.00  0.00     0.002 A 
ATOM      6  C6  N4B d   1       1.000  -1.148   0.030  0.00  0.00     0.002 A 
ENDROOT
BRANCH   1   7
ATOM      7  C1' N4B d   1      -0.796   0.361  -0.741  0.00  0.00     0.057 C 
BRANCH   7   8
ATOM      8  C2' N4B d   1       0.100   1.400  -1.409  0.00  0.00     0.009 C 
BRANCH   8   9
ATOM      9  C3' N4B d   1      -0.707   2.489  -2.094  0.00  0.00     0.004 C 
ATOM     10  C4' N4B d   1       0.139   3.398  -2.935  0.00  0.00     0.003 C 
ENDBRANCH   8   9
ENDBRANCH   7   8
ENDBRANCH   1   7
TORSDOF 3
ENDMDL
