MODEL 1
REMARK minimizedAffinity -4.31701231
REMARK minimizedRMSD -1
REMARK  3 active torsions:
REMARK  status: ('A' for Active; 'I' for Inactive)
REMARK    1  A    between atoms: C3'_2  and  C2'_3 
REMARK    2  A    between atoms: C2'_3  and  C1'_4 
REMARK    3  A    between atoms: C1'_4  and  C1_5 
ROOT
ATOM      1  C1  N4B d   1      -0.001   0.132   0.438  0.00  0.00    -0.075 A 
ATOM      2  C2  N4B d   1      -1.007  -0.439   1.248  0.00  0.00     0.002 A 
ATOM      3  C3  N4B d   1      -0.662  -1.190   2.344  0.00  0.00     0.002 A 
ATOM      4  C4  N4B d   1       0.678  -1.399   2.638  0.00  0.00    -0.004 A 
ATOM      5  C5  N4B d   1       1.643  -0.823   1.865  0.00  0.00     0.002 A 
ATOM      6  C6  N4B d   1       1.310  -0.063   0.762  0.00  0.00     0.002 A 
ENDROOT
BRANCH   1   7
ATOM      7  C1' N4B d   1      -0.329   0.889  -0.820  0.00  0.00     0.057 C 
BRANCH   7   8
ATOM      8  C2' N4B d   1      -0.603   2.348  -0.469  0.00  0.00     0.009 C 
BRANCH   8   9
ATOM      9  C3' N4B d   1      -0.975   3.167  -1.693  0.00  0.00     0.004 C 
ATOM     10  C4' N4B d   1       0.204   3.859  -2.310  0.00  0.00     0.003 C 
ENDBRANCH   8   9
ENDBRANCH   7   8
ENDBRANCH   1   7
TORSDOF 3
ENDMDL
