MODEL 1
REMARK minimizedAffinity 7.45366669
REMARK minimizedRMSD -1
REMARK  0 active torsions:
REMARK  status: ('A' for Active; 'I' for Inactive)
ROOT
ATOM      1  C   UNL d   1       2.550   1.183   0.148  0.00  0.00     0.078 C 
ATOM      2  C1  UNL d   1       1.651   1.648   1.255  0.00  0.00    -0.077 A 
ATOM      3  C2  UNL d   1       2.114   2.533   2.236  0.00  0.00    -0.001 A 
ATOM      4  C3  UNL d   1       1.270   2.950   3.266  0.00  0.00     0.003 A 
ATOM      5  C4  UNL d   1      -0.042   2.485   3.327  0.00  0.00    -0.005 A 
ATOM      6  C5  UNL d   1      -0.511   1.602   2.357  0.00  0.00     0.003 A 
ATOM      7  C6  UNL d   1       0.332   1.184   1.326  0.00  0.00    -0.001 A 
ENDROOT
TORSDOF 0
ENDMDL
