MODEL 1
REMARK minimizedAffinity -2.9847219
REMARK minimizedRMSD -1
REMARK  0 active torsions:
REMARK  status: ('A' for Active; 'I' for Inactive)
ROOT
ATOM      1  C   UNL d   1       3.863   1.544  -0.523  0.00  0.00     0.078 C 
ATOM      2  C1  UNL d   1       2.791   0.498  -0.456  0.00  0.00    -0.077 A 
ATOM      3  C2  UNL d   1       1.445   0.853  -0.307  0.00  0.00    -0.001 A 
ATOM      4  C3  UNL d   1       0.459  -0.132  -0.235  0.00  0.00     0.003 A 
ATOM      5  C4  UNL d   1       0.808  -1.479  -0.310  0.00  0.00    -0.005 A 
ATOM      6  C5  UNL d   1       2.146  -1.842  -0.456  0.00  0.00     0.003 A 
ATOM      7  C6  UNL d   1       3.133  -0.858  -0.528  0.00  0.00    -0.001 A 
ENDROOT
TORSDOF 0
ENDMDL
