MODEL 1
REMARK minimizedAffinity -0.434739709
REMARK minimizedRMSD -1
REMARK  0 active torsions:
REMARK  status: ('A' for Active; 'I' for Inactive)
ROOT
ATOM      1  C   UNL d   1       2.246  -2.386  -0.205  0.00  0.00     0.078 C 
ATOM      2  C1  UNL d   1       3.182  -1.616  -1.089  0.00  0.00    -0.077 A 
ATOM      3  C2  UNL d   1       3.454  -2.042  -2.395  0.00  0.00    -0.001 A 
ATOM      4  C3  UNL d   1       4.335  -1.321  -3.203  0.00  0.00     0.003 A 
ATOM      5  C4  UNL d   1       4.951  -0.171  -2.714  0.00  0.00    -0.005 A 
ATOM      6  C5  UNL d   1       4.688   0.259  -1.415  0.00  0.00     0.003 A 
ATOM      7  C6  UNL d   1       3.808  -0.461  -0.606  0.00  0.00    -0.001 A 
ENDROOT
TORSDOF 0
ENDMDL
