MODEL 1
REMARK minimizedAffinity -2.65934038
REMARK minimizedRMSD -1
REMARK  0 active torsions:
REMARK  status: ('A' for Active; 'I' for Inactive)
ROOT
ATOM      1  C   UNL d   1       3.370   1.499  -0.413  0.00  0.00     0.078 C 
ATOM      2  C1  UNL d   1       2.308   0.440  -0.445  0.00  0.00    -0.077 A 
ATOM      3  C2  UNL d   1       2.646  -0.918  -0.498  0.00  0.00    -0.001 A 
ATOM      4  C3  UNL d   1       1.647  -1.892  -0.537  0.00  0.00     0.003 A 
ATOM      5  C4  UNL d   1       0.305  -1.519  -0.523  0.00  0.00    -0.005 A 
ATOM      6  C5  UNL d   1      -0.041  -0.170  -0.473  0.00  0.00     0.003 A 
ATOM      7  C6  UNL d   1       0.956   0.806  -0.434  0.00  0.00    -0.001 A 
ENDROOT
TORSDOF 0
ENDMDL
