MODEL 1
REMARK minimizedAffinity 2.12961602
REMARK minimizedRMSD -1
REMARK  0 active torsions:
REMARK  status: ('A' for Active; 'I' for Inactive)
ROOT
ATOM      1  C   UNL d   1       4.799   2.288  -0.959  0.00  0.00     0.078 C 
ATOM      2  C1  UNL d   1       3.568   1.467  -0.721  0.00  0.00    -0.077 A 
ATOM      3  C2  UNL d   1       2.457   2.007  -0.062  0.00  0.00    -0.001 A 
ATOM      4  C3  UNL d   1       1.321   1.228   0.162  0.00  0.00     0.003 A 
ATOM      5  C4  UNL d   1       1.285  -0.097  -0.269  0.00  0.00    -0.005 A 
ATOM      6  C5  UNL d   1       2.387  -0.644  -0.923  0.00  0.00     0.003 A 
ATOM      7  C6  UNL d   1       3.524   0.134  -1.148  0.00  0.00    -0.001 A 
ENDROOT
TORSDOF 0
ENDMDL
