MODEL 1
REMARK minimizedAffinity 2.57400155
REMARK minimizedRMSD -1
REMARK  0 active torsions:
REMARK  status: ('A' for Active; 'I' for Inactive)
ROOT
ATOM      1  N1  IND d   1       2.671   0.665   4.474  0.00  0.00    -0.196 N 
ATOM      2  C2  IND d   1       3.886   0.245   4.939  0.00  0.00     0.054 A 
ATOM      3  C3  IND d   1       4.673  -0.148   3.912  0.00  0.00    -0.031 A 
ATOM      4  C4  IND d   1       4.208  -0.090   1.381  0.00  0.00     0.051 A 
ATOM      5  C5  IND d   1       3.222   0.179   0.473  0.00  0.00    -0.031 A 
ATOM      6  C6  IND d   1       1.979   0.635   0.860  0.00  0.00     0.015 A 
ATOM      7  C7  IND d   1       1.677   0.852   2.174  0.00  0.00    -0.016 A 
ATOM      8  C8  IND d   1       2.673   0.573   3.100  0.00  0.00    -0.047 A 
ATOM      9  C9  IND d   1       3.922   0.069   2.717  0.00  0.00    -0.096 A 
ATOM     10  HN1 IND d   1       2.017   0.941   4.959  0.00  0.00     0.298 HD
ENDROOT
TORSDOF 0
ENDMDL
