MODEL 1
REMARK minimizedAffinity 5.99836445
REMARK minimizedRMSD -1
REMARK  0 active torsions:
REMARK  status: ('A' for Active; 'I' for Inactive)
ROOT
ATOM      1  N1  IND d   1       2.796   0.651   4.532  0.00  0.00    -0.196 N 
ATOM      2  C2  IND d   1       4.080   0.357   4.898  0.00  0.00     0.054 A 
ATOM      3  C3  IND d   1       4.843   0.141   3.803  0.00  0.00    -0.031 A 
ATOM      4  C4  IND d   1       4.217   0.315   1.312  0.00  0.00     0.051 A 
ATOM      5  C5  IND d   1       3.151   0.519   0.481  0.00  0.00    -0.031 A 
ATOM      6  C6  IND d   1       1.888   0.785   0.967  0.00  0.00     0.015 A 
ATOM      7  C7  IND d   1       1.644   0.869   2.309  0.00  0.00    -0.016 A 
ATOM      8  C8  IND d   1       2.722   0.656   3.156  0.00  0.00    -0.047 A 
ATOM      9  C9  IND d   1       3.998   0.343   2.669  0.00  0.00    -0.096 A 
ATOM     10  HN1 IND d   1       2.144   0.806   5.070  0.00  0.00     0.298 HD
ENDROOT
TORSDOF 0
ENDMDL
