MODEL 1
REMARK minimizedAffinity -1.79993176
REMARK minimizedRMSD -1
REMARK  0 active torsions:
REMARK  status: ('A' for Active; 'I' for Inactive)
ROOT
ATOM      1  N1  IND d   1      -2.621   5.971  -0.264  0.00  0.00    -0.196 N 
ATOM      2  C2  IND d   1      -1.265   5.944  -0.438  0.00  0.00     0.054 A 
ATOM      3  C3  IND d   1      -0.960   5.912  -1.754  0.00  0.00    -0.031 A 
ATOM      4  C4  IND d   1      -2.524   6.000  -3.798  0.00  0.00     0.051 A 
ATOM      5  C5  IND d   1      -3.846   5.993  -4.143  0.00  0.00    -0.031 A 
ATOM      6  C6  IND d   1      -4.848   5.981  -3.194  0.00  0.00     0.015 A 
ATOM      7  C7  IND d   1      -4.563   5.987  -1.858  0.00  0.00    -0.016 A 
ATOM      8  C8  IND d   1      -3.221   5.987  -1.503  0.00  0.00    -0.047 A 
ATOM      9  C9  IND d   1      -2.201   5.956  -2.462  0.00  0.00    -0.096 A 
ATOM     10  HN1 IND d   1      -3.029   5.977   0.493  0.00  0.00     0.298 HD
ENDROOT
TORSDOF 0
ENDMDL
