MODEL 1
REMARK minimizedAffinity 2.16970086
REMARK minimizedRMSD -1
REMARK  0 active torsions:
REMARK  status: ('A' for Active; 'I' for Inactive)
ROOT
ATOM      1  N1  IND d   1       1.546   2.007  -1.584  0.00  0.00    -0.196 N 
ATOM      2  C2  IND d   1       1.439   3.332  -1.262  0.00  0.00     0.054 A 
ATOM      3  C3  IND d   1       0.786   3.479  -0.088  0.00  0.00    -0.031 A 
ATOM      4  C4  IND d   1      -0.107   1.681   1.524  0.00  0.00     0.051 A 
ATOM      5  C5  IND d   1      -0.277   0.330   1.643  0.00  0.00    -0.031 A 
ATOM      6  C6  IND d   1       0.164  -0.549   0.675  0.00  0.00     0.015 A 
ATOM      7  C7  IND d   1       0.804  -0.108  -0.449  0.00  0.00    -0.016 A 
ATOM      8  C8  IND d   1       0.971   1.264  -0.577  0.00  0.00    -0.047 A 
ATOM      9  C9  IND d   1       0.488   2.163   0.382  0.00  0.00    -0.096 A 
ATOM     10  HN1 IND d   1       1.910   1.692  -2.296  0.00  0.00     0.298 HD
ENDROOT
TORSDOF 0
ENDMDL
