MODEL 1
REMARK minimizedAffinity 7.03460598
REMARK minimizedRMSD -1
REMARK  0 active torsions:
REMARK  status: ('A' for Active; 'I' for Inactive)
ROOT
ATOM      1  N1  IND d   1       4.454   5.924  -5.988  0.00  0.00    -0.196 N 
ATOM      2  C2  IND d   1       5.363   5.008  -5.536  0.00  0.00     0.054 A 
ATOM      3  C3  IND d   1       4.728   3.950  -4.984  0.00  0.00    -0.031 A 
ATOM      4  C4  IND d   1       2.206   3.465  -4.807  0.00  0.00     0.051 A 
ATOM      5  C5  IND d   1       0.982   4.024  -5.046  0.00  0.00    -0.031 A 
ATOM      6  C6  IND d   1       0.850   5.269  -5.626  0.00  0.00     0.015 A 
ATOM      7  C7  IND d   1       1.942   6.000  -6.000  0.00  0.00    -0.016 A 
ATOM      8  C8  IND d   1       3.187   5.438  -5.752  0.00  0.00    -0.047 A 
ATOM      9  C9  IND d   1       3.328   4.194  -5.125  0.00  0.00    -0.096 A 
ATOM     10  HN1 IND d   1       4.643   6.677  -6.358  0.00  0.00     0.298 HD
ENDROOT
TORSDOF 0
ENDMDL
