MODEL 1
REMARK minimizedAffinity -0.81906867
REMARK minimizedRMSD -1
REMARK  0 active torsions:
REMARK  status: ('A' for Active; 'I' for Inactive)
ROOT
ATOM      1  N1  IND d   1      -1.076   0.555   1.769  0.00  0.00    -0.196 N 
ATOM      2  C2  IND d   1      -1.551  -0.688   1.458  0.00  0.00     0.054 A 
ATOM      3  C3  IND d   1      -0.836  -1.225   0.443  0.00  0.00    -0.031 A 
ATOM      4  C4  IND d   1       1.219  -0.282  -0.786  0.00  0.00     0.051 A 
ATOM      5  C5  IND d   1       2.001   0.836  -0.878  0.00  0.00    -0.031 A 
ATOM      6  C6  IND d   1       1.794   1.938  -0.074  0.00  0.00     0.015 A 
ATOM      7  C7  IND d   1       0.801   1.959   0.864  0.00  0.00    -0.016 A 
ATOM      8  C8  IND d   1       0.001   0.829   0.955  0.00  0.00    -0.047 A 
ATOM      9  C9  IND d   1       0.179  -0.276   0.113  0.00  0.00    -0.096 A 
ATOM     10  HN1 IND d   1      -1.396   1.078   2.372  0.00  0.00     0.298 HD
ENDROOT
TORSDOF 0
ENDMDL
