MODEL 1
REMARK minimizedAffinity -2.21470761
REMARK minimizedRMSD -1
REMARK  0 active torsions:
REMARK  status: ('A' for Active; 'I' for Inactive)
ROOT
ATOM      1  N1  IND d   1       1.048  -1.536   0.115  0.00  0.00    -0.196 N 
ATOM      2  C2  IND d   1      -0.270  -1.610   0.471  0.00  0.00     0.054 A 
ATOM      3  C3  IND d   1      -0.754  -0.377   0.740  0.00  0.00    -0.031 A 
ATOM      4  C4  IND d   1       0.409   1.912   0.561  0.00  0.00     0.051 A 
ATOM      5  C5  IND d   1       1.624   2.487   0.310  0.00  0.00    -0.031 A 
ATOM      6  C6  IND d   1       2.730   1.734  -0.027  0.00  0.00     0.015 A 
ATOM      7  C7  IND d   1       2.660   0.375  -0.139  0.00  0.00    -0.016 A 
ATOM      8  C8  IND d   1       1.430  -0.213   0.121  0.00  0.00    -0.047 A 
ATOM      9  C9  IND d   1       0.314   0.542   0.506  0.00  0.00    -0.096 A 
ATOM     10  HN1 IND d   1       1.553  -2.204  -0.080  0.00  0.00     0.298 HD
ENDROOT
TORSDOF 0
ENDMDL
