MODEL 1
REMARK minimizedAffinity -1.28561008
REMARK minimizedRMSD -1
REMARK  0 active torsions:
REMARK  status: ('A' for Active; 'I' for Inactive)
ROOT
ATOM      1  N1  IND d   1      -3.630   5.970  -4.201  0.00  0.00    -0.196 N 
ATOM      2  C2  IND d   1      -3.657   5.963  -2.834  0.00  0.00     0.054 A 
ATOM      3  C3  IND d   1      -2.399   5.934  -2.339  0.00  0.00    -0.031 A 
ATOM      4  C4  IND d   1      -0.148   5.994  -3.588  0.00  0.00     0.051 A 
ATOM      5  C5  IND d   1       0.387   5.968  -4.845  0.00  0.00    -0.031 A 
ATOM      6  C6  IND d   1      -0.405   5.943  -5.974  0.00  0.00     0.015 A 
ATOM      7  C7  IND d   1      -1.769   5.955  -5.889  0.00  0.00    -0.016 A 
ATOM      8  C8  IND d   1      -2.316   5.975  -4.614  0.00  0.00    -0.047 A 
ATOM      9  C9  IND d   1      -1.517   5.957  -3.463  0.00  0.00    -0.096 A 
ATOM     10  HN1 IND d   1      -4.319   5.971  -4.716  0.00  0.00     0.298 HD
ENDROOT
TORSDOF 0
ENDMDL
