MODEL 1
REMARK minimizedAffinity 2.8832736
REMARK minimizedRMSD -1
REMARK  0 active torsions:
REMARK  status: ('A' for Active; 'I' for Inactive)
ROOT
ATOM      1  N1  IND d   1      -4.405   5.973  -0.310  0.00  0.00    -0.196 N 
ATOM      2  C2  IND d   1      -3.422   5.939   0.639  0.00  0.00     0.054 A 
ATOM      3  C3  IND d   1      -2.204   5.905   0.055  0.00  0.00    -0.031 A 
ATOM      4  C4  IND d   1      -1.585   5.999  -2.442  0.00  0.00     0.051 A 
ATOM      5  C5  IND d   1      -2.141   6.000  -3.691  0.00  0.00    -0.031 A 
ATOM      6  C6  IND d   1      -3.508   5.994  -3.880  0.00  0.00     0.015 A 
ATOM      7  C7  IND d   1      -4.373   5.999  -2.823  0.00  0.00    -0.016 A 
ATOM      8  C8  IND d   1      -3.812   5.992  -1.554  0.00  0.00    -0.047 A 
ATOM      9  C9  IND d   1      -2.426   5.954  -1.356  0.00  0.00    -0.096 A 
ATOM     10  HN1 IND d   1      -5.251   5.982  -0.157  0.00  0.00     0.298 HD
ENDROOT
TORSDOF 0
ENDMDL
