MODEL 1
REMARK minimizedAffinity 1.04606009
REMARK minimizedRMSD -1
REMARK  0 active torsions:
REMARK  status: ('A' for Active; 'I' for Inactive)
ROOT
ATOM      1  N1  IND d   1      -0.749   5.980  -5.835  0.00  0.00    -0.196 N 
ATOM      2  C2  IND d   1       0.616   5.975  -5.896  0.00  0.00     0.054 A 
ATOM      3  C3  IND d   1       1.142   5.992  -4.651  0.00  0.00    -0.031 A 
ATOM      4  C4  IND d   1      -0.050   5.925  -2.370  0.00  0.00     0.051 A 
ATOM      5  C5  IND d   1      -1.294   5.959  -1.803  0.00  0.00    -0.031 A 
ATOM      6  C6  IND d   1      -2.442   5.999  -2.567  0.00  0.00     0.015 A 
ATOM      7  C7  IND d   1      -2.390   5.996  -3.932  0.00  0.00    -0.016 A 
ATOM      8  C8  IND d   1      -1.130   5.969  -4.511  0.00  0.00    -0.047 A 
ATOM      9  C9  IND d   1       0.041   5.971  -3.741  0.00  0.00    -0.096 A 
ATOM     10  HN1 IND d   1      -1.282   5.988  -6.511  0.00  0.00     0.298 HD
ENDROOT
TORSDOF 0
ENDMDL
