MODEL 1
REMARK minimizedAffinity 8.20676041
REMARK minimizedRMSD -1
REMARK  0 active torsions:
REMARK  status: ('A' for Active; 'I' for Inactive)
ROOT
ATOM      1  N1  IND d   1       0.070  -0.908   0.347  0.00  0.00    -0.196 N 
ATOM      2  C2  IND d   1      -0.156  -0.438   1.611  0.00  0.00     0.054 A 
ATOM      3  C3  IND d   1       0.311   0.825   1.733  0.00  0.00    -0.031 A 
ATOM      4  C4  IND d   1       1.386   2.350  -0.041  0.00  0.00     0.051 A 
ATOM      5  C5  IND d   1       1.834   2.351  -1.332  0.00  0.00    -0.031 A 
ATOM      6  C6  IND d   1       1.712   1.243  -2.147  0.00  0.00     0.015 A 
ATOM      7  C7  IND d   1       1.125   0.093  -1.702  0.00  0.00    -0.016 A 
ATOM      8  C8  IND d   1       0.675   0.087  -0.389  0.00  0.00    -0.047 A 
ATOM      9  C9  IND d   1       0.834   1.193   0.455  0.00  0.00    -0.096 A 
ATOM     10  HN1 IND d   1      -0.132  -1.693   0.061  0.00  0.00     0.298 HD
ENDROOT
TORSDOF 0
ENDMDL
