MODEL 1
REMARK minimizedAffinity 8.52950573
REMARK minimizedRMSD -1
REMARK  0 active torsions:
REMARK  status: ('A' for Active; 'I' for Inactive)
ROOT
ATOM      1  N1  IND d   1       1.583  -0.237  -0.246  0.00  0.00    -0.196 N 
ATOM      2  C2  IND d   1       1.781   1.097  -0.028  0.00  0.00     0.054 A 
ATOM      3  C3  IND d   1       0.917   1.555   0.905  0.00  0.00    -0.031 A 
ATOM      4  C4  IND d   1      -0.839   0.268   2.279  0.00  0.00     0.051 A 
ATOM      5  C5  IND d   1      -1.414  -0.965   2.408  0.00  0.00    -0.031 A 
ATOM      6  C6  IND d   1      -1.009  -2.041   1.645  0.00  0.00     0.015 A 
ATOM      7  C7  IND d   1      -0.002  -1.926   0.729  0.00  0.00    -0.016 A 
ATOM      8  C8  IND d   1       0.579  -0.674   0.591  0.00  0.00    -0.047 A 
ATOM      9  C9  IND d   1       0.143   0.432   1.332  0.00  0.00    -0.096 A 
ATOM     10  HN1 IND d   1       2.012  -0.723  -0.811  0.00  0.00     0.298 HD
ENDROOT
TORSDOF 0
ENDMDL
