MODEL 1
REMARK minimizedAffinity 6.67365599
REMARK minimizedRMSD -1
REMARK  0 active torsions:
REMARK  status: ('A' for Active; 'I' for Inactive)
ROOT
ATOM      1  N1  IND d   1      -0.009   0.137  -0.230  0.00  0.00    -0.196 N 
ATOM      2  C2  IND d   1      -0.299  -0.179   1.068  0.00  0.00     0.054 A 
ATOM      3  C3  IND d   1       0.156   0.785   1.900  0.00  0.00    -0.031 A 
ATOM      4  C4  IND d   1       1.316   3.014   1.339  0.00  0.00     0.051 A 
ATOM      5  C5  IND d   1       1.828   3.729   0.293  0.00  0.00    -0.031 A 
ATOM      6  C6  IND d   1       1.750   3.275  -1.008  0.00  0.00     0.015 A 
ATOM      7  C7  IND d   1       1.144   2.089  -1.313  0.00  0.00    -0.016 A 
ATOM      8  C8  IND d   1       0.629   1.357  -0.252  0.00  0.00    -0.047 A 
ATOM      9  C9  IND d   1       0.743   1.793   1.074  0.00  0.00    -0.096 A 
ATOM     10  HN1 IND d   1      -0.194  -0.346  -0.917  0.00  0.00     0.298 HD
ENDROOT
TORSDOF 0
ENDMDL
