MODEL 1
REMARK minimizedAffinity 0.100876249
REMARK minimizedRMSD -1
REMARK  0 active torsions:
REMARK  status: ('A' for Active; 'I' for Inactive)
ROOT
ATOM      1  N1  IND d   1       1.543   4.304  -4.502  0.00  0.00    -0.196 N 
ATOM      2  C2  IND d   1       0.841   5.183  -5.279  0.00  0.00     0.054 A 
ATOM      3  C3  IND d   1       1.686   5.997  -5.949  0.00  0.00    -0.031 A 
ATOM      4  C4  IND d   1       4.260   5.999  -5.999  0.00  0.00     0.051 A 
ATOM      5  C5  IND d   1       5.349   5.405  -5.424  0.00  0.00    -0.031 A 
ATOM      6  C6  IND d   1       5.222   4.392  -4.496  0.00  0.00     0.015 A 
ATOM      7  C7  IND d   1       3.996   3.924  -4.115  0.00  0.00    -0.016 A 
ATOM      8  C8  IND d   1       2.888   4.530  -4.691  0.00  0.00    -0.047 A 
ATOM      9  C9  IND d   1       3.010   5.587  -5.601  0.00  0.00    -0.096 A 
ATOM     10  HN1 IND d   1       1.201   3.710  -3.982  0.00  0.00     0.298 HD
ENDROOT
TORSDOF 0
ENDMDL
