MODEL 1
REMARK minimizedAffinity 0.970294952
REMARK minimizedRMSD -1
REMARK  0 active torsions:
REMARK  status: ('A' for Active; 'I' for Inactive)
ROOT
ATOM      1  N1  IND d   1       0.597   0.941  -0.561  0.00  0.00    -0.196 N 
ATOM      2  C2  IND d   1       1.557   1.904  -0.418  0.00  0.00     0.054 A 
ATOM      3  C3  IND d   1       1.499   2.446   0.819  0.00  0.00    -0.031 A 
ATOM      4  C4  IND d   1      -0.024   1.835   2.802  0.00  0.00     0.051 A 
ATOM      5  C5  IND d   1      -1.084   1.043   3.142  0.00  0.00    -0.031 A 
ATOM      6  C6  IND d   1      -1.649   0.157   2.247  0.00  0.00     0.015 A 
ATOM      7  C7  IND d   1      -1.164   0.021   0.977  0.00  0.00    -0.016 A 
ATOM      8  C8  IND d   1      -0.091   0.828   0.627  0.00  0.00    -0.047 A 
ATOM      9  C9  IND d   1       0.459   1.760   1.517  0.00  0.00    -0.096 A 
ATOM     10  HN1 IND d   1       0.448   0.483  -1.274  0.00  0.00     0.298 HD
ENDROOT
TORSDOF 0
ENDMDL
