MODEL 1
REMARK minimizedAffinity 6.80462265
REMARK minimizedRMSD -1
REMARK  0 active torsions:
REMARK  status: ('A' for Active; 'I' for Inactive)
ROOT
ATOM      1  N1  IND d   1       0.634   3.783  -5.475  0.00  0.00    -0.196 N 
ATOM      2  C2  IND d   1      -0.022   4.907  -5.893  0.00  0.00     0.054 A 
ATOM      3  C3  IND d   1       0.839   5.943  -5.998  0.00  0.00    -0.031 A 
ATOM      4  C4  IND d   1       3.387   5.995  -5.635  0.00  0.00     0.051 A 
ATOM      5  C5  IND d   1       4.431   5.221  -5.212  0.00  0.00    -0.031 A 
ATOM      6  C6  IND d   1       4.260   3.900  -4.851  0.00  0.00     0.015 A 
ATOM      7  C7  IND d   1       3.035   3.299  -4.910  0.00  0.00    -0.016 A 
ATOM      8  C8  IND d   1       1.971   4.084  -5.332  0.00  0.00    -0.047 A 
ATOM      9  C9  IND d   1       2.131   5.436  -5.660  0.00  0.00    -0.096 A 
ATOM     10  HN1 IND d   1       0.274   3.016  -5.327  0.00  0.00     0.298 HD
ENDROOT
TORSDOF 0
ENDMDL
