MODEL 1
REMARK minimizedAffinity -6.09709454
REMARK minimizedRMSD -1
REMARK  0 active torsions:
REMARK  status: ('A' for Active; 'I' for Inactive)
ROOT
ATOM      1  C4' PXY d   1      -0.622   0.983  -2.276  0.00  0.00     0.077 C 
ATOM      2  C1' PXY d   1      -2.235  -2.886   1.705  0.00  0.00     0.077 C 
ATOM      3  C1  PXY d   1      -1.801  -1.869   0.668  0.00  0.00    -0.082 A 
ATOM      4  C2  PXY d   1      -2.706  -1.311  -0.120  0.00  0.00     0.003 A 
ATOM      5  C3  PXY d   1      -2.327  -0.413  -1.084  0.00  0.00     0.003 A 
ATOM      6  C4  PXY d   1      -1.015  -0.042  -1.208  0.00  0.00    -0.082 A 
ATOM      7  C5  PXY d   1      -0.087  -0.599  -0.401  0.00  0.00     0.003 A 
ATOM      8  C6  PXY d   1      -0.487  -1.539   0.544  0.00  0.00     0.003 A 
ENDROOT
TORSDOF 0
ENDMDL
