MODEL 1
REMARK minimizedAffinity -4.5019784
REMARK minimizedRMSD -1
REMARK  0 active torsions:
REMARK  status: ('A' for Active; 'I' for Inactive)
ROOT
ATOM      1  C4' PXY d   1      -0.402   0.611  -1.433  0.00  0.00     0.077 C 
ATOM      2  C1' PXY d   1      -2.433  -3.336   2.271  0.00  0.00     0.077 C 
ATOM      3  C1  PXY d   1      -1.909  -2.305   1.291  0.00  0.00    -0.082 A 
ATOM      4  C2  PXY d   1      -0.684  -1.826   1.437  0.00  0.00     0.003 A 
ATOM      5  C3  PXY d   1      -0.206  -0.870   0.579  0.00  0.00     0.003 A 
ATOM      6  C4  PXY d   1      -0.970  -0.438  -0.472  0.00  0.00    -0.082 A 
ATOM      7  C5  PXY d   1      -2.217  -0.929  -0.635  0.00  0.00     0.003 A 
ATOM      8  C6  PXY d   1      -2.699  -1.869   0.272  0.00  0.00     0.003 A 
ENDROOT
TORSDOF 0
ENDMDL
