MODEL 1
REMARK minimizedAffinity -5.23408222
REMARK minimizedRMSD -1
REMARK  0 active torsions:
REMARK  status: ('A' for Active; 'I' for Inactive)
ROOT
ATOM      1  C4' PXY d   1       1.971   0.830   0.060  0.00  0.00     0.077 C 
ATOM      2  C1' PXY d   1      -3.450  -1.169   0.248  0.00  0.00     0.077 C 
ATOM      3  C1  PXY d   1      -2.028  -0.645   0.186  0.00  0.00    -0.082 A 
ATOM      4  C2  PXY d   1      -1.226  -0.805   1.226  0.00  0.00     0.003 A 
ATOM      5  C3  PXY d   1       0.052  -0.309   1.199  0.00  0.00     0.003 A 
ATOM      6  C4  PXY d   1       0.531   0.309   0.075  0.00  0.00    -0.082 A 
ATOM      7  C5  PXY d   1      -0.278   0.467  -0.994  0.00  0.00     0.003 A 
ATOM      8  C6  PXY d   1      -1.585  -0.007  -0.931  0.00  0.00     0.003 A 
ENDROOT
TORSDOF 0
ENDMDL
