MODEL 1
REMARK minimizedAffinity -3.25913882
REMARK minimizedRMSD -1
REMARK  0 active torsions:
REMARK  status: ('A' for Active; 'I' for Inactive)
ROOT
ATOM      1  C4' PXY d   1       1.669   1.848   0.983  0.00  0.00     0.077 C 
ATOM      2  C1' PXY d   1      -2.837  -1.399  -0.618  0.00  0.00     0.077 C 
ATOM      3  C1  PXY d   1      -1.648  -0.553  -0.208  0.00  0.00    -0.082 A 
ATOM      4  C2  PXY d   1      -1.569  -0.091   1.030  0.00  0.00     0.003 A 
ATOM      5  C3  PXY d   1      -0.517   0.702   1.409  0.00  0.00     0.003 A 
ATOM      6  C4  PXY d   1       0.492   0.982   0.527  0.00  0.00    -0.082 A 
ATOM      7  C5  PXY d   1       0.425   0.506  -0.734  0.00  0.00     0.003 A 
ATOM      8  C6  PXY d   1      -0.672  -0.263  -1.111  0.00  0.00     0.003 A 
ENDROOT
TORSDOF 0
ENDMDL
