MODEL 1
REMARK minimizedAffinity -3.20033503
REMARK minimizedRMSD -1
REMARK  0 active torsions:
REMARK  status: ('A' for Active; 'I' for Inactive)
ROOT
ATOM      1  C4' PXY d   1       1.770   2.274   1.450  0.00  0.00     0.077 C 
ATOM      2  C1' PXY d   1      -2.413  -1.148  -0.601  0.00  0.00     0.077 C 
ATOM      3  C1  PXY d   1      -1.308  -0.260  -0.066  0.00  0.00    -0.082 A 
ATOM      4  C2  PXY d   1      -1.597   0.693   0.805  0.00  0.00     0.003 A 
ATOM      5  C3  PXY d   1      -0.615   1.525   1.275  0.00  0.00     0.003 A 
ATOM      6  C4  PXY d   1       0.687   1.347   0.890  0.00  0.00    -0.082 A 
ATOM      7  C5  PXY d   1       0.993   0.371   0.009  0.00  0.00     0.003 A 
ATOM      8  C6  PXY d   1      -0.026  -0.437  -0.488  0.00  0.00     0.003 A 
ENDROOT
TORSDOF 0
ENDMDL
