MODEL 1
REMARK minimizedAffinity -2.9702599
REMARK minimizedRMSD -1
REMARK  0 active torsions:
REMARK  status: ('A' for Active; 'I' for Inactive)
ROOT
ATOM      1  C4' PXY d   1       1.576   1.807   1.797  0.00  0.00     0.077 C 
ATOM      2  C1' PXY d   1      -2.427  -1.082  -1.210  0.00  0.00     0.077 C 
ATOM      3  C1  PXY d   1      -1.368  -0.329  -0.429  0.00  0.00    -0.082 A 
ATOM      4  C2  PXY d   1      -1.594  -0.003   0.833  0.00  0.00     0.003 A 
ATOM      5  C3  PXY d   1      -0.660   0.706   1.544  0.00  0.00     0.003 A 
ATOM      6  C4  PXY d   1       0.539   1.038   0.974  0.00  0.00    -0.082 A 
ATOM      7  C5  PXY d   1       0.782   0.700  -0.311  0.00  0.00     0.003 A 
ATOM      8  C6  PXY d   1      -0.196   0.017  -1.028  0.00  0.00     0.003 A 
ENDROOT
TORSDOF 0
ENDMDL
