MODEL 1
REMARK minimizedAffinity -5.16210222
REMARK minimizedRMSD -1
REMARK  0 active torsions:
REMARK  status: ('A' for Active; 'I' for Inactive)
ROOT
ATOM      1  C4' PXY d   1       2.064   0.689   0.063  0.00  0.00     0.077 C 
ATOM      2  C1' PXY d   1      -3.490  -0.897  -0.154  0.00  0.00     0.077 C 
ATOM      3  C1  PXY d   1      -2.034  -0.481  -0.084  0.00  0.00    -0.082 A 
ATOM      4  C2  PXY d   1      -1.483   0.147  -1.110  0.00  0.00     0.003 A 
ATOM      5  C3  PXY d   1      -0.159   0.502  -1.076  0.00  0.00     0.003 A 
ATOM      6  C4  PXY d   1       0.595   0.259   0.040  0.00  0.00    -0.082 A 
ATOM      7  C5  PXY d   1       0.038  -0.372   1.095  0.00  0.00     0.003 A 
ATOM      8  C6  PXY d   1      -1.297  -0.761   1.025  0.00  0.00     0.003 A 
ENDROOT
TORSDOF 0
ENDMDL
