MODEL 1
REMARK minimizedAffinity -4.978127
REMARK minimizedRMSD -1
REMARK  0 active torsions:
REMARK  status: ('A' for Active; 'I' for Inactive)
ROOT
ATOM      1  C4' PXY d   1      -2.803  -1.038  -0.302  0.00  0.00     0.077 C 
ATOM      2  C1' PXY d   1       2.711   0.658   0.063  0.00  0.00     0.077 C 
ATOM      3  C1  PXY d   1       1.267   0.205  -0.023  0.00  0.00    -0.082 A 
ATOM      4  C2  PXY d   1       0.612   0.319  -1.167  0.00  0.00     0.003 A 
ATOM      5  C3  PXY d   1      -0.704  -0.056  -1.254  0.00  0.00     0.003 A 
ATOM      6  C4  PXY d   1      -1.341  -0.602  -0.172  0.00  0.00    -0.082 A 
ATOM      7  C5  PXY d   1      -0.677  -0.732   0.996  0.00  0.00     0.003 A 
ATOM      8  C6  PXY d   1       0.646  -0.307   1.074  0.00  0.00     0.003 A 
ENDROOT
TORSDOF 0
ENDMDL
