MODEL 1
REMARK minimizedAffinity -4.27848053
REMARK minimizedRMSD -1
REMARK  0 active torsions:
REMARK  status: ('A' for Active; 'I' for Inactive)
ROOT
ATOM      1  C4' PXY d   1       2.113   0.932   0.387  0.00  0.00     0.077 C 
ATOM      2  C1' PXY d   1      -3.188  -1.271  -0.292  0.00  0.00     0.077 C 
ATOM      3  C1  PXY d   1      -1.795  -0.694  -0.127  0.00  0.00    -0.082 A 
ATOM      4  C2  PXY d   1      -1.174  -0.808   1.036  0.00  0.00     0.003 A 
ATOM      5  C3  PXY d   1       0.072  -0.264   1.212  0.00  0.00     0.003 A 
ATOM      6  C4  PXY d   1       0.711   0.356   0.172  0.00  0.00    -0.082 A 
ATOM      7  C5  PXY d   1       0.088   0.466  -1.021  0.00  0.00     0.003 A 
ATOM      8  C6  PXY d   1      -1.194  -0.057  -1.167  0.00  0.00     0.003 A 
ENDROOT
TORSDOF 0
ENDMDL
