MODEL 1
REMARK minimizedAffinity -5.29261494
REMARK minimizedRMSD -1
REMARK  0 active torsions:
REMARK  status: ('A' for Active; 'I' for Inactive)
ROOT
ATOM      1  C4' PXY d   1      -3.672  -1.064   0.052  0.00  0.00     0.077 C 
ATOM      2  C1' PXY d   1       1.803   0.703  -0.506  0.00  0.00     0.077 C 
ATOM      3  C1  PXY d   1       0.363   0.249  -0.368  0.00  0.00    -0.082 A 
ATOM      4  C2  PXY d   1      -0.013  -0.412   0.714  0.00  0.00     0.003 A 
ATOM      5  C3  PXY d   1      -1.303  -0.858   0.841  0.00  0.00     0.003 A 
ATOM      6  C4  PXY d   1      -2.231  -0.578  -0.126  0.00  0.00    -0.082 A 
ATOM      7  C5  PXY d   1      -1.858   0.106  -1.228  0.00  0.00     0.003 A 
ATOM      8  C6  PXY d   1      -0.533   0.514  -1.357  0.00  0.00     0.003 A 
ENDROOT
TORSDOF 0
ENDMDL
