MODEL 1
REMARK minimizedAffinity -3.48837066
REMARK minimizedRMSD -1
REMARK  0 active torsions:
REMARK  status: ('A' for Active; 'I' for Inactive)
ROOT
ATOM      1  C4' PXY d   1      -2.711  -2.728  -0.100  0.00  0.00     0.077 C 
ATOM      2  C1' PXY d   1       1.875   0.792  -0.111  0.00  0.00     0.077 C 
ATOM      3  C1  PXY d   1       0.679  -0.140  -0.102  0.00  0.00    -0.082 A 
ATOM      4  C2  PXY d   1      -0.271   0.006  -1.010  0.00  0.00     0.003 A 
ATOM      5  C3  PXY d   1      -1.375  -0.807  -0.997  0.00  0.00     0.003 A 
ATOM      6  C4  PXY d   1      -1.481  -1.816  -0.077  0.00  0.00    -0.082 A 
ATOM      7  C5  PXY d   1      -0.510  -1.979   0.847  0.00  0.00     0.003 A 
ATOM      8  C6  PXY d   1       0.582  -1.116   0.841  0.00  0.00     0.003 A 
ENDROOT
TORSDOF 0
ENDMDL
