MODEL 1
REMARK minimizedAffinity -5.86747599
REMARK minimizedRMSD -1
REMARK  0 active torsions:
REMARK  status: ('A' for Active; 'I' for Inactive)
ROOT
ATOM      1  C4' PXY d   1       2.488   3.324   0.986  0.00  0.00     0.077 C 
ATOM      2  C1' PXY d   1       5.138   3.763  -4.133  0.00  0.00     0.077 C 
ATOM      3  C1  PXY d   1       4.438   3.636  -2.794  0.00  0.00    -0.082 A 
ATOM      4  C2  PXY d   1       4.166   4.725  -2.093  0.00  0.00     0.003 A 
ATOM      5  C3  PXY d   1       3.562   4.626  -0.865  0.00  0.00     0.003 A 
ATOM      6  C4  PXY d   1       3.185   3.405  -0.375  0.00  0.00    -0.082 A 
ATOM      7  C5  PXY d   1       3.449   2.291  -1.090  0.00  0.00     0.003 A 
ATOM      8  C6  PXY d   1       4.100   2.409  -2.314  0.00  0.00     0.003 A 
ENDROOT
TORSDOF 0
ENDMDL
