MODEL 1
REMARK minimizedAffinity -4.4856019
REMARK minimizedRMSD -1
REMARK  0 active torsions:
REMARK  status: ('A' for Active; 'I' for Inactive)
ROOT
ATOM      1  C4' PXY d   1       1.332   0.705   0.517  0.00  0.00     0.077 C 
ATOM      2  C1' PXY d   1      -3.719  -2.101   0.690  0.00  0.00     0.077 C 
ATOM      3  C1  PXY d   1      -2.391  -1.369   0.657  0.00  0.00    -0.082 A 
ATOM      4  C2  PXY d   1      -2.227  -0.350  -0.170  0.00  0.00     0.003 A 
ATOM      5  C3  PXY d   1      -1.023   0.303  -0.236  0.00  0.00     0.003 A 
ATOM      6  C4  PXY d   1       0.007  -0.057   0.591  0.00  0.00    -0.082 A 
ATOM      7  C5  PXY d   1      -0.157  -1.090   1.446  0.00  0.00     0.003 A 
ATOM      8  C6  PXY d   1      -1.373  -1.765   1.468  0.00  0.00     0.003 A 
ENDROOT
TORSDOF 0
ENDMDL
