MODEL 1
REMARK minimizedAffinity -5.2703867
REMARK minimizedRMSD -1
REMARK  0 active torsions:
REMARK  status: ('A' for Active; 'I' for Inactive)
ROOT
ATOM      1  C4' PXY d   1      -3.380  -1.877  -0.379  0.00  0.00     0.077 C 
ATOM      2  C1' PXY d   1       1.888   0.395   0.324  0.00  0.00     0.077 C 
ATOM      3  C1  PXY d   1       0.511  -0.212   0.144  0.00  0.00    -0.082 A 
ATOM      4  C2  PXY d   1      -0.331   0.322  -0.726  0.00  0.00     0.003 A 
ATOM      5  C3  PXY d   1      -1.591  -0.195  -0.878  0.00  0.00     0.003 A 
ATOM      6  C4  PXY d   1      -1.976  -1.302  -0.171  0.00  0.00    -0.082 A 
ATOM      7  C5  PXY d   1      -1.120  -1.859   0.711  0.00  0.00     0.003 A 
ATOM      8  C6  PXY d   1       0.141  -1.295   0.881  0.00  0.00     0.003 A 
ENDROOT
TORSDOF 0
ENDMDL
