MODEL 1
REMARK minimizedAffinity -5.00496864
REMARK minimizedRMSD -1
REMARK  0 active torsions:
REMARK  status: ('A' for Active; 'I' for Inactive)
ROOT
ATOM      1  C4' PXY d   1       4.612   3.691  -3.559  0.00  0.00     0.077 C 
ATOM      2  C1' PXY d   1       2.007   2.693   1.503  0.00  0.00     0.077 C 
ATOM      3  C1  PXY d   1       2.686   2.967   0.176  0.00  0.00    -0.082 A 
ATOM      4  C2  PXY d   1       2.944   1.963  -0.646  0.00  0.00     0.003 A 
ATOM      5  C3  PXY d   1       3.586   2.189  -1.837  0.00  0.00     0.003 A 
ATOM      6  C4  PXY d   1       3.920   3.462  -2.213  0.00  0.00    -0.082 A 
ATOM      7  C5  PXY d   1       3.650   4.493  -1.384  0.00  0.00     0.003 A 
ATOM      8  C6  PXY d   1       3.035   4.238  -0.162  0.00  0.00     0.003 A 
ENDROOT
TORSDOF 0
ENDMDL
