MODEL 1
REMARK minimizedAffinity -3.20210648
REMARK minimizedRMSD -1
REMARK  0 active torsions:
REMARK  status: ('A' for Active; 'I' for Inactive)
ROOT
ATOM      1  C4' PXY d   1       2.149   3.315   1.082  0.00  0.00     0.077 C 
ATOM      2  C1' PXY d   1       5.998   3.515  -3.226  0.00  0.00     0.077 C 
ATOM      3  C1  PXY d   1       4.985   3.451  -2.100  0.00  0.00    -0.082 A 
ATOM      4  C2  PXY d   1       4.510   4.572  -1.583  0.00  0.00     0.003 A 
ATOM      5  C3  PXY d   1       3.618   4.532  -0.543  0.00  0.00     0.003 A 
ATOM      6  C4  PXY d   1       3.167   3.332  -0.062  0.00  0.00    -0.082 A 
ATOM      7  C5  PXY d   1       3.639   2.184  -0.592  0.00  0.00     0.003 A 
ATOM      8  C6  PXY d   1       4.575   2.246  -1.620  0.00  0.00     0.003 A 
ENDROOT
TORSDOF 0
ENDMDL
