MODEL 1
REMARK minimizedAffinity -4.1789031
REMARK minimizedRMSD -1
REMARK  0 active torsions:
REMARK  status: ('A' for Active; 'I' for Inactive)
ROOT
ATOM      1  C4' PXY d   1       2.626   1.515   0.229  0.00  0.00     0.077 C 
ATOM      2  C1' PXY d   1      -2.138  -1.587  -0.817  0.00  0.00     0.077 C 
ATOM      3  C1  PXY d   1      -0.889  -0.777  -0.530  0.00  0.00    -0.082 A 
ATOM      4  C2  PXY d   1      -0.570   0.235  -1.321  0.00  0.00     0.003 A 
ATOM      5  C3  PXY d   1       0.573   0.958  -1.095  0.00  0.00     0.003 A 
ATOM      6  C4  PXY d   1       1.369   0.675  -0.017  0.00  0.00    -0.082 A 
ATOM      7  C5  PXY d   1       1.045  -0.349   0.800  0.00  0.00     0.003 A 
ATOM      8  C6  PXY d   1      -0.098  -1.096   0.530  0.00  0.00     0.003 A 
ENDROOT
TORSDOF 0
ENDMDL
