MODEL 1
REMARK minimizedAffinity -4.03146458
REMARK minimizedRMSD -1
REMARK  0 active torsions:
REMARK  status: ('A' for Active; 'I' for Inactive)
ROOT
ATOM      1  C4' PXY d   1       2.944   0.922   0.348  0.00  0.00     0.077 C 
ATOM      2  C1' PXY d   1      -1.993  -1.473  -1.472  0.00  0.00     0.077 C 
ATOM      3  C1  PXY d   1      -0.699  -0.851  -0.984  0.00  0.00    -0.082 A 
ATOM      4  C2  PXY d   1      -0.300   0.307  -1.484  0.00  0.00     0.003 A 
ATOM      5  C3  PXY d   1       0.884   0.867  -1.077  0.00  0.00     0.003 A 
ATOM      6  C4  PXY d   1       1.640   0.262  -0.109  0.00  0.00    -0.082 A 
ATOM      7  C5  PXY d   1       1.234  -0.914   0.414  0.00  0.00     0.003 A 
ATOM      8  C6  PXY d   1       0.050  -1.487  -0.042  0.00  0.00     0.003 A 
ENDROOT
TORSDOF 0
ENDMDL
