MODEL 1
REMARK minimizedAffinity -4.02916718
REMARK minimizedRMSD -1
REMARK  0 active torsions:
REMARK  status: ('A' for Active; 'I' for Inactive)
ROOT
ATOM      1  C4' PXY d   1       1.901   2.914   2.533  0.00  0.00     0.077 C 
ATOM      2  C1' PXY d   1       3.970   3.458  -2.838  0.00  0.00     0.077 C 
ATOM      3  C1  PXY d   1       3.421   3.304  -1.433  0.00  0.00    -0.082 A 
ATOM      4  C2  PXY d   1       3.299   4.370  -0.658  0.00  0.00     0.003 A 
ATOM      5  C3  PXY d   1       2.835   4.245   0.626  0.00  0.00     0.003 A 
ATOM      6  C4  PXY d   1       2.441   3.024   1.104  0.00  0.00    -0.082 A 
ATOM      7  C5  PXY d   1       2.553   1.933   0.317  0.00  0.00     0.003 A 
ATOM      8  C6  PXY d   1       3.065   2.075  -0.970  0.00  0.00     0.003 A 
ENDROOT
TORSDOF 0
ENDMDL
