MODEL 1
REMARK minimizedAffinity 5.21737432
REMARK minimizedRMSD -1
REMARK  0 active torsions:
REMARK  status: ('A' for Active; 'I' for Inactive)
ROOT
ATOM      1  C1  DEN d   1       1.795   1.668  -0.089  0.00  0.00     0.130 A 
ATOM      2  C2  DEN d   1       0.903   2.000   1.019  0.00  0.00    -0.031 A 
ATOM      3  C3  DEN d   1       0.631   0.759   1.773  0.00  0.00     0.027 A 
ATOM      4  C4  DEN d   1       1.503  -1.629   1.337  0.00  0.00     0.027 A 
ATOM      5  C5  DEN d   1       2.278  -2.406   0.505  0.00  0.00    -0.003 A 
ATOM      6  C6  DEN d   1       2.915  -1.891  -0.592  0.00  0.00     0.001 A 
ATOM      7  C7  DEN d   1       2.824  -0.551  -0.863  0.00  0.00     0.017 A 
ATOM      8  C8  DEN d   1       2.037   0.238  -0.034  0.00  0.00    -0.094 A 
ATOM      9  C9  DEN d   1       1.411  -0.300   1.078  0.00  0.00    -0.072 A 
ENDROOT
TORSDOF 0
ENDMDL
