MODEL 1
REMARK minimizedAffinity 2.35505438
REMARK minimizedRMSD -1
REMARK  0 active torsions:
REMARK  status: ('A' for Active; 'I' for Inactive)
ROOT
ATOM      1  C1  DEN d   1       3.336  -2.450  -0.618  0.00  0.00     0.130 A 
ATOM      2  C2  DEN d   1       2.078  -2.782   0.043  0.00  0.00    -0.031 A 
ATOM      3  C3  DEN d   1       1.420  -1.519   0.434  0.00  0.00     0.027 A 
ATOM      4  C4  DEN d   1       2.223   0.906   0.077  0.00  0.00     0.027 A 
ATOM      5  C5  DEN d   1       3.236   1.690  -0.427  0.00  0.00    -0.003 A 
ATOM      6  C6  DEN d   1       4.361   1.153  -0.995  0.00  0.00     0.001 A 
ATOM      7  C7  DEN d   1       4.479  -0.206  -1.114  0.00  0.00     0.017 A 
ATOM      8  C8  DEN d   1       3.464  -1.004  -0.601  0.00  0.00    -0.094 A 
ATOM      9  C9  DEN d   1       2.329  -0.441  -0.041  0.00  0.00    -0.072 A 
ENDROOT
TORSDOF 0
ENDMDL
