MODEL 1
REMARK minimizedAffinity -3.73490548
REMARK minimizedRMSD -1
REMARK  0 active torsions:
REMARK  status: ('A' for Active; 'I' for Inactive)
ROOT
ATOM      1  C1  DEN d   1       2.124   1.443   0.390  0.00  0.00     0.130 A 
ATOM      2  C2  DEN d   1       0.938   2.256   0.645  0.00  0.00    -0.031 A 
ATOM      3  C3  DEN d   1      -0.245   1.376   0.561  0.00  0.00     0.027 A 
ATOM      4  C4  DEN d   1      -0.354  -1.153   0.066  0.00  0.00     0.027 A 
ATOM      5  C5  DEN d   1       0.392  -2.272  -0.229  0.00  0.00    -0.003 A 
ATOM      6  C6  DEN d   1       1.754  -2.226  -0.370  0.00  0.00     0.001 A 
ATOM      7  C7  DEN d   1       2.417  -1.043  -0.172  0.00  0.00     0.017 A 
ATOM      8  C8  DEN d   1       1.670   0.091   0.117  0.00  0.00    -0.094 A 
ATOM      9  C9  DEN d   1       0.295   0.021   0.268  0.00  0.00    -0.072 A 
ENDROOT
TORSDOF 0
ENDMDL
