MODEL 1
REMARK minimizedAffinity 4.21653414
REMARK minimizedRMSD -1
REMARK  0 active torsions:
REMARK  status: ('A' for Active; 'I' for Inactive)
ROOT
ATOM      1  C1  DEN d   1       0.662   2.313  -0.418  0.00  0.00     0.130 A 
ATOM      2  C2  DEN d   1       1.990   1.959   0.076  0.00  0.00    -0.031 A 
ATOM      3  C3  DEN d   1       1.846   1.469   1.462  0.00  0.00     0.027 A 
ATOM      4  C4  DEN d   1      -0.294   1.220   2.880  0.00  0.00     0.027 A 
ATOM      5  C5  DEN d   1      -1.659   1.403   2.894  0.00  0.00    -0.003 A 
ATOM      6  C6  DEN d   1      -2.336   1.930   1.826  0.00  0.00     0.001 A 
ATOM      7  C7  DEN d   1      -1.655   2.250   0.682  0.00  0.00     0.017 A 
ATOM      8  C8  DEN d   1      -0.278   2.075   0.663  0.00  0.00    -0.094 A 
ATOM      9  C9  DEN d   1       0.387   1.530   1.748  0.00  0.00    -0.072 A 
ENDROOT
TORSDOF 0
ENDMDL
