MODEL 1
REMARK minimizedAffinity 5.94411755
REMARK minimizedRMSD -1
REMARK  0 active torsions:
REMARK  status: ('A' for Active; 'I' for Inactive)
ROOT
ATOM      1  C1  DEN d   1       0.167   0.920  -0.590  0.00  0.00     0.130 A 
ATOM      2  C2  DEN d   1      -0.054   2.362  -0.512  0.00  0.00    -0.031 A 
ATOM      3  C3  DEN d   1       1.212   2.995  -0.088  0.00  0.00     0.027 A 
ATOM      4  C4  DEN d   1       3.479   1.889   0.447  0.00  0.00     0.027 A 
ATOM      5  C5  DEN d   1       4.151   0.689   0.533  0.00  0.00    -0.003 A 
ATOM      6  C6  DEN d   1       3.537  -0.511   0.286  0.00  0.00     0.001 A 
ATOM      7  C7  DEN d   1       2.224  -0.534  -0.103  0.00  0.00     0.017 A 
ATOM      8  C8  DEN d   1       1.539   0.671  -0.185  0.00  0.00    -0.094 A 
ATOM      9  C9  DEN d   1       2.180   1.874   0.056  0.00  0.00    -0.072 A 
ENDROOT
TORSDOF 0
ENDMDL
