MODEL 1
REMARK minimizedAffinity 6.92845201
REMARK minimizedRMSD -1
REMARK  0 active torsions:
REMARK  status: ('A' for Active; 'I' for Inactive)
ROOT
ATOM      1  C1  DEN d   1      -1.947   2.039   1.641  0.00  0.00     0.130 A 
ATOM      2  C2  DEN d   1      -2.047   1.638   3.042  0.00  0.00    -0.031 A 
ATOM      3  C3  DEN d   1      -0.677   1.452   3.562  0.00  0.00     0.027 A 
ATOM      4  C4  DEN d   1       1.576   1.750   2.343  0.00  0.00     0.027 A 
ATOM      5  C5  DEN d   1       2.169   2.069   1.141  0.00  0.00    -0.003 A 
ATOM      6  C6  DEN d   1       1.437   2.365   0.022  0.00  0.00     0.001 A 
ATOM      7  C7  DEN d   1       0.069   2.392   0.093  0.00  0.00     0.017 A 
ATOM      8  C8  DEN d   1      -0.536   2.064   1.299  0.00  0.00    -0.094 A 
ATOM      9  C9  DEN d   1       0.222   1.779   2.423  0.00  0.00    -0.072 A 
ENDROOT
TORSDOF 0
ENDMDL
