MODEL 1
REMARK minimizedAffinity 8.51461697
REMARK minimizedRMSD -1
REMARK  0 active torsions:
REMARK  status: ('A' for Active; 'I' for Inactive)
ROOT
ATOM      1  C1  DEN d   1       0.596   0.334   0.148  0.00  0.00     0.130 A 
ATOM      2  C2  DEN d   1       1.566  -0.377   0.976  0.00  0.00    -0.031 A 
ATOM      3  C3  DEN d   1       1.677  -1.758   0.464  0.00  0.00     0.027 A 
ATOM      4  C4  DEN d   1       0.450  -2.857  -1.521  0.00  0.00     0.027 A 
ATOM      5  C5  DEN d   1      -0.478  -2.653  -2.518  0.00  0.00    -0.003 A 
ATOM      6  C6  DEN d   1      -1.133  -1.461  -2.674  0.00  0.00     0.001 A 
ATOM      7  C7  DEN d   1      -0.836  -0.410  -1.847  0.00  0.00     0.017 A 
ATOM      8  C8  DEN d   1       0.094  -0.609  -0.835  0.00  0.00    -0.094 A 
ATOM      9  C9  DEN d   1       0.754  -1.819  -0.701  0.00  0.00    -0.072 A 
ENDROOT
TORSDOF 0
ENDMDL
