MODEL 1
REMARK minimizedAffinity 24.4084282
REMARK minimizedRMSD -1
REMARK  0 active torsions:
REMARK  status: ('A' for Active; 'I' for Inactive)
ROOT
ATOM      1  C   UNL d   1       1.967   0.154  -1.961  0.00  0.00     0.124 A 
ATOM      2  C1  UNL d   1       1.423   1.422  -2.110  0.00  0.00     0.062 A 
ATOM      3  C2  UNL d   1       1.469   2.331  -1.057  0.00  0.00     0.162 A 
ATOM      4  C3  UNL d   1       2.063   1.975   0.154  0.00  0.00    -0.034 A 
ATOM      5  C4  UNL d   1       2.607   0.698   0.296  0.00  0.00     0.162 A 
ATOM      6  C5  UNL d   1       2.558  -0.207  -0.759  0.00  0.00     0.062 A 
ATOM      7  F   UNL d   1       3.084  -1.432  -0.614  0.00  0.00    -0.097 F 
ATOM      8  F1  UNL d   1       3.186   0.323   1.447  0.00  0.00    -0.096 F 
ATOM      9  I   UNL d   1       2.134   3.332   1.731  0.00  0.00    -0.060 I 
ATOM     10  F2  UNL d   1       0.936   3.550  -1.228  0.00  0.00    -0.096 F 
ATOM     11  F3  UNL d   1       0.850   1.773  -3.270  0.00  0.00    -0.097 F 
ATOM     12  F4  UNL d   1       1.920  -0.719  -2.976  0.00  0.00    -0.092 F 
ENDROOT
TORSDOF 0
ENDMDL
