MODEL 1
REMARK minimizedAffinity 22.3533993
REMARK minimizedRMSD -1
REMARK  0 active torsions:
REMARK  status: ('A' for Active; 'I' for Inactive)
ROOT
ATOM      1  C   UNL d   1       3.125   2.421   2.891  0.00  0.00     0.124 A 
ATOM      2  C1  UNL d   1       3.083   2.095   4.239  0.00  0.00     0.062 A 
ATOM      3  C2  UNL d   1       2.225   1.096   4.691  0.00  0.00     0.162 A 
ATOM      4  C3  UNL d   1       1.404   0.414   3.793  0.00  0.00    -0.034 A 
ATOM      5  C4  UNL d   1       1.452   0.748   2.439  0.00  0.00     0.162 A 
ATOM      6  C5  UNL d   1       2.310   1.747   1.992  0.00  0.00     0.062 A 
ATOM      7  F   UNL d   1       2.350   2.061   0.689  0.00  0.00    -0.097 F 
ATOM      8  F1  UNL d   1       0.675   0.113   1.548  0.00  0.00    -0.096 F 
ATOM      9  I   UNL d   1       0.121  -1.080   4.465  0.00  0.00    -0.060 I 
ATOM     10  F2  UNL d   1       2.205   0.802   6.000  0.00  0.00    -0.096 F 
ATOM     11  F3  UNL d   1       3.869   2.745   5.110  0.00  0.00    -0.097 F 
ATOM     12  F4  UNL d   1       3.951   3.383   2.459  0.00  0.00    -0.092 F 
ENDROOT
TORSDOF 0
ENDMDL
