MODEL 1
REMARK minimizedAffinity 23.3328075
REMARK minimizedRMSD -1
REMARK  0 active torsions:
REMARK  status: ('A' for Active; 'I' for Inactive)
ROOT
ATOM      1  C   UNL d   1       1.860  -3.446  -1.321  0.00  0.00     0.124 A 
ATOM      2  C1  UNL d   1       1.119  -2.310  -1.616  0.00  0.00     0.062 A 
ATOM      3  C2  UNL d   1       1.638  -1.047  -1.347  0.00  0.00     0.162 A 
ATOM      4  C3  UNL d   1       2.906  -0.912  -0.781  0.00  0.00    -0.034 A 
ATOM      5  C4  UNL d   1       3.645  -2.060  -0.487  0.00  0.00     0.162 A 
ATOM      6  C5  UNL d   1       3.122  -3.320  -0.758  0.00  0.00     0.062 A 
ATOM      7  F   UNL d   1       3.839  -4.417  -0.473  0.00  0.00    -0.097 F 
ATOM      8  F1  UNL d   1       4.867  -1.967   0.057  0.00  0.00    -0.096 F 
ATOM      9  I   UNL d   1       3.685   0.975  -0.377  0.00  0.00    -0.060 I 
ATOM     10  F2  UNL d   1       0.899   0.034  -1.642  0.00  0.00    -0.096 F 
ATOM     11  F3  UNL d   1      -0.101  -2.429  -2.160  0.00  0.00    -0.097 F 
ATOM     12  F4  UNL d   1       1.358  -4.661  -1.580  0.00  0.00    -0.092 F 
ENDROOT
TORSDOF 0
ENDMDL
