MODEL 1
REMARK minimizedAffinity 28.3333015
REMARK minimizedRMSD -1
REMARK  0 active torsions:
REMARK  status: ('A' for Active; 'I' for Inactive)
ROOT
ATOM      1  C   UNL d   1       1.994  -2.813  -0.445  0.00  0.00     0.124 A 
ATOM      2  C1  UNL d   1       3.354  -2.559  -0.342  0.00  0.00     0.062 A 
ATOM      3  C2  UNL d   1       4.276  -3.466  -0.856  0.00  0.00     0.162 A 
ATOM      4  C3  UNL d   1       3.840  -4.636  -1.478  0.00  0.00    -0.034 A 
ATOM      5  C4  UNL d   1       2.470  -4.885  -1.577  0.00  0.00     0.162 A 
ATOM      6  C5  UNL d   1       1.553  -3.975  -1.061  0.00  0.00     0.062 A 
ATOM      7  F   UNL d   1       0.239  -4.222  -1.161  0.00  0.00    -0.097 F 
ATOM      8  F1  UNL d   1       2.017  -6.000  -2.168  0.00  0.00    -0.096 F 
ATOM      9  I   UNL d   1       5.216  -5.995  -2.248  0.00  0.00    -0.060 I 
ATOM     10  F2  UNL d   1       5.585  -3.195  -0.743  0.00  0.00    -0.096 F 
ATOM     11  F3  UNL d   1       3.782  -1.437   0.254  0.00  0.00    -0.097 F 
ATOM     12  F4  UNL d   1       1.109  -1.938   0.051  0.00  0.00    -0.092 F 
ENDROOT
TORSDOF 0
ENDMDL
