MODEL 1
REMARK minimizedAffinity 9.05124378
REMARK minimizedRMSD -1
REMARK  0 active torsions:
REMARK  status: ('A' for Active; 'I' for Inactive)
ROOT
ATOM      1  C   UNL d   1       1.887   1.360   4.688  0.00  0.00     0.124 A 
ATOM      2  C1  UNL d   1       1.477   0.361   3.816  0.00  0.00     0.062 A 
ATOM      3  C2  UNL d   1       1.772   0.453   2.459  0.00  0.00     0.162 A 
ATOM      4  C3  UNL d   1       2.483   1.547   1.965  0.00  0.00    -0.034 A 
ATOM      5  C4  UNL d   1       2.891   2.548   2.849  0.00  0.00     0.162 A 
ATOM      6  C5  UNL d   1       2.594   2.452   4.204  0.00  0.00     0.062 A 
ATOM      7  F   UNL d   1       2.991   3.418   5.046  0.00  0.00    -0.097 F 
ATOM      8  F1  UNL d   1       3.576   3.614   2.408  0.00  0.00    -0.096 F 
ATOM      9  I   UNL d   1       2.926   1.688  -0.063  0.00  0.00    -0.060 I 
ATOM     10  F2  UNL d   1       1.364  -0.526   1.639  0.00  0.00    -0.096 F 
ATOM     11  F3  UNL d   1       0.794  -0.694   4.281  0.00  0.00    -0.097 F 
ATOM     12  F4  UNL d   1       1.601   1.270   5.994  0.00  0.00    -0.092 F 
ENDROOT
TORSDOF 0
ENDMDL
