MODEL 1
REMARK minimizedAffinity 21.7824039
REMARK minimizedRMSD -1
REMARK  0 active torsions:
REMARK  status: ('A' for Active; 'I' for Inactive)
ROOT
ATOM      1  C   UNL d   1       3.558   1.145  -1.532  0.00  0.00     0.124 A 
ATOM      2  C1  UNL d   1       2.438   1.640  -2.187  0.00  0.00     0.062 A 
ATOM      3  C2  UNL d   1       1.358   0.805  -2.455  0.00  0.00     0.162 A 
ATOM      4  C3  UNL d   1       1.390  -0.535  -2.066  0.00  0.00    -0.034 A 
ATOM      5  C4  UNL d   1       2.520  -1.025  -1.409  0.00  0.00     0.162 A 
ATOM      6  C5  UNL d   1       3.597  -0.186  -1.144  0.00  0.00     0.062 A 
ATOM      7  F   UNL d   1       4.678  -0.666  -0.511  0.00  0.00    -0.097 F 
ATOM      8  F1  UNL d   1       2.584  -2.308  -1.021  0.00  0.00    -0.096 F 
ATOM      9  I   UNL d   1      -0.224  -1.787  -2.464  0.00  0.00    -0.060 I 
ATOM     10  F2  UNL d   1       0.289   1.310  -3.089  0.00  0.00    -0.096 F 
ATOM     11  F3  UNL d   1       2.398   2.926  -2.565  0.00  0.00    -0.097 F 
ATOM     12  F4  UNL d   1       4.597   1.951  -1.277  0.00  0.00    -0.092 F 
ENDROOT
TORSDOF 0
ENDMDL
