MODEL 1
REMARK minimizedAffinity 17.2499466
REMARK minimizedRMSD -1
REMARK  0 active torsions:
REMARK  status: ('A' for Active; 'I' for Inactive)
ROOT
ATOM      1  C   UNL d   1       2.459   0.516   0.911  0.00  0.00     0.124 A 
ATOM      2  C1  UNL d   1       3.662   1.128   0.588  0.00  0.00     0.062 A 
ATOM      3  C2  UNL d   1       3.928   2.423   1.023  0.00  0.00     0.162 A 
ATOM      4  C3  UNL d   1       2.988   3.116   1.787  0.00  0.00    -0.034 A 
ATOM      5  C4  UNL d   1       1.779   2.494   2.106  0.00  0.00     0.162 A 
ATOM      6  C5  UNL d   1       1.519   1.199   1.669  0.00  0.00     0.062 A 
ATOM      7  F   UNL d   1       0.356   0.610   1.982  0.00  0.00    -0.097 F 
ATOM      8  F1  UNL d   1       0.853   3.131   2.839  0.00  0.00    -0.096 F 
ATOM      9  I   UNL d   1       3.380   5.053   2.440  0.00  0.00    -0.060 I 
ATOM     10  F2  UNL d   1       5.099   2.990   0.697  0.00  0.00    -0.096 F 
ATOM     11  F3  UNL d   1       4.572   0.471  -0.145  0.00  0.00    -0.097 F 
ATOM     12  F4  UNL d   1       2.206  -0.730   0.490  0.00  0.00    -0.092 F 
ENDROOT
TORSDOF 0
ENDMDL
