MODEL 1
REMARK minimizedAffinity 10.4418564
REMARK minimizedRMSD -1
REMARK  0 active torsions:
REMARK  status: ('A' for Active; 'I' for Inactive)
ROOT
ATOM      1  C   UNL d   1       3.975   0.395  -1.197  0.00  0.00     0.124 A 
ATOM      2  C1  UNL d   1       3.905  -0.915  -0.744  0.00  0.00     0.062 A 
ATOM      3  C2  UNL d   1       2.820  -1.717  -1.085  0.00  0.00     0.162 A 
ATOM      4  C3  UNL d   1       1.795  -1.211  -1.886  0.00  0.00    -0.034 A 
ATOM      5  C4  UNL d   1       1.872   0.108  -2.337  0.00  0.00     0.162 A 
ATOM      6  C5  UNL d   1       2.959   0.905  -1.993  0.00  0.00     0.062 A 
ATOM      7  F   UNL d   1       3.025   2.171  -2.431  0.00  0.00    -0.097 F 
ATOM      8  F1  UNL d   1       0.905   0.626  -3.107  0.00  0.00    -0.096 F 
ATOM      9  I   UNL d   1       0.171  -2.407  -2.398  0.00  0.00    -0.060 I 
ATOM     10  F2  UNL d   1       2.779  -2.979  -0.634  0.00  0.00    -0.096 F 
ATOM     11  F3  UNL d   1       4.886  -1.410   0.025  0.00  0.00    -0.097 F 
ATOM     12  F4  UNL d   1       5.020   1.165  -0.866  0.00  0.00    -0.092 F 
ENDROOT
TORSDOF 0
ENDMDL
