MODEL 1
REMARK minimizedAffinity 8.79246902
REMARK minimizedRMSD -1
REMARK  0 active torsions:
REMARK  status: ('A' for Active; 'I' for Inactive)
ROOT
ATOM      1  C   UNL d   1      -2.730  -3.831  -3.796  0.00  0.00     0.124 A 
ATOM      2  C1  UNL d   1      -1.720  -4.756  -3.567  0.00  0.00     0.062 A 
ATOM      3  C2  UNL d   1      -0.620  -4.412  -2.787  0.00  0.00     0.162 A 
ATOM      4  C3  UNL d   1      -0.523  -3.137  -2.229  0.00  0.00    -0.034 A 
ATOM      5  C4  UNL d   1      -1.542  -2.212  -2.465  0.00  0.00     0.162 A 
ATOM      6  C5  UNL d   1      -2.640  -2.561  -3.245  0.00  0.00     0.062 A 
ATOM      7  F   UNL d   1      -3.614  -1.666  -3.465  0.00  0.00    -0.097 F 
ATOM      8  F1  UNL d   1      -1.481  -0.978  -1.944  0.00  0.00    -0.096 F 
ATOM      9  I   UNL d   1       1.121  -2.619  -1.063  0.00  0.00    -0.060 I 
ATOM     10  F2  UNL d   1       0.341  -5.325  -2.583  0.00  0.00    -0.096 F 
ATOM     11  F3  UNL d   1      -1.804  -5.984  -4.099  0.00  0.00    -0.097 F 
ATOM     12  F4  UNL d   1      -3.787  -4.164  -4.547  0.00  0.00    -0.092 F 
ENDROOT
TORSDOF 0
ENDMDL
