MODEL 1
REMARK minimizedAffinity 21.9697857
REMARK minimizedRMSD -1
REMARK  0 active torsions:
REMARK  status: ('A' for Active; 'I' for Inactive)
ROOT
ATOM      1  C   UNL d   1       1.033   2.002  -3.141  0.00  0.00     0.124 A 
ATOM      2  C1  UNL d   1       1.479   0.774  -2.674  0.00  0.00     0.062 A 
ATOM      3  C2  UNL d   1       1.954   0.651  -1.371  0.00  0.00     0.162 A 
ATOM      4  C3  UNL d   1       1.983   1.760  -0.525  0.00  0.00    -0.034 A 
ATOM      5  C4  UNL d   1       1.533   2.992  -1.003  0.00  0.00     0.162 A 
ATOM      6  C5  UNL d   1       1.060   3.110  -2.305  0.00  0.00     0.062 A 
ATOM      7  F   UNL d   1       0.629   4.298  -2.755  0.00  0.00    -0.097 F 
ATOM      8  F1  UNL d   1       1.548   4.078  -0.216  0.00  0.00    -0.096 F 
ATOM      9  I   UNL d   1       2.692   1.580   1.423  0.00  0.00    -0.060 I 
ATOM     10  F2  UNL d   1       2.379  -0.548  -0.947  0.00  0.00    -0.096 F 
ATOM     11  F3  UNL d   1       1.455  -0.297  -3.480  0.00  0.00    -0.097 F 
ATOM     12  F4  UNL d   1       0.578   2.118  -4.395  0.00  0.00    -0.092 F 
ENDROOT
TORSDOF 0
ENDMDL
