MODEL 1
REMARK minimizedAffinity 28.0332394
REMARK minimizedRMSD -1
REMARK  0 active torsions:
REMARK  status: ('A' for Active; 'I' for Inactive)
ROOT
ATOM      1  C   UNL d   1      -1.773  -1.195  -2.217  0.00  0.00     0.124 A 
ATOM      2  C1  UNL d   1      -2.521  -1.913  -3.139  0.00  0.00     0.062 A 
ATOM      3  C2  UNL d   1      -2.331  -3.284  -3.279  0.00  0.00     0.162 A 
ATOM      4  C3  UNL d   1      -1.389  -3.948  -2.493  0.00  0.00    -0.034 A 
ATOM      5  C4  UNL d   1      -0.639  -3.219  -1.568  0.00  0.00     0.162 A 
ATOM      6  C5  UNL d   1      -0.833  -1.848  -1.432  0.00  0.00     0.062 A 
ATOM      7  F   UNL d   1      -0.109  -1.156  -0.541  0.00  0.00    -0.097 F 
ATOM      8  F1  UNL d   1       0.276  -3.825  -0.797  0.00  0.00    -0.096 F 
ATOM      9  I   UNL d   1      -1.101  -5.999  -2.700  0.00  0.00    -0.060 I 
ATOM     10  F2  UNL d   1      -3.068  -3.953  -4.178  0.00  0.00    -0.096 F 
ATOM     11  F3  UNL d   1      -3.430  -1.283  -3.899  0.00  0.00    -0.097 F 
ATOM     12  F4  UNL d   1      -1.957   0.125  -2.085  0.00  0.00    -0.092 F 
ENDROOT
TORSDOF 0
ENDMDL
