MODEL 1
REMARK minimizedAffinity 25.9010353
REMARK minimizedRMSD -1
REMARK  0 active torsions:
REMARK  status: ('A' for Active; 'I' for Inactive)
ROOT
ATOM      1  C   UNL d   1       3.067   2.809   1.303  0.00  0.00     0.124 A 
ATOM      2  C1  UNL d   1       1.944   2.122   1.742  0.00  0.00     0.062 A 
ATOM      3  C2  UNL d   1       1.529   0.966   1.086  0.00  0.00     0.162 A 
ATOM      4  C3  UNL d   1       2.238   0.490  -0.017  0.00  0.00    -0.034 A 
ATOM      5  C4  UNL d   1       3.366   1.187  -0.453  0.00  0.00     0.162 A 
ATOM      6  C5  UNL d   1       3.777   2.341   0.206  0.00  0.00     0.062 A 
ATOM      7  F   UNL d   1       4.862   3.004  -0.220  0.00  0.00    -0.097 F 
ATOM      8  F1  UNL d   1       4.071   0.757  -1.510  0.00  0.00    -0.096 F 
ATOM      9  I   UNL d   1       1.621  -1.237  -1.000  0.00  0.00    -0.060 I 
ATOM     10  F2  UNL d   1       0.440   0.323   1.533  0.00  0.00    -0.096 F 
ATOM     11  F3  UNL d   1       1.256   2.572   2.801  0.00  0.00    -0.097 F 
ATOM     12  F4  UNL d   1       3.464   3.921   1.935  0.00  0.00    -0.092 F 
ENDROOT
TORSDOF 0
ENDMDL
