MODEL 1
REMARK minimizedAffinity 17.2107849
REMARK minimizedRMSD -1
REMARK  0 active torsions:
REMARK  status: ('A' for Active; 'I' for Inactive)
ROOT
ATOM      1  C   UNL d   1       2.101  -2.186  -0.572  0.00  0.00     0.124 A 
ATOM      2  C1  UNL d   1       1.744  -1.115  -1.378  0.00  0.00     0.062 A 
ATOM      3  C2  UNL d   1       0.556  -1.149  -2.102  0.00  0.00     0.162 A 
ATOM      4  C3  UNL d   1      -0.285  -2.258  -2.022  0.00  0.00    -0.034 A 
ATOM      5  C4  UNL d   1       0.080  -3.333  -1.210  0.00  0.00     0.162 A 
ATOM      6  C5  UNL d   1       1.269  -3.294  -0.488  0.00  0.00     0.062 A 
ATOM      7  F   UNL d   1       1.612  -4.330   0.291  0.00  0.00    -0.097 F 
ATOM      8  F1  UNL d   1      -0.705  -4.415  -1.109  0.00  0.00    -0.096 F 
ATOM      9  I   UNL d   1      -2.063  -2.313  -3.104  0.00  0.00    -0.060 I 
ATOM     10  F2  UNL d   1       0.237  -0.099  -2.874  0.00  0.00    -0.096 F 
ATOM     11  F3  UNL d   1       2.547  -0.044  -1.462  0.00  0.00    -0.097 F 
ATOM     12  F4  UNL d   1       3.245  -2.152   0.123  0.00  0.00    -0.092 F 
ENDROOT
TORSDOF 0
ENDMDL
