MODEL 1
REMARK minimizedAffinity 31.3622723
REMARK minimizedRMSD -1
REMARK  0 active torsions:
REMARK  status: ('A' for Active; 'I' for Inactive)
ROOT
ATOM      1  C   UNL d   1       1.579   1.878  -2.691  0.00  0.00     0.124 A 
ATOM      2  C1  UNL d   1       1.394   3.075  -2.013  0.00  0.00     0.062 A 
ATOM      3  C2  UNL d   1       1.748   3.181  -0.671  0.00  0.00     0.162 A 
ATOM      4  C3  UNL d   1       2.292   2.087   0.002  0.00  0.00    -0.034 A 
ATOM      5  C4  UNL d   1       2.473   0.886  -0.686  0.00  0.00     0.162 A 
ATOM      6  C5  UNL d   1       2.118   0.785  -2.027  0.00  0.00     0.062 A 
ATOM      7  F   UNL d   1       2.297  -0.372  -2.681  0.00  0.00    -0.097 F 
ATOM      8  F1  UNL d   1       2.993  -0.186  -0.069  0.00  0.00    -0.096 F 
ATOM      9  I   UNL d   1       2.822   2.241   2.009  0.00  0.00    -0.060 I 
ATOM     10  F2  UNL d   1       1.559   4.350  -0.041  0.00  0.00    -0.096 F 
ATOM     11  F3  UNL d   1       0.872   4.132  -2.651  0.00  0.00    -0.097 F 
ATOM     12  F4  UNL d   1       1.236   1.778  -3.982  0.00  0.00    -0.092 F 
ENDROOT
TORSDOF 0
ENDMDL
