MODEL 1
REMARK minimizedAffinity -5.68600416
REMARK minimizedRMSD -1
REMARK  2 active torsions:
REMARK  status: ('A' for Active; 'I' for Inactive)
REMARK    1  A    between atoms: C2'_3  and  C1'_4 
REMARK    2  A    between atoms: C1'_4  and  C1_5 
ROOT
ATOM      1  C1  I4B d   1      -0.948   0.750   0.113  0.00  0.00    -0.075 A 
ATOM      2  C2  I4B d   1       0.061   0.119  -0.570  0.00  0.00     0.003 A 
ATOM      3  C3  I4B d   1       0.947  -0.752   0.110  0.00  0.00     0.002 A 
ATOM      4  C4  I4B d   1       0.818  -0.922   1.474  0.00  0.00    -0.004 A 
ATOM      5  C5  I4B d   1      -0.220  -0.299   2.161  0.00  0.00     0.002 A 
ATOM      6  C6  I4B d   1      -1.116   0.533   1.474  0.00  0.00     0.003 A 
ENDROOT
BRANCH   1   7
ATOM      7  C1' I4B d   1      -1.844   1.689  -0.631  0.00  0.00     0.060 C 
BRANCH   7   8
ATOM      8  C2' I4B d   1      -1.410   3.104  -0.307  0.00  0.00    -0.013 C 
ATOM      9  C4' I4B d   1      -1.122   3.886  -1.562  0.00  0.00     0.013 C 
ATOM     10  C3' I4B d   1      -2.498   3.750   0.497  0.00  0.00     0.013 C 
ENDBRANCH   7   8
ENDBRANCH   1   7
TORSDOF 2
ENDMDL
