MODEL 1
REMARK minimizedAffinity -4.92786121
REMARK minimizedRMSD -1
REMARK  2 active torsions:
REMARK  status: ('A' for Active; 'I' for Inactive)
REMARK    1  A    between atoms: C2'_3  and  C1'_4 
REMARK    2  A    between atoms: C1'_4  and  C1_5 
ROOT
ATOM      1  C1  I4B d   1      -0.367   0.282   0.749  0.00  0.00    -0.075 A 
ATOM      2  C2  I4B d   1      -1.428   0.207   1.616  0.00  0.00     0.003 A 
ATOM      3  C3  I4B d   1      -2.228   1.348   1.865  0.00  0.00     0.002 A 
ATOM      4  C4  I4B d   1      -1.902   2.549   1.269  0.00  0.00    -0.004 A 
ATOM      5  C5  I4B d   1      -0.839   2.619   0.372  0.00  0.00     0.002 A 
ATOM      6  C6  I4B d   1      -0.074   1.475   0.101  0.00  0.00     0.003 A 
ENDROOT
BRANCH   1   7
ATOM      7  C1' I4B d   1       0.476  -0.935   0.534  0.00  0.00     0.060 C 
BRANCH   7   8
ATOM      8  C2' I4B d   1       0.797  -1.025  -0.944  0.00  0.00    -0.013 C 
ATOM      9  C4' I4B d   1       2.131  -0.397  -1.253  0.00  0.00     0.013 C 
ATOM     10  C3' I4B d   1       0.778  -2.473  -1.334  0.00  0.00     0.013 C 
ENDBRANCH   7   8
ENDBRANCH   1   7
TORSDOF 2
ENDMDL
