MODEL 1
REMARK minimizedAffinity -2.66235495
REMARK minimizedRMSD -1
REMARK  2 active torsions:
REMARK  status: ('A' for Active; 'I' for Inactive)
REMARK    1  A    between atoms: C2'_3  and  C1'_4 
REMARK    2  A    between atoms: C1'_4  and  C1_5 
ROOT
ATOM      1  C1  I4B d   1       0.164   0.007   0.107  0.00  0.00    -0.075 A 
ATOM      2  C2  I4B d   1      -0.479  -0.684   1.103  0.00  0.00     0.003 A 
ATOM      3  C3  I4B d   1      -1.293   0.002   2.036  0.00  0.00     0.002 A 
ATOM      4  C4  I4B d   1      -1.396   1.377   1.967  0.00  0.00    -0.004 A 
ATOM      5  C5  I4B d   1      -0.762   2.073   0.942  0.00  0.00     0.002 A 
ATOM      6  C6  I4B d   1       0.013   1.384  -0.001  0.00  0.00     0.003 A 
ENDROOT
BRANCH   1   7
ATOM      7  C1' I4B d   1       1.043  -0.745  -0.841  0.00  0.00     0.060 C 
BRANCH   7   8
ATOM      8  C2' I4B d   1       0.325  -2.023  -1.229  0.00  0.00    -0.013 C 
ATOM      9  C4' I4B d   1       0.070  -2.076  -2.712  0.00  0.00     0.013 C 
ATOM     10  C3' I4B d   1       1.168  -3.180  -0.782  0.00  0.00     0.013 C 
ENDBRANCH   7   8
ENDBRANCH   1   7
TORSDOF 2
ENDMDL
