MODEL 1
REMARK minimizedAffinity 1.95618796
REMARK minimizedRMSD -1
REMARK  2 active torsions:
REMARK  status: ('A' for Active; 'I' for Inactive)
REMARK    1  A    between atoms: C2'_3  and  C1'_4 
REMARK    2  A    between atoms: C1'_4  and  C1_5 
ROOT
ATOM      1  C1  I4B d   1       0.783  -1.411  -0.871  0.00  0.00    -0.075 A 
ATOM      2  C2  I4B d   1       0.561  -2.710  -0.489  0.00  0.00     0.003 A 
ATOM      3  C3  I4B d   1       0.447  -3.731  -1.463  0.00  0.00     0.002 A 
ATOM      4  C4  I4B d   1       0.512  -3.402  -2.802  0.00  0.00    -0.004 A 
ATOM      5  C5  I4B d   1       0.761  -2.088  -3.187  0.00  0.00     0.002 A 
ATOM      6  C6  I4B d   1       0.909  -1.087  -2.216  0.00  0.00     0.003 A 
ENDROOT
BRANCH   1   7
ATOM      7  C1' I4B d   1       0.865  -0.353   0.183  0.00  0.00     0.060 C 
BRANCH   7   8
ATOM      8  C2' I4B d   1      -0.443  -0.355   0.948  0.00  0.00    -0.013 C 
ATOM      9  C4' I4B d   1      -0.397  -1.319   2.104  0.00  0.00     0.013 C 
ATOM     10  C3' I4B d   1      -0.705   1.044   1.421  0.00  0.00     0.013 C 
ENDBRANCH   7   8
ENDBRANCH   1   7
TORSDOF 2
ENDMDL
