MODEL 1
REMARK minimizedAffinity -6.06191063
REMARK minimizedRMSD -1
REMARK  2 active torsions:
REMARK  status: ('A' for Active; 'I' for Inactive)
REMARK    1  A    between atoms: C2'_3  and  C1'_4 
REMARK    2  A    between atoms: C1'_4  and  C1_5 
ROOT
ATOM      1  C1  I4B d   1      -1.421   1.238   0.744  0.00  0.00    -0.075 A 
ATOM      2  C2  I4B d   1      -0.567   2.053   0.043  0.00  0.00     0.003 A 
ATOM      3  C3  I4B d   1      -0.769   3.454   0.029  0.00  0.00     0.002 A 
ATOM      4  C4  I4B d   1      -1.859   3.990   0.684  0.00  0.00    -0.004 A 
ATOM      5  C5  I4B d   1      -2.711   3.165   1.414  0.00  0.00     0.002 A 
ATOM      6  C6  I4B d   1      -2.484   1.782   1.454  0.00  0.00     0.003 A 
ENDROOT
BRANCH   1   7
ATOM      7  C1' I4B d   1      -1.198  -0.240   0.709  0.00  0.00     0.060 C 
BRANCH   7   8
ATOM      8  C2' I4B d   1       0.284  -0.493   0.895  0.00  0.00    -0.013 C 
ATOM      9  C4' I4B d   1       0.551  -1.268   2.159  0.00  0.00     0.013 C 
ATOM     10  C3' I4B d   1       0.783  -1.233  -0.310  0.00  0.00     0.013 C 
ENDBRANCH   7   8
ENDBRANCH   1   7
TORSDOF 2
ENDMDL
