MODEL 1
REMARK minimizedAffinity -3.70261288
REMARK minimizedRMSD -1
REMARK  2 active torsions:
REMARK  status: ('A' for Active; 'I' for Inactive)
REMARK    1  A    between atoms: C2'_3  and  C1'_4 
REMARK    2  A    between atoms: C1'_4  and  C1_5 
ROOT
ATOM      1  C1  I4B d   1       0.826  -1.863  -1.057  0.00  0.00    -0.075 A 
ATOM      2  C2  I4B d   1       0.876  -3.061  -0.388  0.00  0.00     0.003 A 
ATOM      3  C3  I4B d   1       0.391  -4.241  -1.003  0.00  0.00     0.002 A 
ATOM      4  C4  I4B d   1      -0.178  -4.169  -2.258  0.00  0.00    -0.004 A 
ATOM      5  C5  I4B d   1      -0.207  -2.958  -2.943  0.00  0.00     0.002 A 
ATOM      6  C6  I4B d   1       0.309  -1.799  -2.344  0.00  0.00     0.003 A 
ENDROOT
BRANCH   1   7
ATOM      7  C1' I4B d   1       1.316  -0.630  -0.365  0.00  0.00     0.060 C 
BRANCH   7   8
ATOM      8  C2' I4B d   1       0.589  -0.518   0.959  0.00  0.00    -0.013 C 
ATOM      9  C4' I4B d   1       1.529  -0.728   2.117  0.00  0.00     0.013 C 
ATOM     10  C3' I4B d   1      -0.052   0.837   1.022  0.00  0.00     0.013 C 
ENDBRANCH   7   8
ENDBRANCH   1   7
TORSDOF 2
ENDMDL
