MODEL 1
REMARK minimizedAffinity -2.50703335
REMARK minimizedRMSD -1
REMARK  2 active torsions:
REMARK  status: ('A' for Active; 'I' for Inactive)
REMARK    1  A    between atoms: C2'_3  and  C1'_4 
REMARK    2  A    between atoms: C1'_4  and  C1_5 
ROOT
ATOM      1  C1  I4B d   1       0.803  -1.870  -1.593  0.00  0.00    -0.075 A 
ATOM      2  C2  I4B d   1       1.136  -3.139  -1.189  0.00  0.00     0.003 A 
ATOM      3  C3  I4B d   1       0.703  -4.261  -1.937  0.00  0.00     0.002 A 
ATOM      4  C4  I4B d   1      -0.097  -4.072  -3.045  0.00  0.00    -0.004 A 
ATOM      5  C5  I4B d   1      -0.414  -2.784  -3.466  0.00  0.00     0.002 A 
ATOM      6  C6  I4B d   1       0.048  -1.675  -2.743  0.00  0.00     0.003 A 
ENDROOT
BRANCH   1   7
ATOM      7  C1' I4B d   1       1.248  -0.709  -0.761  0.00  0.00     0.060 C 
BRANCH   7   8
ATOM      8  C2' I4B d   1       0.011   0.013  -0.267  0.00  0.00    -0.013 C 
ATOM      9  C4' I4B d   1      -0.181  -0.187   1.214  0.00  0.00     0.013 C 
ATOM     10  C3' I4B d   1       0.158   1.467  -0.603  0.00  0.00     0.013 C 
ENDBRANCH   7   8
ENDBRANCH   1   7
TORSDOF 2
ENDMDL
