MODEL 1
REMARK minimizedAffinity -5.9864645
REMARK minimizedRMSD -1
REMARK  2 active torsions:
REMARK  status: ('A' for Active; 'I' for Inactive)
REMARK    1  A    between atoms: C2'_3  and  C1'_4 
REMARK    2  A    between atoms: C1'_4  and  C1_5 
ROOT
ATOM      1  C1  I4B d   1       0.214   0.469  -0.576  0.00  0.00    -0.075 A 
ATOM      2  C2  I4B d   1      -0.593   0.146   0.486  0.00  0.00     0.003 A 
ATOM      3  C3  I4B d   1      -1.345   1.152   1.142  0.00  0.00     0.002 A 
ATOM      4  C4  I4B d   1      -1.221   2.465   0.737  0.00  0.00    -0.004 A 
ATOM      5  C5  I4B d   1      -0.420   2.787  -0.355  0.00  0.00     0.002 A 
ATOM      6  C6  I4B d   1       0.293   1.781  -1.024  0.00  0.00     0.003 A 
ENDROOT
BRANCH   1   7
ATOM      7  C1' I4B d   1       1.020  -0.612  -1.224  0.00  0.00     0.060 C 
BRANCH   7   8
ATOM      8  C2' I4B d   1       0.188  -1.208  -2.341  0.00  0.00    -0.013 C 
ATOM      9  C4' I4B d   1       0.813  -0.947  -3.686  0.00  0.00     0.013 C 
ATOM     10  C3' I4B d   1       0.053  -2.679  -2.084  0.00  0.00     0.013 C 
ENDBRANCH   7   8
ENDBRANCH   1   7
TORSDOF 2
ENDMDL
