MODEL 1
REMARK minimizedAffinity -3.333673
REMARK minimizedRMSD -1
REMARK  2 active torsions:
REMARK  status: ('A' for Active; 'I' for Inactive)
REMARK    1  A    between atoms: C2'_3  and  C1'_4 
REMARK    2  A    between atoms: C1'_4  and  C1_5 
ROOT
ATOM      1  C1  I4B d   1       0.722   0.325  -0.676  0.00  0.00    -0.075 A 
ATOM      2  C2  I4B d   1       0.102  -0.187   0.437  0.00  0.00     0.003 A 
ATOM      3  C3  I4B d   1      -0.606   0.667   1.316  0.00  0.00     0.002 A 
ATOM      4  C4  I4B d   1      -0.627   2.026   1.073  0.00  0.00    -0.004 A 
ATOM      5  C5  I4B d   1      -0.017   2.541  -0.067  0.00  0.00     0.002 A 
ATOM      6  C6  I4B d   1       0.651   1.684  -0.954  0.00  0.00     0.003 A 
ENDROOT
BRANCH   1   7
ATOM      7  C1' I4B d   1       1.489  -0.601  -1.565  0.00  0.00     0.060 C 
BRANCH   7   8
ATOM      8  C2' I4B d   1       0.720  -1.904  -1.656  0.00  0.00    -0.013 C 
ATOM      9  C4' I4B d   1       0.143  -2.101  -3.034  0.00  0.00     0.013 C 
ATOM     10  C3' I4B d   1       1.655  -3.019  -1.296  0.00  0.00     0.013 C 
ENDBRANCH   7   8
ENDBRANCH   1   7
TORSDOF 2
ENDMDL
