MODEL 1
REMARK minimizedAffinity -4.98532963
REMARK minimizedRMSD -1
REMARK  2 active torsions:
REMARK  status: ('A' for Active; 'I' for Inactive)
REMARK    1  A    between atoms: C2'_3  and  C1'_4 
REMARK    2  A    between atoms: C1'_4  and  C1_5 
ROOT
ATOM      1  C1  I4B d   1      -0.583   1.307   0.642  0.00  0.00    -0.075 A 
ATOM      2  C2  I4B d   1      -0.031   2.478   0.187  0.00  0.00     0.003 A 
ATOM      3  C3  I4B d   1      -0.801   3.667   0.161  0.00  0.00     0.002 A 
ATOM      4  C4  I4B d   1      -2.124   3.628   0.549  0.00  0.00    -0.004 A 
ATOM      5  C5  I4B d   1      -2.676   2.444   1.031  0.00  0.00     0.002 A 
ATOM      6  C6  I4B d   1      -1.898   1.279   1.090  0.00  0.00     0.003 A 
ENDROOT
BRANCH   1   7
ATOM      7  C1' I4B d   1       0.248   0.064   0.625  0.00  0.00     0.060 C 
BRANCH   7   8
ATOM      8  C2' I4B d   1       0.695  -0.179  -0.802  0.00  0.00    -0.013 C 
ATOM      9  C4' I4B d   1       2.046   0.433  -1.062  0.00  0.00     0.013 C 
ATOM     10  C3' I4B d   1       0.719  -1.661  -1.034  0.00  0.00     0.013 C 
ENDBRANCH   7   8
ENDBRANCH   1   7
TORSDOF 2
ENDMDL
