MODEL 1
REMARK minimizedAffinity -6.150424
REMARK minimizedRMSD -1
REMARK  2 active torsions:
REMARK  status: ('A' for Active; 'I' for Inactive)
REMARK    1  A    between atoms: C2'_3  and  C1'_4 
REMARK    2  A    between atoms: C1'_4  and  C1_5 
ROOT
ATOM      1  C1  I4B d   1       0.032   1.684  -0.140  0.00  0.00    -0.075 A 
ATOM      2  C2  I4B d   1      -1.146   1.488   0.537  0.00  0.00     0.003 A 
ATOM      3  C3  I4B d   1      -2.054   2.560   0.711  0.00  0.00     0.002 A 
ATOM      4  C4  I4B d   1      -1.724   3.814   0.240  0.00  0.00    -0.004 A 
ATOM      5  C5  I4B d   1      -0.540   4.006  -0.466  0.00  0.00     0.002 A 
ATOM      6  C6  I4B d   1       0.339   2.931  -0.668  0.00  0.00     0.003 A 
ENDROOT
BRANCH   1   7
ATOM      7  C1' I4B d   1       0.983   0.537  -0.277  0.00  0.00     0.060 C 
BRANCH   7   8
ATOM      8  C2' I4B d   1       0.170  -0.740  -0.337  0.00  0.00    -0.013 C 
ATOM      9  C4' I4B d   1       0.731  -1.696  -1.355  0.00  0.00     0.013 C 
ATOM     10  C3' I4B d   1       0.164  -1.349   1.033  0.00  0.00     0.013 C 
ENDBRANCH   7   8
ENDBRANCH   1   7
TORSDOF 2
ENDMDL
