MODEL 1
REMARK minimizedAffinity 7.82016182
REMARK minimizedRMSD -1
REMARK  1 active torsions:
REMARK  status: ('A' for Active; 'I' for Inactive)
REMARK    1  A    between atoms: C1_2  and  C2_3 
ROOT
ATOM      1  C2  UNL d   1       0.656  -1.838   0.511  0.00  0.00    -0.073 A 
ATOM      2  C3  UNL d   1      -0.470  -1.141   0.059  0.00  0.00    -0.002 A 
ATOM      3  C4  UNL d   1      -0.921  -1.305  -1.252  0.00  0.00     0.004 A 
ATOM      4  C5  UNL d   1      -0.256  -2.172  -2.120  0.00  0.00    -0.004 A 
ATOM      5  C6  UNL d   1       0.864  -2.886  -1.682  0.00  0.00    -0.075 A 
ATOM      6  C7  UNL d   1       1.592  -3.820  -2.604  0.00  0.00     0.076 C 
ATOM      7  C8  UNL d   1       1.313  -2.714  -0.366  0.00  0.00     0.001 A 
ENDROOT
BRANCH   1   8
ATOM      8  C1  UNL d   1       1.143  -1.669   1.927  0.00  0.00     0.053 C 
ATOM      9  C   UNL d   1       1.896  -0.362   2.119  0.00  0.00     0.018 C 
ENDBRANCH   1   8
TORSDOF 1
ENDMDL
