MODEL 1
REMARK minimizedAffinity -0.585040212
REMARK minimizedRMSD -1
REMARK  1 active torsions:
REMARK  status: ('A' for Active; 'I' for Inactive)
REMARK    1  A    between atoms: C1_2  and  C2_3 
ROOT
ATOM      1  C2  UNL d   1       1.350  -2.138   1.299  0.00  0.00    -0.073 A 
ATOM      2  C3  UNL d   1       1.450  -2.918   2.457  0.00  0.00    -0.002 A 
ATOM      3  C4  UNL d   1       2.222  -2.483   3.535  0.00  0.00     0.004 A 
ATOM      4  C5  UNL d   1       2.895  -1.264   3.470  0.00  0.00    -0.004 A 
ATOM      5  C6  UNL d   1       2.798  -0.464   2.326  0.00  0.00    -0.075 A 
ATOM      6  C7  UNL d   1       3.517   0.850   2.239  0.00  0.00     0.076 C 
ATOM      7  C8  UNL d   1       2.022  -0.909   1.247  0.00  0.00     0.001 A 
ENDROOT
BRANCH   1   8
ATOM      8  C1  UNL d   1       0.512  -2.600   0.135  0.00  0.00     0.053 C 
ATOM      9  C   UNL d   1       1.365  -3.011  -1.054  0.00  0.00     0.018 C 
ENDBRANCH   1   8
TORSDOF 1
ENDMDL
