MODEL 1
REMARK minimizedAffinity -4.34983253
REMARK minimizedRMSD -1
REMARK  1 active torsions:
REMARK  status: ('A' for Active; 'I' for Inactive)
REMARK    1  A    between atoms: C1_2  and  C2_3 
ROOT
ATOM      1  C2  UNL d   1       3.283   5.790  -2.800  0.00  0.00    -0.073 A 
ATOM      2  C3  UNL d   1       4.228   5.430  -1.832  0.00  0.00    -0.002 A 
ATOM      3  C4  UNL d   1       5.565   5.247  -2.186  0.00  0.00     0.004 A 
ATOM      4  C5  UNL d   1       5.972   5.428  -3.508  0.00  0.00    -0.004 A 
ATOM      5  C6  UNL d   1       5.045   5.799  -4.487  0.00  0.00    -0.075 A 
ATOM      6  C7  UNL d   1       5.467   5.996  -5.914  0.00  0.00     0.076 C 
ATOM      7  C8  UNL d   1       3.704   5.979  -4.124  0.00  0.00     0.001 A 
ENDROOT
BRANCH   1   8
ATOM      8  C1  UNL d   1       1.839   5.995  -2.421  0.00  0.00     0.053 C 
ATOM      9  C   UNL d   1       1.324   4.887  -1.516  0.00  0.00     0.018 C 
ENDBRANCH   1   8
TORSDOF 1
ENDMDL
