MODEL 1
REMARK minimizedAffinity 8.29096508
REMARK minimizedRMSD -1
REMARK  1 active torsions:
REMARK  status: ('A' for Active; 'I' for Inactive)
REMARK    1  A    between atoms: C1_2  and  C2_3 
ROOT
ATOM      1  C2  UNL d   1       0.466  -0.985   0.632  0.00  0.00    -0.073 A 
ATOM      2  C3  UNL d   1      -0.890  -0.639   0.645  0.00  0.00    -0.002 A 
ATOM      3  C4  UNL d   1      -1.707  -0.948  -0.443  0.00  0.00     0.004 A 
ATOM      4  C5  UNL d   1      -1.179  -1.611  -1.551  0.00  0.00    -0.004 A 
ATOM      5  C6  UNL d   1       0.171  -1.976  -1.578  0.00  0.00    -0.075 A 
ATOM      6  C7  UNL d   1       0.754  -2.687  -2.763  0.00  0.00     0.076 C 
ATOM      7  C8  UNL d   1       0.986  -1.660  -0.482  0.00  0.00     0.001 A 
ENDROOT
BRANCH   1   8
ATOM      8  C1  UNL d   1       1.351  -0.659   1.807  0.00  0.00     0.053 C 
ATOM      9  C   UNL d   1       2.676  -0.053   1.373  0.00  0.00     0.018 C 
ENDBRANCH   1   8
TORSDOF 1
ENDMDL
