MODEL 1
REMARK minimizedAffinity 3.91077304
REMARK minimizedRMSD -1
REMARK  1 active torsions:
REMARK  status: ('A' for Active; 'I' for Inactive)
REMARK    1  A    between atoms: C1_2  and  C2_3 
ROOT
ATOM      1  C2  UNL d   1       0.308  -1.235   0.076  0.00  0.00    -0.073 A 
ATOM      2  C3  UNL d   1       0.975  -1.689  -1.068  0.00  0.00    -0.002 A 
ATOM      3  C4  UNL d   1       0.257  -2.013  -2.220  0.00  0.00     0.004 A 
ATOM      4  C5  UNL d   1      -1.131  -1.881  -2.242  0.00  0.00    -0.004 A 
ATOM      5  C6  UNL d   1      -1.815  -1.418  -1.113  0.00  0.00    -0.075 A 
ATOM      6  C7  UNL d   1      -3.308  -1.272  -1.121  0.00  0.00     0.076 C 
ATOM      7  C8  UNL d   1      -1.087  -1.097   0.041  0.00  0.00     0.001 A 
ENDROOT
BRANCH   1   8
ATOM      8  C1  UNL d   1       1.079  -0.877   1.320  0.00  0.00     0.053 C 
ATOM      9  C   UNL d   1       1.256  -2.071   2.244  0.00  0.00     0.018 C 
ENDBRANCH   1   8
TORSDOF 1
ENDMDL
