MODEL 1
REMARK minimizedAffinity 9.2772665
REMARK minimizedRMSD -1
REMARK  1 active torsions:
REMARK  status: ('A' for Active; 'I' for Inactive)
REMARK    1  A    between atoms: C1_2  and  C2_3 
ROOT
ATOM      1  C2  UNL d   1       0.760  -1.972   0.607  0.00  0.00    -0.073 A 
ATOM      2  C3  UNL d   1       1.267  -2.622  -0.524  0.00  0.00    -0.002 A 
ATOM      3  C4  UNL d   1       0.533  -2.647  -1.711  0.00  0.00     0.004 A 
ATOM      4  C5  UNL d   1      -0.710  -2.018  -1.781  0.00  0.00    -0.004 A 
ATOM      5  C6  UNL d   1      -1.228  -1.354  -0.665  0.00  0.00    -0.075 A 
ATOM      6  C7  UNL d   1      -2.565  -0.674  -0.724  0.00  0.00     0.076 C 
ATOM      7  C8  UNL d   1      -0.487  -1.335   0.524  0.00  0.00     0.001 A 
ENDROOT
BRANCH   1   8
ATOM      8  C1  UNL d   1       1.551  -1.937   1.889  0.00  0.00     0.053 C 
ATOM      9  C   UNL d   1       1.971  -0.524   2.261  0.00  0.00     0.018 C 
ENDBRANCH   1   8
TORSDOF 1
ENDMDL
