MODEL 1
REMARK minimizedAffinity 4.68842459
REMARK minimizedRMSD -1
REMARK  1 active torsions:
REMARK  status: ('A' for Active; 'I' for Inactive)
REMARK    1  A    between atoms: C1_2  and  C2_3 
ROOT
ATOM      1  C2  UNL d   1       0.847  -0.973   0.538  0.00  0.00    -0.073 A 
ATOM      2  C3  UNL d   1       1.690   0.056   0.104  0.00  0.00    -0.002 A 
ATOM      3  C4  UNL d   1       2.688   0.552   0.944  0.00  0.00     0.004 A 
ATOM      4  C5  UNL d   1       2.856   0.021   2.223  0.00  0.00    -0.004 A 
ATOM      5  C6  UNL d   1       2.031  -1.015   2.671  0.00  0.00    -0.075 A 
ATOM      6  C7  UNL d   1       2.197  -1.595   4.045  0.00  0.00     0.076 C 
ATOM      7  C8  UNL d   1       1.030  -1.506   1.822  0.00  0.00     0.001 A 
ENDROOT
BRANCH   1   8
ATOM      8  C1  UNL d   1      -0.227  -1.516  -0.368  0.00  0.00     0.053 C 
ATOM      9  C   UNL d   1       0.289  -1.770  -1.775  0.00  0.00     0.018 C 
ENDBRANCH   1   8
TORSDOF 1
ENDMDL
