MODEL 1
REMARK minimizedAffinity -2.11448359
REMARK minimizedRMSD -1
REMARK  0 active torsions:
REMARK  status: ('A' for Active; 'I' for Inactive)
ROOT
ATOM      1  C   UNL d   1      -5.444   4.175   4.930  0.00  0.00     0.023 A 
ATOM      2  C1  UNL d   1      -5.901   5.478   4.736  0.00  0.00     0.003 A 
ATOM      3  C2  UNL d   1      -6.000   6.000   3.444  0.00  0.00     0.048 A 
ATOM      4  C3  UNL d   1      -5.641   5.212   2.351  0.00  0.00     0.023 A 
ATOM      5  C4  UNL d   1      -5.184   3.907   2.540  0.00  0.00     0.048 A 
ATOM      6  C5  UNL d   1      -5.086   3.390   3.833  0.00  0.00     0.003 A 
ATOM      7  I   UNL d   1      -5.788   5.986   0.428  0.00  0.00    -0.146 I 
ENDROOT
TORSDOF 0
ENDMDL
