MODEL 1
REMARK minimizedAffinity 2.58699679
REMARK minimizedRMSD -1
REMARK  0 active torsions:
REMARK  status: ('A' for Active; 'I' for Inactive)
ROOT
ATOM      1  C   UNL d   1      -2.760  -3.426  -2.136  0.00  0.00     0.023 A 
ATOM      2  C1  UNL d   1      -2.271  -3.827  -0.893  0.00  0.00     0.003 A 
ATOM      3  C2  UNL d   1      -1.669  -2.895  -0.045  0.00  0.00     0.048 A 
ATOM      4  C3  UNL d   1      -1.560  -1.564  -0.446  0.00  0.00     0.023 A 
ATOM      5  C4  UNL d   1      -2.048  -1.159  -1.689  0.00  0.00     0.048 A 
ATOM      6  C5  UNL d   1      -2.649  -2.094  -2.534  0.00  0.00     0.003 A 
ATOM      7  I   UNL d   1      -0.664  -0.175   0.814  0.00  0.00    -0.146 I 
ENDROOT
TORSDOF 0
ENDMDL
