MODEL 1
REMARK minimizedAffinity -3.44889927
REMARK minimizedRMSD -1
REMARK  0 active torsions:
REMARK  status: ('A' for Active; 'I' for Inactive)
ROOT
ATOM      1  C   UNL d   1       2.356  -0.348  -4.501  0.00  0.00     0.023 A 
ATOM      2  C1  UNL d   1       1.040  -0.031  -4.837  0.00  0.00     0.003 A 
ATOM      3  C2  UNL d   1       0.071   0.083  -3.837  0.00  0.00     0.048 A 
ATOM      4  C3  UNL d   1       0.427  -0.120  -2.504  0.00  0.00     0.023 A 
ATOM      5  C4  UNL d   1       1.743  -0.437  -2.164  0.00  0.00     0.048 A 
ATOM      6  C5  UNL d   1       2.707  -0.551  -3.167  0.00  0.00     0.003 A 
ATOM      7  I   UNL d   1      -1.013   0.050  -1.015  0.00  0.00    -0.146 I 
ENDROOT
TORSDOF 0
ENDMDL
