MODEL 1
REMARK minimizedAffinity -1.05436194
REMARK minimizedRMSD -1
REMARK  0 active torsions:
REMARK  status: ('A' for Active; 'I' for Inactive)
ROOT
ATOM      1  C   UNL d   1      -4.313  -2.512   5.193  0.00  0.00     0.023 A 
ATOM      2  C1  UNL d   1      -3.035  -2.066   4.857  0.00  0.00     0.003 A 
ATOM      3  C2  UNL d   1      -2.674  -0.737   5.087  0.00  0.00     0.048 A 
ATOM      4  C3  UNL d   1      -3.597   0.141   5.655  0.00  0.00     0.023 A 
ATOM      5  C4  UNL d   1      -4.877  -0.301   5.994  0.00  0.00     0.048 A 
ATOM      6  C5  UNL d   1      -5.233  -1.631   5.761  0.00  0.00     0.003 A 
ATOM      7  I   UNL d   1      -3.063   2.120   6.000  0.00  0.00    -0.146 I 
ENDROOT
TORSDOF 0
ENDMDL
