MODEL 1
REMARK minimizedAffinity 3.45220447
REMARK minimizedRMSD -1
REMARK  0 active torsions:
REMARK  status: ('A' for Active; 'I' for Inactive)
ROOT
ATOM      1  C   UNL d   1      -1.864  -2.106  -3.152  0.00  0.00     0.023 A 
ATOM      2  C1  UNL d   1      -1.909  -1.881  -1.776  0.00  0.00     0.003 A 
ATOM      3  C2  UNL d   1      -2.864  -2.531  -0.992  0.00  0.00     0.048 A 
ATOM      4  C3  UNL d   1      -3.771  -3.405  -1.589  0.00  0.00     0.023 A 
ATOM      5  C4  UNL d   1      -3.730  -3.633  -2.966  0.00  0.00     0.048 A 
ATOM      6  C5  UNL d   1      -2.774  -2.981  -3.746  0.00  0.00     0.003 A 
ATOM      7  I   UNL d   1      -5.194  -4.373  -0.424  0.00  0.00    -0.146 I 
ENDROOT
TORSDOF 0
ENDMDL
