MODEL 1
REMARK minimizedAffinity 1.49306548
REMARK minimizedRMSD -1
REMARK  0 active torsions:
REMARK  status: ('A' for Active; 'I' for Inactive)
ROOT
ATOM      1  C   UNL d   1       4.239   4.425  -1.303  0.00  0.00     0.023 A 
ATOM      2  C1  UNL d   1       3.248   3.446  -1.221  0.00  0.00     0.003 A 
ATOM      3  C2  UNL d   1       2.793   3.013   0.026  0.00  0.00     0.048 A 
ATOM      4  C3  UNL d   1       3.332   3.564   1.188  0.00  0.00     0.023 A 
ATOM      5  C4  UNL d   1       4.323   4.544   1.111  0.00  0.00     0.048 A 
ATOM      6  C5  UNL d   1       4.776   4.973  -0.138  0.00  0.00     0.003 A 
ATOM      7  I   UNL d   1       2.657   2.922   3.045  0.00  0.00    -0.146 I 
ENDROOT
TORSDOF 0
ENDMDL
