MODEL 1
REMARK minimizedAffinity 2.48315859
REMARK minimizedRMSD -1
REMARK  0 active torsions:
REMARK  status: ('A' for Active; 'I' for Inactive)
ROOT
ATOM      1  C   UNL d   1      -2.862  -3.228  -3.938  0.00  0.00     0.023 A 
ATOM      2  C1  UNL d   1      -2.617  -3.780  -2.681  0.00  0.00     0.003 A 
ATOM      3  C2  UNL d   1      -2.243  -2.958  -1.616  0.00  0.00     0.048 A 
ATOM      4  C3  UNL d   1      -2.119  -1.583  -1.814  0.00  0.00     0.023 A 
ATOM      5  C4  UNL d   1      -2.365  -1.026  -3.070  0.00  0.00     0.048 A 
ATOM      6  C5  UNL d   1      -2.736  -1.852  -4.132  0.00  0.00     0.003 A 
ATOM      7  I   UNL d   1      -1.564  -0.357  -0.231  0.00  0.00    -0.146 I 
ENDROOT
TORSDOF 0
ENDMDL
