MODEL 1
REMARK minimizedAffinity 4.09002876
REMARK minimizedRMSD -1
REMARK  0 active torsions:
REMARK  status: ('A' for Active; 'I' for Inactive)
ROOT
ATOM      1  C   UNL d   1      -3.675  -0.691   5.948  0.00  0.00     0.023 A 
ATOM      2  C1  UNL d   1      -3.266  -1.714   5.093  0.00  0.00     0.003 A 
ATOM      3  C2  UNL d   1      -2.791  -1.411   3.816  0.00  0.00     0.048 A 
ATOM      4  C3  UNL d   1      -2.725  -0.082   3.400  0.00  0.00     0.023 A 
ATOM      5  C4  UNL d   1      -3.132   0.946   4.252  0.00  0.00     0.048 A 
ATOM      6  C5  UNL d   1      -3.608   0.638   5.528  0.00  0.00     0.003 A 
ATOM      7  I   UNL d   1      -2.017   0.372   1.500  0.00  0.00    -0.146 I 
ENDROOT
TORSDOF 0
ENDMDL
