MODEL 1
REMARK minimizedAffinity 1.20688999
REMARK minimizedRMSD -1
REMARK  0 active torsions:
REMARK  status: ('A' for Active; 'I' for Inactive)
ROOT
ATOM      1  C   UNL d   1       3.385   3.655  -1.572  0.00  0.00     0.023 A 
ATOM      2  C1  UNL d   1       4.463   3.874  -0.715  0.00  0.00     0.003 A 
ATOM      3  C2  UNL d   1       4.332   3.629   0.653  0.00  0.00     0.048 A 
ATOM      4  C3  UNL d   1       3.119   3.162   1.158  0.00  0.00     0.023 A 
ATOM      5  C4  UNL d   1       2.037   2.940   0.305  0.00  0.00     0.048 A 
ATOM      6  C5  UNL d   1       2.173   3.188  -1.063  0.00  0.00     0.003 A 
ATOM      7  I   UNL d   1       2.920   2.796   3.194  0.00  0.00    -0.146 I 
ENDROOT
TORSDOF 0
ENDMDL
