MODEL 1
REMARK minimizedAffinity 1.96735179
REMARK minimizedRMSD -1
REMARK  0 active torsions:
REMARK  status: ('A' for Active; 'I' for Inactive)
ROOT
ATOM      1  C   UNL d   1      -5.538   6.000   1.357  0.00  0.00     0.023 A 
ATOM      2  C1  UNL d   1      -4.564   5.084   0.959  0.00  0.00     0.003 A 
ATOM      3  C2  UNL d   1      -4.050   4.166   1.877  0.00  0.00     0.048 A 
ATOM      4  C3  UNL d   1      -4.515   4.168   3.191  0.00  0.00     0.023 A 
ATOM      5  C4  UNL d   1      -5.490   5.082   3.594  0.00  0.00     0.048 A 
ATOM      6  C5  UNL d   1      -6.000   5.999   2.673  0.00  0.00     0.003 A 
ATOM      7  I   UNL d   1      -3.751   2.803   4.560  0.00  0.00    -0.146 I 
ENDROOT
TORSDOF 0
ENDMDL
