MODEL 1
REMARK minimizedAffinity 6.07651806
REMARK minimizedRMSD -1
REMARK  0 active torsions:
REMARK  status: ('A' for Active; 'I' for Inactive)
ROOT
ATOM      1  C   UNL d   1      -5.703   5.726   1.658  0.00  0.00     0.023 A 
ATOM      2  C1  UNL d   1      -5.999   6.000   2.993  0.00  0.00     0.003 A 
ATOM      3  C2  UNL d   1      -5.280   5.370   4.012  0.00  0.00     0.048 A 
ATOM      4  C3  UNL d   1      -4.267   4.469   3.688  0.00  0.00     0.023 A 
ATOM      5  C4  UNL d   1      -3.967   4.193   2.353  0.00  0.00     0.048 A 
ATOM      6  C5  UNL d   1      -4.688   4.824   1.338  0.00  0.00     0.003 A 
ATOM      7  I   UNL d   1      -3.196   3.530   5.202  0.00  0.00    -0.146 I 
ENDROOT
TORSDOF 0
ENDMDL
