MODEL 1
REMARK minimizedAffinity 1.60903263
REMARK minimizedRMSD -1
REMARK  0 active torsions:
REMARK  status: ('A' for Active; 'I' for Inactive)
ROOT
ATOM      1  C   UNL d   1      -4.518   4.784   4.465  0.00  0.00     0.023 A 
ATOM      2  C1  UNL d   1      -3.838   4.267   3.362  0.00  0.00     0.003 A 
ATOM      3  C2  UNL d   1      -4.238   4.613   2.070  0.00  0.00     0.048 A 
ATOM      4  C3  UNL d   1      -5.317   5.478   1.887  0.00  0.00     0.023 A 
ATOM      5  C4  UNL d   1      -5.999   5.998   2.988  0.00  0.00     0.048 A 
ATOM      6  C5  UNL d   1      -5.597   5.648   4.279  0.00  0.00     0.003 A 
ATOM      7  I   UNL d   1      -5.912   5.995  -0.035  0.00  0.00    -0.146 I 
ENDROOT
TORSDOF 0
ENDMDL
