MODEL 1
REMARK minimizedAffinity -3.97147846
REMARK minimizedRMSD -1
REMARK  0 active torsions:
REMARK  status: ('A' for Active; 'I' for Inactive)
ROOT
ATOM      1  C   UNL d   1      -4.404   1.236   4.190  0.00  0.00     0.023 A 
ATOM      2  C1  UNL d   1      -4.825   2.152   5.154  0.00  0.00     0.003 A 
ATOM      3  C2  UNL d   1      -4.945   3.504   4.829  0.00  0.00     0.048 A 
ATOM      4  C3  UNL d   1      -4.643   3.934   3.537  0.00  0.00     0.023 A 
ATOM      5  C4  UNL d   1      -4.222   3.021   2.569  0.00  0.00     0.048 A 
ATOM      6  C5  UNL d   1      -4.103   1.670   2.899  0.00  0.00     0.003 A 
ATOM      7  I   UNL d   1      -4.821   5.947   3.050  0.00  0.00    -0.146 I 
ENDROOT
TORSDOF 0
ENDMDL
