MODEL 1
REMARK minimizedAffinity 0.417481303
REMARK minimizedRMSD -1
REMARK  0 active torsions:
REMARK  status: ('A' for Active; 'I' for Inactive)
ROOT
ATOM      1  C   UNL d   1      -5.904   5.981   2.334  0.00  0.00     0.023 A 
ATOM      2  C1  UNL d   1      -5.999   6.000   3.725  0.00  0.00     0.003 A 
ATOM      3  C2  UNL d   1      -4.971   5.466   4.504  0.00  0.00     0.048 A 
ATOM      4  C3  UNL d   1      -3.849   4.916   3.885  0.00  0.00     0.023 A 
ATOM      5  C4  UNL d   1      -3.749   4.896   2.493  0.00  0.00     0.048 A 
ATOM      6  C5  UNL d   1      -4.780   5.430   1.718  0.00  0.00     0.003 A 
ATOM      7  I   UNL d   1      -2.317   4.120   5.042  0.00  0.00    -0.146 I 
ENDROOT
TORSDOF 0
ENDMDL
