MODEL 1
REMARK minimizedAffinity 6.28592873
REMARK minimizedRMSD -1
REMARK  3 active torsions:
REMARK  status: ('A' for Active; 'I' for Inactive)
REMARK    1  A    between atoms: C3'_2  and  C2'_3 
REMARK    2  A    between atoms: C2'_3  and  C1'_4 
REMARK    3  A    between atoms: C1'_4  and  C1_5 
ROOT
ATOM      1  C1  N4B d   1      -3.489  -2.054  -2.188  0.00  0.00    -0.075 A 
ATOM      2  C2  N4B d   1      -3.790  -2.070  -3.567  0.00  0.00     0.002 A 
ATOM      3  C3  N4B d   1      -4.208  -3.233  -4.165  0.00  0.00     0.002 A 
ATOM      4  C4  N4B d   1      -4.312  -4.393  -3.411  0.00  0.00    -0.004 A 
ATOM      5  C5  N4B d   1      -4.044  -4.363  -2.074  0.00  0.00     0.002 A 
ATOM      6  C6  N4B d   1      -3.627  -3.200  -1.459  0.00  0.00     0.002 A 
ENDROOT
BRANCH   1   7
ATOM      7  C1' N4B d   1      -2.947  -0.826  -1.507  0.00  0.00     0.057 C 
BRANCH   7   8
ATOM      8  C2' N4B d   1      -2.656   0.241  -2.558  0.00  0.00     0.009 C 
BRANCH   8   9
ATOM      9  C3' N4B d   1      -3.213   1.597  -2.160  0.00  0.00     0.004 C 
ATOM     10  C4' N4B d   1      -4.273   2.088  -3.100  0.00  0.00     0.003 C 
ENDBRANCH   8   9
ENDBRANCH   7   8
ENDBRANCH   1   7
TORSDOF 3
ENDMDL
