MODEL 1
REMARK minimizedAffinity 7.6602459
REMARK minimizedRMSD -1
REMARK  3 active torsions:
REMARK  status: ('A' for Active; 'I' for Inactive)
REMARK    1  A    between atoms: C3'_2  and  C2'_3 
REMARK    2  A    between atoms: C2'_3  and  C1'_4 
REMARK    3  A    between atoms: C1'_4  and  C1_5 
ROOT
ATOM      1  C1  N4B d   1       3.092   0.457   2.239  0.00  0.00    -0.075 A 
ATOM      2  C2  N4B d   1       2.680  -0.090   3.475  0.00  0.00     0.002 A 
ATOM      3  C3  N4B d   1       2.191   0.732   4.460  0.00  0.00     0.002 A 
ATOM      4  C4  N4B d   1       2.123   2.099   4.242  0.00  0.00    -0.004 A 
ATOM      5  C5  N4B d   1       2.499   2.617   3.037  0.00  0.00     0.002 A 
ATOM      6  C6  N4B d   1       2.988   1.802   2.036  0.00  0.00     0.002 A 
ENDROOT
BRANCH   1   7
ATOM      7  C1' N4B d   1       3.713  -0.391   1.163  0.00  0.00     0.057 C 
BRANCH   7   8
ATOM      8  C2' N4B d   1       4.106  -1.742   1.754  0.00  0.00     0.009 C 
BRANCH   8   9
ATOM      9  C3' N4B d   1       5.608  -1.863   1.943  0.00  0.00     0.004 C 
ATOM     10  C4' N4B d   1       5.988  -2.242   3.344  0.00  0.00     0.003 C 
ENDBRANCH   8   9
ENDBRANCH   7   8
ENDBRANCH   1   7
TORSDOF 3
ENDMDL
