MODEL 1
REMARK minimizedAffinity 5.88393354
REMARK minimizedRMSD -1
REMARK  3 active torsions:
REMARK  status: ('A' for Active; 'I' for Inactive)
REMARK    1  A    between atoms: C3'_2  and  C2'_3 
REMARK    2  A    between atoms: C2'_3  and  C1'_4 
REMARK    3  A    between atoms: C1'_4  and  C1_5 
ROOT
ATOM      1  C1  N4B d   1       2.371  -1.138   2.906  0.00  0.00    -0.075 A 
ATOM      2  C2  N4B d   1       1.152  -1.199   2.196  0.00  0.00     0.002 A 
ATOM      3  C3  N4B d   1       0.921  -0.336   1.153  0.00  0.00     0.002 A 
ATOM      4  C4  N4B d   1       1.882   0.604   0.815  0.00  0.00    -0.004 A 
ATOM      5  C5  N4B d   1       3.067   0.640   1.490  0.00  0.00     0.002 A 
ATOM      6  C6  N4B d   1       3.315  -0.224   2.537  0.00  0.00     0.002 A 
ENDROOT
BRANCH   1   7
ATOM      7  C1' N4B d   1       2.634  -2.004   4.108  0.00  0.00     0.057 C 
BRANCH   7   8
ATOM      8  C2' N4B d   1       1.782  -1.513   5.274  0.00  0.00     0.009 C 
BRANCH   8   9
ATOM      9  C3' N4B d   1       1.044  -2.652   5.958  0.00  0.00     0.004 C 
ATOM     10  C4' N4B d   1       1.839  -3.923   5.989  0.00  0.00     0.003 C 
ENDBRANCH   8   9
ENDBRANCH   7   8
ENDBRANCH   1   7
TORSDOF 3
ENDMDL
