MODEL 1
REMARK minimizedAffinity 4.5329833
REMARK minimizedRMSD -1
REMARK  3 active torsions:
REMARK  status: ('A' for Active; 'I' for Inactive)
REMARK    1  A    between atoms: C3'_2  and  C2'_3 
REMARK    2  A    between atoms: C2'_3  and  C1'_4 
REMARK    3  A    between atoms: C1'_4  and  C1_5 
ROOT
ATOM      1  C1  N4B d   1       0.312   0.361  -0.770  0.00  0.00    -0.075 A 
ATOM      2  C2  N4B d   1       0.551   1.395   0.161  0.00  0.00     0.002 A 
ATOM      3  C3  N4B d   1       1.568   1.274   1.076  0.00  0.00     0.002 A 
ATOM      4  C4  N4B d   1       2.344   0.125   1.090  0.00  0.00    -0.004 A 
ATOM      5  C5  N4B d   1       2.123  -0.859   0.171  0.00  0.00     0.002 A 
ATOM      6  C6  N4B d   1       1.106  -0.749  -0.756  0.00  0.00     0.002 A 
ENDROOT
BRANCH   1   7
ATOM      7  C1' N4B d   1      -0.843   0.410  -1.733  0.00  0.00     0.057 C 
BRANCH   7   8
ATOM      8  C2' N4B d   1      -0.320   0.749  -3.125  0.00  0.00     0.009 C 
BRANCH   8   9
ATOM      9  C3' N4B d   1      -1.408   0.650  -4.181  0.00  0.00     0.004 C 
ATOM     10  C4' N4B d   1      -2.788   0.634  -3.593  0.00  0.00     0.003 C 
ENDBRANCH   8   9
ENDBRANCH   7   8
ENDBRANCH   1   7
TORSDOF 3
ENDMDL
