MODEL 1
REMARK minimizedAffinity 10.2635632
REMARK minimizedRMSD -1
REMARK  0 active torsions:
REMARK  status: ('A' for Active; 'I' for Inactive)
ROOT
ATOM      1  C1  DEN d   1       4.658  -5.215   4.140  0.00  0.00     0.130 A 
ATOM      2  C2  DEN d   1       5.680  -5.621   5.101  0.00  0.00    -0.031 A 
ATOM      3  C3  DEN d   1       5.941  -4.479   6.000  0.00  0.00     0.027 A 
ATOM      4  C4  DEN d   1       4.864  -2.135   6.000  0.00  0.00     0.027 A 
ATOM      5  C5  DEN d   1       3.954  -1.318   5.366  0.00  0.00    -0.003 A 
ATOM      6  C6  DEN d   1       3.246  -1.727   4.268  0.00  0.00     0.001 A 
ATOM      7  C7  DEN d   1       3.403  -3.004   3.796  0.00  0.00     0.017 A 
ATOM      8  C8  DEN d   1       4.324  -3.831   4.425  0.00  0.00    -0.094 A 
ATOM      9  C9  DEN d   1       5.021  -3.403   5.542  0.00  0.00    -0.072 A 
ENDROOT
TORSDOF 0
ENDMDL
