MODEL 1
REMARK minimizedAffinity -0.462417156
REMARK minimizedRMSD -1
REMARK  0 active torsions:
REMARK  status: ('A' for Active; 'I' for Inactive)
ROOT
ATOM      1  C1  DEN d   1      -1.297   3.469   1.592  0.00  0.00     0.130 A 
ATOM      2  C2  DEN d   1      -0.105   2.710   1.957  0.00  0.00    -0.031 A 
ATOM      3  C3  DEN d   1       0.826   2.742   0.811  0.00  0.00     0.027 A 
ATOM      4  C4  DEN d   1       0.540   3.891  -1.480  0.00  0.00     0.027 A 
ATOM      5  C5  DEN d   1      -0.310   4.645  -2.259  0.00  0.00    -0.003 A 
ATOM      6  C6  DEN d   1      -1.551   5.028  -1.826  0.00  0.00     0.001 A 
ATOM      7  C7  DEN d   1      -1.961   4.696  -0.562  0.00  0.00     0.017 A 
ATOM      8  C8  DEN d   1      -1.113   3.930   0.227  0.00  0.00    -0.094 A 
ATOM      9  C9  DEN d   1       0.143   3.563  -0.224  0.00  0.00    -0.072 A 
ENDROOT
TORSDOF 0
ENDMDL
