MODEL 1
REMARK minimizedAffinity 10.2629709
REMARK minimizedRMSD -1
REMARK  0 active torsions:
REMARK  status: ('A' for Active; 'I' for Inactive)
ROOT
ATOM      1  C1  DEN d   1      -0.117   6.000  -1.901  0.00  0.00     0.130 A 
ATOM      2  C2  DEN d   1      -1.505   5.707  -2.249  0.00  0.00    -0.031 A 
ATOM      3  C3  DEN d   1      -1.922   4.510  -1.492  0.00  0.00     0.027 A 
ATOM      4  C4  DEN d   1      -0.563   3.091   0.178  0.00  0.00     0.027 A 
ATOM      5  C5  DEN d   1       0.664   2.942   0.787  0.00  0.00    -0.003 A 
ATOM      6  C6  DEN d   1       1.718   3.774   0.519  0.00  0.00     0.001 A 
ATOM      7  C7  DEN d   1       1.551   4.822  -0.348  0.00  0.00     0.017 A 
ATOM      8  C8  DEN d   1       0.320   4.974  -0.971  0.00  0.00    -0.094 A 
ATOM      9  C9  DEN d   1      -0.737   4.129  -0.677  0.00  0.00    -0.072 A 
ENDROOT
TORSDOF 0
ENDMDL
