MODEL 1
REMARK minimizedAffinity 10.9079943
REMARK minimizedRMSD -1
REMARK  0 active torsions:
REMARK  status: ('A' for Active; 'I' for Inactive)
ROOT
ATOM      1  C1  DEN d   1       0.022   4.386   1.307  0.00  0.00     0.130 A 
ATOM      2  C2  DEN d   1       0.523   3.016   1.251  0.00  0.00    -0.031 A 
ATOM      3  C3  DEN d   1       0.374   2.532  -0.137  0.00  0.00     0.027 A 
ATOM      4  C4  DEN d   1      -0.573   3.768  -2.193  0.00  0.00     0.027 A 
ATOM      5  C5  DEN d   1      -1.133   4.946  -2.635  0.00  0.00    -0.003 A 
ATOM      6  C6  DEN d   1      -1.376   6.000  -1.794  0.00  0.00     0.001 A 
ATOM      7  C7  DEN d   1      -1.017   5.912  -0.475  0.00  0.00     0.017 A 
ATOM      8  C8  DEN d   1      -0.459   4.724  -0.020  0.00  0.00    -0.094 A 
ATOM      9  C9  DEN d   1      -0.210   3.675  -0.888  0.00  0.00    -0.072 A 
ENDROOT
TORSDOF 0
ENDMDL
