MODEL 1
REMARK minimizedAffinity 8.19767857
REMARK minimizedRMSD -1
REMARK  0 active torsions:
REMARK  status: ('A' for Active; 'I' for Inactive)
ROOT
ATOM      1  C1  DEN d   1      -0.208   3.883  -0.142  0.00  0.00     0.130 A 
ATOM      2  C2  DEN d   1       0.742   4.943  -0.472  0.00  0.00    -0.031 A 
ATOM      3  C3  DEN d   1       1.773   4.977   0.585  0.00  0.00     0.027 A 
ATOM      4  C4  DEN d   1       1.993   3.497   2.685  0.00  0.00     0.027 A 
ATOM      5  C5  DEN d   1       1.419   2.467   3.398  0.00  0.00    -0.003 A 
ATOM      6  C6  DEN d   1       0.254   1.865   3.002  0.00  0.00     0.001 A 
ATOM      7  C7  DEN d   1      -0.351   2.258   1.838  0.00  0.00     0.017 A 
ATOM      8  C8  DEN d   1       0.218   3.300   1.117  0.00  0.00    -0.094 A 
ATOM      9  C9  DEN d   1       1.402   3.888   1.528  0.00  0.00    -0.072 A 
ENDROOT
TORSDOF 0
ENDMDL
