MODEL 1
REMARK minimizedAffinity 19.5584526
REMARK minimizedRMSD -1
REMARK  0 active torsions:
REMARK  status: ('A' for Active; 'I' for Inactive)
ROOT
ATOM      1  C1  DEN d   1      -5.912   3.717  -1.880  0.00  0.00     0.130 A 
ATOM      2  C2  DEN d   1      -5.949   2.743  -0.792  0.00  0.00    -0.031 A 
ATOM      3  C3  DEN d   1      -5.990   1.393  -1.389  0.00  0.00     0.027 A 
ATOM      4  C4  DEN d   1      -5.997   0.719  -3.879  0.00  0.00     0.027 A 
ATOM      5  C5  DEN d   1      -5.987   1.196  -5.171  0.00  0.00    -0.003 A 
ATOM      6  C6  DEN d   1      -5.985   2.537  -5.455  0.00  0.00     0.001 A 
ATOM      7  C7  DEN d   1      -5.949   3.447  -4.431  0.00  0.00     0.017 A 
ATOM      8  C8  DEN d   1      -5.966   2.973  -3.126  0.00  0.00    -0.094 A 
ATOM      9  C9  DEN d   1      -5.955   1.615  -2.860  0.00  0.00    -0.072 A 
ENDROOT
TORSDOF 0
ENDMDL
