MODEL 1
REMARK minimizedAffinity 14.8090811
REMARK minimizedRMSD -1
REMARK  0 active torsions:
REMARK  status: ('A' for Active; 'I' for Inactive)
ROOT
ATOM      1  C1  DEN d   1      -6.000   0.460  -3.195  0.00  0.00     0.130 A 
ATOM      2  C2  DEN d   1      -5.959   1.131  -4.491  0.00  0.00    -0.031 A 
ATOM      3  C3  DEN d   1      -5.880   2.586  -4.250  0.00  0.00     0.027 A 
ATOM      4  C4  DEN d   1      -5.813   3.858  -2.007  0.00  0.00     0.027 A 
ATOM      5  C5  DEN d   1      -5.836   3.719  -0.637  0.00  0.00    -0.003 A 
ATOM      6  C6  DEN d   1      -5.948   2.497  -0.029  0.00  0.00     0.001 A 
ATOM      7  C7  DEN d   1      -5.997   1.360  -0.792  0.00  0.00     0.017 A 
ATOM      8  C8  DEN d   1      -5.982   1.493  -2.174  0.00  0.00    -0.094 A 
ATOM      9  C9  DEN d   1      -5.855   2.736  -2.770  0.00  0.00    -0.072 A 
ENDROOT
TORSDOF 0
ENDMDL
