MODEL 1
REMARK minimizedAffinity -1.48224998
REMARK minimizedRMSD -1
REMARK  0 active torsions:
REMARK  status: ('A' for Active; 'I' for Inactive)
ROOT
ATOM      1  C1  DEN d   1       1.766   4.170  -0.025  0.00  0.00     0.130 A 
ATOM      2  C2  DEN d   1       0.476   4.175  -0.709  0.00  0.00    -0.031 A 
ATOM      3  C3  DEN d   1      -0.548   3.701   0.245  0.00  0.00     0.027 A 
ATOM      4  C4  DEN d   1      -0.261   2.969   2.701  0.00  0.00     0.027 A 
ATOM      5  C5  DEN d   1       0.649   2.784   3.719  0.00  0.00    -0.003 A 
ATOM      6  C6  DEN d   1       1.989   3.013   3.551  0.00  0.00     0.001 A 
ATOM      7  C7  DEN d   1       2.451   3.485   2.350  0.00  0.00     0.017 A 
ATOM      8  C8  DEN d   1       1.541   3.667   1.318  0.00  0.00    -0.094 A 
ATOM      9  C9  DEN d   1       0.188   3.441   1.511  0.00  0.00    -0.072 A 
ENDROOT
TORSDOF 0
ENDMDL
