MODEL 1
REMARK minimizedAffinity -3.72987819
REMARK minimizedRMSD -1
REMARK  0 active torsions:
REMARK  status: ('A' for Active; 'I' for Inactive)
ROOT
ATOM      1  C   UNL d   1      -1.911   1.188   2.061  0.00  0.00    -0.002 A 
ATOM      2  C1  UNL d   1      -0.642   1.246   2.618  0.00  0.00     0.010 A 
ATOM      3  C2  UNL d   1       0.458   0.720   1.936  0.00  0.00     0.041 A 
ATOM      4  C3  UNL d   1       0.258   0.132   0.672  0.00  0.00    -0.075 A 
ATOM      5  S   UNL d   1       1.456  -0.575  -0.346  0.00  0.00     0.015 SA
ATOM      6  C4  UNL d   1       0.311  -0.970  -1.545  0.00  0.00     0.022 A 
ATOM      7  C5  UNL d   1      -0.959  -0.580  -1.194  0.00  0.00     0.026 A 
ATOM      8  C6  UNL d   1      -1.011   0.062   0.090  0.00  0.00    -0.082 A 
ATOM      9  C7  UNL d   1      -2.105   0.603   0.806  0.00  0.00     0.045 A 
ENDROOT
TORSDOF 0
ENDMDL
