MODEL 1
REMARK minimizedAffinity -2.42739558
REMARK minimizedRMSD -1
REMARK  0 active torsions:
REMARK  status: ('A' for Active; 'I' for Inactive)
ROOT
ATOM      1  C   UNL d   1       2.238  -0.038   3.003  0.00  0.00    -0.002 A 
ATOM      2  C1  UNL d   1       2.629  -0.470   1.744  0.00  0.00     0.010 A 
ATOM      3  C2  UNL d   1       1.718  -0.495   0.686  0.00  0.00     0.041 A 
ATOM      4  C3  UNL d   1       0.394  -0.072   0.917  0.00  0.00    -0.075 A 
ATOM      5  S   UNL d   1      -0.894  -0.016  -0.228  0.00  0.00     0.015 SA
ATOM      6  C4  UNL d   1      -1.994   0.585   0.928  0.00  0.00     0.022 A 
ATOM      7  C5  UNL d   1      -1.410   0.744   2.162  0.00  0.00     0.026 A 
ATOM      8  C6  UNL d   1      -0.024   0.368   2.176  0.00  0.00    -0.082 A 
ATOM      9  C7  UNL d   1       0.923   0.381   3.228  0.00  0.00     0.045 A 
ENDROOT
TORSDOF 0
ENDMDL
