MODEL 1
REMARK minimizedAffinity -3.23741746
REMARK minimizedRMSD -1
REMARK  0 active torsions:
REMARK  status: ('A' for Active; 'I' for Inactive)
ROOT
ATOM      1  C   UNL d   1      -1.013   2.097   2.373  0.00  0.00    -0.002 A 
ATOM      2  C1  UNL d   1       0.365   1.965   2.478  0.00  0.00     0.010 A 
ATOM      3  C2  UNL d   1       1.063   1.114   1.619  0.00  0.00     0.041 A 
ATOM      4  C3  UNL d   1       0.348   0.394   0.642  0.00  0.00    -0.075 A 
ATOM      5  S   UNL d   1       0.992  -0.706  -0.519  0.00  0.00     0.015 SA
ATOM      6  C4  UNL d   1      -0.545  -1.025  -1.181  0.00  0.00     0.022 A 
ATOM      7  C5  UNL d   1      -1.538  -0.318  -0.544  0.00  0.00     0.026 A 
ATOM      8  C6  UNL d   1      -1.040   0.511   0.517  0.00  0.00    -0.082 A 
ATOM      9  C7  UNL d   1      -1.719   1.381   1.404  0.00  0.00     0.045 A 
ENDROOT
TORSDOF 0
ENDMDL
