MODEL 1
REMARK minimizedAffinity 1.46751487
REMARK minimizedRMSD -1
REMARK  0 active torsions:
REMARK  status: ('A' for Active; 'I' for Inactive)
ROOT
ATOM      1  C   UNL d   1       0.369   2.018   2.530  0.00  0.00    -0.002 A 
ATOM      2  C1  UNL d   1       1.344   1.081   2.218  0.00  0.00     0.010 A 
ATOM      3  C2  UNL d   1       1.038  -0.023   1.419  0.00  0.00     0.041 A 
ATOM      4  C3  UNL d   1      -0.276  -0.170   0.934  0.00  0.00    -0.075 A 
ATOM      5  S   UNL d   1      -0.880  -1.441  -0.062  0.00  0.00     0.015 SA
ATOM      6  C4  UNL d   1      -2.447  -0.770  -0.097  0.00  0.00     0.022 A 
ATOM      7  C5  UNL d   1      -2.525   0.395   0.628  0.00  0.00     0.026 A 
ATOM      8  C6  UNL d   1      -1.275   0.761   1.234  0.00  0.00    -0.082 A 
ATOM      9  C7  UNL d   1      -0.934   1.869   2.046  0.00  0.00     0.045 A 
ENDROOT
TORSDOF 0
ENDMDL
