MODEL 1
REMARK minimizedAffinity -0.535596728
REMARK minimizedRMSD -1
REMARK  0 active torsions:
REMARK  status: ('A' for Active; 'I' for Inactive)
ROOT
ATOM      1  C   UNL d   1      -0.933   1.453   2.715  0.00  0.00    -0.002 A 
ATOM      2  C1  UNL d   1       0.069   2.235   2.160  0.00  0.00     0.010 A 
ATOM      3  C2  UNL d   1       0.648   1.886   0.938  0.00  0.00     0.041 A 
ATOM      4  C3  UNL d   1       0.197   0.727   0.277  0.00  0.00    -0.075 A 
ATOM      5  S   UNL d   1       0.759   0.104  -1.230  0.00  0.00     0.015 SA
ATOM      6  C4  UNL d   1      -0.319  -1.215  -1.172  0.00  0.00     0.022 A 
ATOM      7  C5  UNL d   1      -1.096  -1.196  -0.038  0.00  0.00     0.026 A 
ATOM      8  C6  UNL d   1      -0.812  -0.077   0.816  0.00  0.00    -0.082 A 
ATOM      9  C7  UNL d   1      -1.378   0.304   2.056  0.00  0.00     0.045 A 
ENDROOT
TORSDOF 0
ENDMDL
