MODEL 1
REMARK minimizedAffinity -4.68904781
REMARK minimizedRMSD -1
REMARK  0 active torsions:
REMARK  status: ('A' for Active; 'I' for Inactive)
ROOT
ATOM      1  C   UNL d   1      -0.683   1.158   2.835  0.00  0.00    -0.002 A 
ATOM      2  C1  UNL d   1       0.651   1.255   2.466  0.00  0.00     0.010 A 
ATOM      3  C2  UNL d   1       1.120   0.610   1.320  0.00  0.00     0.041 A 
ATOM      4  C3  UNL d   1       0.216  -0.141   0.543  0.00  0.00    -0.075 A 
ATOM      5  S   UNL d   1       0.564  -1.015  -0.901  0.00  0.00     0.015 SA
ATOM      6  C4  UNL d   1      -1.050  -1.538  -1.063  0.00  0.00     0.022 A 
ATOM      7  C5  UNL d   1      -1.849  -1.066  -0.049  0.00  0.00     0.026 A 
ATOM      8  C6  UNL d   1      -1.133  -0.253   0.894  0.00  0.00    -0.082 A 
ATOM      9  C7  UNL d   1      -1.577   0.413   2.062  0.00  0.00     0.045 A 
ENDROOT
TORSDOF 0
ENDMDL
