MODEL 1
REMARK minimizedAffinity -2.7294054
REMARK minimizedRMSD -1
REMARK  0 active torsions:
REMARK  status: ('A' for Active; 'I' for Inactive)
ROOT
ATOM      1  C1  DEN d   1       4.707   4.998  -1.718  0.00  0.00     0.130 A 
ATOM      2  C2  DEN d   1       5.645   4.409  -2.670  0.00  0.00    -0.031 A 
ATOM      3  C3  DEN d   1       5.513   2.940  -2.592  0.00  0.00     0.027 A 
ATOM      4  C4  DEN d   1       3.952   1.529  -1.101  0.00  0.00     0.027 A 
ATOM      5  C5  DEN d   1       2.984   1.582  -0.123  0.00  0.00    -0.003 A 
ATOM      6  C6  DEN d   1       2.550   2.766   0.412  0.00  0.00     0.001 A 
ATOM      7  C7  DEN d   1       3.053   3.949  -0.061  0.00  0.00     0.017 A 
ATOM      8  C8  DEN d   1       4.035   3.903  -1.042  0.00  0.00    -0.094 A 
ATOM      9  C9  DEN d   1       4.452   2.697  -1.578  0.00  0.00    -0.072 A 
ENDROOT
TORSDOF 0
ENDMDL
