MODEL 1
REMARK minimizedAffinity -3.91658854
REMARK minimizedRMSD -1
REMARK  0 active torsions:
REMARK  status: ('A' for Active; 'I' for Inactive)
ROOT
ATOM      1  C1  DEN d   1      -1.463  -1.994   1.187  0.00  0.00     0.130 A 
ATOM      2  C2  DEN d   1      -0.191  -2.232   1.864  0.00  0.00    -0.031 A 
ATOM      3  C3  DEN d   1       0.850  -1.454   1.164  0.00  0.00     0.027 A 
ATOM      4  C4  DEN d   1       0.618   0.092  -0.888  0.00  0.00     0.027 A 
ATOM      5  C5  DEN d   1      -0.264   0.600  -1.817  0.00  0.00    -0.003 A 
ATOM      6  C6  DEN d   1      -1.589   0.254  -1.830  0.00  0.00     0.001 A 
ATOM      7  C7  DEN d   1      -2.081  -0.588  -0.869  0.00  0.00     0.017 A 
ATOM      8  C8  DEN d   1      -1.197  -1.110   0.067  0.00  0.00    -0.094 A 
ATOM      9  C9  DEN d   1       0.137  -0.739   0.071  0.00  0.00    -0.072 A 
ENDROOT
TORSDOF 0
ENDMDL
