MODEL 1
REMARK minimizedAffinity 1.18366599
REMARK minimizedRMSD -1
REMARK  0 active torsions:
REMARK  status: ('A' for Active; 'I' for Inactive)
ROOT
ATOM      1  C1  DEN d   1      -2.165  -0.703  -1.013  0.00  0.00     0.130 A 
ATOM      2  C2  DEN d   1      -2.182  -0.053  -2.321  0.00  0.00    -0.031 A 
ATOM      3  C3  DEN d   1      -0.845   0.527  -2.560  0.00  0.00     0.027 A 
ATOM      4  C4  DEN d   1       1.240   0.478  -1.042  0.00  0.00     0.027 A 
ATOM      5  C5  DEN d   1       1.736   0.053   0.171  0.00  0.00    -0.003 A 
ATOM      6  C6  DEN d   1       0.963  -0.618   1.081  0.00  0.00     0.001 A 
ATOM      7  C7  DEN d   1      -0.336  -0.925   0.773  0.00  0.00     0.017 A 
ATOM      8  C8  DEN d   1      -0.845  -0.493  -0.445  0.00  0.00    -0.094 A 
ATOM      9  C9  DEN d   1      -0.045   0.174  -1.356  0.00  0.00    -0.072 A 
ENDROOT
TORSDOF 0
ENDMDL
