MODEL 1
REMARK minimizedAffinity -4.27913284
REMARK minimizedRMSD -1
REMARK  0 active torsions:
REMARK  status: ('A' for Active; 'I' for Inactive)
ROOT
ATOM      1  C1  DEN d   1       4.622   2.751  -2.110  0.00  0.00     0.130 A 
ATOM      2  C2  DEN d   1       4.802   4.163  -2.434  0.00  0.00    -0.031 A 
ATOM      3  C3  DEN d   1       4.053   4.959  -1.441  0.00  0.00     0.027 A 
ATOM      4  C4  DEN d   1       2.643   4.145   0.560  0.00  0.00     0.027 A 
ATOM      5  C5  DEN d   1       2.185   3.033   1.232  0.00  0.00    -0.003 A 
ATOM      6  C6  DEN d   1       2.478   1.760   0.821  0.00  0.00     0.001 A 
ATOM      7  C7  DEN d   1       3.286   1.566  -0.267  0.00  0.00     0.017 A 
ATOM      8  C8  DEN d   1       3.745   2.682  -0.955  0.00  0.00    -0.094 A 
ATOM      9  C9  DEN d   1       3.449   3.962  -0.517  0.00  0.00    -0.072 A 
ENDROOT
TORSDOF 0
ENDMDL
