MODEL 1
REMARK minimizedAffinity -1.36450911
REMARK minimizedRMSD -1
REMARK  0 active torsions:
REMARK  status: ('A' for Active; 'I' for Inactive)
ROOT
ATOM      1  C1  DEN d   1       0.918   0.315   0.144  0.00  0.00     0.130 A 
ATOM      2  C2  DEN d   1       0.662   1.268  -0.932  0.00  0.00    -0.031 A 
ATOM      3  C3  DEN d   1      -0.581   0.861  -1.618  0.00  0.00     0.027 A 
ATOM      4  C4  DEN d   1      -2.128  -1.141  -1.117  0.00  0.00     0.027 A 
ATOM      5  C5  DEN d   1      -2.318  -2.238  -0.306  0.00  0.00    -0.003 A 
ATOM      6  C6  DEN d   1      -1.432  -2.578   0.681  0.00  0.00     0.001 A 
ATOM      7  C7  DEN d   1      -0.337  -1.787   0.913  0.00  0.00     0.017 A 
ATOM      8  C8  DEN d   1      -0.136  -0.683   0.095  0.00  0.00    -0.094 A 
ATOM      9  C9  DEN d   1      -1.050  -0.349  -0.890  0.00  0.00    -0.072 A 
ENDROOT
TORSDOF 0
ENDMDL
