MODEL 1
REMARK minimizedAffinity -3.15631533
REMARK minimizedRMSD -1
REMARK  0 active torsions:
REMARK  status: ('A' for Active; 'I' for Inactive)
ROOT
ATOM      1  C1  DEN d   1      -2.069  -0.435  -1.370  0.00  0.00     0.130 A 
ATOM      2  C2  DEN d   1      -1.520   0.467  -2.379  0.00  0.00    -0.031 A 
ATOM      3  C3  DEN d   1      -0.101   0.710  -2.050  0.00  0.00     0.027 A 
ATOM      4  C4  DEN d   1       1.293  -0.222  -0.091  0.00  0.00     0.027 A 
ATOM      5  C5  DEN d   1       1.258  -1.018   1.033  0.00  0.00    -0.003 A 
ATOM      6  C6  DEN d   1       0.113  -1.644   1.449  0.00  0.00     0.001 A 
ATOM      7  C7  DEN d   1      -1.035  -1.519   0.712  0.00  0.00     0.017 A 
ATOM      8  C8  DEN d   1      -1.010  -0.712  -0.417  0.00  0.00    -0.094 A 
ATOM      9  C9  DEN d   1       0.161  -0.098  -0.829  0.00  0.00    -0.072 A 
ENDROOT
TORSDOF 0
ENDMDL
