MODEL 1
REMARK minimizedAffinity 6.1876626
REMARK minimizedRMSD -1
REMARK  0 active torsions:
REMARK  status: ('A' for Active; 'I' for Inactive)
ROOT
ATOM      1  C1  DEN d   1      -1.555   0.753  -3.331  0.00  0.00     0.130 A 
ATOM      2  C2  DEN d   1      -2.158   1.822  -2.540  0.00  0.00    -0.031 A 
ATOM      3  C3  DEN d   1      -2.705   1.224  -1.305  0.00  0.00     0.027 A 
ATOM      4  C4  DEN d   1      -2.673  -1.240  -0.544  0.00  0.00     0.027 A 
ATOM      5  C5  DEN d   1      -2.283  -2.516  -0.887  0.00  0.00    -0.003 A 
ATOM      6  C6  DEN d   1      -1.658  -2.794  -2.074  0.00  0.00     0.001 A 
ATOM      7  C7  DEN d   1      -1.365  -1.776  -2.941  0.00  0.00     0.017 A 
ATOM      8  C8  DEN d   1      -1.762  -0.488  -2.606  0.00  0.00    -0.094 A 
ATOM      9  C9  DEN d   1      -2.381  -0.225  -1.396  0.00  0.00    -0.072 A 
ENDROOT
TORSDOF 0
ENDMDL
