MODEL 1
REMARK minimizedAffinity -3.48079205
REMARK minimizedRMSD -1
REMARK  0 active torsions:
REMARK  status: ('A' for Active; 'I' for Inactive)
ROOT
ATOM      1  C1  DEN d   1       2.330   3.130  -0.096  0.00  0.00     0.130 A 
ATOM      2  C2  DEN d   1       3.500   3.291   0.762  0.00  0.00    -0.031 A 
ATOM      3  C3  DEN d   1       3.710   2.023   1.491  0.00  0.00     0.027 A 
ATOM      4  C4  DEN d   1       2.346  -0.163   1.369  0.00  0.00     0.027 A 
ATOM      5  C5  DEN d   1       1.257  -0.776   0.790  0.00  0.00    -0.003 A 
ATOM      6  C6  DEN d   1       0.436  -0.124  -0.092  0.00  0.00     0.001 A 
ATOM      7  C7  DEN d   1       0.718   1.166  -0.455  0.00  0.00     0.017 A 
ATOM      8  C8  DEN d   1       1.810   1.793   0.130  0.00  0.00    -0.094 A 
ATOM      9  C9  DEN d   1       2.635   1.114   1.010  0.00  0.00    -0.072 A 
ENDROOT
TORSDOF 0
ENDMDL
