MODEL 1
REMARK minimizedAffinity -3.35699582
REMARK minimizedRMSD -1
REMARK  0 active torsions:
REMARK  status: ('A' for Active; 'I' for Inactive)
ROOT
ATOM      1  C1  DEN d   1       3.570   2.814  -0.577  0.00  0.00     0.130 A 
ATOM      2  C2  DEN d   1       3.611   4.116   0.082  0.00  0.00    -0.031 A 
ATOM      3  C3  DEN d   1       3.018   3.967   1.426  0.00  0.00     0.027 A 
ATOM      4  C4  DEN d   1       2.049   1.855   2.546  0.00  0.00     0.027 A 
ATOM      5  C5  DEN d   1       1.784   0.514   2.374  0.00  0.00    -0.003 A 
ATOM      6  C6  DEN d   1       2.063  -0.141   1.204  0.00  0.00     0.001 A 
ATOM      7  C7  DEN d   1       2.665   0.534   0.175  0.00  0.00     0.017 A 
ATOM      8  C8  DEN d   1       2.928   1.888   0.338  0.00  0.00    -0.094 A 
ATOM      9  C9  DEN d   1       2.650   2.529   1.533  0.00  0.00    -0.072 A 
ENDROOT
TORSDOF 0
ENDMDL
