MODEL 1
REMARK minimizedAffinity -4.44813585
REMARK minimizedRMSD -1
REMARK  0 active torsions:
REMARK  status: ('A' for Active; 'I' for Inactive)
ROOT
ATOM      1  C1  DEN d   1       0.621  -0.599   1.076  0.00  0.00     0.130 A 
ATOM      2  C2  DEN d   1       1.899   0.073   0.859  0.00  0.00    -0.031 A 
ATOM      3  C3  DEN d   1       1.823   0.796  -0.427  0.00  0.00     0.027 A 
ATOM      4  C4  DEN d   1      -0.142   0.943  -2.091  0.00  0.00     0.027 A 
ATOM      5  C5  DEN d   1      -1.431   0.530  -2.345  0.00  0.00    -0.003 A 
ATOM      6  C6  DEN d   1      -2.109  -0.309  -1.501  0.00  0.00     0.001 A 
ATOM      7  C7  DEN d   1      -1.516  -0.726  -0.338  0.00  0.00     0.017 A 
ATOM      8  C8  DEN d   1      -0.214  -0.319  -0.079  0.00  0.00    -0.094 A 
ATOM      9  C9  DEN d   1       0.450   0.539  -0.939  0.00  0.00    -0.072 A 
ENDROOT
TORSDOF 0
ENDMDL
