MODEL 1
REMARK minimizedAffinity -1.24226892
REMARK minimizedRMSD -1
REMARK  0 active torsions:
REMARK  status: ('A' for Active; 'I' for Inactive)
ROOT
ATOM      1  C1  DEN d   1       0.684  -0.450   0.796  0.00  0.00     0.130 A 
ATOM      2  C2  DEN d   1       1.615   0.595   0.380  0.00  0.00    -0.031 A 
ATOM      3  C3  DEN d   1       1.098   1.198  -0.864  0.00  0.00     0.027 A 
ATOM      4  C4  DEN d   1      -1.045   0.622  -2.179  0.00  0.00     0.027 A 
ATOM      5  C5  DEN d   1      -2.148  -0.203  -2.222  0.00  0.00    -0.003 A 
ATOM      6  C6  DEN d   1      -2.365  -1.182  -1.289  0.00  0.00     0.001 A 
ATOM      7  C7  DEN d   1      -1.489  -1.332  -0.246  0.00  0.00     0.017 A 
ATOM      8  C8  DEN d   1      -0.371  -0.509  -0.200  0.00  0.00    -0.094 A 
ATOM      9  C9  DEN d   1      -0.176   0.483  -1.146  0.00  0.00    -0.072 A 
ENDROOT
TORSDOF 0
ENDMDL
