MODEL 1
REMARK minimizedAffinity -4.67777777
REMARK minimizedRMSD -1
REMARK  0 active torsions:
REMARK  status: ('A' for Active; 'I' for Inactive)
ROOT
ATOM      1  C1  DEN d   1      -0.570   0.967  -0.854  0.00  0.00     0.130 A 
ATOM      2  C2  DEN d   1       0.698   0.848  -0.138  0.00  0.00    -0.031 A 
ATOM      3  C3  DEN d   1       0.697  -0.443   0.579  0.00  0.00     0.027 A 
ATOM      4  C4  DEN d   1      -1.131  -2.261   0.647  0.00  0.00     0.027 A 
ATOM      5  C5  DEN d   1      -2.391  -2.603   0.206  0.00  0.00    -0.003 A 
ATOM      6  C6  DEN d   1      -3.139  -1.772  -0.584  0.00  0.00     0.001 A 
ATOM      7  C7  DEN d   1      -2.616  -0.575  -0.996  0.00  0.00     0.017 A 
ATOM      8  C8  DEN d   1      -1.350  -0.219  -0.550  0.00  0.00    -0.094 A 
ATOM      9  C9  DEN d   1      -0.604  -1.079   0.239  0.00  0.00    -0.072 A 
ENDROOT
TORSDOF 0
ENDMDL
