MODEL 1
REMARK minimizedAffinity -3.46589088
REMARK minimizedRMSD -1
REMARK  0 active torsions:
REMARK  status: ('A' for Active; 'I' for Inactive)
ROOT
ATOM      1  C1  DEN d   1       1.152  -0.119   1.065  0.00  0.00     0.130 A 
ATOM      2  C2  DEN d   1       1.932   0.976   0.496  0.00  0.00    -0.031 A 
ATOM      3  C3  DEN d   1       1.178   1.530  -0.646  0.00  0.00     0.027 A 
ATOM      4  C4  DEN d   1      -1.114   0.804  -1.581  0.00  0.00     0.027 A 
ATOM      5  C5  DEN d   1      -2.154  -0.087  -1.437  0.00  0.00    -0.003 A 
ATOM      6  C6  DEN d   1      -2.150  -1.065  -0.478  0.00  0.00     0.001 A 
ATOM      7  C7  DEN d   1      -1.104  -1.147   0.404  0.00  0.00     0.017 A 
ATOM      8  C8  DEN d   1      -0.049  -0.256   0.260  0.00  0.00    -0.094 A 
ATOM      9  C9  DEN d   1      -0.077   0.733  -0.708  0.00  0.00    -0.072 A 
ENDROOT
TORSDOF 0
ENDMDL
