MODEL 1
REMARK minimizedAffinity -1.88991416
REMARK minimizedRMSD -1
REMARK  0 active torsions:
REMARK  status: ('A' for Active; 'I' for Inactive)
ROOT
ATOM      1  C1  DEN d   1       1.048  -0.297   0.937  0.00  0.00     0.130 A 
ATOM      2  C2  DEN d   1       1.927   0.829   0.632  0.00  0.00    -0.031 A 
ATOM      3  C3  DEN d   1       1.385   1.523  -0.553  0.00  0.00     0.027 A 
ATOM      4  C4  DEN d   1      -0.721   0.970  -1.936  0.00  0.00     0.027 A 
ATOM      5  C5  DEN d   1      -1.780   0.100  -2.068  0.00  0.00    -0.003 A 
ATOM      6  C6  DEN d   1      -1.951  -0.974  -1.236  0.00  0.00     0.001 A 
ATOM      7  C7  DEN d   1      -1.073  -1.181  -0.205  0.00  0.00     0.017 A 
ATOM      8  C8  DEN d   1       0.002  -0.312  -0.070  0.00  0.00    -0.094 A 
ATOM      9  C9  DEN d   1       0.150   0.776  -0.914  0.00  0.00    -0.072 A 
ENDROOT
TORSDOF 0
ENDMDL
