MODEL 1
REMARK minimizedAffinity -1.98556566
REMARK minimizedRMSD -1
REMARK  0 active torsions:
REMARK  status: ('A' for Active; 'I' for Inactive)
ROOT
ATOM      1  C1  DEN d   1       4.011   2.747  -1.969  0.00  0.00     0.130 A 
ATOM      2  C2  DEN d   1       4.367   4.150  -2.163  0.00  0.00    -0.031 A 
ATOM      3  C3  DEN d   1       3.990   4.889  -0.941  0.00  0.00     0.027 A 
ATOM      4  C4  DEN d   1       2.900   4.001   1.222  0.00  0.00     0.027 A 
ATOM      5  C5  DEN d   1       2.402   2.881   1.850  0.00  0.00    -0.003 A 
ATOM      6  C6  DEN d   1       2.374   1.655   1.241  0.00  0.00     0.001 A 
ATOM      7  C7  DEN d   1       2.895   1.510  -0.018  0.00  0.00     0.017 A 
ATOM      8  C8  DEN d   1       3.392   2.636  -0.660  0.00  0.00    -0.094 A 
ATOM      9  C9  DEN d   1       3.423   3.865  -0.023  0.00  0.00    -0.072 A 
ENDROOT
TORSDOF 0
ENDMDL
