MODEL 1
REMARK minimizedAffinity 12.7030249
REMARK minimizedRMSD -1
REMARK  0 active torsions:
REMARK  status: ('A' for Active; 'I' for Inactive)
ROOT
ATOM      1  C   UNL d   1       4.229  -5.261   1.432  0.00  0.00    -0.002 A 
ATOM      2  C1  UNL d   1       4.521  -5.154   0.080  0.00  0.00     0.010 A 
ATOM      3  C2  UNL d   1       3.883  -4.196  -0.711  0.00  0.00     0.041 A 
ATOM      4  C3  UNL d   1       2.940  -3.337  -0.113  0.00  0.00    -0.075 A 
ATOM      5  S   UNL d   1       2.036  -2.088  -0.884  0.00  0.00     0.015 SA
ATOM      6  C4  UNL d   1       1.241  -1.666   0.563  0.00  0.00     0.022 A 
ATOM      7  C5  UNL d   1       1.643  -2.450   1.619  0.00  0.00     0.026 A 
ATOM      8  C6  UNL d   1       2.629  -3.425   1.247  0.00  0.00    -0.082 A 
ATOM      9  C7  UNL d   1       3.292  -4.408   2.022  0.00  0.00     0.045 A 
ENDROOT
TORSDOF 0
ENDMDL
