MODEL 1
REMARK minimizedAffinity 9.66732121
REMARK minimizedRMSD -1
REMARK  0 active torsions:
REMARK  status: ('A' for Active; 'I' for Inactive)
ROOT
ATOM      1  C   UNL d   1       3.373   2.173   3.377  0.00  0.00    -0.002 A 
ATOM      2  C1  UNL d   1       4.488   2.553   2.643  0.00  0.00     0.010 A 
ATOM      3  C2  UNL d   1       5.220   3.687   3.001  0.00  0.00     0.041 A 
ATOM      4  C3  UNL d   1       4.810   4.438   4.119  0.00  0.00    -0.075 A 
ATOM      5  S   UNL d   1       5.554   5.863   4.744  0.00  0.00     0.015 SA
ATOM      6  C4  UNL d   1       4.409   6.000   5.999  0.00  0.00     0.022 A 
ATOM      7  C5  UNL d   1       3.475   4.992   5.958  0.00  0.00     0.026 A 
ATOM      8  C6  UNL d   1       3.691   4.075   4.874  0.00  0.00    -0.082 A 
ATOM      9  C7  UNL d   1       2.969   2.921   4.486  0.00  0.00     0.045 A 
ENDROOT
TORSDOF 0
ENDMDL
