MODEL 1
REMARK minimizedAffinity 4.76921844
REMARK minimizedRMSD -1
REMARK  0 active torsions:
REMARK  status: ('A' for Active; 'I' for Inactive)
ROOT
ATOM      1  C   UNL d   1       1.174   2.260   2.807  0.00  0.00    -0.002 A 
ATOM      2  C1  UNL d   1       1.961   3.024   1.957  0.00  0.00     0.010 A 
ATOM      3  C2  UNL d   1       2.562   4.200   2.410  0.00  0.00     0.041 A 
ATOM      4  C3  UNL d   1       2.358   4.598   3.746  0.00  0.00    -0.075 A 
ATOM      5  S   UNL d   1       2.995   6.000   4.522  0.00  0.00     0.015 SA
ATOM      6  C4  UNL d   1       2.238   5.617   6.000  0.00  0.00     0.022 A 
ATOM      7  C5  UNL d   1       1.513   4.452   5.922  0.00  0.00     0.026 A 
ATOM      8  C6  UNL d   1       1.570   3.845   4.622  0.00  0.00    -0.082 A 
ATOM      9  C7  UNL d   1       0.974   2.658   4.132  0.00  0.00     0.045 A 
ENDROOT
TORSDOF 0
ENDMDL
