MODEL 1
REMARK minimizedAffinity 5.41851139
REMARK minimizedRMSD -1
REMARK  0 active torsions:
REMARK  status: ('A' for Active; 'I' for Inactive)
ROOT
ATOM      1  C   UNL d   1       6.000   5.999   5.171  0.00  0.00    -0.002 A 
ATOM      2  C1  UNL d   1       5.912   5.726   3.813  0.00  0.00     0.010 A 
ATOM      3  C2  UNL d   1       4.678   5.446   3.223  0.00  0.00     0.041 A 
ATOM      4  C3  UNL d   1       3.522   5.448   4.028  0.00  0.00    -0.075 A 
ATOM      5  S   UNL d   1       1.903   5.134   3.524  0.00  0.00     0.015 SA
ATOM      6  C4  UNL d   1       1.290   5.357   5.098  0.00  0.00     0.022 A 
ATOM      7  C5  UNL d   1       2.282   5.663   5.999  0.00  0.00     0.026 A 
ATOM      8  C6  UNL d   1       3.584   5.721   5.398  0.00  0.00    -0.082 A 
ATOM      9  C7  UNL d   1       4.851   6.000   5.966  0.00  0.00     0.045 A 
ENDROOT
TORSDOF 0
ENDMDL
