MODEL 1
REMARK minimizedAffinity 34.8486366
REMARK minimizedRMSD -1
REMARK  0 active torsions:
REMARK  status: ('A' for Active; 'I' for Inactive)
ROOT
ATOM      1  C   UNL d   1       5.999   5.040   1.933  0.00  0.00    -0.002 A 
ATOM      2  C1  UNL d   1       4.980   4.344   2.569  0.00  0.00     0.010 A 
ATOM      3  C2  UNL d   1       3.772   4.099   1.914  0.00  0.00     0.041 A 
ATOM      4  C3  UNL d   1       3.604   4.568   0.596  0.00  0.00    -0.075 A 
ATOM      5  S   UNL d   1       2.211   4.384  -0.403  0.00  0.00     0.015 SA
ATOM      6  C4  UNL d   1       2.936   5.224  -1.697  0.00  0.00     0.022 A 
ATOM      7  C5  UNL d   1       4.210   5.641  -1.392  0.00  0.00     0.026 A 
ATOM      8  C6  UNL d   1       4.616   5.270  -0.066  0.00  0.00    -0.082 A 
ATOM      9  C7  UNL d   1       5.829   5.503   0.626  0.00  0.00     0.045 A 
ENDROOT
TORSDOF 0
ENDMDL
