MODEL 1
REMARK minimizedAffinity 24.8015804
REMARK minimizedRMSD -1
REMARK  0 active torsions:
REMARK  status: ('A' for Active; 'I' for Inactive)
ROOT
ATOM      1  C   UNL d   1      -2.050  -1.269  -0.359  0.00  0.00    -0.002 A 
ATOM      2  C1  UNL d   1      -3.411  -1.532  -0.418  0.00  0.00     0.010 A 
ATOM      3  C2  UNL d   1      -4.265  -1.085   0.592  0.00  0.00     0.041 A 
ATOM      4  C3  UNL d   1      -3.722  -0.362   1.673  0.00  0.00    -0.075 A 
ATOM      5  S   UNL d   1      -4.576   0.284   3.024  0.00  0.00     0.015 SA
ATOM      6  C4  UNL d   1      -3.153   0.924   3.711  0.00  0.00     0.022 A 
ATOM      7  C5  UNL d   1      -2.045   0.660   2.942  0.00  0.00     0.026 A 
ATOM      8  C6  UNL d   1      -2.355  -0.085   1.754  0.00  0.00    -0.082 A 
ATOM      9  C7  UNL d   1      -1.515  -0.552   0.714  0.00  0.00     0.045 A 
ENDROOT
TORSDOF 0
ENDMDL
