MODEL 1
REMARK minimizedAffinity 18.8102608
REMARK minimizedRMSD -1
REMARK  0 active torsions:
REMARK  status: ('A' for Active; 'I' for Inactive)
ROOT
ATOM      1  C   UNL d   1       1.348  -2.796  -2.938  0.00  0.00    -0.002 A 
ATOM      2  C1  UNL d   1       0.617  -2.209  -3.960  0.00  0.00     0.010 A 
ATOM      3  C2  UNL d   1       0.341  -0.840  -3.941  0.00  0.00     0.041 A 
ATOM      4  C3  UNL d   1       0.819  -0.064  -2.867  0.00  0.00    -0.075 A 
ATOM      5  S   UNL d   1       0.605   1.630  -2.632  0.00  0.00     0.015 SA
ATOM      6  C4  UNL d   1       1.480   1.614  -1.170  0.00  0.00     0.022 A 
ATOM      7  C5  UNL d   1       1.931   0.355  -0.853  0.00  0.00     0.026 A 
ATOM      8  C6  UNL d   1       1.559  -0.633  -1.826  0.00  0.00    -0.082 A 
ATOM      9  C7  UNL d   1       1.821  -2.023  -1.874  0.00  0.00     0.045 A 
ENDROOT
TORSDOF 0
ENDMDL
