MODEL 1
REMARK minimizedAffinity 22.530386
REMARK minimizedRMSD -1
REMARK  0 active torsions:
REMARK  status: ('A' for Active; 'I' for Inactive)
ROOT
ATOM      1  C   UNL d   1      -1.924   5.717   5.937  0.00  0.00    -0.002 A 
ATOM      2  C1  UNL d   1      -3.217   5.243   5.765  0.00  0.00     0.010 A 
ATOM      3  C2  UNL d   1      -3.733   5.034   4.484  0.00  0.00     0.041 A 
ATOM      4  C3  UNL d   1      -2.919   5.311   3.368  0.00  0.00    -0.075 A 
ATOM      5  S   UNL d   1      -3.338   5.130   1.706  0.00  0.00     0.015 SA
ATOM      6  C4  UNL d   1      -1.811   5.676   1.184  0.00  0.00     0.022 A 
ATOM      7  C5  UNL d   1      -0.988   5.993   2.239  0.00  0.00     0.026 A 
ATOM      8  C6  UNL d   1      -1.614   5.788   3.516  0.00  0.00    -0.082 A 
ATOM      9  C7  UNL d   1      -1.120   5.990   4.827  0.00  0.00     0.045 A 
ENDROOT
TORSDOF 0
ENDMDL
