MODEL 1
REMARK minimizedAffinity 24.8444004
REMARK minimizedRMSD -1
REMARK  0 active torsions:
REMARK  status: ('A' for Active; 'I' for Inactive)
ROOT
ATOM      1  C   UNL d   1      -5.185  -0.626   5.256  0.00  0.00    -0.002 A 
ATOM      2  C1  UNL d   1      -5.999  -0.899   4.166  0.00  0.00     0.010 A 
ATOM      3  C2  UNL d   1      -5.494  -0.826   2.866  0.00  0.00     0.041 A 
ATOM      4  C3  UNL d   1      -4.144  -0.472   2.679  0.00  0.00    -0.075 A 
ATOM      5  S   UNL d   1      -3.307  -0.321   1.179  0.00  0.00     0.015 SA
ATOM      6  C4  UNL d   1      -1.849   0.109   1.950  0.00  0.00     0.022 A 
ATOM      7  C5  UNL d   1      -1.979   0.141   3.318  0.00  0.00     0.026 A 
ATOM      8  C6  UNL d   1      -3.303  -0.194   3.761  0.00  0.00    -0.082 A 
ATOM      9  C7  UNL d   1      -3.845  -0.276   5.066  0.00  0.00     0.045 A 
ENDROOT
TORSDOF 0
ENDMDL
