MODEL 1
REMARK minimizedAffinity 13.8639002
REMARK minimizedRMSD -1
REMARK  0 active torsions:
REMARK  status: ('A' for Active; 'I' for Inactive)
ROOT
ATOM      1  C   UNL d   1       2.276   4.824  -0.871  0.00  0.00    -0.002 A 
ATOM      2  C1  UNL d   1       3.295   5.592  -1.417  0.00  0.00     0.010 A 
ATOM      3  C2  UNL d   1       4.375   6.000  -0.632  0.00  0.00     0.041 A 
ATOM      4  C3  UNL d   1       4.416   5.617   0.723  0.00  0.00    -0.075 A 
ATOM      5  S   UNL d   1       5.640   6.000   1.875  0.00  0.00     0.015 SA
ATOM      6  C4  UNL d   1       4.840   5.152   3.119  0.00  0.00     0.022 A 
ATOM      7  C5  UNL d   1       3.666   4.585   2.683  0.00  0.00     0.026 A 
ATOM      8  C6  UNL d   1       3.402   4.843   1.296  0.00  0.00    -0.082 A 
ATOM      9  C7  UNL d   1       2.320   4.447   0.474  0.00  0.00     0.045 A 
ENDROOT
TORSDOF 0
ENDMDL
