MODEL 1
REMARK minimizedAffinity 18.493742
REMARK minimizedRMSD -1
REMARK  0 active torsions:
REMARK  status: ('A' for Active; 'I' for Inactive)
ROOT
ATOM      1  C   UNL d   1       5.998  -5.966   4.938  0.00  0.00    -0.002 A 
ATOM      2  C1  UNL d   1       4.915  -5.829   5.795  0.00  0.00     0.010 A 
ATOM      3  C2  UNL d   1       3.619  -5.719   5.289  0.00  0.00     0.041 A 
ATOM      4  C3  UNL d   1       3.427  -5.751   3.893  0.00  0.00    -0.075 A 
ATOM      5  S   UNL d   1       1.929  -5.634   3.047  0.00  0.00     0.015 SA
ATOM      6  C4  UNL d   1       2.691  -5.764   1.528  0.00  0.00     0.022 A 
ATOM      7  C5  UNL d   1       4.055  -5.894   1.645  0.00  0.00     0.026 A 
ATOM      8  C6  UNL d   1       4.501  -5.889   3.010  0.00  0.00    -0.082 A 
ATOM      9  C7  UNL d   1       5.804  -5.998   3.554  0.00  0.00     0.045 A 
ENDROOT
TORSDOF 0
ENDMDL
