MODEL 1
REMARK minimizedAffinity 0.0729941428
REMARK minimizedRMSD -1
REMARK  0 active torsions:
REMARK  status: ('A' for Active; 'I' for Inactive)
ROOT
ATOM      1  C   UNL d   1       3.084   5.623  -1.869  0.00  0.00    -0.002 A 
ATOM      2  C1  UNL d   1       4.407   6.000  -2.052  0.00  0.00     0.010 A 
ATOM      3  C2  UNL d   1       5.301   6.000  -0.980  0.00  0.00     0.041 A 
ATOM      4  C3  UNL d   1       4.839   5.608   0.292  0.00  0.00    -0.075 A 
ATOM      5  S   UNL d   1       5.754   5.529   1.751  0.00  0.00     0.015 SA
ATOM      6  C4  UNL d   1       4.411   4.992   2.652  0.00  0.00     0.022 A 
ATOM      7  C5  UNL d   1       3.283   4.871   1.875  0.00  0.00     0.026 A 
ATOM      8  C6  UNL d   1       3.512   5.223   0.502  0.00  0.00    -0.082 A 
ATOM      9  C7  UNL d   1       2.630   5.235  -0.606  0.00  0.00     0.045 A 
ENDROOT
TORSDOF 0
ENDMDL
