MODEL 1
REMARK minimizedAffinity 12.9808311
REMARK minimizedRMSD -1
REMARK  0 active torsions:
REMARK  status: ('A' for Active; 'I' for Inactive)
ROOT
ATOM      1  C   UNL d   1       1.977   2.399  -1.977  0.00  0.00    -0.002 A 
ATOM      2  C1  UNL d   1       1.051   2.530  -3.001  0.00  0.00     0.010 A 
ATOM      3  C2  UNL d   1       0.453   1.402  -3.567  0.00  0.00     0.041 A 
ATOM      4  C3  UNL d   1       0.803   0.128  -3.079  0.00  0.00    -0.075 A 
ATOM      5  S   UNL d   1       0.199  -1.394  -3.619  0.00  0.00     0.015 SA
ATOM      6  C4  UNL d   1       1.156  -2.254  -2.501  0.00  0.00     0.022 A 
ATOM      7  C5  UNL d   1       1.924  -1.417  -1.728  0.00  0.00     0.026 A 
ATOM      8  C6  UNL d   1       1.733  -0.030  -2.048  0.00  0.00    -0.082 A 
ATOM      9  C7  UNL d   1       2.323   1.133  -1.496  0.00  0.00     0.045 A 
ENDROOT
TORSDOF 0
ENDMDL
