MODEL 1
REMARK minimizedAffinity 11.8088017
REMARK minimizedRMSD -1
REMARK  0 active torsions:
REMARK  status: ('A' for Active; 'I' for Inactive)
ROOT
ATOM      1  C   UNL d   1       4.166  -5.225   4.846  0.00  0.00    -0.002 A 
ATOM      2  C1  UNL d   1       5.310  -5.232   5.631  0.00  0.00     0.010 A 
ATOM      3  C2  UNL d   1       5.938  -4.036   5.982  0.00  0.00     0.041 A 
ATOM      4  C3  UNL d   1       5.391  -2.820   5.528  0.00  0.00    -0.075 A 
ATOM      5  S   UNL d   1       5.989  -1.232   5.834  0.00  0.00     0.015 SA
ATOM      6  C4  UNL d   1       4.739  -0.506   4.931  0.00  0.00     0.022 A 
ATOM      7  C5  UNL d   1       3.878  -1.438   4.401  0.00  0.00     0.026 A 
ATOM      8  C6  UNL d   1       4.239  -2.786   4.737  0.00  0.00    -0.082 A 
ATOM      9  C7  UNL d   1       3.625  -4.016   4.398  0.00  0.00     0.045 A 
ENDROOT
TORSDOF 0
ENDMDL
