MODEL 1
REMARK minimizedAffinity 2.30323315
REMARK minimizedRMSD -1
REMARK  0 active torsions:
REMARK  status: ('A' for Active; 'I' for Inactive)
ROOT
ATOM      1  C   UNL d   1       4.248  -0.745   4.127  0.00  0.00    -0.002 A 
ATOM      2  C1  UNL d   1       5.391  -0.580   4.896  0.00  0.00     0.010 A 
ATOM      3  C2  UNL d   1       5.997  -1.677   5.513  0.00  0.00     0.041 A 
ATOM      4  C3  UNL d   1       5.430  -2.955   5.341  0.00  0.00    -0.075 A 
ATOM      5  S   UNL d   1       6.000  -4.442   6.000  0.00  0.00     0.015 SA
ATOM      6  C4  UNL d   1       4.740  -5.332   5.275  0.00  0.00     0.022 A 
ATOM      7  C5  UNL d   1       3.896  -4.530   4.545  0.00  0.00     0.026 A 
ATOM      8  C6  UNL d   1       4.280  -3.147   4.570  0.00  0.00    -0.082 A 
ATOM      9  C7  UNL d   1       3.688  -2.015   3.958  0.00  0.00     0.045 A 
ENDROOT
TORSDOF 0
ENDMDL
