MODEL 1
REMARK minimizedAffinity 10.6897087
REMARK minimizedRMSD -1
REMARK  0 active torsions:
REMARK  status: ('A' for Active; 'I' for Inactive)
ROOT
ATOM      1  C   UNL d   1      -1.488   5.979   4.767  0.00  0.00    -0.002 A 
ATOM      2  C1  UNL d   1      -2.180   5.971   5.970  0.00  0.00     0.010 A 
ATOM      3  C2  UNL d   1      -3.574   5.897   5.987  0.00  0.00     0.041 A 
ATOM      4  C3  UNL d   1      -4.268   5.829   4.763  0.00  0.00    -0.075 A 
ATOM      5  S   UNL d   1      -5.975   5.732   4.539  0.00  0.00     0.015 SA
ATOM      6  C4  UNL d   1      -5.825   5.699   2.842  0.00  0.00     0.022 A 
ATOM      7  C5  UNL d   1      -4.513   5.759   2.438  0.00  0.00     0.026 A 
ATOM      8  C6  UNL d   1      -3.593   5.835   3.539  0.00  0.00    -0.082 A 
ATOM      9  C7  UNL d   1      -2.180   5.912   3.555  0.00  0.00     0.045 A 
ENDROOT
TORSDOF 0
ENDMDL
