MODEL 1
REMARK minimizedAffinity 17.3605919
REMARK minimizedRMSD -1
REMARK  0 active torsions:
REMARK  status: ('A' for Active; 'I' for Inactive)
ROOT
ATOM      1  C   UNL d   1       5.339  -0.025   4.264  0.00  0.00    -0.002 A 
ATOM      2  C1  UNL d   1       4.191  -0.396   3.578  0.00  0.00     0.010 A 
ATOM      3  C2  UNL d   1       3.680  -1.690   3.695  0.00  0.00     0.041 A 
ATOM      4  C3  UNL d   1       4.347  -2.613   4.524  0.00  0.00    -0.075 A 
ATOM      5  S   UNL d   1       3.903  -4.253   4.821  0.00  0.00     0.015 SA
ATOM      6  C4  UNL d   1       5.227  -4.499   5.866  0.00  0.00     0.022 A 
ATOM      7  C5  UNL d   1       5.999  -3.369   5.996  0.00  0.00     0.026 A 
ATOM      8  C6  UNL d   1       5.504  -2.263   5.225  0.00  0.00    -0.082 A 
ATOM      9  C7  UNL d   1       5.998  -0.944   5.084  0.00  0.00     0.045 A 
ENDROOT
TORSDOF 0
ENDMDL
