MODEL 1
REMARK minimizedAffinity 13.0820866
REMARK minimizedRMSD -1
REMARK  0 active torsions:
REMARK  status: ('A' for Active; 'I' for Inactive)
ROOT
ATOM      1  C   UNL d   1       0.513   0.827  -3.174  0.00  0.00    -0.002 A 
ATOM      2  C1  UNL d   1       1.188   0.271  -2.097  0.00  0.00     0.010 A 
ATOM      3  C2  UNL d   1       1.898   1.081  -1.208  0.00  0.00     0.041 A 
ATOM      4  C3  UNL d   1       1.916   2.474  -1.422  0.00  0.00    -0.075 A 
ATOM      5  S   UNL d   1       2.718   3.662  -0.464  0.00  0.00     0.015 SA
ATOM      6  C4  UNL d   1       2.182   4.935  -1.462  0.00  0.00     0.022 A 
ATOM      7  C5  UNL d   1       1.410   4.483  -2.505  0.00  0.00     0.026 A 
ATOM      8  C6  UNL d   1       1.243   3.057  -2.499  0.00  0.00    -0.082 A 
ATOM      9  C7  UNL d   1       0.534   2.208  -3.383  0.00  0.00     0.045 A 
ENDROOT
TORSDOF 0
ENDMDL
