MODEL 1
REMARK minimizedAffinity 3.98894429
REMARK minimizedRMSD -1
REMARK  0 active torsions:
REMARK  status: ('A' for Active; 'I' for Inactive)
ROOT
ATOM      1  C   UNL d   1      -1.523  -0.345  -0.033  0.00  0.00    -0.002 A 
ATOM      2  C1  UNL d   1      -2.107   0.372  -1.068  0.00  0.00     0.010 A 
ATOM      3  C2  UNL d   1      -3.490   0.553  -1.114  0.00  0.00     0.041 A 
ATOM      4  C3  UNL d   1      -4.285  -0.003  -0.093  0.00  0.00    -0.075 A 
ATOM      5  S   UNL d   1      -6.000   0.092   0.058  0.00  0.00     0.015 SA
ATOM      6  C4  UNL d   1      -5.998  -0.817   1.500  0.00  0.00     0.022 A 
ATOM      7  C5  UNL d   1      -4.729  -1.192   1.871  0.00  0.00     0.026 A 
ATOM      8  C6  UNL d   1      -3.720  -0.728   0.960  0.00  0.00    -0.082 A 
ATOM      9  C7  UNL d   1      -2.315  -0.895   0.978  0.00  0.00     0.045 A 
ENDROOT
TORSDOF 0
ENDMDL
