MODEL 1
REMARK minimizedAffinity -3.17161226
REMARK minimizedRMSD -1
REMARK  0 active torsions:
REMARK  status: ('A' for Active; 'I' for Inactive)
ROOT
ATOM      1  C1  BNZ d   1       4.855  -5.179   4.693  0.00  0.00     0.000 A 
ATOM      2  C2  BNZ d   1       5.269  -5.241   3.389  0.00  0.00     0.000 A 
ATOM      3  C3  BNZ d   1       5.661  -4.112   2.724  0.00  0.00     0.000 A 
ATOM      4  C4  BNZ d   1       5.601  -2.919   3.351  0.00  0.00     0.000 A 
ATOM      5  C5  BNZ d   1       5.177  -2.840   4.663  0.00  0.00     0.000 A 
ATOM      6  C6  BNZ d   1       4.821  -3.983   5.340  0.00  0.00     0.000 A 
ENDROOT
TORSDOF 0
ENDMDL
