MODEL 1
REMARK minimizedAffinity -2.06366181
REMARK minimizedRMSD -1
REMARK  0 active torsions:
REMARK  status: ('A' for Active; 'I' for Inactive)
ROOT
ATOM      1  C1  BNZ d   1       5.993  -2.707   2.354  0.00  0.00     0.000 A 
ATOM      2  C2  BNZ d   1       5.988  -1.827   3.404  0.00  0.00     0.000 A 
ATOM      3  C3  BNZ d   1       6.000  -2.277   4.694  0.00  0.00     0.000 A 
ATOM      4  C4  BNZ d   1       5.975  -3.605   4.934  0.00  0.00     0.000 A 
ATOM      5  C5  BNZ d   1       5.970  -4.504   3.886  0.00  0.00     0.000 A 
ATOM      6  C6  BNZ d   1       5.998  -4.047   2.588  0.00  0.00     0.000 A 
ENDROOT
TORSDOF 0
ENDMDL
