MODEL 1
REMARK minimizedAffinity -2.9523797
REMARK minimizedRMSD -1
REMARK  0 active torsions:
REMARK  status: ('A' for Active; 'I' for Inactive)
ROOT
ATOM      1  C1  BNZ d   1       5.979  -4.075   3.700  0.00  0.00     0.000 A 
ATOM      2  C2  BNZ d   1       5.993  -4.557   4.982  0.00  0.00     0.000 A 
ATOM      3  C3  BNZ d   1       5.385  -3.869   5.995  0.00  0.00     0.000 A 
ATOM      4  C4  BNZ d   1       4.801  -2.682   5.733  0.00  0.00     0.000 A 
ATOM      5  C5  BNZ d   1       4.787  -2.178   4.448  0.00  0.00     0.000 A 
ATOM      6  C6  BNZ d   1       5.366  -2.892   3.423  0.00  0.00     0.000 A 
ENDROOT
TORSDOF 0
ENDMDL
