MODEL 1
REMARK minimizedAffinity -2.17175984
REMARK minimizedRMSD -1
REMARK  0 active torsions:
REMARK  status: ('A' for Active; 'I' for Inactive)
ROOT
ATOM      1  C1  BNZ d   1       5.991  -3.965   1.874  0.00  0.00     0.000 A 
ATOM      2  C2  BNZ d   1       5.999  -2.596   1.820  0.00  0.00     0.000 A 
ATOM      3  C3  BNZ d   1       5.644  -1.851   2.910  0.00  0.00     0.000 A 
ATOM      4  C4  BNZ d   1       5.244  -2.474   4.037  0.00  0.00     0.000 A 
ATOM      5  C5  BNZ d   1       5.223  -3.853   4.104  0.00  0.00     0.000 A 
ATOM      6  C6  BNZ d   1       5.618  -4.600   3.018  0.00  0.00     0.000 A 
ENDROOT
TORSDOF 0
ENDMDL
