MODEL 1
REMARK minimizedAffinity -3.11865783
REMARK minimizedRMSD -1
REMARK  0 active torsions:
REMARK  status: ('A' for Active; 'I' for Inactive)
ROOT
ATOM      1  C1  BNZ d   1       6.000  -2.814   2.554  0.00  0.00     0.000 A 
ATOM      2  C2  BNZ d   1       6.000  -2.252   3.802  0.00  0.00     0.000 A 
ATOM      3  C3  BNZ d   1       5.078  -2.628   4.739  0.00  0.00     0.000 A 
ATOM      4  C4  BNZ d   1       4.135  -3.535   4.414  0.00  0.00     0.000 A 
ATOM      5  C5  BNZ d   1       4.115  -4.103   3.156  0.00  0.00     0.000 A 
ATOM      6  C6  BNZ d   1       5.068  -3.751   2.228  0.00  0.00     0.000 A 
ENDROOT
TORSDOF 0
ENDMDL
