MODEL 1
REMARK minimizedAffinity -3.20468307
REMARK minimizedRMSD -1
REMARK  0 active torsions:
REMARK  status: ('A' for Active; 'I' for Inactive)
ROOT
ATOM      1  C1  BNZ d   1       5.999  -2.703   3.605  0.00  0.00     0.000 A 
ATOM      2  C2  BNZ d   1       4.871  -2.578   2.840  0.00  0.00     0.000 A 
ATOM      3  C3  BNZ d   1       3.636  -2.833   3.367  0.00  0.00     0.000 A 
ATOM      4  C4  BNZ d   1       3.534  -3.251   4.645  0.00  0.00     0.000 A 
ATOM      5  C5  BNZ d   1       4.663  -3.392   5.426  0.00  0.00     0.000 A 
ATOM      6  C6  BNZ d   1       5.902  -3.097   4.904  0.00  0.00     0.000 A 
ENDROOT
TORSDOF 0
ENDMDL
