MODEL 1
REMARK minimizedAffinity -3.15947604
REMARK minimizedRMSD -1
REMARK  0 active torsions:
REMARK  status: ('A' for Active; 'I' for Inactive)
ROOT
ATOM      1  C1  BNZ d   1       4.468  -4.481   4.771  0.00  0.00     0.000 A 
ATOM      2  C2  BNZ d   1       5.102  -4.764   3.590  0.00  0.00     0.000 A 
ATOM      3  C3  BNZ d   1       5.782  -3.793   2.910  0.00  0.00     0.000 A 
ATOM      4  C4  BNZ d   1       5.794  -2.532   3.389  0.00  0.00     0.000 A 
ATOM      5  C5  BNZ d   1       5.152  -2.229   4.573  0.00  0.00     0.000 A 
ATOM      6  C6  BNZ d   1       4.501  -3.217   5.276  0.00  0.00     0.000 A 
ENDROOT
TORSDOF 0
ENDMDL
