MODEL 1
REMARK minimizedAffinity -2.89315462
REMARK minimizedRMSD -1
REMARK  0 active torsions:
REMARK  status: ('A' for Active; 'I' for Inactive)
ROOT
ATOM      1  C1  BNZ d   1       4.906  -3.019   5.484  0.00  0.00     0.000 A 
ATOM      2  C2  BNZ d   1       4.920  -2.664   4.162  0.00  0.00     0.000 A 
ATOM      3  C3  BNZ d   1       5.448  -3.501   3.218  0.00  0.00     0.000 A 
ATOM      4  C4  BNZ d   1       5.998  -4.671   3.602  0.00  0.00     0.000 A 
ATOM      5  C5  BNZ d   1       6.000  -5.039   4.933  0.00  0.00     0.000 A 
ATOM      6  C6  BNZ d   1       5.432  -4.212   5.875  0.00  0.00     0.000 A 
ENDROOT
TORSDOF 0
ENDMDL
