MODEL 1
REMARK minimizedAffinity -2.75442052
REMARK minimizedRMSD -1
REMARK  0 active torsions:
REMARK  status: ('A' for Active; 'I' for Inactive)
ROOT
ATOM      1  C1  BNZ d   1       4.804  -3.179   5.718  0.00  0.00     0.000 A 
ATOM      2  C2  BNZ d   1       4.947  -4.535   5.850  0.00  0.00     0.000 A 
ATOM      3  C3  BNZ d   1       5.455  -5.288   4.828  0.00  0.00     0.000 A 
ATOM      4  C4  BNZ d   1       5.781  -4.691   3.664  0.00  0.00     0.000 A 
ATOM      5  C5  BNZ d   1       5.635  -3.327   3.512  0.00  0.00     0.000 A 
ATOM      6  C6  BNZ d   1       5.160  -2.567   4.556  0.00  0.00     0.000 A 
ENDROOT
TORSDOF 0
ENDMDL
