MODEL 1
REMARK minimizedAffinity -4.11440039
REMARK minimizedRMSD -1
REMARK  0 active torsions:
REMARK  status: ('A' for Active; 'I' for Inactive)
ROOT
ATOM      1  C1  BNZ d   1       4.450  -3.608   2.993  0.00  0.00     0.000 A 
ATOM      2  C2  BNZ d   1       3.097  -3.559   3.195  0.00  0.00     0.000 A 
ATOM      3  C3  BNZ d   1       2.578  -3.547   4.460  0.00  0.00     0.000 A 
ATOM      4  C4  BNZ d   1       3.409  -3.624   5.518  0.00  0.00     0.000 A 
ATOM      5  C5  BNZ d   1       4.776  -3.683   5.331  0.00  0.00     0.000 A 
ATOM      6  C6  BNZ d   1       5.297  -3.656   4.058  0.00  0.00     0.000 A 
ENDROOT
TORSDOF 0
ENDMDL
