MODEL 1
REMARK minimizedAffinity -3.35278583
REMARK minimizedRMSD -1
REMARK  0 active torsions:
REMARK  status: ('A' for Active; 'I' for Inactive)
ROOT
ATOM      1  C1  BNZ d   1       5.665  -5.029   3.541  0.00  0.00     0.000 A 
ATOM      2  C2  BNZ d   1       5.331  -4.321   4.665  0.00  0.00     0.000 A 
ATOM      3  C3  BNZ d   1       5.305  -2.954   4.649  0.00  0.00     0.000 A 
ATOM      4  C4  BNZ d   1       5.651  -2.298   3.523  0.00  0.00     0.000 A 
ATOM      5  C5  BNZ d   1       5.998  -2.997   2.385  0.00  0.00     0.000 A 
ATOM      6  C6  BNZ d   1       5.986  -4.373   2.393  0.00  0.00     0.000 A 
ENDROOT
TORSDOF 0
ENDMDL
