MODEL 1
REMARK minimizedAffinity -2.99660087
REMARK minimizedRMSD -1
REMARK  0 active torsions:
REMARK  status: ('A' for Active; 'I' for Inactive)
ROOT
ATOM      1  C1  BNZ d   1       4.849  -4.819   5.030  0.00  0.00     0.000 A 
ATOM      2  C2  BNZ d   1       5.383  -4.567   3.795  0.00  0.00     0.000 A 
ATOM      3  C3  BNZ d   1       5.976  -3.367   3.520  0.00  0.00     0.000 A 
ATOM      4  C4  BNZ d   1       5.999  -2.406   4.466  0.00  0.00     0.000 A 
ATOM      5  C5  BNZ d   1       5.456  -2.641   5.714  0.00  0.00     0.000 A 
ATOM      6  C6  BNZ d   1       4.895  -3.865   5.999  0.00  0.00     0.000 A 
ENDROOT
TORSDOF 0
ENDMDL
