MODEL 1
REMARK minimizedAffinity -2.7318933
REMARK minimizedRMSD -1
REMARK  0 active torsions:
REMARK  status: ('A' for Active; 'I' for Inactive)
ROOT
ATOM      1  C1  BNZ d   1       5.644  -2.723   4.341  0.00  0.00     0.000 A 
ATOM      2  C2  BNZ d   1       5.842  -3.001   3.015  0.00  0.00     0.000 A 
ATOM      3  C3  BNZ d   1       6.000  -4.289   2.585  0.00  0.00     0.000 A 
ATOM      4  C4  BNZ d   1       6.000  -5.293   3.486  0.00  0.00     0.000 A 
ATOM      5  C5  BNZ d   1       5.811  -5.028   4.828  0.00  0.00     0.000 A 
ATOM      6  C6  BNZ d   1       5.613  -3.734   5.251  0.00  0.00     0.000 A 
ENDROOT
TORSDOF 0
ENDMDL
