MODEL 1
REMARK minimizedAffinity -2.92689753
REMARK minimizedRMSD -1
REMARK  0 active torsions:
REMARK  status: ('A' for Active; 'I' for Inactive)
ROOT
ATOM      1  C1  BNZ d   1       5.625  -4.796   4.307  0.00  0.00     0.000 A 
ATOM      2  C2  BNZ d   1       5.890  -3.956   5.355  0.00  0.00     0.000 A 
ATOM      3  C3  BNZ d   1       5.928  -2.601   5.175  0.00  0.00     0.000 A 
ATOM      4  C4  BNZ d   1       5.741  -2.091   3.940  0.00  0.00     0.000 A 
ATOM      5  C5  BNZ d   1       5.482  -2.926   2.871  0.00  0.00     0.000 A 
ATOM      6  C6  BNZ d   1       5.406  -4.286   3.064  0.00  0.00     0.000 A 
ENDROOT
TORSDOF 0
ENDMDL
