MODEL 1
REMARK minimizedAffinity 1.91729939
REMARK minimizedRMSD -1
REMARK  0 active torsions:
REMARK  status: ('A' for Active; 'I' for Inactive)
ROOT
ATOM      1  C1  BNZ d   1       5.624  -2.228   2.301  0.00  0.00     0.000 A 
ATOM      2  C2  BNZ d   1       5.995  -3.200   1.409  0.00  0.00     0.000 A 
ATOM      3  C3  BNZ d   1       5.999  -4.518   1.772  0.00  0.00     0.000 A 
ATOM      4  C4  BNZ d   1       5.673  -4.859   3.035  0.00  0.00     0.000 A 
ATOM      5  C5  BNZ d   1       5.306  -3.890   3.948  0.00  0.00     0.000 A 
ATOM      6  C6  BNZ d   1       5.265  -2.568   3.569  0.00  0.00     0.000 A 
ENDROOT
TORSDOF 0
ENDMDL
