MODEL 1
REMARK minimizedAffinity -3.18677831
REMARK minimizedRMSD -1
REMARK  0 active torsions:
REMARK  status: ('A' for Active; 'I' for Inactive)
ROOT
ATOM      1  C1  BNZ d   1       6.000  -4.975   3.115  0.00  0.00     0.000 A 
ATOM      2  C2  BNZ d   1       5.970  -4.077   2.081  0.00  0.00     0.000 A 
ATOM      3  C3  BNZ d   1       5.834  -2.739   2.320  0.00  0.00     0.000 A 
ATOM      4  C4  BNZ d   1       5.687  -2.303   3.588  0.00  0.00     0.000 A 
ATOM      5  C5  BNZ d   1       5.705  -3.197   4.640  0.00  0.00     0.000 A 
ATOM      6  C6  BNZ d   1       5.882  -4.540   4.398  0.00  0.00     0.000 A 
ENDROOT
TORSDOF 0
ENDMDL
