MODEL 1
REMARK minimizedAffinity -2.5905323
REMARK minimizedRMSD -1
REMARK  0 active torsions:
REMARK  status: ('A' for Active; 'I' for Inactive)
ROOT
ATOM      1  C1  BNZ d   1       6.000  -2.188   4.606  0.00  0.00     0.000 A 
ATOM      2  C2  BNZ d   1       5.714  -2.706   5.841  0.00  0.00     0.000 A 
ATOM      3  C3  BNZ d   1       5.389  -4.025   5.988  0.00  0.00     0.000 A 
ATOM      4  C4  BNZ d   1       5.312  -4.815   4.897  0.00  0.00     0.000 A 
ATOM      5  C5  BNZ d   1       5.588  -4.305   3.644  0.00  0.00     0.000 A 
ATOM      6  C6  BNZ d   1       5.952  -2.985   3.504  0.00  0.00     0.000 A 
ENDROOT
TORSDOF 0
ENDMDL
