MODEL 1
REMARK minimizedAffinity -1.40799952
REMARK minimizedRMSD -1
REMARK  0 active torsions:
REMARK  status: ('A' for Active; 'I' for Inactive)
ROOT
ATOM      1  C1  BNZ d   1       0.511   1.078   0.402  0.00  0.00     0.000 A 
ATOM      2  C2  BNZ d   1      -0.529   1.870   0.811  0.00  0.00     0.000 A 
ATOM      3  C3  BNZ d   1      -1.441   1.413   1.720  0.00  0.00     0.000 A 
ATOM      4  C4  BNZ d   1      -1.336   0.153   2.189  0.00  0.00     0.000 A 
ATOM      5  C5  BNZ d   1      -0.299  -0.661   1.779  0.00  0.00     0.000 A 
ATOM      6  C6  BNZ d   1       0.640  -0.184   0.893  0.00  0.00     0.000 A 
ENDROOT
TORSDOF 0
ENDMDL
