MODEL 1
REMARK minimizedAffinity -1.25975204
REMARK minimizedRMSD -1
REMARK  0 active torsions:
REMARK  status: ('A' for Active; 'I' for Inactive)
ROOT
ATOM      1  C1  BNZ d   1       2.956  -0.918  -1.092  0.00  0.00     0.000 A 
ATOM      2  C2  BNZ d   1       2.276  -0.742   0.084  0.00  0.00     0.000 A 
ATOM      3  C3  BNZ d   1       1.816   0.493   0.448  0.00  0.00     0.000 A 
ATOM      4  C4  BNZ d   1       2.072   1.555  -0.342  0.00  0.00     0.000 A 
ATOM      5  C5  BNZ d   1       2.764   1.396  -1.526  0.00  0.00     0.000 A 
ATOM      6  C6  BNZ d   1       3.191   0.145  -1.909  0.00  0.00     0.000 A 
ENDROOT
TORSDOF 0
ENDMDL
