MODEL 1
REMARK minimizedAffinity 0.528290451
REMARK minimizedRMSD -1
REMARK  0 active torsions:
REMARK  status: ('A' for Active; 'I' for Inactive)
ROOT
ATOM      1  C1  BNZ d   1      -1.279   1.766   1.536  0.00  0.00     0.000 A 
ATOM      2  C2  BNZ d   1      -0.888   0.490   1.840  0.00  0.00     0.000 A 
ATOM      3  C3  BNZ d   1       0.316   0.005   1.411  0.00  0.00     0.000 A 
ATOM      4  C4  BNZ d   1       1.109   0.782   0.646  0.00  0.00     0.000 A 
ATOM      5  C5  BNZ d   1       0.725   2.068   0.322  0.00  0.00     0.000 A 
ATOM      6  C6  BNZ d   1      -0.470   2.566   0.788  0.00  0.00     0.000 A 
ENDROOT
TORSDOF 0
ENDMDL
