MODEL 1
REMARK minimizedAffinity 0.983805895
REMARK minimizedRMSD -1
REMARK  0 active torsions:
REMARK  status: ('A' for Active; 'I' for Inactive)
ROOT
ATOM      1  C1  BNZ d   1      -0.839   2.300   1.411  0.00  0.00     0.000 A 
ATOM      2  C2  BNZ d   1       0.410   1.783   1.192  0.00  0.00     0.000 A 
ATOM      3  C3  BNZ d   1       0.598   0.434   1.071  0.00  0.00     0.000 A 
ATOM      4  C4  BNZ d   1      -0.455  -0.397   1.210  0.00  0.00     0.000 A 
ATOM      5  C5  BNZ d   1      -1.719   0.108   1.440  0.00  0.00     0.000 A 
ATOM      6  C6  BNZ d   1      -1.911   1.468   1.522  0.00  0.00     0.000 A 
ENDROOT
TORSDOF 0
ENDMDL
