MODEL 1
REMARK minimizedAffinity -2.84079099
REMARK minimizedRMSD -1
REMARK  0 active torsions:
REMARK  status: ('A' for Active; 'I' for Inactive)
ROOT
ATOM      1  C1  BNZ d   1       0.400  -0.045   0.850  0.00  0.00     0.000 A 
ATOM      2  C2  BNZ d   1       0.320   1.317   0.976  0.00  0.00     0.000 A 
ATOM      3  C3  BNZ d   1      -0.816   1.910   1.452  0.00  0.00     0.000 A 
ATOM      4  C4  BNZ d   1      -1.883   1.146   1.763  0.00  0.00     0.000 A 
ATOM      5  C5  BNZ d   1      -1.821  -0.227   1.633  0.00  0.00     0.000 A 
ATOM      6  C6  BNZ d   1      -0.663  -0.824   1.190  0.00  0.00     0.000 A 
ENDROOT
TORSDOF 0
ENDMDL
