MODEL 1
REMARK minimizedAffinity -3.00678897
REMARK minimizedRMSD -1
REMARK  0 active torsions:
REMARK  status: ('A' for Active; 'I' for Inactive)
ROOT
ATOM      1  C1  BNZ d   1      -1.188   1.455   1.094  0.00  0.00     0.000 A 
ATOM      2  C2  BNZ d   1      -1.069   0.147   1.483  0.00  0.00     0.000 A 
ATOM      3  C3  BNZ d   1       0.136  -0.496   1.416  0.00  0.00     0.000 A 
ATOM      4  C4  BNZ d   1       1.209   0.156   0.924  0.00  0.00     0.000 A 
ATOM      5  C5  BNZ d   1       1.102   1.472   0.518  0.00  0.00     0.000 A 
ATOM      6  C6  BNZ d   1      -0.103   2.128   0.624  0.00  0.00     0.000 A 
ENDROOT
TORSDOF 0
ENDMDL
