MODEL 1
REMARK minimizedAffinity -1.02494895
REMARK minimizedRMSD -1
REMARK  0 active torsions:
REMARK  status: ('A' for Active; 'I' for Inactive)
ROOT
ATOM      1  C1  BNZ d   1      -0.888   3.073   1.957  0.00  0.00     0.000 A 
ATOM      2  C2  BNZ d   1       0.409   2.732   1.681  0.00  0.00     0.000 A 
ATOM      3  C3  BNZ d   1       0.707   1.540   1.083  0.00  0.00     0.000 A 
ATOM      4  C4  BNZ d   1      -0.287   0.674   0.798  0.00  0.00     0.000 A 
ATOM      5  C5  BNZ d   1      -1.599   0.999   1.079  0.00  0.00     0.000 A 
ATOM      6  C6  BNZ d   1      -1.899   2.217   1.646  0.00  0.00     0.000 A 
ENDROOT
TORSDOF 0
ENDMDL
