MODEL 1
REMARK minimizedAffinity 0.101289473
REMARK minimizedRMSD -1
REMARK  0 active torsions:
REMARK  status: ('A' for Active; 'I' for Inactive)
ROOT
ATOM      1  C1  BNZ d   1      -1.959   0.791   0.965  0.00  0.00     0.000 A 
ATOM      2  C2  BNZ d   1      -0.946   1.671   0.691  0.00  0.00     0.000 A 
ATOM      3  C3  BNZ d   1       0.351   1.359   0.989  0.00  0.00     0.000 A 
ATOM      4  C4  BNZ d   1       0.629   0.187   1.596  0.00  0.00     0.000 A 
ATOM      5  C5  BNZ d   1      -0.383  -0.706   1.887  0.00  0.00     0.000 A 
ATOM      6  C6  BNZ d   1      -1.683  -0.406   1.550  0.00  0.00     0.000 A 
ENDROOT
TORSDOF 0
ENDMDL
