MODEL 1
REMARK minimizedAffinity -1.1632905
REMARK minimizedRMSD -1
REMARK  0 active torsions:
REMARK  status: ('A' for Active; 'I' for Inactive)
ROOT
ATOM      1  C1  BNZ d   1      -1.756   1.686   2.136  0.00  0.00     0.000 A 
ATOM      2  C2  BNZ d   1      -0.679   2.326   1.581  0.00  0.00     0.000 A 
ATOM      3  C3  BNZ d   1       0.401   1.617   1.133  0.00  0.00     0.000 A 
ATOM      4  C4  BNZ d   1       0.421   0.277   1.278  0.00  0.00     0.000 A 
ATOM      5  C5  BNZ d   1      -0.653  -0.381   1.844  0.00  0.00     0.000 A 
ATOM      6  C6  BNZ d   1      -1.755   0.331   2.257  0.00  0.00     0.000 A 
ENDROOT
TORSDOF 0
ENDMDL
