MODEL 1
REMARK minimizedAffinity -1.49986386
REMARK minimizedRMSD -1
REMARK  0 active torsions:
REMARK  status: ('A' for Active; 'I' for Inactive)
ROOT
ATOM      1  C1  BNZ d   1       0.384  -0.118   0.855  0.00  0.00     0.000 A 
ATOM      2  C2  BNZ d   1       0.436   1.250   0.902  0.00  0.00     0.000 A 
ATOM      3  C3  BNZ d   1      -0.538   1.966   1.541  0.00  0.00     0.000 A 
ATOM      4  C4  BNZ d   1      -1.581   1.316   2.096  0.00  0.00     0.000 A 
ATOM      5  C5  BNZ d   1      -1.653  -0.062   2.049  0.00  0.00     0.000 A 
ATOM      6  C6  BNZ d   1      -0.651  -0.781   1.439  0.00  0.00     0.000 A 
ENDROOT
TORSDOF 0
ENDMDL
