MODEL 1
REMARK minimizedAffinity -1.92286491
REMARK minimizedRMSD -1
REMARK  0 active torsions:
REMARK  status: ('A' for Active; 'I' for Inactive)
ROOT
ATOM      1  C1  BNZ d   1      -1.878   1.245   1.807  0.00  0.00     0.000 A 
ATOM      2  C2  BNZ d   1      -0.741   1.956   1.533  0.00  0.00     0.000 A 
ATOM      3  C3  BNZ d   1       0.422   1.317   1.203  0.00  0.00     0.000 A 
ATOM      4  C4  BNZ d   1       0.456  -0.031   1.188  0.00  0.00     0.000 A 
ATOM      5  C5  BNZ d   1      -0.680  -0.762   1.471  0.00  0.00     0.000 A 
ATOM      6  C6  BNZ d   1      -1.858  -0.115   1.764  0.00  0.00     0.000 A 
ENDROOT
TORSDOF 0
ENDMDL
