MODEL 1
REMARK minimizedAffinity -3.8447268
REMARK minimizedRMSD -1
REMARK  0 active torsions:
REMARK  status: ('A' for Active; 'I' for Inactive)
ROOT
ATOM      1  C1  BNZ d   1      -1.808   2.128   1.938  0.00  0.00     0.000 A 
ATOM      2  C2  BNZ d   1      -1.125   3.166   1.362  0.00  0.00     0.000 A 
ATOM      3  C3  BNZ d   1       0.134   2.983   0.862  0.00  0.00     0.000 A 
ATOM      4  C4  BNZ d   1       0.723   1.775   0.973  0.00  0.00     0.000 A 
ATOM      5  C5  BNZ d   1       0.051   0.721   1.559  0.00  0.00     0.000 A 
ATOM      6  C6  BNZ d   1      -1.231   0.898   2.027  0.00  0.00     0.000 A 
ENDROOT
TORSDOF 0
ENDMDL
