MODEL 1
REMARK minimizedAffinity 1.75857258
REMARK minimizedRMSD -1
REMARK  0 active torsions:
REMARK  status: ('A' for Active; 'I' for Inactive)
ROOT
ATOM      1  C1  BNZ d   1      -3.288  -3.260  -1.162  0.00  0.00     0.000 A 
ATOM      2  C2  BNZ d   1      -2.636  -3.028  -2.343  0.00  0.00     0.000 A 
ATOM      3  C3  BNZ d   1      -2.943  -1.939  -3.111  0.00  0.00     0.000 A 
ATOM      4  C4  BNZ d   1      -3.929  -1.108  -2.717  0.00  0.00     0.000 A 
ATOM      5  C5  BNZ d   1      -4.603  -1.333  -1.533  0.00  0.00     0.000 A 
ATOM      6  C6  BNZ d   1      -4.263  -2.408  -0.744  0.00  0.00     0.000 A 
ENDROOT
TORSDOF 0
ENDMDL
