MODEL 1
REMARK minimizedAffinity 2.09602261
REMARK minimizedRMSD -1
REMARK  0 active torsions:
REMARK  status: ('A' for Active; 'I' for Inactive)
ROOT
ATOM      1  C1  BNZ d   1      -1.033   3.360   0.725  0.00  0.00     0.000 A 
ATOM      2  C2  BNZ d   1      -1.976   3.284   1.715  0.00  0.00     0.000 A 
ATOM      3  C3  BNZ d   1      -2.058   2.183   2.521  0.00  0.00     0.000 A 
ATOM      4  C4  BNZ d   1      -1.225   1.144   2.310  0.00  0.00     0.000 A 
ATOM      5  C5  BNZ d   1      -0.275   1.201   1.310  0.00  0.00     0.000 A 
ATOM      6  C6  BNZ d   1      -0.170   2.327   0.526  0.00  0.00     0.000 A 
ENDROOT
TORSDOF 0
ENDMDL
