MODEL 1
REMARK minimizedAffinity -1.85195112
REMARK minimizedRMSD -1
REMARK  0 active torsions:
REMARK  status: ('A' for Active; 'I' for Inactive)
ROOT
ATOM      1  C1  BNZ d   1      -0.528   2.873   0.739  0.00  0.00     0.000 A 
ATOM      2  C2  BNZ d   1      -1.827   2.740   1.152  0.00  0.00     0.000 A 
ATOM      3  C3  BNZ d   1      -2.218   1.661   1.894  0.00  0.00     0.000 A 
ATOM      4  C4  BNZ d   1      -1.321   0.698   2.188  0.00  0.00     0.000 A 
ATOM      5  C5  BNZ d   1      -0.010   0.813   1.771  0.00  0.00     0.000 A 
ATOM      6  C6  BNZ d   1       0.389   1.920   1.057  0.00  0.00     0.000 A 
ENDROOT
TORSDOF 0
ENDMDL
