MODEL 1
REMARK minimizedAffinity -0.801689684
REMARK minimizedRMSD -1
REMARK  0 active torsions:
REMARK  status: ('A' for Active; 'I' for Inactive)
ROOT
ATOM      1  C1  BNZ d   1      -1.291   2.905   1.076  0.00  0.00     0.000 A 
ATOM      2  C2  BNZ d   1      -0.020   3.229   0.681  0.00  0.00     0.000 A 
ATOM      3  C3  BNZ d   1       1.044   2.447   1.036  0.00  0.00     0.000 A 
ATOM      4  C4  BNZ d   1       0.842   1.367   1.818  0.00  0.00     0.000 A 
ATOM      5  C5  BNZ d   1      -0.432   1.033   2.232  0.00  0.00     0.000 A 
ATOM      6  C6  BNZ d   1      -1.506   1.800   1.840  0.00  0.00     0.000 A 
ENDROOT
TORSDOF 0
ENDMDL
