MODEL 1
REMARK minimizedAffinity -5.31243801
REMARK minimizedRMSD -1
REMARK  2 active torsions:
REMARK  status: ('A' for Active; 'I' for Inactive)
REMARK    1  A    between atoms: C1_2  and  C2_3 
REMARK    2  A    between atoms: C2_3  and  C3_4 
ROOT
ATOM      1  C3  UNL d   1       0.664  -0.904   0.492  0.00  0.00    -0.075 A 
ATOM      2  C4  UNL d   1      -0.022  -1.801   1.324  0.00  0.00     0.002 A 
ATOM      3  C5  UNL d   1      -0.441  -1.409   2.595  0.00  0.00     0.002 A 
ATOM      4  C6  UNL d   1      -0.172  -0.121   3.054  0.00  0.00    -0.004 A 
ATOM      5  C7  UNL d   1       0.523   0.773   2.243  0.00  0.00     0.002 A 
ATOM      6  C8  UNL d   1       0.940   0.384   0.969  0.00  0.00     0.002 A 
ENDROOT
BRANCH   1   7
ATOM      7  C2  UNL d   1       1.094  -1.313  -0.896  0.00  0.00     0.056 C 
BRANCH   7   8
ATOM      8  C1  UNL d   1       0.764  -0.283  -1.981  0.00  0.00     0.007 C 
ATOM      9  C   UNL d   1       1.443  -0.573  -3.313  0.00  0.00     0.009 C 
ENDBRANCH   7   8
ENDBRANCH   1   7
TORSDOF 2
ENDMDL
