MODEL 1
REMARK minimizedAffinity -3.9527688
REMARK minimizedRMSD -1
REMARK  2 active torsions:
REMARK  status: ('A' for Active; 'I' for Inactive)
REMARK    1  A    between atoms: C1_2  and  C2_3 
REMARK    2  A    between atoms: C2_3  and  C3_4 
ROOT
ATOM      1  C3  UNL d   1      -0.710  -0.233   1.021  0.00  0.00    -0.075 A 
ATOM      2  C4  UNL d   1      -2.031  -0.157   0.557  0.00  0.00     0.002 A 
ATOM      3  C5  UNL d   1      -3.093  -0.058   1.456  0.00  0.00     0.002 A 
ATOM      4  C6  UNL d   1      -2.850  -0.044   2.828  0.00  0.00    -0.004 A 
ATOM      5  C7  UNL d   1      -1.542  -0.135   3.300  0.00  0.00     0.002 A 
ATOM      6  C8  UNL d   1      -0.477  -0.229   2.402  0.00  0.00     0.002 A 
ENDROOT
BRANCH   1   7
ATOM      7  C2  UNL d   1       0.446  -0.310   0.052  0.00  0.00     0.056 C 
BRANCH   7   8
ATOM      8  C1  UNL d   1       0.112   0.189  -1.358  0.00  0.00     0.007 C 
ATOM      9  C   UNL d   1       1.121  -0.259  -2.408  0.00  0.00     0.009 C 
ENDBRANCH   7   8
ENDBRANCH   1   7
TORSDOF 2
ENDMDL
