MODEL 1
REMARK minimizedAffinity -4.69536829
REMARK minimizedRMSD -1
REMARK  2 active torsions:
REMARK  status: ('A' for Active; 'I' for Inactive)
REMARK    1  A    between atoms: C1_2  and  C2_3 
REMARK    2  A    between atoms: C2_3  and  C3_4 
ROOT
ATOM      1  C3  UNL d   1       0.013   0.229   1.151  0.00  0.00    -0.075 A 
ATOM      2  C4  UNL d   1      -1.363  -0.020   1.052  0.00  0.00     0.002 A 
ATOM      3  C5  UNL d   1      -2.153  -0.100   2.199  0.00  0.00     0.002 A 
ATOM      4  C6  UNL d   1      -1.577   0.058   3.458  0.00  0.00    -0.004 A 
ATOM      5  C7  UNL d   1      -0.208   0.289   3.569  0.00  0.00     0.002 A 
ATOM      6  C8  UNL d   1       0.584   0.374   2.423  0.00  0.00     0.002 A 
ENDROOT
BRANCH   1   7
ATOM      7  C2  UNL d   1       0.869   0.345  -0.088  0.00  0.00     0.056 C 
BRANCH   7   8
ATOM      8  C1  UNL d   1       0.080   0.269  -1.399  0.00  0.00     0.007 C 
ATOM      9  C   UNL d   1       0.940  -0.118  -2.595  0.00  0.00     0.009 C 
ENDBRANCH   7   8
ENDBRANCH   1   7
TORSDOF 2
ENDMDL
