MODEL 1
REMARK minimizedAffinity -5.07487106
REMARK minimizedRMSD -1
REMARK  2 active torsions:
REMARK  status: ('A' for Active; 'I' for Inactive)
REMARK    1  A    between atoms: C1_2  and  C2_3 
REMARK    2  A    between atoms: C2_3  and  C3_4 
ROOT
ATOM      1  C3  UNL d   1      -0.264   0.200  -0.218  0.00  0.00    -0.075 A 
ATOM      2  C4  UNL d   1      -1.325  -0.502   0.373  0.00  0.00     0.002 A 
ATOM      3  C5  UNL d   1      -1.315  -0.782   1.740  0.00  0.00     0.002 A 
ATOM      4  C6  UNL d   1      -0.243  -0.374   2.529  0.00  0.00    -0.004 A 
ATOM      5  C7  UNL d   1       0.824   0.310   1.950  0.00  0.00     0.002 A 
ATOM      6  C8  UNL d   1       0.815   0.595   0.583  0.00  0.00     0.002 A 
ENDROOT
BRANCH   1   7
ATOM      7  C2  UNL d   1      -0.283   0.531  -1.691  0.00  0.00     0.056 C 
BRANCH   7   8
ATOM      8  C1  UNL d   1       0.903  -0.041  -2.475  0.00  0.00     0.007 C 
ATOM      9  C   UNL d   1       0.522  -1.211  -3.371  0.00  0.00     0.009 C 
ENDBRANCH   7   8
ENDBRANCH   1   7
TORSDOF 2
ENDMDL
