MODEL 1
REMARK minimizedAffinity -3.42526841
REMARK minimizedRMSD -1
REMARK  2 active torsions:
REMARK  status: ('A' for Active; 'I' for Inactive)
REMARK    1  A    between atoms: C1_2  and  C2_3 
REMARK    2  A    between atoms: C2_3  and  C3_4 
ROOT
ATOM      1  C3  UNL d   1      -0.054   0.394  -0.527  0.00  0.00    -0.075 A 
ATOM      2  C4  UNL d   1      -1.015  -0.418   0.092  0.00  0.00     0.002 A 
ATOM      3  C5  UNL d   1      -0.946  -0.681   1.460  0.00  0.00     0.002 A 
ATOM      4  C6  UNL d   1       0.088  -0.144   2.224  0.00  0.00    -0.004 A 
ATOM      5  C7  UNL d   1       1.058   0.651   1.617  0.00  0.00     0.002 A 
ATOM      6  C8  UNL d   1       0.989   0.919   0.249  0.00  0.00     0.002 A 
ENDROOT
BRANCH   1   7
ATOM      7  C2  UNL d   1      -0.140   0.706  -2.002  0.00  0.00     0.056 C 
BRANCH   7   8
ATOM      8  C1  UNL d   1       0.896  -0.032  -2.857  0.00  0.00     0.007 C 
ATOM      9  C   UNL d   1       0.404  -1.381  -3.364  0.00  0.00     0.009 C 
ENDBRANCH   7   8
ENDBRANCH   1   7
TORSDOF 2
ENDMDL
