MODEL 1
REMARK minimizedAffinity -2.4100163
REMARK minimizedRMSD -1
REMARK  2 active torsions:
REMARK  status: ('A' for Active; 'I' for Inactive)
REMARK    1  A    between atoms: C1_2  and  C2_3 
REMARK    2  A    between atoms: C2_3  and  C3_4 
ROOT
ATOM      1  C3  UNL d   1       0.280   0.062   0.159  0.00  0.00    -0.075 A 
ATOM      2  C4  UNL d   1      -0.859  -0.716   0.413  0.00  0.00     0.002 A 
ATOM      3  C5  UNL d   1      -1.278  -0.952   1.722  0.00  0.00     0.002 A 
ATOM      4  C6  UNL d   1      -0.559  -0.424   2.793  0.00  0.00    -0.004 A 
ATOM      5  C7  UNL d   1       0.583   0.337   2.553  0.00  0.00     0.002 A 
ATOM      6  C8  UNL d   1       1.002   0.579   1.243  0.00  0.00     0.002 A 
ENDROOT
BRANCH   1   7
ATOM      7  C2  UNL d   1       0.722   0.347  -1.257  0.00  0.00     0.056 C 
BRANCH   7   8
ATOM      8  C1  UNL d   1       0.603  -0.855  -2.200  0.00  0.00     0.007 C 
ATOM      9  C   UNL d   1       1.713  -0.913  -3.241  0.00  0.00     0.009 C 
ENDBRANCH   7   8
ENDBRANCH   1   7
TORSDOF 2
ENDMDL
