MODEL 1
REMARK minimizedAffinity -1.77423191
REMARK minimizedRMSD -1
REMARK  2 active torsions:
REMARK  status: ('A' for Active; 'I' for Inactive)
REMARK    1  A    between atoms: C1_2  and  C2_3 
REMARK    2  A    between atoms: C2_3  and  C3_4 
ROOT
ATOM      1  C3  UNL d   1       0.087  -0.358  -1.885  0.00  0.00    -0.075 A 
ATOM      2  C4  UNL d   1      -0.254  -1.429  -2.724  0.00  0.00     0.002 A 
ATOM      3  C5  UNL d   1       0.593  -1.811  -3.765  0.00  0.00     0.002 A 
ATOM      4  C6  UNL d   1       1.783  -1.121  -3.988  0.00  0.00    -0.004 A 
ATOM      5  C7  UNL d   1       2.123  -0.045  -3.171  0.00  0.00     0.002 A 
ATOM      6  C8  UNL d   1       1.280   0.336  -2.126  0.00  0.00     0.002 A 
ENDROOT
BRANCH   1   7
ATOM      7  C2  UNL d   1      -0.811   0.041  -0.738  0.00  0.00     0.056 C 
BRANCH   7   8
ATOM      8  C1  UNL d   1      -0.390  -0.543   0.615  0.00  0.00     0.007 C 
ATOM      9  C   UNL d   1      -1.509  -1.303   1.314  0.00  0.00     0.009 C 
ENDBRANCH   7   8
ENDBRANCH   1   7
TORSDOF 2
ENDMDL
