MODEL 1
REMARK minimizedAffinity -3.59390259
REMARK minimizedRMSD -1
REMARK  2 active torsions:
REMARK  status: ('A' for Active; 'I' for Inactive)
REMARK    1  A    between atoms: C1_2  and  C2_3 
REMARK    2  A    between atoms: C2_3  and  C3_4 
ROOT
ATOM      1  C3  UNL d   1       0.284  -0.253   0.031  0.00  0.00    -0.075 A 
ATOM      2  C4  UNL d   1       1.103   0.050   1.129  0.00  0.00     0.002 A 
ATOM      3  C5  UNL d   1       0.629  -0.109   2.431  0.00  0.00     0.002 A 
ATOM      4  C6  UNL d   1      -0.669  -0.563   2.653  0.00  0.00    -0.004 A 
ATOM      5  C7  UNL d   1      -1.497  -0.852   1.571  0.00  0.00     0.002 A 
ATOM      6  C8  UNL d   1      -1.024  -0.697   0.266  0.00  0.00     0.002 A 
ENDROOT
BRANCH   1   7
ATOM      7  C2  UNL d   1       0.800  -0.110  -1.381  0.00  0.00     0.056 C 
BRANCH   7   8
ATOM      8  C1  UNL d   1       1.222  -1.434  -2.027  0.00  0.00     0.007 C 
ATOM      9  C   UNL d   1       0.157  -2.020  -2.944  0.00  0.00     0.009 C 
ENDBRANCH   7   8
ENDBRANCH   1   7
TORSDOF 2
ENDMDL
