MODEL 1
REMARK minimizedAffinity -3.45237231
REMARK minimizedRMSD -1
REMARK  2 active torsions:
REMARK  status: ('A' for Active; 'I' for Inactive)
REMARK    1  A    between atoms: C1_2  and  C2_3 
REMARK    2  A    between atoms: C2_3  and  C3_4 
ROOT
ATOM      1  C3  UNL d   1       0.331  -0.515  -1.487  0.00  0.00    -0.075 A 
ATOM      2  C4  UNL d   1       1.121   0.643  -1.452  0.00  0.00     0.002 A 
ATOM      3  C5  UNL d   1       1.479   1.220  -0.233  0.00  0.00     0.002 A 
ATOM      4  C6  UNL d   1       1.043   0.655   0.963  0.00  0.00    -0.004 A 
ATOM      5  C7  UNL d   1       0.244  -0.486   0.940  0.00  0.00     0.002 A 
ATOM      6  C8  UNL d   1      -0.112  -1.068  -0.278  0.00  0.00     0.002 A 
ENDROOT
BRANCH   1   7
ATOM      7  C2  UNL d   1      -0.035  -1.161  -2.801  0.00  0.00     0.056 C 
BRANCH   7   8
ATOM      8  C1  UNL d   1       1.154  -1.370  -3.746  0.00  0.00     0.007 C 
ATOM      9  C   UNL d   1       1.747  -2.770  -3.664  0.00  0.00     0.009 C 
ENDBRANCH   7   8
ENDBRANCH   1   7
TORSDOF 2
ENDMDL
