MODEL 1
REMARK minimizedAffinity -2.55359721
REMARK minimizedRMSD -1
REMARK  2 active torsions:
REMARK  status: ('A' for Active; 'I' for Inactive)
REMARK    1  A    between atoms: C1_2  and  C2_3 
REMARK    2  A    between atoms: C2_3  and  C3_4 
ROOT
ATOM      1  C3  UNL d   1       0.133  -0.025   0.054  0.00  0.00    -0.075 A 
ATOM      2  C4  UNL d   1       0.914   0.318   1.167  0.00  0.00     0.002 A 
ATOM      3  C5  UNL d   1       0.427   0.128   2.461  0.00  0.00     0.002 A 
ATOM      4  C6  UNL d   1      -0.848  -0.397   2.658  0.00  0.00    -0.004 A 
ATOM      5  C7  UNL d   1      -1.639  -0.726   1.559  0.00  0.00     0.002 A 
ATOM      6  C8  UNL d   1      -1.153  -0.541   0.264  0.00  0.00     0.002 A 
ENDROOT
BRANCH   1   7
ATOM      7  C2  UNL d   1       0.666   0.150  -1.347  0.00  0.00     0.056 C 
BRANCH   7   8
ATOM      8  C1  UNL d   1       0.409  -1.048  -2.267  0.00  0.00     0.007 C 
ATOM      9  C   UNL d   1       1.593  -1.380  -3.166  0.00  0.00     0.009 C 
ENDBRANCH   7   8
ENDBRANCH   1   7
TORSDOF 2
ENDMDL
