MODEL 1
REMARK minimizedAffinity -4.51249075
REMARK minimizedRMSD -1
REMARK  2 active torsions:
REMARK  status: ('A' for Active; 'I' for Inactive)
REMARK    1  A    between atoms: C1_2  and  C2_3 
REMARK    2  A    between atoms: C2_3  and  C3_4 
ROOT
ATOM      1  C3  UNL d   1       0.088   0.161   0.195  0.00  0.00    -0.075 A 
ATOM      2  C4  UNL d   1      -1.236  -0.302   0.190  0.00  0.00     0.002 A 
ATOM      3  C5  UNL d   1      -1.811  -0.816   1.353  0.00  0.00     0.002 A 
ATOM      4  C6  UNL d   1      -1.069  -0.882   2.530  0.00  0.00    -0.004 A 
ATOM      5  C7  UNL d   1       0.252  -0.440   2.542  0.00  0.00     0.002 A 
ATOM      6  C8  UNL d   1       0.829   0.079   1.381  0.00  0.00     0.002 A 
ENDROOT
BRANCH   1   7
ATOM      7  C2  UNL d   1       0.706   0.746  -1.053  0.00  0.00     0.056 C 
BRANCH   7   8
ATOM      8  C1  UNL d   1       0.801  -0.240  -2.222  0.00  0.00     0.007 C 
ATOM      9  C   UNL d   1       2.019  -0.007  -3.106  0.00  0.00     0.009 C 
ENDBRANCH   7   8
ENDBRANCH   1   7
TORSDOF 2
ENDMDL
