MODEL 1
REMARK minimizedAffinity -2.97794771
REMARK minimizedRMSD -1
REMARK  2 active torsions:
REMARK  status: ('A' for Active; 'I' for Inactive)
REMARK    1  A    between atoms: C1_2  and  C2_3 
REMARK    2  A    between atoms: C2_3  and  C3_4 
ROOT
ATOM      1  C3  UNL d   1      -0.979  -0.359   1.110  0.00  0.00    -0.075 A 
ATOM      2  C4  UNL d   1       0.411  -0.456   0.954  0.00  0.00     0.002 A 
ATOM      3  C5  UNL d   1       1.035   0.063  -0.180  0.00  0.00     0.002 A 
ATOM      4  C6  UNL d   1       0.278   0.675  -1.177  0.00  0.00    -0.004 A 
ATOM      5  C7  UNL d   1      -1.106   0.762  -1.041  0.00  0.00     0.002 A 
ATOM      6  C8  UNL d   1      -1.732   0.247   0.096  0.00  0.00     0.002 A 
ENDROOT
BRANCH   1   7
ATOM      7  C2  UNL d   1      -1.657  -0.893   2.349  0.00  0.00     0.056 C 
BRANCH   7   8
ATOM      8  C1  UNL d   1      -1.041  -0.394   3.661  0.00  0.00     0.007 C 
ATOM      9  C   UNL d   1      -0.293   0.924   3.510  0.00  0.00     0.009 C 
ENDBRANCH   7   8
ENDBRANCH   1   7
TORSDOF 2
ENDMDL
