MODEL 1
REMARK minimizedAffinity -2.86817908
REMARK minimizedRMSD -1
REMARK  0 active torsions:
REMARK  status: ('A' for Active; 'I' for Inactive)
ROOT
ATOM      1  C2' OXE d   1       3.776  -1.522  -3.370  0.00  0.00     0.078 C 
ATOM      2  C1' OXE d   1       5.998  -0.905  -4.970  0.00  0.00     0.078 C 
ATOM      3  C1  OXE d   1       5.414  -2.291  -5.081  0.00  0.00    -0.078 A 
ATOM      4  C2  OXE d   1       4.356  -2.599  -4.261  0.00  0.00    -0.078 A 
ATOM      5  C3  OXE d   1       3.745  -3.846  -4.362  0.00  0.00     0.003 A 
ATOM      6  C4  OXE d   1       4.294  -4.840  -5.181  0.00  0.00    -0.002 A 
ATOM      7  C5  OXE d   1       5.396  -4.560  -5.996  0.00  0.00    -0.002 A 
ATOM      8  C6  OXE d   1       5.940  -3.280  -5.990  0.00  0.00     0.003 A 
ENDROOT
TORSDOF 0
ENDMDL
