MODEL 1
REMARK minimizedAffinity 2.23404098
REMARK minimizedRMSD -1
REMARK  0 active torsions:
REMARK  status: ('A' for Active; 'I' for Inactive)
ROOT
ATOM      1  C2' OXE d   1       2.353   4.869  -1.510  0.00  0.00     0.078 C 
ATOM      2  C1' OXE d   1       4.549   5.999  -0.174  0.00  0.00     0.078 C 
ATOM      3  C1  OXE d   1       4.698   5.700  -1.645  0.00  0.00    -0.078 A 
ATOM      4  C2  OXE d   1       3.635   5.104  -2.280  0.00  0.00    -0.078 A 
ATOM      5  C3  OXE d   1       3.700   4.856  -3.648  0.00  0.00     0.003 A 
ATOM      6  C4  OXE d   1       4.892   5.067  -4.351  0.00  0.00    -0.002 A 
ATOM      7  C5  OXE d   1       6.000   5.637  -3.714  0.00  0.00    -0.002 A 
ATOM      8  C6  OXE d   1       5.905   5.997  -2.375  0.00  0.00     0.003 A 
ENDROOT
TORSDOF 0
ENDMDL
