MODEL 1
REMARK minimizedAffinity 12.5021572
REMARK minimizedRMSD -1
REMARK  0 active torsions:
REMARK  status: ('A' for Active; 'I' for Inactive)
ROOT
ATOM      1  C2' OXE d   1       2.347  -2.187  -4.239  0.00  0.00     0.078 C 
ATOM      2  C1' OXE d   1       4.723  -0.709  -4.023  0.00  0.00     0.078 C 
ATOM      3  C1  OXE d   1       4.783  -2.036  -4.737  0.00  0.00    -0.078 A 
ATOM      4  C2  OXE d   1       3.625  -2.774  -4.797  0.00  0.00    -0.078 A 
ATOM      5  C3  OXE d   1       3.612  -3.980  -5.491  0.00  0.00     0.003 A 
ATOM      6  C4  OXE d   1       4.801  -4.521  -5.995  0.00  0.00    -0.002 A 
ATOM      7  C5  OXE d   1       6.000  -3.804  -5.910  0.00  0.00    -0.002 A 
ATOM      8  C6  OXE d   1       5.999  -2.543  -5.322  0.00  0.00     0.003 A 
ENDROOT
TORSDOF 0
ENDMDL
