MODEL 1
REMARK minimizedAffinity 8.8755579
REMARK minimizedRMSD -1
REMARK  0 active torsions:
REMARK  status: ('A' for Active; 'I' for Inactive)
ROOT
ATOM      1  C2' OXE d   1       0.091   1.784  -3.061  0.00  0.00     0.078 C 
ATOM      2  C1' OXE d   1      -0.433   3.097  -0.636  0.00  0.00     0.078 C 
ATOM      3  C1  OXE d   1       0.745   3.569  -1.451  0.00  0.00    -0.078 A 
ATOM      4  C2  OXE d   1       1.022   2.890  -2.614  0.00  0.00    -0.078 A 
ATOM      5  C3  OXE d   1       2.064   3.319  -3.431  0.00  0.00     0.003 A 
ATOM      6  C4  OXE d   1       2.926   4.337  -3.005  0.00  0.00    -0.002 A 
ATOM      7  C5  OXE d   1       2.686   5.015  -1.805  0.00  0.00    -0.002 A 
ATOM      8  C6  OXE d   1       1.577   4.672  -1.039  0.00  0.00     0.003 A 
ENDROOT
TORSDOF 0
ENDMDL
