MODEL 1
REMARK minimizedAffinity 0.872267842
REMARK minimizedRMSD -1
REMARK  0 active torsions:
REMARK  status: ('A' for Active; 'I' for Inactive)
ROOT
ATOM      1  C2' OXE d   1       5.824  -2.981  -5.998  0.00  0.00     0.078 C 
ATOM      2  C1' OXE d   1       4.595  -5.505  -5.999  0.00  0.00     0.078 C 
ATOM      3  C1  OXE d   1       3.705  -4.290  -5.926  0.00  0.00    -0.078 A 
ATOM      4  C2  OXE d   1       4.317  -3.060  -5.879  0.00  0.00    -0.078 A 
ATOM      5  C3  OXE d   1       3.542  -1.904  -5.866  0.00  0.00     0.003 A 
ATOM      6  C4  OXE d   1       2.149  -1.986  -5.746  0.00  0.00    -0.002 A 
ATOM      7  C5  OXE d   1       1.508  -3.229  -5.752  0.00  0.00    -0.002 A 
ATOM      8  C6  OXE d   1       2.267  -4.387  -5.884  0.00  0.00     0.003 A 
ENDROOT
TORSDOF 0
ENDMDL
