MODEL 1
REMARK minimizedAffinity 2.95164227
REMARK minimizedRMSD -1
REMARK  0 active torsions:
REMARK  status: ('A' for Active; 'I' for Inactive)
ROOT
ATOM      1  C2' OXE d   1       3.058  -2.510  -4.375  0.00  0.00     0.078 C 
ATOM      2  C1' OXE d   1       2.531  -5.093  -3.410  0.00  0.00     0.078 C 
ATOM      3  C1  OXE d   1       3.731  -4.907  -4.304  0.00  0.00    -0.078 A 
ATOM      4  C2  OXE d   1       3.955  -3.649  -4.809  0.00  0.00    -0.078 A 
ATOM      5  C3  OXE d   1       5.080  -3.412  -5.595  0.00  0.00     0.003 A 
ATOM      6  C4  OXE d   1       5.899  -4.473  -5.999  0.00  0.00    -0.002 A 
ATOM      7  C5  OXE d   1       5.665  -5.769  -5.528  0.00  0.00    -0.002 A 
ATOM      8  C6  OXE d   1       4.613  -5.995  -4.647  0.00  0.00     0.003 A 
ENDROOT
TORSDOF 0
ENDMDL
