MODEL 1
REMARK minimizedAffinity 14.6111336
REMARK minimizedRMSD -1
REMARK  0 active torsions:
REMARK  status: ('A' for Active; 'I' for Inactive)
ROOT
ATOM      1  C2' OXE d   1      -5.258   2.081  -1.266  0.00  0.00     0.078 C 
ATOM      2  C1' OXE d   1      -4.801   3.932  -3.326  0.00  0.00     0.078 C 
ATOM      3  C1  OXE d   1      -3.878   2.744  -3.231  0.00  0.00    -0.078 A 
ATOM      4  C2  OXE d   1      -4.080   1.868  -2.191  0.00  0.00    -0.078 A 
ATOM      5  C3  OXE d   1      -3.290   0.726  -2.089  0.00  0.00     0.003 A 
ATOM      6  C4  OXE d   1      -2.196   0.541  -2.943  0.00  0.00    -0.002 A 
ATOM      7  C5  OXE d   1      -1.948   1.442  -3.984  0.00  0.00    -0.002 A 
ATOM      8  C6  OXE d   1      -2.803   2.524  -4.167  0.00  0.00     0.003 A 
ENDROOT
TORSDOF 0
ENDMDL
