MODEL 1
REMARK minimizedAffinity 1.92673147
REMARK minimizedRMSD -1
REMARK  0 active torsions:
REMARK  status: ('A' for Active; 'I' for Inactive)
ROOT
ATOM      1  C2' OXE d   1       3.566  -1.508  -4.404  0.00  0.00     0.078 C 
ATOM      2  C1' OXE d   1       5.998  -1.468  -5.805  0.00  0.00     0.078 C 
ATOM      3  C1  OXE d   1       5.388  -2.812  -5.492  0.00  0.00    -0.078 A 
ATOM      4  C2  OXE d   1       4.222  -2.823  -4.766  0.00  0.00    -0.078 A 
ATOM      5  C3  OXE d   1       3.589  -4.034  -4.498  0.00  0.00     0.003 A 
ATOM      6  C4  OXE d   1       4.207  -5.246  -4.827  0.00  0.00    -0.002 A 
ATOM      7  C5  OXE d   1       5.415  -5.257  -5.532  0.00  0.00    -0.002 A 
ATOM      8  C6  OXE d   1       5.996  -4.051  -5.909  0.00  0.00     0.003 A 
ENDROOT
TORSDOF 0
ENDMDL
