MODEL 1
REMARK minimizedAffinity 12.4462337
REMARK minimizedRMSD -1
REMARK  0 active torsions:
REMARK  status: ('A' for Active; 'I' for Inactive)
ROOT
ATOM      1  C2' OXE d   1      -4.453   4.657  -2.952  0.00  0.00     0.078 C 
ATOM      2  C1' OXE d   1      -2.891   4.031  -5.199  0.00  0.00     0.078 C 
ATOM      3  C1  OXE d   1      -2.811   3.109  -4.008  0.00  0.00    -0.078 A 
ATOM      4  C2  OXE d   1      -3.544   3.449  -2.896  0.00  0.00    -0.078 A 
ATOM      5  C3  OXE d   1      -3.549   2.604  -1.790  0.00  0.00     0.003 A 
ATOM      6  C4  OXE d   1      -2.697   1.493  -1.742  0.00  0.00    -0.002 A 
ATOM      7  C5  OXE d   1      -1.913   1.152  -2.849  0.00  0.00    -0.002 A 
ATOM      8  C6  OXE d   1      -1.991   1.923  -4.003  0.00  0.00     0.003 A 
ENDROOT
TORSDOF 0
ENDMDL
