MODEL 1
REMARK minimizedAffinity -1.49659979
REMARK minimizedRMSD -1
REMARK  1 active torsions:
REMARK  status: ('A' for Active; 'I' for Inactive)
REMARK    1  A    between atoms: C3_4  and  O_7 
ROOT
ATOM      1  C   UNL d   1      -4.061   1.147   1.030  0.00  0.00    -0.033 A 
ATOM      2  C1  UNL d   1      -3.054   1.130   1.996  0.00  0.00     0.039 A 
ATOM      3  C2  UNL d   1      -1.745   0.802   1.638  0.00  0.00    -0.080 A 
ATOM      4  C3  UNL d   1      -1.457   0.495   0.311  0.00  0.00     0.150 A 
ATOM      5  C4  UNL d   1      -2.455   0.514  -0.658  0.00  0.00    -0.007 A 
ATOM      6  C5  UNL d   1      -3.761   0.841  -0.298  0.00  0.00     0.039 A 
ENDROOT
BRANCH   4   7
ATOM      7  O   UNL d   1      -0.196   0.164  -0.086  0.00  0.00    -0.526 OA
ATOM      8  H5  UNL d   1       0.383   0.164   0.695  0.00  0.00     0.418 HD
ENDBRANCH   4   7
TORSDOF 1
ENDMDL
