MODEL 1
REMARK minimizedAffinity -3.29163957
REMARK minimizedRMSD -1
REMARK  1 active torsions:
REMARK  status: ('A' for Active; 'I' for Inactive)
REMARK    1  A    between atoms: C3_4  and  O_7 
ROOT
ATOM      1  C   UNL d   1       2.652  -0.964  -0.285  0.00  0.00    -0.033 A 
ATOM      2  C1  UNL d   1       2.382   0.406  -0.271  0.00  0.00     0.039 A 
ATOM      3  C2  UNL d   1       1.062   0.858  -0.209  0.00  0.00    -0.080 A 
ATOM      4  C3  UNL d   1       0.024  -0.069  -0.161  0.00  0.00     0.150 A 
ATOM      5  C4  UNL d   1       0.286  -1.435  -0.172  0.00  0.00    -0.007 A 
ATOM      6  C5  UNL d   1       1.605  -1.884  -0.234  0.00  0.00     0.039 A 
ENDROOT
BRANCH   4   7
ATOM      7  O   UNL d   1      -1.280   0.325  -0.105  0.00  0.00    -0.526 OA
ATOM      8  H5  UNL d   1      -1.310   1.296  -0.134  0.00  0.00     0.418 HD
ENDBRANCH   4   7
TORSDOF 1
ENDMDL
