MODEL 1
REMARK minimizedAffinity -4.93699455
REMARK minimizedRMSD -1
REMARK  1 active torsions:
REMARK  status: ('A' for Active; 'I' for Inactive)
REMARK    1  A    between atoms: C3_4  and  O_7 
ROOT
ATOM      1  C   UNL d   1       1.545   1.047  -0.137  0.00  0.00    -0.033 A 
ATOM      2  C1  UNL d   1       0.311   0.417  -0.311  0.00  0.00     0.039 A 
ATOM      3  C2  UNL d   1       0.246  -0.973  -0.432  0.00  0.00    -0.080 A 
ATOM      4  C3  UNL d   1       1.420  -1.719  -0.375  0.00  0.00     0.150 A 
ATOM      5  C4  UNL d   1       2.652  -1.098  -0.197  0.00  0.00    -0.007 A 
ATOM      6  C5  UNL d   1       2.715   0.290  -0.078  0.00  0.00     0.039 A 
ENDROOT
BRANCH   4   7
ATOM      7  O   UNL d   1       1.407  -3.077  -0.492  0.00  0.00    -0.526 OA
ATOM      8  H5  UNL d   1       0.491  -3.365  -0.639  0.00  0.00     0.418 HD
ENDBRANCH   4   7
TORSDOF 1
ENDMDL
