MODEL 1
REMARK minimizedAffinity 1.3829447
REMARK minimizedRMSD -1
REMARK  0 active torsions:
REMARK  status: ('A' for Active; 'I' for Inactive)
ROOT
ATOM      1  C1  BNZ d   1       1.837   0.828   1.964  0.00  0.00     0.000 A 
ATOM      2  C2  BNZ d   1       1.940   0.701   3.324  0.00  0.00     0.000 A 
ATOM      3  C3  BNZ d   1       3.140   0.417   3.912  0.00  0.00     0.000 A 
ATOM      4  C4  BNZ d   1       4.227   0.221   3.138  0.00  0.00     0.000 A 
ATOM      5  C5  BNZ d   1       4.138   0.335   1.765  0.00  0.00     0.000 A 
ATOM      6  C6  BNZ d   1       2.936   0.660   1.179  0.00  0.00     0.000 A 
ENDROOT
TORSDOF 0
ENDMDL
