MODEL 1
REMARK minimizedAffinity 0.634258926
REMARK minimizedRMSD -1
REMARK  0 active torsions:
REMARK  status: ('A' for Active; 'I' for Inactive)
ROOT
ATOM      1  C1  BNZ d   1       4.285  -0.254   1.584  0.00  0.00     0.000 A 
ATOM      2  C2  BNZ d   1       3.403   0.159   0.621  0.00  0.00     0.000 A 
ATOM      3  C3  BNZ d   1       2.233   0.777   0.962  0.00  0.00     0.000 A 
ATOM      4  C4  BNZ d   1       1.927   0.945   2.265  0.00  0.00     0.000 A 
ATOM      5  C5  BNZ d   1       2.802   0.525   3.248  0.00  0.00     0.000 A 
ATOM      6  C6  BNZ d   1       3.997  -0.061   2.900  0.00  0.00     0.000 A 
ENDROOT
TORSDOF 0
ENDMDL
