MODEL 1
REMARK minimizedAffinity 0.0350465961
REMARK minimizedRMSD -1
REMARK  0 active torsions:
REMARK  status: ('A' for Active; 'I' for Inactive)
ROOT
ATOM      1  C1  BNZ d   1       0.939   0.498   0.595  0.00  0.00     0.000 A 
ATOM      2  C2  BNZ d   1       0.392   1.465   1.395  0.00  0.00     0.000 A 
ATOM      3  C3  BNZ d   1      -0.769   1.234   2.079  0.00  0.00     0.000 A 
ATOM      4  C4  BNZ d   1      -1.402   0.053   1.930  0.00  0.00     0.000 A 
ATOM      5  C5  BNZ d   1      -0.868  -0.929   1.120  0.00  0.00     0.000 A 
ATOM      6  C6  BNZ d   1       0.321  -0.707   0.463  0.00  0.00     0.000 A 
ENDROOT
TORSDOF 0
ENDMDL
