MODEL 1
REMARK minimizedAffinity -1.13179421
REMARK minimizedRMSD -1
REMARK  0 active torsions:
REMARK  status: ('A' for Active; 'I' for Inactive)
ROOT
ATOM      1  C1  BNZ d   1      -1.847   5.997  -2.976  0.00  0.00     0.000 A 
ATOM      2  C2  BNZ d   1      -2.235   6.000  -1.663  0.00  0.00     0.000 A 
ATOM      3  C3  BNZ d   1      -3.559   5.978  -1.324  0.00  0.00     0.000 A 
ATOM      4  C4  BNZ d   1      -4.493   5.993  -2.297  0.00  0.00     0.000 A 
ATOM      5  C5  BNZ d   1      -4.118   6.000  -3.626  0.00  0.00     0.000 A 
ATOM      6  C6  BNZ d   1      -2.784   5.982  -3.963  0.00  0.00     0.000 A 
ENDROOT
TORSDOF 0
ENDMDL
