MODEL 1
REMARK minimizedAffinity -2.16542411
REMARK minimizedRMSD -1
REMARK  0 active torsions:
REMARK  status: ('A' for Active; 'I' for Inactive)
ROOT
ATOM      1  C1  BNZ d   1      -4.552   5.969  -3.008  0.00  0.00     0.000 A 
ATOM      2  C2  BNZ d   1      -4.279   5.962  -1.666  0.00  0.00     0.000 A 
ATOM      3  C3  BNZ d   1      -2.989   5.998  -1.214  0.00  0.00     0.000 A 
ATOM      4  C4  BNZ d   1      -1.975   5.999  -2.103  0.00  0.00     0.000 A 
ATOM      5  C5  BNZ d   1      -2.234   5.995  -3.459  0.00  0.00     0.000 A 
ATOM      6  C6  BNZ d   1      -3.534   5.999  -3.910  0.00  0.00     0.000 A 
ENDROOT
TORSDOF 0
ENDMDL
