MODEL 1
REMARK minimizedAffinity -1.62806022
REMARK minimizedRMSD -1
REMARK  0 active torsions:
REMARK  status: ('A' for Active; 'I' for Inactive)
ROOT
ATOM      1  C1  BNZ d   1      -0.297   0.608   1.915  0.00  0.00     0.000 A 
ATOM      2  C2  BNZ d   1       0.015   1.864   2.363  0.00  0.00     0.000 A 
ATOM      3  C3  BNZ d   1       0.837   2.682   1.639  0.00  0.00     0.000 A 
ATOM      4  C4  BNZ d   1       1.376   2.229   0.489  0.00  0.00     0.000 A 
ATOM      5  C5  BNZ d   1       1.079   0.962   0.028  0.00  0.00     0.000 A 
ATOM      6  C6  BNZ d   1       0.221   0.156   0.740  0.00  0.00     0.000 A 
ENDROOT
TORSDOF 0
ENDMDL
