MODEL 1
REMARK minimizedAffinity 0.505329788
REMARK minimizedRMSD -1
REMARK  0 active torsions:
REMARK  status: ('A' for Active; 'I' for Inactive)
ROOT
ATOM      1  C1  BNZ d   1       1.094   1.191  -0.658  0.00  0.00     0.000 A 
ATOM      2  C2  BNZ d   1       0.645   0.369   0.341  0.00  0.00     0.000 A 
ATOM      3  C3  BNZ d   1       0.425   0.853   1.600  0.00  0.00     0.000 A 
ATOM      4  C4  BNZ d   1       0.692   2.147   1.869  0.00  0.00     0.000 A 
ATOM      5  C5  BNZ d   1       1.154   2.987   0.876  0.00  0.00     0.000 A 
ATOM      6  C6  BNZ d   1       1.337   2.505  -0.400  0.00  0.00     0.000 A 
ENDROOT
TORSDOF 0
ENDMDL
