MODEL 1
REMARK minimizedAffinity 2.11855102
REMARK minimizedRMSD -1
REMARK  0 active torsions:
REMARK  status: ('A' for Active; 'I' for Inactive)
ROOT
ATOM      1  C1  BNZ d   1       0.698   0.650   1.288  0.00  0.00     0.000 A 
ATOM      2  C2  BNZ d   1       1.269   1.820   0.864  0.00  0.00     0.000 A 
ATOM      3  C3  BNZ d   1       1.510   2.040  -0.464  0.00  0.00     0.000 A 
ATOM      4  C4  BNZ d   1       1.217   1.075  -1.359  0.00  0.00     0.000 A 
ATOM      5  C5  BNZ d   1       0.649  -0.113  -0.946  0.00  0.00     0.000 A 
ATOM      6  C6  BNZ d   1       0.372  -0.316   0.387  0.00  0.00     0.000 A 
ENDROOT
TORSDOF 0
ENDMDL
