MODEL 1
REMARK minimizedAffinity 2.11747837
REMARK minimizedRMSD -1
REMARK  0 active torsions:
REMARK  status: ('A' for Active; 'I' for Inactive)
ROOT
ATOM      1  C1  BNZ d   1      -3.413   5.995  -3.628  0.00  0.00     0.000 A 
ATOM      2  C2  BNZ d   1      -2.127   5.999  -3.159  0.00  0.00     0.000 A 
ATOM      3  C3  BNZ d   1      -1.871   5.979  -1.816  0.00  0.00     0.000 A 
ATOM      4  C4  BNZ d   1      -2.900   5.994  -0.945  0.00  0.00     0.000 A 
ATOM      5  C5  BNZ d   1      -4.203   5.999  -1.402  0.00  0.00     0.000 A 
ATOM      6  C6  BNZ d   1      -4.457   5.981  -2.754  0.00  0.00     0.000 A 
ENDROOT
TORSDOF 0
ENDMDL
