MODEL 1
REMARK minimizedAffinity -1.98114789
REMARK minimizedRMSD -1
REMARK  0 active torsions:
REMARK  status: ('A' for Active; 'I' for Inactive)
ROOT
ATOM      1  C1  BNZ d   1       1.871   1.466  -1.093  0.00  0.00     0.000 A 
ATOM      2  C2  BNZ d   1       1.567   2.300  -0.050  0.00  0.00     0.000 A 
ATOM      3  C3  BNZ d   1       0.826   1.854   1.009  0.00  0.00     0.000 A 
ATOM      4  C4  BNZ d   1       0.357   0.590   1.005  0.00  0.00     0.000 A 
ATOM      5  C5  BNZ d   1       0.647  -0.260  -0.044  0.00  0.00     0.000 A 
ATOM      6  C6  BNZ d   1       1.425   0.180  -1.090  0.00  0.00     0.000 A 
ENDROOT
TORSDOF 0
ENDMDL
