MODEL 1
REMARK minimizedAffinity 0.058782313
REMARK minimizedRMSD -1
REMARK  0 active torsions:
REMARK  status: ('A' for Active; 'I' for Inactive)
ROOT
ATOM      1  C1  BNZ d   1      -2.013   5.967   0.054  0.00  0.00     0.000 A 
ATOM      2  C2  BNZ d   1      -1.563   5.964  -1.240  0.00  0.00     0.000 A 
ATOM      3  C3  BNZ d   1      -2.441   6.000  -2.286  0.00  0.00     0.000 A 
ATOM      4  C4  BNZ d   1      -3.767   5.997  -2.040  0.00  0.00     0.000 A 
ATOM      5  C5  BNZ d   1      -4.237   5.990  -0.742  0.00  0.00     0.000 A 
ATOM      6  C6  BNZ d   1      -3.349   5.994   0.310  0.00  0.00     0.000 A 
ENDROOT
TORSDOF 0
ENDMDL
