MODEL 1
REMARK minimizedAffinity -0.765550256
REMARK minimizedRMSD -1
REMARK  0 active torsions:
REMARK  status: ('A' for Active; 'I' for Inactive)
ROOT
ATOM      1  C1  BNZ d   1       0.835   5.520  -3.718  0.00  0.00     0.000 A 
ATOM      2  C2  BNZ d   1       1.357   4.959  -4.853  0.00  0.00     0.000 A 
ATOM      3  C3  BNZ d   1       0.617   4.884  -6.000  0.00  0.00     0.000 A 
ATOM      4  C4  BNZ d   1      -0.655   5.331  -5.999  0.00  0.00     0.000 A 
ATOM      5  C5  BNZ d   1      -1.199   5.890  -4.859  0.00  0.00     0.000 A 
ATOM      6  C6  BNZ d   1      -0.438   6.000  -3.718  0.00  0.00     0.000 A 
ENDROOT
TORSDOF 0
ENDMDL
