MODEL 1
REMARK minimizedAffinity 2.88764262
REMARK minimizedRMSD -1
REMARK  0 active torsions:
REMARK  status: ('A' for Active; 'I' for Inactive)
ROOT
ATOM      1  C1  BNZ d   1       1.703   0.164  -0.030  0.00  0.00     0.000 A 
ATOM      2  C2  BNZ d   1       0.718  -0.786   0.026  0.00  0.00     0.000 A 
ATOM      3  C3  BNZ d   1      -0.367  -0.621   0.840  0.00  0.00     0.000 A 
ATOM      4  C4  BNZ d   1      -0.447   0.472   1.626  0.00  0.00     0.000 A 
ATOM      5  C5  BNZ d   1       0.543   1.434   1.588  0.00  0.00     0.000 A 
ATOM      6  C6  BNZ d   1       1.614   1.284   0.738  0.00  0.00     0.000 A 
ENDROOT
TORSDOF 0
ENDMDL
