MODEL 1
REMARK minimizedAffinity -0.742368162
REMARK minimizedRMSD -1
REMARK  0 active torsions:
REMARK  status: ('A' for Active; 'I' for Inactive)
ROOT
ATOM      1  C1  BNZ d   1      -1.671   5.978  -5.915  0.00  0.00     0.000 A 
ATOM      2  C2  BNZ d   1      -2.528   5.972  -4.847  0.00  0.00     0.000 A 
ATOM      3  C3  BNZ d   1      -2.050   5.993  -3.566  0.00  0.00     0.000 A 
ATOM      4  C4  BNZ d   1      -0.718   5.980  -3.355  0.00  0.00     0.000 A 
ATOM      5  C5  BNZ d   1       0.159   5.976  -4.422  0.00  0.00     0.000 A 
ATOM      6  C6  BNZ d   1      -0.326   5.994  -5.710  0.00  0.00     0.000 A 
ENDROOT
TORSDOF 0
ENDMDL
