MODEL 1
REMARK minimizedAffinity -0.901758313
REMARK minimizedRMSD -1
REMARK  0 active torsions:
REMARK  status: ('A' for Active; 'I' for Inactive)
ROOT
ATOM      1  C1  BNZ d   1      -0.804   1.294   2.736  0.00  0.00     0.000 A 
ATOM      2  C2  BNZ d   1       0.412   1.834   2.413  0.00  0.00     0.000 A 
ATOM      3  C3  BNZ d   1       1.019   1.531   1.226  0.00  0.00     0.000 A 
ATOM      4  C4  BNZ d   1       0.429   0.659   0.383  0.00  0.00     0.000 A 
ATOM      5  C5  BNZ d   1      -0.792   0.098   0.700  0.00  0.00     0.000 A 
ATOM      6  C6  BNZ d   1      -1.418   0.435   1.878  0.00  0.00     0.000 A 
ENDROOT
TORSDOF 0
ENDMDL
