MODEL 1
REMARK minimizedAffinity 2.32073855
REMARK minimizedRMSD -1
REMARK  0 active torsions:
REMARK  status: ('A' for Active; 'I' for Inactive)
ROOT
ATOM      1  C1  BNZ d   1       1.112   1.474  -0.751  0.00  0.00     0.000 A 
ATOM      2  C2  BNZ d   1       2.354   1.139  -1.219  0.00  0.00     0.000 A 
ATOM      3  C3  BNZ d   1       3.204   0.377  -0.466  0.00  0.00     0.000 A 
ATOM      4  C4  BNZ d   1       2.826  -0.014   0.768  0.00  0.00     0.000 A 
ATOM      5  C5  BNZ d   1       1.580   0.323   1.258  0.00  0.00     0.000 A 
ATOM      6  C6  BNZ d   1       0.713   1.057   0.482  0.00  0.00     0.000 A 
ENDROOT
TORSDOF 0
ENDMDL
