MODEL 1
REMARK minimizedAffinity 6.11959696
REMARK minimizedRMSD -1
REMARK  1 active torsions:
REMARK  status: ('A' for Active; 'I' for Inactive)
REMARK    1  A    between atoms: C1_2  and  C2_3 
ROOT
ATOM      1  C2  UNL d   1      -1.130   1.880  -1.335  0.00  0.00    -0.073 A 
ATOM      2  C3  UNL d   1      -0.150   0.887  -1.438  0.00  0.00    -0.002 A 
ATOM      3  C4  UNL d   1      -0.515  -0.458  -1.519  0.00  0.00     0.004 A 
ATOM      4  C5  UNL d   1      -1.861  -0.822  -1.504  0.00  0.00    -0.004 A 
ATOM      5  C6  UNL d   1      -2.856   0.157  -1.414  0.00  0.00    -0.075 A 
ATOM      6  C7  UNL d   1      -4.308  -0.218  -1.395  0.00  0.00     0.076 C 
ATOM      7  C8  UNL d   1      -2.481   1.505  -1.330  0.00  0.00     0.001 A 
ENDROOT
BRANCH   1   8
ATOM      8  C1  UNL d   1      -0.741   3.334  -1.254  0.00  0.00     0.053 C 
ATOM      9  C   UNL d   1      -0.383   3.750   0.164  0.00  0.00     0.018 C 
ENDBRANCH   1   8
TORSDOF 1
ENDMDL
