MODEL 1
REMARK minimizedAffinity 8.3039217
REMARK minimizedRMSD -1
REMARK  1 active torsions:
REMARK  status: ('A' for Active; 'I' for Inactive)
REMARK    1  A    between atoms: C1_2  and  C2_3 
ROOT
ATOM      1  C2  UNL d   1      -0.130   2.298   1.640  0.00  0.00    -0.073 A 
ATOM      2  C3  UNL d   1      -0.521   1.391   0.648  0.00  0.00    -0.002 A 
ATOM      3  C4  UNL d   1      -0.733   1.826  -0.661  0.00  0.00     0.004 A 
ATOM      4  C5  UNL d   1      -0.549   3.168  -0.993  0.00  0.00    -0.004 A 
ATOM      5  C6  UNL d   1      -0.147   4.087  -0.019  0.00  0.00    -0.075 A 
ATOM      6  C7  UNL d   1       0.052   5.535  -0.360  0.00  0.00     0.076 C 
ATOM      7  C8  UNL d   1       0.060   3.643   1.294  0.00  0.00     0.001 A 
ENDROOT
BRANCH   1   8
ATOM      8  C1  UNL d   1       0.105   1.832   3.053  0.00  0.00     0.053 C 
ATOM      9  C   UNL d   1       0.014   0.319   3.177  0.00  0.00     0.018 C 
ENDBRANCH   1   8
TORSDOF 1
ENDMDL
