MODEL 1
REMARK minimizedAffinity 12.7483053
REMARK minimizedRMSD -1
REMARK  1 active torsions:
REMARK  status: ('A' for Active; 'I' for Inactive)
REMARK    1  A    between atoms: C1_2  and  C2_3 
ROOT
ATOM      1  C2  UNL d   1       0.175   2.946   1.372  0.00  0.00    -0.073 A 
ATOM      2  C3  UNL d   1      -0.398   1.982   0.535  0.00  0.00    -0.002 A 
ATOM      3  C4  UNL d   1      -0.795   2.318  -0.760  0.00  0.00     0.004 A 
ATOM      4  C5  UNL d   1      -0.618   3.619  -1.233  0.00  0.00    -0.004 A 
ATOM      5  C6  UNL d   1      -0.037   4.593  -0.416  0.00  0.00    -0.075 A 
ATOM      6  C7  UNL d   1       0.159   5.997  -0.909  0.00  0.00     0.076 C 
ATOM      7  C8  UNL d   1       0.357   4.248   0.884  0.00  0.00     0.001 A 
ENDROOT
BRANCH   1   8
ATOM      8  C1  UNL d   1       0.611   2.586   2.768  0.00  0.00     0.053 C 
ATOM      9  C   UNL d   1       1.910   3.275   3.155  0.00  0.00     0.018 C 
ENDBRANCH   1   8
TORSDOF 1
ENDMDL
