MODEL 1
REMARK minimizedAffinity 12.1084356
REMARK minimizedRMSD -1
REMARK  1 active torsions:
REMARK  status: ('A' for Active; 'I' for Inactive)
REMARK    1  A    between atoms: C1_2  and  C2_3 
ROOT
ATOM      1  C2  UNL d   1       0.236   3.681   0.716  0.00  0.00    -0.073 A 
ATOM      2  C3  UNL d   1       1.456   3.661   1.401  0.00  0.00    -0.002 A 
ATOM      3  C4  UNL d   1       1.558   3.028   2.641  0.00  0.00     0.004 A 
ATOM      4  C5  UNL d   1       0.445   2.404   3.204  0.00  0.00    -0.004 A 
ATOM      5  C6  UNL d   1      -0.780   2.402   2.529  0.00  0.00    -0.075 A 
ATOM      6  C7  UNL d   1      -1.987   1.737   3.122  0.00  0.00     0.076 C 
ATOM      7  C8  UNL d   1      -0.875   3.042   1.286  0.00  0.00     0.001 A 
ENDROOT
BRANCH   1   8
ATOM      8  C1  UNL d   1       0.122   4.357  -0.626  0.00  0.00     0.053 C 
ATOM      9  C   UNL d   1      -0.611   3.493  -1.640  0.00  0.00     0.018 C 
ENDBRANCH   1   8
TORSDOF 1
ENDMDL
