MODEL 1
REMARK minimizedAffinity 0.603525937
REMARK minimizedRMSD -1
REMARK  1 active torsions:
REMARK  status: ('A' for Active; 'I' for Inactive)
REMARK    1  A    between atoms: C1_2  and  C2_3 
ROOT
ATOM      1  C2  UNL d   1      -0.640   2.737   1.097  0.00  0.00    -0.073 A 
ATOM      2  C3  UNL d   1      -0.856   1.735   0.144  0.00  0.00    -0.002 A 
ATOM      3  C4  UNL d   1      -0.972   2.061  -1.208  0.00  0.00     0.004 A 
ATOM      4  C5  UNL d   1      -0.866   3.389  -1.621  0.00  0.00    -0.004 A 
ATOM      5  C6  UNL d   1      -0.639   4.403  -0.685  0.00  0.00    -0.075 A 
ATOM      6  C7  UNL d   1      -0.526   5.837  -1.113  0.00  0.00     0.076 C 
ATOM      7  C8  UNL d   1      -0.527   4.068   0.671  0.00  0.00     0.001 A 
ENDROOT
BRANCH   1   8
ATOM      8  C1  UNL d   1      -0.508   2.389   2.557  0.00  0.00     0.053 C 
ATOM      9  C   UNL d   1       0.105   1.013   2.761  0.00  0.00     0.018 C 
ENDBRANCH   1   8
TORSDOF 1
ENDMDL
