MODEL 1
REMARK minimizedAffinity 5.30216885
REMARK minimizedRMSD -1
REMARK  1 active torsions:
REMARK  status: ('A' for Active; 'I' for Inactive)
REMARK    1  A    between atoms: C1_2  and  C2_3 
ROOT
ATOM      1  C2  UNL d   1      -0.006  -3.558  -4.921  0.00  0.00    -0.073 A 
ATOM      2  C3  UNL d   1      -0.132  -4.442  -5.999  0.00  0.00    -0.002 A 
ATOM      3  C4  UNL d   1       0.558  -5.655  -6.000  0.00  0.00     0.004 A 
ATOM      4  C5  UNL d   1       1.373  -6.000  -4.923  0.00  0.00    -0.004 A 
ATOM      5  C6  UNL d   1       1.503  -5.135  -3.831  0.00  0.00    -0.075 A 
ATOM      6  C7  UNL d   1       2.379  -5.490  -2.665  0.00  0.00     0.076 C 
ATOM      7  C8  UNL d   1       0.810  -3.917  -3.839  0.00  0.00     0.001 A 
ENDROOT
BRANCH   1   8
ATOM      8  C1  UNL d   1      -0.754  -2.250  -4.913  0.00  0.00     0.053 C 
ATOM      9  C   UNL d   1      -1.261  -1.892  -3.525  0.00  0.00     0.018 C 
ENDBRANCH   1   8
TORSDOF 1
ENDMDL
