MODEL 1
REMARK minimizedAffinity 6.96866894
REMARK minimizedRMSD -1
REMARK  1 active torsions:
REMARK  status: ('A' for Active; 'I' for Inactive)
REMARK    1  A    between atoms: C3_4  and  O_7 
ROOT
ATOM      1  C   UNL d   1       0.264  -4.416   6.000  0.00  0.00    -0.033 A 
ATOM      2  C1  UNL d   1       1.427  -3.644   6.000  0.00  0.00     0.039 A 
ATOM      3  C2  UNL d   1       1.594  -2.629   5.055  0.00  0.00    -0.080 A 
ATOM      4  C3  UNL d   1       0.591  -2.397   4.118  0.00  0.00     0.150 A 
ATOM      5  C4  UNL d   1      -0.572  -3.160   4.114  0.00  0.00    -0.007 A 
ATOM      6  C5  UNL d   1      -0.736  -4.174   5.058  0.00  0.00     0.039 A 
ENDROOT
BRANCH   4   7
ATOM      7  O   UNL d   1       0.711  -1.421   3.173  0.00  0.00    -0.526 OA
ATOM      8  H5  UNL d   1       1.578  -0.995   3.279  0.00  0.00     0.418 HD
ENDBRANCH   4   7
TORSDOF 1
ENDMDL
