MODEL 1
REMARK minimizedAffinity -1.0715133
REMARK minimizedRMSD -1
REMARK  1 active torsions:
REMARK  status: ('A' for Active; 'I' for Inactive)
REMARK    1  A    between atoms: C3_4  and  O_7 
ROOT
ATOM      1  C   UNL d   1       1.326   0.712   4.776  0.00  0.00    -0.033 A 
ATOM      2  C1  UNL d   1       1.756   1.540   3.736  0.00  0.00     0.039 A 
ATOM      3  C2  UNL d   1       2.990   2.188   3.822  0.00  0.00    -0.080 A 
ATOM      4  C3  UNL d   1       3.783   2.000   4.951  0.00  0.00     0.150 A 
ATOM      5  C4  UNL d   1       3.363   1.174   5.988  0.00  0.00    -0.007 A 
ATOM      6  C5  UNL d   1       2.131   0.528   5.901  0.00  0.00     0.039 A 
ENDROOT
BRANCH   4   7
ATOM      7  O   UNL d   1       4.993   2.616   5.082  0.00  0.00    -0.526 OA
ATOM      8  H5  UNL d   1       5.138   3.177   4.302  0.00  0.00     0.418 HD
ENDBRANCH   4   7
TORSDOF 1
ENDMDL
