MODEL 1
REMARK minimizedAffinity 0.662599206
REMARK minimizedRMSD -1
REMARK  1 active torsions:
REMARK  status: ('A' for Active; 'I' for Inactive)
REMARK    1  A    between atoms: C3_4  and  O_7 
ROOT
ATOM      1  C   UNL d   1       2.076  -1.757  -0.750  0.00  0.00    -0.033 A 
ATOM      2  C1  UNL d   1       3.324  -1.503  -1.322  0.00  0.00     0.039 A 
ATOM      3  C2  UNL d   1       3.816  -0.198  -1.378  0.00  0.00    -0.080 A 
ATOM      4  C3  UNL d   1       3.051   0.843  -0.859  0.00  0.00     0.150 A 
ATOM      5  C4  UNL d   1       1.808   0.597  -0.285  0.00  0.00    -0.007 A 
ATOM      6  C5  UNL d   1       1.318  -0.707  -0.230  0.00  0.00     0.039 A 
ENDROOT
BRANCH   4   7
ATOM      7  O   UNL d   1       3.487   2.135  -0.895  0.00  0.00    -0.526 OA
ATOM      8  H5  UNL d   1       4.347   2.156  -1.346  0.00  0.00     0.418 HD
ENDBRANCH   4   7
TORSDOF 1
ENDMDL
