MODEL 1
REMARK minimizedAffinity 0.305111766
REMARK minimizedRMSD -1
REMARK  1 active torsions:
REMARK  status: ('A' for Active; 'I' for Inactive)
REMARK    1  A    between atoms: C3_4  and  O_7 
ROOT
ATOM      1  C   UNL d   1       0.440  -0.867  -0.360  0.00  0.00    -0.033 A 
ATOM      2  C1  UNL d   1      -0.542  -0.306  -1.179  0.00  0.00     0.039 A 
ATOM      3  C2  UNL d   1      -1.302  -1.121  -2.021  0.00  0.00    -0.080 A 
ATOM      4  C3  UNL d   1      -1.071  -2.494  -2.032  0.00  0.00     0.150 A 
ATOM      5  C4  UNL d   1      -0.098  -3.061  -1.216  0.00  0.00    -0.007 A 
ATOM      6  C5  UNL d   1       0.660  -2.245  -0.377  0.00  0.00     0.039 A 
ENDROOT
BRANCH   4   7
ATOM      7  O   UNL d   1      -1.785  -3.329  -2.840  0.00  0.00    -0.526 OA
ATOM      8  H5  UNL d   1      -2.401  -2.795  -3.368  0.00  0.00     0.418 HD
ENDBRANCH   4   7
TORSDOF 1
ENDMDL
