MODEL 1
REMARK minimizedAffinity -3.41397119
REMARK minimizedRMSD -1
REMARK  1 active torsions:
REMARK  status: ('A' for Active; 'I' for Inactive)
REMARK    1  A    between atoms: C3_4  and  O_7 
ROOT
ATOM      1  C   UNL d   1      -1.022   0.479  -1.868  0.00  0.00    -0.033 A 
ATOM      2  C1  UNL d   1      -0.075   0.776  -0.886  0.00  0.00     0.039 A 
ATOM      3  C2  UNL d   1       0.678  -0.248  -0.309  0.00  0.00    -0.080 A 
ATOM      4  C3  UNL d   1       0.475  -1.562  -0.722  0.00  0.00     0.150 A 
ATOM      5  C4  UNL d   1      -0.464  -1.864  -1.703  0.00  0.00    -0.007 A 
ATOM      6  C5  UNL d   1      -1.216  -0.840  -2.278  0.00  0.00     0.039 A 
ENDROOT
BRANCH   4   7
ATOM      7  O   UNL d   1       1.183  -2.596  -0.184  0.00  0.00    -0.526 OA
ATOM      8  H5  UNL d   1       1.774  -2.240   0.501  0.00  0.00     0.418 HD
ENDBRANCH   4   7
TORSDOF 1
ENDMDL
