MODEL 1
REMARK minimizedAffinity 8.70571136
REMARK minimizedRMSD -1
REMARK  1 active torsions:
REMARK  status: ('A' for Active; 'I' for Inactive)
REMARK    1  A    between atoms: C3_4  and  O_7 
ROOT
ATOM      1  C   UNL d   1      -2.120  -0.207  -3.147  0.00  0.00    -0.033 A 
ATOM      2  C1  UNL d   1      -1.496   0.925  -2.620  0.00  0.00     0.039 A 
ATOM      3  C2  UNL d   1      -1.924   1.457  -1.402  0.00  0.00    -0.080 A 
ATOM      4  C3  UNL d   1      -2.974   0.847  -0.722  0.00  0.00     0.150 A 
ATOM      5  C4  UNL d   1      -3.598  -0.283  -1.239  0.00  0.00    -0.007 A 
ATOM      6  C5  UNL d   1      -3.170  -0.812  -2.456  0.00  0.00     0.039 A 
ENDROOT
BRANCH   4   7
ATOM      7  O   UNL d   1      -3.430   1.333   0.468  0.00  0.00    -0.526 OA
ATOM      8  H5  UNL d   1      -2.924   2.133   0.688  0.00  0.00     0.418 HD
ENDBRANCH   4   7
TORSDOF 1
ENDMDL
