MODEL 1
REMARK minimizedAffinity 9.04778481
REMARK minimizedRMSD -1
REMARK  1 active torsions:
REMARK  status: ('A' for Active; 'I' for Inactive)
REMARK    1  A    between atoms: C3_4  and  O_7 
ROOT
ATOM      1  C   UNL d   1       3.798  -0.225  -0.166  0.00  0.00    -0.033 A 
ATOM      2  C1  UNL d   1       2.986  -0.406  -1.287  0.00  0.00     0.039 A 
ATOM      3  C2  UNL d   1       2.408  -1.652  -1.540  0.00  0.00    -0.080 A 
ATOM      4  C3  UNL d   1       2.649  -2.707  -0.664  0.00  0.00     0.150 A 
ATOM      5  C4  UNL d   1       3.454  -2.533   0.457  0.00  0.00    -0.007 A 
ATOM      6  C5  UNL d   1       4.031  -1.288   0.707  0.00  0.00     0.039 A 
ENDROOT
BRANCH   4   7
ATOM      7  O   UNL d   1       2.110  -3.942  -0.871  0.00  0.00    -0.526 OA
ATOM      8  H5  UNL d   1       1.601  -3.921  -1.698  0.00  0.00     0.418 HD
ENDBRANCH   4   7
TORSDOF 1
ENDMDL
