MODEL 1
REMARK minimizedAffinity 5.75765562
REMARK minimizedRMSD -1
REMARK  1 active torsions:
REMARK  status: ('A' for Active; 'I' for Inactive)
REMARK    1  A    between atoms: C3_4  and  O_7 
ROOT
ATOM      1  C   UNL d   1      -2.269  -0.330  -3.036  0.00  0.00    -0.033 A 
ATOM      2  C1  UNL d   1      -3.422  -0.710  -2.346  0.00  0.00     0.039 A 
ATOM      3  C2  UNL d   1      -3.612  -0.304  -1.023  0.00  0.00    -0.080 A 
ATOM      4  C3  UNL d   1      -2.644   0.481  -0.404  0.00  0.00     0.150 A 
ATOM      5  C4  UNL d   1      -1.495   0.866  -1.086  0.00  0.00    -0.007 A 
ATOM      6  C5  UNL d   1      -1.306   0.459  -2.406  0.00  0.00     0.039 A 
ENDROOT
BRANCH   4   7
ATOM      7  O   UNL d   1      -2.783   0.897   0.887  0.00  0.00    -0.526 OA
ATOM      8  H5  UNL d   1      -3.611   0.531   1.241  0.00  0.00     0.418 HD
ENDBRANCH   4   7
TORSDOF 1
ENDMDL
