MODEL 1
REMARK minimizedAffinity -2.59657955
REMARK minimizedRMSD -1
REMARK  1 active torsions:
REMARK  status: ('A' for Active; 'I' for Inactive)
REMARK    1  A    between atoms: C3_4  and  O_7 
ROOT
ATOM      1  C   UNL d   1       0.200  -5.150   4.329  0.00  0.00    -0.033 A 
ATOM      2  C1  UNL d   1       0.326  -4.741   3.001  0.00  0.00     0.039 A 
ATOM      3  C2  UNL d   1       0.422  -3.382   2.693  0.00  0.00    -0.080 A 
ATOM      4  C3  UNL d   1       0.392  -2.445   3.722  0.00  0.00     0.150 A 
ATOM      5  C4  UNL d   1       0.270  -2.846   5.048  0.00  0.00    -0.007 A 
ATOM      6  C5  UNL d   1       0.173  -4.203   5.353  0.00  0.00     0.039 A 
ENDROOT
BRANCH   4   7
ATOM      7  O   UNL d   1       0.478  -1.108   3.471  0.00  0.00    -0.526 OA
ATOM      8  H5  UNL d   1       0.529  -0.978   2.509  0.00  0.00     0.418 HD
ENDBRANCH   4   7
TORSDOF 1
ENDMDL
