MODEL 1
REMARK minimizedAffinity -4.87758684
REMARK minimizedRMSD -1
REMARK  1 active torsions:
REMARK  status: ('A' for Active; 'I' for Inactive)
REMARK    1  A    between atoms: C1_2  and  C2_3 
ROOT
ATOM      1  C2  UNL d   1       0.300   0.059   0.270  0.00  0.00    -0.076 A 
ATOM      2  C3  UNL d   1       1.550   0.577  -0.112  0.00  0.00     0.004 A 
ATOM      3  C4  UNL d   1       1.745   1.949  -0.255  0.00  0.00    -0.003 A 
ATOM      4  C5  UNL d   1       0.693   2.827  -0.018  0.00  0.00     0.000 A 
ATOM      5  C6  UNL d   1      -0.549   2.333   0.379  0.00  0.00     0.000 A 
ATOM      6  C7  UNL d   1      -0.757   0.953   0.544  0.00  0.00    -0.073 A 
ATOM      7  C8  UNL d   1      -2.119   0.474   0.968  0.00  0.00     0.078 C 
ENDROOT
BRANCH   1   8
ATOM      8  C1  UNL d   1       0.141  -1.440   0.383  0.00  0.00     0.053 C 
ATOM      9  C   UNL d   1      -0.098  -2.103  -0.965  0.00  0.00     0.018 C 
ENDBRANCH   1   8
TORSDOF 1
ENDMDL
