MODEL 1
REMARK minimizedAffinity 0.399354815
REMARK minimizedRMSD -1
REMARK  1 active torsions:
REMARK  status: ('A' for Active; 'I' for Inactive)
REMARK    1  A    between atoms: C1_2  and  C2_3 
ROOT
ATOM      1  C2  UNL d   1       1.234   1.534   0.777  0.00  0.00    -0.076 A 
ATOM      2  C3  UNL d   1       2.118   0.482   0.482  0.00  0.00     0.004 A 
ATOM      3  C4  UNL d   1       1.641  -0.762   0.072  0.00  0.00    -0.003 A 
ATOM      4  C5  UNL d   1       0.272  -0.974  -0.050  0.00  0.00     0.000 A 
ATOM      5  C6  UNL d   1      -0.619   0.064   0.223  0.00  0.00     0.000 A 
ATOM      6  C7  UNL d   1      -0.154   1.329   0.621  0.00  0.00    -0.073 A 
ATOM      7  C8  UNL d   1      -1.159   2.411   0.908  0.00  0.00     0.078 C 
ENDROOT
BRANCH   1   8
ATOM      8  C1  UNL d   1       1.808   2.853   1.244  0.00  0.00     0.053 C 
ATOM      9  C   UNL d   1       3.098   2.681   2.030  0.00  0.00     0.018 C 
ENDBRANCH   1   8
TORSDOF 1
ENDMDL
