MODEL 1
REMARK minimizedAffinity -1.82273018
REMARK minimizedRMSD -1
REMARK  1 active torsions:
REMARK  status: ('A' for Active; 'I' for Inactive)
REMARK    1  A    between atoms: C1_2  and  C2_3 
ROOT
ATOM      1  C2  UNL d   1       0.853   0.772   0.340  0.00  0.00    -0.076 A 
ATOM      2  C3  UNL d   1       2.154   0.241   0.301  0.00  0.00     0.004 A 
ATOM      3  C4  UNL d   1       3.239   0.961   0.798  0.00  0.00    -0.003 A 
ATOM      4  C5  UNL d   1       3.040   2.225   1.343  0.00  0.00     0.000 A 
ATOM      5  C6  UNL d   1       1.754   2.761   1.406  0.00  0.00     0.000 A 
ATOM      6  C7  UNL d   1       0.647   2.041   0.924  0.00  0.00    -0.073 A 
ATOM      7  C8  UNL d   1      -0.716   2.669   1.012  0.00  0.00     0.078 C 
ENDROOT
BRANCH   1   8
ATOM      8  C1  UNL d   1      -0.281  -0.044  -0.238  0.00  0.00     0.053 C 
ATOM      9  C   UNL d   1       0.039  -1.530  -0.292  0.00  0.00     0.018 C 
ENDBRANCH   1   8
TORSDOF 1
ENDMDL
