MODEL 1
REMARK minimizedAffinity -3.96075845
REMARK minimizedRMSD -1
REMARK  1 active torsions:
REMARK  status: ('A' for Active; 'I' for Inactive)
REMARK    1  A    between atoms: C1_2  and  C2_3 
ROOT
ATOM      1  C2  UNL d   1      -0.362  -0.692  -0.554  0.00  0.00    -0.076 A 
ATOM      2  C3  UNL d   1      -1.479  -0.767  -1.404  0.00  0.00     0.004 A 
ATOM      3  C4  UNL d   1      -1.869  -1.980  -1.970  0.00  0.00    -0.003 A 
ATOM      4  C5  UNL d   1      -1.149  -3.137  -1.694  0.00  0.00     0.000 A 
ATOM      5  C6  UNL d   1      -0.049  -3.084  -0.839  0.00  0.00     0.000 A 
ATOM      6  C7  UNL d   1       0.347  -1.872  -0.247  0.00  0.00    -0.073 A 
ATOM      7  C8  UNL d   1       1.545  -1.872   0.664  0.00  0.00     0.078 C 
ENDROOT
BRANCH   1   8
ATOM      8  C1  UNL d   1       0.029   0.656   0.009  0.00  0.00     0.053 C 
ATOM      9  C   UNL d   1      -1.172   1.464   0.475  0.00  0.00     0.018 C 
ENDBRANCH   1   8
TORSDOF 1
ENDMDL
