MODEL 1
REMARK minimizedAffinity -4.45048857
REMARK minimizedRMSD -1
REMARK  1 active torsions:
REMARK  status: ('A' for Active; 'I' for Inactive)
REMARK    1  A    between atoms: C1_2  and  C2_3 
ROOT
ATOM      1  C2  UNL d   1       0.286   0.149  -0.029  0.00  0.00    -0.076 A 
ATOM      2  C3  UNL d   1       1.615   0.599   0.060  0.00  0.00     0.004 A 
ATOM      3  C4  UNL d   1       1.907   1.893   0.487  0.00  0.00    -0.003 A 
ATOM      4  C5  UNL d   1       0.875   2.759   0.833  0.00  0.00     0.000 A 
ATOM      5  C6  UNL d   1      -0.448   2.324   0.768  0.00  0.00     0.000 A 
ATOM      6  C7  UNL d   1      -0.759   1.017   0.355  0.00  0.00    -0.073 A 
ATOM      7  C8  UNL d   1      -2.204   0.602   0.298  0.00  0.00     0.078 C 
ENDROOT
BRANCH   1   8
ATOM      8  C1  UNL d   1       0.029  -1.256  -0.524  0.00  0.00     0.053 C 
ATOM      9  C   UNL d   1       0.726  -2.309   0.323  0.00  0.00     0.018 C 
ENDBRANCH   1   8
TORSDOF 1
ENDMDL
