MODEL 1
REMARK minimizedAffinity -2.79162216
REMARK minimizedRMSD -1
REMARK  1 active torsions:
REMARK  status: ('A' for Active; 'I' for Inactive)
REMARK    1  A    between atoms: C1_2  and  C2_3 
ROOT
ATOM      1  C2  UNL d   1       0.129  -0.206  -0.204  0.00  0.00    -0.076 A 
ATOM      2  C3  UNL d   1       1.141   0.716   0.112  0.00  0.00     0.004 A 
ATOM      3  C4  UNL d   1       2.407   0.286   0.507  0.00  0.00    -0.003 A 
ATOM      4  C5  UNL d   1       2.681  -1.075   0.591  0.00  0.00     0.000 A 
ATOM      5  C6  UNL d   1       1.694  -2.004   0.264  0.00  0.00     0.000 A 
ATOM      6  C7  UNL d   1       0.418  -1.587  -0.152  0.00  0.00    -0.073 A 
ATOM      7  C8  UNL d   1      -0.610  -2.632  -0.487  0.00  0.00     0.078 C 
ENDROOT
BRANCH   1   8
ATOM      8  C1  UNL d   1      -1.232   0.319  -0.600  0.00  0.00     0.053 C 
ATOM      9  C   UNL d   1      -1.728   1.414   0.332  0.00  0.00     0.018 C 
ENDBRANCH   1   8
TORSDOF 1
ENDMDL
