MODEL 1
REMARK minimizedAffinity -3.82678437
REMARK minimizedRMSD -1
REMARK  1 active torsions:
REMARK  status: ('A' for Active; 'I' for Inactive)
REMARK    1  A    between atoms: C1_2  and  C2_3 
ROOT
ATOM      1  C2  UNL d   1      -0.026  -0.195   0.287  0.00  0.00    -0.076 A 
ATOM      2  C3  UNL d   1      -1.398   0.011   0.517  0.00  0.00     0.004 A 
ATOM      3  C4  UNL d   1      -1.919   1.297   0.650  0.00  0.00    -0.003 A 
ATOM      4  C5  UNL d   1      -1.076   2.399   0.554  0.00  0.00     0.000 A 
ATOM      5  C6  UNL d   1       0.284   2.215   0.309  0.00  0.00     0.000 A 
ATOM      6  C7  UNL d   1       0.822   0.925   0.156  0.00  0.00    -0.073 A 
ATOM      7  C8  UNL d   1       2.298   0.785  -0.101  0.00  0.00     0.078 C 
ENDROOT
BRANCH   1   8
ATOM      8  C1  UNL d   1       0.485  -1.613   0.179  0.00  0.00     0.053 C 
ATOM      9  C   UNL d   1      -0.256  -2.421  -0.875  0.00  0.00     0.018 C 
ENDBRANCH   1   8
TORSDOF 1
ENDMDL
