MODEL 1
REMARK minimizedAffinity -1.25682223
REMARK minimizedRMSD -1
REMARK  1 active torsions:
REMARK  status: ('A' for Active; 'I' for Inactive)
REMARK    1  A    between atoms: C1_2  and  C2_3 
ROOT
ATOM      1  C2  UNL d   1       0.450  -0.150   0.369  0.00  0.00    -0.076 A 
ATOM      2  C3  UNL d   1       1.807   0.202   0.473  0.00  0.00     0.004 A 
ATOM      3  C4  UNL d   1       2.189   1.510   0.766  0.00  0.00    -0.003 A 
ATOM      4  C5  UNL d   1       1.219   2.488   0.961  0.00  0.00     0.000 A 
ATOM      5  C6  UNL d   1      -0.132   2.153   0.879  0.00  0.00     0.000 A 
ATOM      6  C7  UNL d   1      -0.534   0.835   0.600  0.00  0.00    -0.073 A 
ATOM      7  C8  UNL d   1      -2.005   0.531   0.518  0.00  0.00     0.078 C 
ENDROOT
BRANCH   1   8
ATOM      8  C1  UNL d   1       0.097  -1.579   0.022  0.00  0.00     0.053 C 
ATOM      9  C   UNL d   1       0.017  -1.811  -1.479  0.00  0.00     0.018 C 
ENDBRANCH   1   8
TORSDOF 1
ENDMDL
