MODEL 1
REMARK minimizedAffinity -2.40014386
REMARK minimizedRMSD -1
REMARK  1 active torsions:
REMARK  status: ('A' for Active; 'I' for Inactive)
REMARK    1  A    between atoms: C1_2  and  C2_3 
ROOT
ATOM      1  C2  UNL d   1      -0.559  -1.267  -1.449  0.00  0.00    -0.076 A 
ATOM      2  C3  UNL d   1      -1.363  -0.402  -2.212  0.00  0.00     0.004 A 
ATOM      3  C4  UNL d   1      -1.838   0.794  -1.678  0.00  0.00    -0.003 A 
ATOM      4  C5  UNL d   1      -1.517   1.145  -0.371  0.00  0.00     0.000 A 
ATOM      5  C6  UNL d   1      -0.706   0.308   0.394  0.00  0.00     0.000 A 
ATOM      6  C7  UNL d   1      -0.205  -0.894  -0.135  0.00  0.00    -0.073 A 
ATOM      7  C8  UNL d   1       0.659  -1.762   0.737  0.00  0.00     0.078 C 
ENDROOT
BRANCH   1   8
ATOM      8  C1  UNL d   1      -0.096  -2.564  -2.073  0.00  0.00     0.053 C 
ATOM      9  C   UNL d   1      -1.112  -3.684  -1.913  0.00  0.00     0.018 C 
ENDBRANCH   1   8
TORSDOF 1
ENDMDL
