MODEL 1
REMARK minimizedAffinity -4.68021631
REMARK minimizedRMSD -1
REMARK  1 active torsions:
REMARK  status: ('A' for Active; 'I' for Inactive)
REMARK    1  A    between atoms: C1_2  and  C2_3 
ROOT
ATOM      1  C2  UNL d   1       0.482   1.571  -0.237  0.00  0.00    -0.076 A 
ATOM      2  C3  UNL d   1       1.835   1.191  -0.278  0.00  0.00     0.004 A 
ATOM      3  C4  UNL d   1       2.253  -0.030   0.248  0.00  0.00    -0.003 A 
ATOM      4  C5  UNL d   1       1.325  -0.892   0.822  0.00  0.00     0.000 A 
ATOM      5  C6  UNL d   1      -0.024  -0.538   0.855  0.00  0.00     0.000 A 
ATOM      6  C7  UNL d   1      -0.464   0.682   0.315  0.00  0.00    -0.073 A 
ATOM      7  C8  UNL d   1      -1.930   1.015   0.382  0.00  0.00     0.078 C 
ENDROOT
BRANCH   1   8
ATOM      8  C1  UNL d   1       0.092   2.920  -0.799  0.00  0.00     0.053 C 
ATOM      9  C   UNL d   1      -0.412   2.831  -2.231  0.00  0.00     0.018 C 
ENDBRANCH   1   8
TORSDOF 1
ENDMDL
