MODEL 1
REMARK minimizedAffinity -4.1711359
REMARK minimizedRMSD -1
REMARK  1 active torsions:
REMARK  status: ('A' for Active; 'I' for Inactive)
REMARK    1  A    between atoms: C1_2  and  C2_3 
ROOT
ATOM      1  C2  UNL d   1      -0.461  -1.285  -0.787  0.00  0.00    -0.076 A 
ATOM      2  C3  UNL d   1      -1.341  -0.422  -1.463  0.00  0.00     0.004 A 
ATOM      3  C4  UNL d   1      -1.327   0.950  -1.222  0.00  0.00    -0.003 A 
ATOM      4  C5  UNL d   1      -0.432   1.483  -0.301  0.00  0.00     0.000 A 
ATOM      5  C6  UNL d   1       0.461   0.644   0.366  0.00  0.00     0.000 A 
ATOM      6  C7  UNL d   1       0.471  -0.740   0.123  0.00  0.00    -0.073 A 
ATOM      7  C8  UNL d   1       1.450  -1.598   0.875  0.00  0.00     0.078 C 
ENDROOT
BRANCH   1   8
ATOM      8  C1  UNL d   1      -0.541  -2.768  -1.070  0.00  0.00     0.053 C 
ATOM      9  C   UNL d   1       0.266  -3.172  -2.294  0.00  0.00     0.018 C 
ENDBRANCH   1   8
TORSDOF 1
ENDMDL
