MODEL 1
REMARK minimizedAffinity 10.1542721
REMARK minimizedRMSD -1
REMARK  1 active torsions:
REMARK  status: ('A' for Active; 'I' for Inactive)
REMARK    1  A    between atoms: C1_2  and  C2_3 
ROOT
ATOM      1  C2  UNL d   1      -3.392   0.387   4.561  0.00  0.00    -0.081 A 
ATOM      2  C3  UNL d   1      -4.439  -0.399   5.059  0.00  0.00     0.006 A 
ATOM      3  C4  UNL d   1      -5.254  -1.126   4.189  0.00  0.00     0.002 A 
ATOM      4  C5  UNL d   1      -5.033  -1.086   2.808  0.00  0.00    -0.080 A 
ATOM      5  C6  UNL d   1      -5.882  -1.885   1.865  0.00  0.00     0.076 C 
ATOM      6  C7  UNL d   1      -3.998  -0.287   2.309  0.00  0.00     0.002 A 
ATOM      7  C8  UNL d   1      -3.183   0.440   3.179  0.00  0.00     0.006 A 
ENDROOT
BRANCH   1   8
ATOM      8  C1  UNL d   1      -2.470   1.121   5.501  0.00  0.00     0.054 C 
ATOM      9  C   UNL d   1      -1.119   0.427   5.605  0.00  0.00     0.018 C 
ENDBRANCH   1   8
TORSDOF 1
ENDMDL
