MODEL 1
REMARK minimizedAffinity 5.58717775
REMARK minimizedRMSD -1
REMARK  1 active torsions:
REMARK  status: ('A' for Active; 'I' for Inactive)
REMARK    1  A    between atoms: C1_2  and  C2_3 
ROOT
ATOM      1  C2  UNL d   1       1.052   4.249  -4.124  0.00  0.00    -0.081 A 
ATOM      2  C3  UNL d   1       1.157   4.850  -5.384  0.00  0.00     0.006 A 
ATOM      3  C4  UNL d   1       0.033   5.404  -6.000  0.00  0.00     0.002 A 
ATOM      4  C5  UNL d   1      -1.213   5.375  -5.363  0.00  0.00    -0.080 A 
ATOM      5  C6  UNL d   1      -2.421   5.994  -6.000  0.00  0.00     0.076 C 
ATOM      6  C7  UNL d   1      -1.321   4.759  -4.112  0.00  0.00     0.002 A 
ATOM      7  C8  UNL d   1      -0.197   4.203  -3.496  0.00  0.00     0.006 A 
ENDROOT
BRANCH   1   8
ATOM      8  C1  UNL d   1       2.275   3.707  -3.429  0.00  0.00     0.054 C 
ATOM      9  C   UNL d   1       1.910   3.024  -2.118  0.00  0.00     0.018 C 
ENDBRANCH   1   8
TORSDOF 1
ENDMDL
