MODEL 1
REMARK minimizedAffinity 6.37693024
REMARK minimizedRMSD -1
REMARK  1 active torsions:
REMARK  status: ('A' for Active; 'I' for Inactive)
REMARK    1  A    between atoms: C1_2  and  C2_3 
ROOT
ATOM      1  C2  UNL d   1       1.134   4.503  -3.861  0.00  0.00    -0.081 A 
ATOM      2  C3  UNL d   1       1.098   4.460  -5.260  0.00  0.00     0.006 A 
ATOM      3  C4  UNL d   1      -0.018   4.932  -5.956  0.00  0.00     0.002 A 
ATOM      4  C5  UNL d   1      -1.112   5.462  -5.265  0.00  0.00    -0.080 A 
ATOM      5  C6  UNL d   1      -2.304   6.000  -6.000  0.00  0.00     0.076 C 
ATOM      6  C7  UNL d   1      -1.085   5.489  -3.866  0.00  0.00     0.002 A 
ATOM      7  C8  UNL d   1       0.030   5.016  -3.170  0.00  0.00     0.006 A 
ENDROOT
BRANCH   1   8
ATOM      8  C1  UNL d   1       2.362   4.054  -3.111  0.00  0.00     0.054 C 
ATOM      9  C   UNL d   1       3.438   3.552  -4.063  0.00  0.00     0.018 C 
ENDBRANCH   1   8
TORSDOF 1
ENDMDL
