MODEL 1
REMARK minimizedAffinity 9.82186317
REMARK minimizedRMSD -1
REMARK  1 active torsions:
REMARK  status: ('A' for Active; 'I' for Inactive)
REMARK    1  A    between atoms: C1_2  and  C2_3 
ROOT
ATOM      1  C2  UNL d   1      -3.882  -2.488   1.211  0.00  0.00    -0.081 A 
ATOM      2  C3  UNL d   1      -4.152  -2.398   2.583  0.00  0.00     0.006 A 
ATOM      3  C4  UNL d   1      -4.822  -3.431   3.242  0.00  0.00     0.002 A 
ATOM      4  C5  UNL d   1      -5.227  -4.574   2.543  0.00  0.00    -0.080 A 
ATOM      5  C6  UNL d   1      -5.921  -5.703   3.245  0.00  0.00     0.076 C 
ATOM      6  C7  UNL d   1      -4.974  -4.656   1.170  0.00  0.00     0.002 A 
ATOM      7  C8  UNL d   1      -4.304  -3.623   0.510  0.00  0.00     0.006 A 
ENDROOT
BRANCH   1   8
ATOM      8  C1  UNL d   1      -3.103  -1.405   0.511  0.00  0.00     0.054 C 
ATOM      9  C   UNL d   1      -1.691  -1.290   1.068  0.00  0.00     0.018 C 
ENDBRANCH   1   8
TORSDOF 1
ENDMDL
