MODEL 1
REMARK minimizedAffinity 6.1315465
REMARK minimizedRMSD -1
REMARK  1 active torsions:
REMARK  status: ('A' for Active; 'I' for Inactive)
REMARK    1  A    between atoms: C1_2  and  C2_3 
ROOT
ATOM      1  C2  UNL d   1       1.133   4.113  -3.774  0.00  0.00    -0.081 A 
ATOM      2  C3  UNL d   1       0.020   4.640  -3.107  0.00  0.00     0.006 A 
ATOM      3  C4  UNL d   1      -1.006   5.261  -3.823  0.00  0.00     0.002 A 
ATOM      4  C5  UNL d   1      -0.940   5.359  -5.217  0.00  0.00    -0.080 A 
ATOM      5  C6  UNL d   1      -2.049   5.997  -6.000  0.00  0.00     0.076 C 
ATOM      6  C7  UNL d   1       0.179   4.848  -5.882  0.00  0.00     0.002 A 
ATOM      7  C8  UNL d   1       1.206   4.227  -5.167  0.00  0.00     0.006 A 
ENDROOT
BRANCH   1   8
ATOM      8  C1  UNL d   1       2.210   3.384  -3.012  0.00  0.00     0.054 C 
ATOM      9  C   UNL d   1       2.145   3.701  -1.524  0.00  0.00     0.018 C 
ENDBRANCH   1   8
TORSDOF 1
ENDMDL
