MODEL 1
REMARK minimizedAffinity 4.82654953
REMARK minimizedRMSD -1
REMARK  1 active torsions:
REMARK  status: ('A' for Active; 'I' for Inactive)
REMARK    1  A    between atoms: C1_2  and  C2_3 
ROOT
ATOM      1  C2  UNL d   1      -2.442  -2.894   0.890  0.00  0.00    -0.081 A 
ATOM      2  C3  UNL d   1      -2.139  -3.750  -0.176  0.00  0.00     0.006 A 
ATOM      3  C4  UNL d   1      -0.810  -4.036  -0.499  0.00  0.00     0.002 A 
ATOM      4  C5  UNL d   1       0.236  -3.479   0.243  0.00  0.00    -0.080 A 
ATOM      5  C6  UNL d   1       1.666  -3.802  -0.074  0.00  0.00     0.076 C 
ATOM      6  C7  UNL d   1      -0.065  -2.610   1.298  0.00  0.00     0.002 A 
ATOM      7  C8  UNL d   1      -1.394  -2.323   1.620  0.00  0.00     0.006 A 
ENDROOT
BRANCH   1   8
ATOM      8  C1  UNL d   1      -3.874  -2.635   1.282  0.00  0.00     0.054 C 
ATOM      9  C   UNL d   1      -4.605  -3.932   1.597  0.00  0.00     0.018 C 
ENDBRANCH   1   8
TORSDOF 1
ENDMDL
