MODEL 1
REMARK minimizedAffinity 7.22218084
REMARK minimizedRMSD -1
REMARK  1 active torsions:
REMARK  status: ('A' for Active; 'I' for Inactive)
REMARK    1  A    between atoms: C1_2  and  C2_3 
ROOT
ATOM      1  C2  UNL d   1       4.250   0.225   2.597  0.00  0.00    -0.081 A 
ATOM      2  C3  UNL d   1       3.811  -1.015   3.077  0.00  0.00     0.006 A 
ATOM      3  C4  UNL d   1       2.471  -1.390   2.951  0.00  0.00     0.002 A 
ATOM      4  C5  UNL d   1       1.550  -0.535   2.337  0.00  0.00    -0.080 A 
ATOM      5  C6  UNL d   1       0.115  -0.937   2.168  0.00  0.00     0.076 C 
ATOM      6  C7  UNL d   1       1.984   0.711   1.873  0.00  0.00     0.002 A 
ATOM      7  C8  UNL d   1       3.324   1.087   1.999  0.00  0.00     0.006 A 
ENDROOT
BRANCH   1   8
ATOM      8  C1  UNL d   1       5.706   0.604   2.673  0.00  0.00     0.054 C 
ATOM      9  C   UNL d   1       5.899   1.913   3.424  0.00  0.00     0.018 C 
ENDBRANCH   1   8
TORSDOF 1
ENDMDL
