MODEL 1
REMARK minimizedAffinity 13.0731592
REMARK minimizedRMSD -1
REMARK  1 active torsions:
REMARK  status: ('A' for Active; 'I' for Inactive)
REMARK    1  A    between atoms: C1_2  and  C2_3 
ROOT
ATOM      1  C2  UNL d   1      -2.377   5.254  -4.093  0.00  0.00    -0.081 A 
ATOM      2  C3  UNL d   1      -2.295   5.792  -5.383  0.00  0.00     0.006 A 
ATOM      3  C4  UNL d   1      -1.053   5.969  -5.999  0.00  0.00     0.002 A 
ATOM      4  C5  UNL d   1       0.125   5.604  -5.339  0.00  0.00    -0.080 A 
ATOM      5  C6  UNL d   1       1.462   5.761  -6.000  0.00  0.00     0.076 C 
ATOM      6  C7  UNL d   1       0.044   5.083  -4.043  0.00  0.00     0.002 A 
ATOM      7  C8  UNL d   1      -1.197   4.906  -3.427  0.00  0.00     0.006 A 
ENDROOT
BRANCH   1   8
ATOM      8  C1  UNL d   1      -3.718   5.001  -3.452  0.00  0.00     0.054 C 
ATOM      9  C   UNL d   1      -3.596   4.893  -1.939  0.00  0.00     0.018 C 
ENDBRANCH   1   8
TORSDOF 1
ENDMDL
