MODEL 1
REMARK minimizedAffinity 13.7940969
REMARK minimizedRMSD -1
REMARK  1 active torsions:
REMARK  status: ('A' for Active; 'I' for Inactive)
REMARK    1  A    between atoms: C1_2  and  C2_3 
ROOT
ATOM      1  C2  UNL d   1      -0.469  -1.376   3.837  0.00  0.00    -0.081 A 
ATOM      2  C3  UNL d   1      -1.110  -0.981   2.656  0.00  0.00     0.006 A 
ATOM      3  C4  UNL d   1      -1.061  -1.791   1.519  0.00  0.00     0.002 A 
ATOM      4  C5  UNL d   1      -0.378  -3.011   1.546  0.00  0.00    -0.080 A 
ATOM      5  C6  UNL d   1      -0.343  -3.904   0.341  0.00  0.00     0.076 C 
ATOM      6  C7  UNL d   1       0.277  -3.397   2.720  0.00  0.00     0.002 A 
ATOM      7  C8  UNL d   1       0.229  -2.588   3.857  0.00  0.00     0.006 A 
ENDROOT
BRANCH   1   8
ATOM      8  C1  UNL d   1      -0.575  -0.535   5.084  0.00  0.00     0.054 C 
ATOM      9  C   UNL d   1      -2.013  -0.110   5.345  0.00  0.00     0.018 C 
ENDBRANCH   1   8
TORSDOF 1
ENDMDL
