MODEL 1
REMARK minimizedAffinity 3.50092101
REMARK minimizedRMSD -1
REMARK  1 active torsions:
REMARK  status: ('A' for Active; 'I' for Inactive)
REMARK    1  A    between atoms: C1_2  and  C2_3 
ROOT
ATOM      1  C2  UNL d   1      -3.254   6.000  -3.940  0.00  0.00    -0.081 A 
ATOM      2  C3  UNL d   1      -3.200   5.995  -5.339  0.00  0.00     0.006 A 
ATOM      3  C4  UNL d   1      -1.969   5.967  -6.000  0.00  0.00     0.002 A 
ATOM      4  C5  UNL d   1      -0.774   5.937  -5.274  0.00  0.00    -0.080 A 
ATOM      5  C6  UNL d   1       0.553   5.877  -5.970  0.00  0.00     0.076 C 
ATOM      6  C7  UNL d   1      -0.828   5.960  -3.876  0.00  0.00     0.002 A 
ATOM      7  C8  UNL d   1      -2.058   5.988  -3.215  0.00  0.00     0.006 A 
ENDROOT
BRANCH   1   8
ATOM      8  C1  UNL d   1      -4.581   5.964  -3.224  0.00  0.00     0.054 C 
ATOM      9  C   UNL d   1      -5.254   4.607  -3.375  0.00  0.00     0.018 C 
ENDBRANCH   1   8
TORSDOF 1
ENDMDL
