MODEL 1
REMARK minimizedAffinity 5.08015728
REMARK minimizedRMSD -1
REMARK  1 active torsions:
REMARK  status: ('A' for Active; 'I' for Inactive)
REMARK    1  A    between atoms: C1_2  and  C2_3 
ROOT
ATOM      1  C2  UNL d   1      -3.860   0.104  -0.192  0.00  0.00    -0.081 A 
ATOM      2  C3  UNL d   1      -3.874   1.182   0.702  0.00  0.00     0.006 A 
ATOM      3  C4  UNL d   1      -3.129   1.134   1.882  0.00  0.00     0.002 A 
ATOM      4  C5  UNL d   1      -2.351   0.011   2.184  0.00  0.00    -0.080 A 
ATOM      5  C6  UNL d   1      -1.522  -0.041   3.433  0.00  0.00     0.076 C 
ATOM      6  C7  UNL d   1      -2.350  -1.073   1.300  0.00  0.00     0.002 A 
ATOM      7  C8  UNL d   1      -3.095  -1.025   0.120  0.00  0.00     0.006 A 
ENDROOT
BRANCH   1   8
ATOM      8  C1  UNL d   1      -4.612   0.180  -1.496  0.00  0.00     0.054 C 
ATOM      9  C   UNL d   1      -3.739  -0.259  -2.664  0.00  0.00     0.018 C 
ENDBRANCH   1   8
TORSDOF 1
ENDMDL
