MODEL 1
REMARK minimizedAffinity 1.61239135
REMARK minimizedRMSD -1
REMARK  1 active torsions:
REMARK  status: ('A' for Active; 'I' for Inactive)
REMARK    1  A    between atoms: C1_2  and  C2_3 
ROOT
ATOM      1  C2  UNL d   1      -2.285   5.219  -5.227  0.00  0.00    -0.081 A 
ATOM      2  C3  UNL d   1      -2.362   4.971  -3.851  0.00  0.00     0.006 A 
ATOM      3  C4  UNL d   1      -3.541   5.231  -3.150  0.00  0.00     0.002 A 
ATOM      4  C5  UNL d   1      -4.665   5.735  -3.813  0.00  0.00    -0.080 A 
ATOM      5  C6  UNL d   1      -5.947   5.990  -3.077  0.00  0.00     0.076 C 
ATOM      6  C7  UNL d   1      -4.583   5.999  -5.184  0.00  0.00     0.002 A 
ATOM      7  C8  UNL d   1      -3.404   5.740  -5.886  0.00  0.00     0.006 A 
ENDROOT
BRANCH   1   8
ATOM      8  C1  UNL d   1      -1.035   4.879  -5.998  0.00  0.00     0.054 C 
ATOM      9  C   UNL d   1       0.199   5.489  -5.349  0.00  0.00     0.018 C 
ENDBRANCH   1   8
TORSDOF 1
ENDMDL
