MODEL 1
REMARK minimizedAffinity 6.5197978
REMARK minimizedRMSD -1
REMARK  1 active torsions:
REMARK  status: ('A' for Active; 'I' for Inactive)
REMARK    1  A    between atoms: C1_2  and  C2_3 
ROOT
ATOM      1  C2  UNL d   1      -3.160   5.769  -3.903  0.00  0.00    -0.081 A 
ATOM      2  C3  UNL d   1      -3.078   5.955  -5.289  0.00  0.00     0.006 A 
ATOM      3  C4  UNL d   1      -1.886   5.695  -5.969  0.00  0.00     0.002 A 
ATOM      4  C5  UNL d   1      -0.759   5.238  -5.277  0.00  0.00    -0.080 A 
ATOM      5  C6  UNL d   1       0.518   4.926  -5.999  0.00  0.00     0.076 C 
ATOM      6  C7  UNL d   1      -0.835   5.069  -3.890  0.00  0.00     0.002 A 
ATOM      7  C8  UNL d   1      -2.027   5.329  -3.210  0.00  0.00     0.006 A 
ENDROOT
BRANCH   1   8
ATOM      8  C1  UNL d   1      -4.462   5.986  -3.177  0.00  0.00     0.054 C 
ATOM      9  C   UNL d   1      -4.340   5.629  -1.702  0.00  0.00     0.018 C 
ENDBRANCH   1   8
TORSDOF 1
ENDMDL
