MODEL 1
REMARK minimizedAffinity 6.75154305
REMARK minimizedRMSD -1
REMARK  1 active torsions:
REMARK  status: ('A' for Active; 'I' for Inactive)
REMARK    1  A    between atoms: C1_2  and  C2_3 
ROOT
ATOM      1  C2  UNL d   1      -3.590  -5.503  -5.470  0.00  0.00    -0.081 A 
ATOM      2  C3  UNL d   1      -3.545  -4.504  -4.490  0.00  0.00     0.006 A 
ATOM      3  C4  UNL d   1      -2.320  -4.005  -4.043  0.00  0.00     0.002 A 
ATOM      4  C5  UNL d   1      -1.120  -4.489  -4.575  0.00  0.00    -0.080 A 
ATOM      5  C6  UNL d   1       0.202  -3.940  -4.126  0.00  0.00     0.076 C 
ATOM      6  C7  UNL d   1      -1.164  -5.500  -5.542  0.00  0.00     0.002 A 
ATOM      7  C8  UNL d   1      -2.389  -6.000  -5.988  0.00  0.00     0.006 A 
ENDROOT
BRANCH   1   8
ATOM      8  C1  UNL d   1      -4.912  -5.998  -6.000  0.00  0.00     0.054 C 
ATOM      9  C   UNL d   1      -6.000  -4.945  -5.844  0.00  0.00     0.018 C 
ENDBRANCH   1   8
TORSDOF 1
ENDMDL
