MODEL 1
REMARK minimizedAffinity 11.8436661
REMARK minimizedRMSD -1
REMARK  1 active torsions:
REMARK  status: ('A' for Active; 'I' for Inactive)
REMARK    1  A    between atoms: C1_2  and  C2_3 
ROOT
ATOM      1  C2  UNL d   1      -3.344   0.156   0.805  0.00  0.00    -0.081 A 
ATOM      2  C3  UNL d   1      -2.342   0.705   1.614  0.00  0.00     0.006 A 
ATOM      3  C4  UNL d   1      -1.263  -0.078   2.034  0.00  0.00     0.002 A 
ATOM      4  C5  UNL d   1      -1.165  -1.418   1.646  0.00  0.00    -0.080 A 
ATOM      5  C6  UNL d   1       0.003  -2.261   2.065  0.00  0.00     0.076 C 
ATOM      6  C7  UNL d   1      -2.176  -1.971   0.852  0.00  0.00     0.002 A 
ATOM      7  C8  UNL d   1      -3.254  -1.189   0.433  0.00  0.00     0.006 A 
ENDROOT
BRANCH   1   8
ATOM      8  C1  UNL d   1      -4.474   1.015   0.297  0.00  0.00     0.054 C 
ATOM      9  C   UNL d   1      -4.167   1.572  -1.085  0.00  0.00     0.018 C 
ENDBRANCH   1   8
TORSDOF 1
ENDMDL
