MODEL 1
REMARK minimizedAffinity 6.45299244
REMARK minimizedRMSD -1
REMARK  1 active torsions:
REMARK  status: ('A' for Active; 'I' for Inactive)
REMARK    1  A    between atoms: C1_2  and  C2_3 
ROOT
ATOM      1  C2  UNL d   1      -3.261   0.329   0.418  0.00  0.00    -0.081 A 
ATOM      2  C3  UNL d   1      -2.956  -1.029   0.579  0.00  0.00     0.006 A 
ATOM      3  C4  UNL d   1      -2.332  -1.481   1.744  0.00  0.00     0.002 A 
ATOM      4  C5  UNL d   1      -2.009  -0.586   2.770  0.00  0.00    -0.080 A 
ATOM      5  C6  UNL d   1      -1.367  -1.063   4.038  0.00  0.00     0.076 C 
ATOM      6  C7  UNL d   1      -2.298   0.773   2.602  0.00  0.00     0.002 A 
ATOM      7  C8  UNL d   1      -2.922   1.226   1.437  0.00  0.00     0.006 A 
ENDROOT
BRANCH   1   8
ATOM      8  C1  UNL d   1      -3.992   0.809  -0.810  0.00  0.00     0.054 C 
ATOM      9  C   UNL d   1      -3.592   0.010  -2.041  0.00  0.00     0.018 C 
ENDBRANCH   1   8
TORSDOF 1
ENDMDL
