MODEL 1
REMARK minimizedAffinity -0.735443413
REMARK minimizedRMSD -1
REMARK  0 active torsions:
REMARK  status: ('A' for Active; 'I' for Inactive)
ROOT
ATOM      1  C1  DEN d   1       2.326  -2.676   1.435  0.00  0.00     0.130 A 
ATOM      2  C2  DEN d   1       3.136  -2.699   0.220  0.00  0.00    -0.031 A 
ATOM      3  C3  DEN d   1       2.628  -1.650  -0.687  0.00  0.00     0.027 A 
ATOM      4  C4  DEN d   1       0.680   0.002  -0.328  0.00  0.00     0.027 A 
ATOM      5  C5  DEN d   1      -0.312   0.396   0.543  0.00  0.00    -0.003 A 
ATOM      6  C6  DEN d   1      -0.514  -0.224   1.748  0.00  0.00     0.001 A 
ATOM      7  C7  DEN d   1       0.316  -1.242   2.135  0.00  0.00     0.017 A 
ATOM      8  C8  DEN d   1       1.314  -1.650   1.259  0.00  0.00    -0.094 A 
ATOM      9  C9  DEN d   1       1.510  -1.003   0.051  0.00  0.00    -0.072 A 
ENDROOT
TORSDOF 0
ENDMDL
