MODEL 1
REMARK minimizedAffinity 1.34158075
REMARK minimizedRMSD -1
REMARK  0 active torsions:
REMARK  status: ('A' for Active; 'I' for Inactive)
ROOT
ATOM      1  C1  DEN d   1       0.888   1.099  -0.628  0.00  0.00     0.130 A 
ATOM      2  C2  DEN d   1       0.091   0.040  -0.015  0.00  0.00    -0.031 A 
ATOM      3  C3  DEN d   1      -1.284   0.139  -0.545  0.00  0.00     0.027 A 
ATOM      4  C4  DEN d   1      -2.250   1.818  -2.247  0.00  0.00     0.027 A 
ATOM      5  C5  DEN d   1      -1.960   2.909  -3.036  0.00  0.00    -0.003 A 
ATOM      6  C6  DEN d   1      -0.720   3.490  -3.052  0.00  0.00     0.001 A 
ATOM      7  C7  DEN d   1       0.290   2.954  -2.297  0.00  0.00     0.017 A 
ATOM      8  C8  DEN d   1       0.003   1.858  -1.494  0.00  0.00    -0.094 A 
ATOM      9  C9  DEN d   1      -1.254   1.278  -1.501  0.00  0.00    -0.072 A 
ENDROOT
TORSDOF 0
ENDMDL
