MODEL 1
REMARK minimizedAffinity 0.438760132
REMARK minimizedRMSD -1
REMARK  0 active torsions:
REMARK  status: ('A' for Active; 'I' for Inactive)
ROOT
ATOM      1  C1  DEN d   1      -0.624   2.033  -2.661  0.00  0.00     0.130 A 
ATOM      2  C2  DEN d   1      -1.709   2.961  -2.352  0.00  0.00    -0.031 A 
ATOM      3  C3  DEN d   1      -2.214   2.638  -1.002  0.00  0.00     0.027 A 
ATOM      4  C4  DEN d   1      -1.424   0.806   0.632  0.00  0.00     0.027 A 
ATOM      5  C5  DEN d   1      -0.540  -0.235   0.808  0.00  0.00    -0.003 A 
ATOM      6  C6  DEN d   1       0.348  -0.612  -0.164  0.00  0.00     0.001 A 
ATOM      7  C7  DEN d   1       0.402   0.086  -1.341  0.00  0.00     0.017 A 
ATOM      8  C8  DEN d   1      -0.491   1.133  -1.529  0.00  0.00    -0.094 A 
ATOM      9  C9  DEN d   1      -1.373   1.506  -0.529  0.00  0.00    -0.072 A 
ENDROOT
TORSDOF 0
ENDMDL
