MODEL 1
REMARK minimizedAffinity 9.90682983
REMARK minimizedRMSD -1
REMARK  0 active torsions:
REMARK  status: ('A' for Active; 'I' for Inactive)
ROOT
ATOM      1  C1  DEN d   1      -3.621   0.586  -5.436  0.00  0.00     0.130 A 
ATOM      2  C2  DEN d   1      -4.838   0.000  -5.989  0.00  0.00    -0.031 A 
ATOM      3  C3  DEN d   1      -5.987   0.535  -5.232  0.00  0.00     0.027 A 
ATOM      4  C4  DEN d   1      -6.000   2.208  -3.269  0.00  0.00     0.027 A 
ATOM      5  C5  DEN d   1      -5.208   2.973  -2.441  0.00  0.00    -0.003 A 
ATOM      6  C6  DEN d   1      -3.841   2.970  -2.530  0.00  0.00     0.001 A 
ATOM      7  C7  DEN d   1      -3.226   2.221  -3.498  0.00  0.00     0.017 A 
ATOM      8  C8  DEN d   1      -4.017   1.441  -4.332  0.00  0.00    -0.094 A 
ATOM      9  C9  DEN d   1      -5.398   1.468  -4.234  0.00  0.00    -0.072 A 
ENDROOT
TORSDOF 0
ENDMDL
