MODEL 1
REMARK minimizedAffinity -3.74599576
REMARK minimizedRMSD -1
REMARK  0 active torsions:
REMARK  status: ('A' for Active; 'I' for Inactive)
ROOT
ATOM      1  C1  DEN d   1      -1.005  -0.105   0.364  0.00  0.00     0.130 A 
ATOM      2  C2  DEN d   1      -0.748  -0.007  -1.070  0.00  0.00    -0.031 A 
ATOM      3  C3  DEN d   1       0.506  -0.731  -1.360  0.00  0.00     0.027 A 
ATOM      4  C4  DEN d   1       2.063  -1.992   0.263  0.00  0.00     0.027 A 
ATOM      5  C5  DEN d   1       2.267  -2.342   1.580  0.00  0.00    -0.003 A 
ATOM      6  C6  DEN d   1       1.420  -1.945   2.580  0.00  0.00     0.001 A 
ATOM      7  C7  DEN d   1       0.303  -1.212   2.273  0.00  0.00     0.017 A 
ATOM      8  C8  DEN d   1       0.095  -0.850   0.949  0.00  0.00    -0.094 A 
ATOM      9  C9  DEN d   1       0.957  -1.271  -0.049  0.00  0.00    -0.072 A 
ENDROOT
TORSDOF 0
ENDMDL
