MODEL 1
REMARK minimizedAffinity -6.07974291
REMARK minimizedRMSD -1
REMARK  0 active torsions:
REMARK  status: ('A' for Active; 'I' for Inactive)
ROOT
ATOM      1  C1  DEN d   1      -0.627   0.079  -0.536  0.00  0.00     0.130 A 
ATOM      2  C2  DEN d   1      -0.024  -0.192  -1.838  0.00  0.00    -0.031 A 
ATOM      3  C3  DEN d   1       1.323  -0.751  -1.610  0.00  0.00     0.027 A 
ATOM      4  C4  DEN d   1       2.526  -1.226   0.622  0.00  0.00     0.027 A 
ATOM      5  C5  DEN d   1       2.419  -1.150   1.993  0.00  0.00    -0.003 A 
ATOM      6  C6  DEN d   1       1.312  -0.631   2.611  0.00  0.00     0.001 A 
ATOM      7  C7  DEN d   1       0.248  -0.210   1.858  0.00  0.00     0.017 A 
ATOM      8  C8  DEN d   1       0.352  -0.277   0.475  0.00  0.00    -0.094 A 
ATOM      9  C9  DEN d   1       1.474  -0.816  -0.131  0.00  0.00    -0.072 A 
ENDROOT
TORSDOF 0
ENDMDL
