MODEL 1
REMARK minimizedAffinity 4.65058517
REMARK minimizedRMSD -1
REMARK  0 active torsions:
REMARK  status: ('A' for Active; 'I' for Inactive)
ROOT
ATOM      1  C1  DEN d   1      -2.166   0.785  -2.120  0.00  0.00     0.130 A 
ATOM      2  C2  DEN d   1      -2.197   2.226  -2.352  0.00  0.00    -0.031 A 
ATOM      3  C3  DEN d   1      -1.823   2.900  -1.093  0.00  0.00     0.027 A 
ATOM      4  C4  DEN d   1      -1.198   1.856   1.182  0.00  0.00     0.027 A 
ATOM      5  C5  DEN d   1      -1.043   0.673   1.869  0.00  0.00    -0.003 A 
ATOM      6  C6  DEN d   1      -1.283  -0.545   1.290  0.00  0.00     0.001 A 
ATOM      7  C7  DEN d   1      -1.647  -0.609  -0.030  0.00  0.00     0.017 A 
ATOM      8  C8  DEN d   1      -1.812   0.580  -0.727  0.00  0.00    -0.094 A 
ATOM      9  C9  DEN d   1      -1.553   1.801  -0.127  0.00  0.00    -0.072 A 
ENDROOT
TORSDOF 0
ENDMDL
