MODEL 1
REMARK minimizedAffinity -6.47665071
REMARK minimizedRMSD -1
REMARK  0 active torsions:
REMARK  status: ('A' for Active; 'I' for Inactive)
ROOT
ATOM      1  C1  DEN d   1       0.139  -0.800  -0.292  0.00  0.00     0.130 A 
ATOM      2  C2  DEN d   1      -1.089  -0.127   0.119  0.00  0.00    -0.031 A 
ATOM      3  C3  DEN d   1      -1.004   0.131   1.571  0.00  0.00     0.027 A 
ATOM      4  C4  DEN d   1       0.902  -0.439   3.211  0.00  0.00     0.027 A 
ATOM      5  C5  DEN d   1       2.144  -1.023   3.329  0.00  0.00    -0.003 A 
ATOM      6  C6  DEN d   1       2.785  -1.599   2.264  0.00  0.00     0.001 A 
ATOM      7  C7  DEN d   1       2.205  -1.563   1.024  0.00  0.00     0.017 A 
ATOM      8  C8  DEN d   1       0.950  -0.983   0.898  0.00  0.00    -0.094 A 
ATOM      9  C9  DEN d   1       0.324  -0.396   1.984  0.00  0.00    -0.072 A 
ENDROOT
TORSDOF 0
ENDMDL
