MODEL 1
REMARK minimizedAffinity -6.05376959
REMARK minimizedRMSD -1
REMARK  0 active torsions:
REMARK  status: ('A' for Active; 'I' for Inactive)
ROOT
ATOM      1  C1  DEN d   1       0.960  -0.329  -0.545  0.00  0.00     0.130 A 
ATOM      2  C2  DEN d   1      -0.468  -0.120  -0.319  0.00  0.00    -0.031 A 
ATOM      3  C3  DEN d   1      -0.752  -0.405   1.102  0.00  0.00     0.027 A 
ATOM      4  C4  DEN d   1       0.872  -1.142   2.965  0.00  0.00     0.027 A 
ATOM      5  C5  DEN d   1       2.181  -1.462   3.251  0.00  0.00    -0.003 A 
ATOM      6  C6  DEN d   1       3.160  -1.460   2.293  0.00  0.00     0.001 A 
ATOM      7  C7  DEN d   1       2.854  -1.087   1.011  0.00  0.00     0.017 A 
ATOM      8  C8  DEN d   1       1.535  -0.770   0.713  0.00  0.00    -0.094 A 
ATOM      9  C9  DEN d   1       0.562  -0.766   1.698  0.00  0.00    -0.072 A 
ENDROOT
TORSDOF 0
ENDMDL
