MODEL 1
REMARK minimizedAffinity -6.95381737
REMARK minimizedRMSD -1
REMARK  0 active torsions:
REMARK  status: ('A' for Active; 'I' for Inactive)
ROOT
ATOM      1  C1  DEN d   1       0.490  -0.399  -0.845  0.00  0.00     0.130 A 
ATOM      2  C2  DEN d   1      -0.764   0.254  -0.483  0.00  0.00    -0.031 A 
ATOM      3  C3  DEN d   1      -0.868   0.258   0.990  0.00  0.00     0.027 A 
ATOM      4  C4  DEN d   1       0.785  -0.676   2.736  0.00  0.00     0.027 A 
ATOM      5  C5  DEN d   1       1.984  -1.331   2.908  0.00  0.00    -0.003 A 
ATOM      6  C6  DEN d   1       2.747  -1.749   1.850  0.00  0.00     0.001 A 
ATOM      7  C7  DEN d   1       2.340  -1.475   0.570  0.00  0.00     0.017 A 
ATOM      8  C8  DEN d   1       1.129  -0.821   0.389  0.00  0.00    -0.094 A 
ATOM      9  C9  DEN d   1       0.378  -0.396   1.472  0.00  0.00    -0.072 A 
ENDROOT
TORSDOF 0
ENDMDL
