MODEL 1
REMARK minimizedAffinity -4.34468269
REMARK minimizedRMSD -1
REMARK  0 active torsions:
REMARK  status: ('A' for Active; 'I' for Inactive)
ROOT
ATOM      1  C1  DEN d   1      -0.364   3.505  -2.035  0.00  0.00     0.130 A 
ATOM      2  C2  DEN d   1      -0.806   3.147  -3.380  0.00  0.00    -0.031 A 
ATOM      3  C3  DEN d   1      -0.988   1.683  -3.427  0.00  0.00     0.027 A 
ATOM      4  C4  DEN d   1      -0.636  -0.057  -1.555  0.00  0.00     0.027 A 
ATOM      5  C5  DEN d   1      -0.254  -0.232  -0.243  0.00  0.00    -0.003 A 
ATOM      6  C6  DEN d   1       0.147   0.813   0.547  0.00  0.00     0.001 A 
ATOM      7  C7  DEN d   1       0.133   2.087   0.045  0.00  0.00     0.017 A 
ATOM      8  C8  DEN d   1      -0.244   2.271  -1.279  0.00  0.00    -0.094 A 
ATOM      9  C9  DEN d   1      -0.658   1.204  -2.057  0.00  0.00    -0.072 A 
ENDROOT
TORSDOF 0
ENDMDL
