MODEL 1
REMARK minimizedAffinity 15.2346325
REMARK minimizedRMSD -1
REMARK  0 active torsions:
REMARK  status: ('A' for Active; 'I' for Inactive)
ROOT
ATOM      1  O1  BZF d   1      -2.478   0.821   3.116  0.00  0.00    -0.204 OA
ATOM      2  C2  BZF d   1      -3.091   0.725   1.882  0.00  0.00     0.174 A 
ATOM      3  C3  BZF d   1      -2.468  -0.188   1.108  0.00  0.00    -0.012 A 
ATOM      4  C3A BZF d   1      -1.456  -0.760   1.942  0.00  0.00    -0.107 A 
ATOM      5  C4  BZF d   1      -0.519  -1.733   1.747  0.00  0.00     0.055 A 
ATOM      6  C5  BZF d   1       0.368  -2.006   2.741  0.00  0.00    -0.016 A 
ATOM      7  C6  BZF d   1       0.348  -1.322   3.938  0.00  0.00     0.022 A 
ATOM      8  C7  BZF d   1      -0.567  -0.352   4.180  0.00  0.00     0.029 A 
ATOM      9  C7A BZF d   1      -1.484  -0.097   3.191  0.00  0.00     0.058 A 
ENDROOT
TORSDOF 0
ENDMDL
