MODEL 1
REMARK minimizedAffinity 5.77830267
REMARK minimizedRMSD -1
REMARK  0 active torsions:
REMARK  status: ('A' for Active; 'I' for Inactive)
ROOT
ATOM      1  O1  BZF d   1       6.000   4.385  -1.919  0.00  0.00    -0.204 OA
ATOM      2  C2  BZF d   1       5.317   5.409  -2.547  0.00  0.00     0.174 A 
ATOM      3  C3  BZF d   1       4.452   6.000  -1.698  0.00  0.00    -0.012 A 
ATOM      4  C3A BZF d   1       4.670   5.362  -0.436  0.00  0.00    -0.107 A 
ATOM      5  C4  BZF d   1       4.122   5.524   0.805  0.00  0.00     0.055 A 
ATOM      6  C5  BZF d   1       4.503   4.691   1.809  0.00  0.00    -0.016 A 
ATOM      7  C6  BZF d   1       5.423   3.683   1.607  0.00  0.00     0.022 A 
ATOM      8  C7  BZF d   1       5.997   3.487   0.395  0.00  0.00     0.029 A 
ATOM      9  C7A BZF d   1       5.639   4.348  -0.614  0.00  0.00     0.058 A 
ENDROOT
TORSDOF 0
ENDMDL
