MODEL 1
REMARK minimizedAffinity 17.4462109
REMARK minimizedRMSD -1
REMARK  0 active torsions:
REMARK  status: ('A' for Active; 'I' for Inactive)
ROOT
ATOM      1  O1  BZF d   1       1.357  -1.422   4.458  0.00  0.00    -0.204 OA
ATOM      2  C2  BZF d   1       1.844  -2.361   3.570  0.00  0.00     0.174 A 
ATOM      3  C3  BZF d   1       0.953  -2.598   2.586  0.00  0.00    -0.012 A 
ATOM      4  C3A BZF d   1      -0.123  -1.685   2.826  0.00  0.00    -0.107 A 
ATOM      5  C4  BZF d   1      -1.299  -1.429   2.180  0.00  0.00     0.055 A 
ATOM      6  C5  BZF d   1      -2.163  -0.526   2.714  0.00  0.00    -0.016 A 
ATOM      7  C6  BZF d   1      -1.886   0.134   3.893  0.00  0.00     0.022 A 
ATOM      8  C7  BZF d   1      -0.731  -0.084   4.567  0.00  0.00     0.029 A 
ATOM      9  C7A BZF d   1       0.159  -0.971   4.013  0.00  0.00     0.058 A 
ENDROOT
TORSDOF 0
ENDMDL
