MODEL 1
REMARK minimizedAffinity 20.0253563
REMARK minimizedRMSD -1
REMARK  0 active torsions:
REMARK  status: ('A' for Active; 'I' for Inactive)
ROOT
ATOM      1  O1  BZF d   1      -3.611   1.700   4.226  0.00  0.00    -0.204 OA
ATOM      2  C2  BZF d   1      -2.447   1.481   4.938  0.00  0.00     0.174 A 
ATOM      3  C3  BZF d   1      -1.758   0.443   4.422  0.00  0.00    -0.012 A 
ATOM      4  C3A BZF d   1      -2.494   0.044   3.261  0.00  0.00    -0.107 A 
ATOM      5  C4  BZF d   1      -2.305  -0.925   2.317  0.00  0.00     0.055 A 
ATOM      6  C5  BZF d   1      -3.247  -1.102   1.354  0.00  0.00    -0.016 A 
ATOM      7  C6  BZF d   1      -4.391  -0.333   1.308  0.00  0.00     0.022 A 
ATOM      8  C7  BZF d   1      -4.621   0.644   2.220  0.00  0.00     0.029 A 
ATOM      9  C7A BZF d   1      -3.655   0.847   3.175  0.00  0.00     0.058 A 
ENDROOT
TORSDOF 0
ENDMDL
