MODEL 1
REMARK minimizedAffinity 13.036603
REMARK minimizedRMSD -1
REMARK  0 active torsions:
REMARK  status: ('A' for Active; 'I' for Inactive)
ROOT
ATOM      1  O1  BZF d   1      -2.018   1.593   4.774  0.00  0.00    -0.204 OA
ATOM      2  C2  BZF d   1      -3.133   2.306   5.170  0.00  0.00     0.174 A 
ATOM      3  C3  BZF d   1      -4.138   2.153   4.283  0.00  0.00    -0.012 A 
ATOM      4  C3A BZF d   1      -3.649   1.216   3.318  0.00  0.00    -0.107 A 
ATOM      5  C4  BZF d   1      -4.191   0.650   2.200  0.00  0.00     0.055 A 
ATOM      6  C5  BZF d   1      -3.423  -0.171   1.436  0.00  0.00    -0.016 A 
ATOM      7  C6  BZF d   1      -2.109  -0.443   1.758  0.00  0.00     0.022 A 
ATOM      8  C7  BZF d   1      -1.529   0.091   2.860  0.00  0.00     0.029 A 
ATOM      9  C7A BZF d   1      -2.313   0.894   3.652  0.00  0.00     0.058 A 
ENDROOT
TORSDOF 0
ENDMDL
