MODEL 1
REMARK minimizedAffinity 24.335722
REMARK minimizedRMSD -1
REMARK  0 active torsions:
REMARK  status: ('A' for Active; 'I' for Inactive)
ROOT
ATOM      1  O1  BZF d   1      -2.023  -4.616  -3.685  0.00  0.00    -0.204 OA
ATOM      2  C2  BZF d   1      -1.826  -4.268  -2.363  0.00  0.00     0.174 A 
ATOM      3  C3  BZF d   1      -0.568  -4.558  -1.974  0.00  0.00    -0.012 A 
ATOM      4  C3A BZF d   1       0.089  -5.037  -3.151  0.00  0.00    -0.107 A 
ATOM      5  C4  BZF d   1       1.359  -5.468  -3.408  0.00  0.00     0.055 A 
ATOM      6  C5  BZF d   1       1.658  -5.939  -4.648  0.00  0.00    -0.016 A 
ATOM      7  C6  BZF d   1       0.712  -5.998  -5.650  0.00  0.00     0.022 A 
ATOM      8  C7  BZF d   1      -0.559  -5.577  -5.444  0.00  0.00     0.029 A 
ATOM      9  C7A BZF d   1      -0.856  -5.070  -4.203  0.00  0.00     0.058 A 
ENDROOT
TORSDOF 0
ENDMDL
