MODEL 1
REMARK minimizedAffinity 6.73723507
REMARK minimizedRMSD -1
REMARK  0 active torsions:
REMARK  status: ('A' for Active; 'I' for Inactive)
ROOT
ATOM      1  O1  BZF d   1      -0.391   0.579   5.161  0.00  0.00    -0.204 OA
ATOM      2  C2  BZF d   1      -1.560   1.159   4.706  0.00  0.00     0.174 A 
ATOM      3  C3  BZF d   1      -1.917   0.642   3.513  0.00  0.00    -0.012 A 
ATOM      4  C3A BZF d   1      -0.959  -0.386   3.246  0.00  0.00    -0.107 A 
ATOM      5  C4  BZF d   1      -0.792  -1.271   2.219  0.00  0.00     0.055 A 
ATOM      6  C5  BZF d   1       0.288  -2.096   2.226  0.00  0.00    -0.016 A 
ATOM      7  C6  BZF d   1       1.222  -2.060   3.241  0.00  0.00     0.022 A 
ATOM      8  C7  BZF d   1       1.097  -1.203   4.283  0.00  0.00     0.029 A 
ATOM      9  C7A BZF d   1      -0.011  -0.391   4.295  0.00  0.00     0.058 A 
ENDROOT
TORSDOF 0
ENDMDL
