MODEL 1
REMARK minimizedAffinity 4.96958733
REMARK minimizedRMSD -1
REMARK  0 active torsions:
REMARK  status: ('A' for Active; 'I' for Inactive)
ROOT
ATOM      1  O1  BZF d   1       5.998  -4.719  -1.053  0.00  0.00    -0.204 OA
ATOM      2  C2  BZF d   1       5.503  -5.968  -0.732  0.00  0.00     0.174 A 
ATOM      3  C3  BZF d   1       4.281  -5.868  -0.170  0.00  0.00    -0.012 A 
ATOM      4  C3A BZF d   1       3.956  -4.475  -0.221  0.00  0.00    -0.107 A 
ATOM      5  C4  BZF d   1       2.867  -3.750   0.170  0.00  0.00     0.055 A 
ATOM      6  C5  BZF d   1       2.895  -2.397   0.046  0.00  0.00    -0.016 A 
ATOM      7  C6  BZF d   1       3.996  -1.737  -0.459  0.00  0.00     0.022 A 
ATOM      8  C7  BZF d   1       5.098  -2.414  -0.866  0.00  0.00     0.029 A 
ATOM      9  C7A BZF d   1       5.060  -3.784  -0.772  0.00  0.00     0.058 A 
ENDROOT
TORSDOF 0
ENDMDL
