MODEL 1
REMARK minimizedAffinity 12.5144939
REMARK minimizedRMSD -1
REMARK  0 active torsions:
REMARK  status: ('A' for Active; 'I' for Inactive)
ROOT
ATOM      1  O1  BZF d   1      -2.142   0.851   4.132  0.00  0.00    -0.204 OA
ATOM      2  C2  BZF d   1      -3.114   1.610   4.755  0.00  0.00     0.174 A 
ATOM      3  C3  BZF d   1      -4.302   1.470   4.134  0.00  0.00    -0.012 A 
ATOM      4  C3A BZF d   1      -4.079   0.495   3.111  0.00  0.00    -0.107 A 
ATOM      5  C4  BZF d   1      -4.884  -0.079   2.168  0.00  0.00     0.055 A 
ATOM      6  C5  BZF d   1      -4.340  -0.943   1.272  0.00  0.00    -0.016 A 
ATOM      7  C6  BZF d   1      -2.996  -1.252   1.286  0.00  0.00     0.022 A 
ATOM      8  C7  BZF d   1      -2.158  -0.712   2.204  0.00  0.00     0.029 A 
ATOM      9  C7A BZF d   1      -2.712   0.136   3.132  0.00  0.00     0.058 A 
ENDROOT
TORSDOF 0
ENDMDL
