MODEL 1
REMARK minimizedAffinity 20.3081856
REMARK minimizedRMSD -1
REMARK  0 active torsions:
REMARK  status: ('A' for Active; 'I' for Inactive)
ROOT
ATOM      1  O1  BZF d   1       1.425  -3.786   1.609  0.00  0.00    -0.204 OA
ATOM      2  C2  BZF d   1       1.678  -2.630   2.323  0.00  0.00     0.174 A 
ATOM      3  C3  BZF d   1       2.886  -2.125   2.001  0.00  0.00    -0.012 A 
ATOM      4  C3A BZF d   1       3.382  -2.969   0.958  0.00  0.00    -0.107 A 
ATOM      5  C4  BZF d   1       4.528  -2.970   0.216  0.00  0.00     0.055 A 
ATOM      6  C5  BZF d   1       4.739  -3.976  -0.672  0.00  0.00    -0.016 A 
ATOM      7  C6  BZF d   1       3.830  -5.000  -0.839  0.00  0.00     0.022 A 
ATOM      8  C7  BZF d   1       2.676  -5.040  -0.129  0.00  0.00     0.029 A 
ATOM      9  C7A BZF d   1       2.444  -4.006   0.745  0.00  0.00     0.058 A 
ENDROOT
TORSDOF 0
ENDMDL
