MODEL 1
REMARK minimizedAffinity 13.6352968
REMARK minimizedRMSD -1
REMARK  0 active torsions:
REMARK  status: ('A' for Active; 'I' for Inactive)
ROOT
ATOM      1  O1  BZF d   1      -1.075  -2.891   1.475  0.00  0.00    -0.204 OA
ATOM      2  C2  BZF d   1      -2.133  -2.450   0.702  0.00  0.00     0.174 A 
ATOM      3  C3  BZF d   1      -2.544  -1.230   1.105  0.00  0.00    -0.012 A 
ATOM      4  C3A BZF d   1      -1.630  -0.847   2.137  0.00  0.00    -0.107 A 
ATOM      5  C4  BZF d   1      -1.508   0.268   2.916  0.00  0.00     0.055 A 
ATOM      6  C5  BZF d   1      -0.552   0.297   3.882  0.00  0.00    -0.016 A 
ATOM      7  C6  BZF d   1       0.293  -0.771   4.099  0.00  0.00     0.022 A 
ATOM      8  C7  BZF d   1       0.214  -1.897   3.348  0.00  0.00     0.029 A 
ATOM      9  C7A BZF d   1      -0.729  -1.916   2.350  0.00  0.00     0.058 A 
ENDROOT
TORSDOF 0
ENDMDL
