MODEL 1
REMARK minimizedAffinity 7.21313381
REMARK minimizedRMSD -1
REMARK  0 active torsions:
REMARK  status: ('A' for Active; 'I' for Inactive)
ROOT
ATOM      1  O1  BZF d   1      -5.923   1.820   4.679  0.00  0.00    -0.204 OA
ATOM      2  C2  BZF d   1      -5.461   2.318   5.882  0.00  0.00     0.174 A 
ATOM      3  C3  BZF d   1      -4.131   2.131   5.999  0.00  0.00    -0.012 A 
ATOM      4  C3A BZF d   1      -3.721   1.558   4.753  0.00  0.00    -0.107 A 
ATOM      5  C4  BZF d   1      -2.513   1.162   4.255  0.00  0.00     0.055 A 
ATOM      6  C5  BZF d   1      -2.465   0.574   3.030  0.00  0.00    -0.016 A 
ATOM      7  C6  BZF d   1      -3.603   0.363   2.281  0.00  0.00     0.022 A 
ATOM      8  C7  BZF d   1      -4.824   0.744   2.731  0.00  0.00     0.029 A 
ATOM      9  C7A BZF d   1      -4.872   1.368   3.954  0.00  0.00     0.058 A 
ENDROOT
TORSDOF 0
ENDMDL
