MODEL 1
REMARK minimizedAffinity 12.0814877
REMARK minimizedRMSD -1
REMARK  0 active torsions:
REMARK  status: ('A' for Active; 'I' for Inactive)
ROOT
ATOM      1  O1  BZF d   1      -1.844   0.835   4.570  0.00  0.00    -0.204 OA
ATOM      2  C2  BZF d   1      -3.091   1.324   4.908  0.00  0.00     0.174 A 
ATOM      3  C3  BZF d   1      -4.019   0.929   4.013  0.00  0.00    -0.012 A 
ATOM      4  C3A BZF d   1      -3.324   0.068   3.106  0.00  0.00    -0.107 A 
ATOM      5  C4  BZF d   1      -3.711  -0.647   2.008  0.00  0.00     0.055 A 
ATOM      6  C5  BZF d   1      -2.772  -1.330   1.301  0.00  0.00    -0.016 A 
ATOM      7  C6  BZF d   1      -1.440  -1.315   1.660  0.00  0.00     0.022 A 
ATOM      8  C7  BZF d   1      -1.010  -0.625   2.744  0.00  0.00     0.029 A 
ATOM      9  C7A BZF d   1      -1.961   0.039   3.479  0.00  0.00     0.058 A 
ENDROOT
TORSDOF 0
ENDMDL
