MODEL 1
REMARK minimizedAffinity -0.138366237
REMARK minimizedRMSD -1
REMARK  0 active torsions:
REMARK  status: ('A' for Active; 'I' for Inactive)
ROOT
ATOM      1  O1  BZF d   1      -4.128   1.273   5.993  0.00  0.00    -0.204 OA
ATOM      2  C2  BZF d   1      -5.461   1.633   5.998  0.00  0.00     0.174 A 
ATOM      3  C3  BZF d   1      -5.998   1.496   4.768  0.00  0.00    -0.012 A 
ATOM      4  C3A BZF d   1      -4.957   0.934   3.964  0.00  0.00    -0.107 A 
ATOM      5  C4  BZF d   1      -4.884   0.554   2.654  0.00  0.00     0.055 A 
ATOM      6  C5  BZF d   1      -3.699   0.110   2.160  0.00  0.00    -0.016 A 
ATOM      7  C6  BZF d   1      -2.567   0.037   2.945  0.00  0.00     0.022 A 
ATOM      8  C7  BZF d   1      -2.591   0.399   4.251  0.00  0.00     0.029 A 
ATOM      9  C7A BZF d   1      -3.796   0.817   4.762  0.00  0.00     0.058 A 
ENDROOT
TORSDOF 0
ENDMDL
