MODEL 1
REMARK minimizedAffinity 11.5169611
REMARK minimizedRMSD -1
REMARK  0 active torsions:
REMARK  status: ('A' for Active; 'I' for Inactive)
ROOT
ATOM      1  O1  BZF d   1       1.425   3.164   0.605  0.00  0.00    -0.204 OA
ATOM      2  C2  BZF d   1       1.983   1.920   0.828  0.00  0.00     0.174 A 
ATOM      3  C3  BZF d   1       2.343   1.341  -0.335  0.00  0.00    -0.012 A 
ATOM      4  C3A BZF d   1       2.072   2.320  -1.342  0.00  0.00    -0.107 A 
ATOM      5  C4  BZF d   1       2.234   2.342  -2.698  0.00  0.00     0.055 A 
ATOM      6  C5  BZF d   1       1.802   3.424  -3.398  0.00  0.00    -0.016 A 
ATOM      7  C6  BZF d   1       1.201   4.498  -2.775  0.00  0.00     0.022 A 
ATOM      8  C7  BZF d   1       1.023   4.524  -1.432  0.00  0.00     0.029 A 
ATOM      9  C7A BZF d   1       1.488   3.447  -0.718  0.00  0.00     0.058 A 
ENDROOT
TORSDOF 0
ENDMDL
