MODEL 1
REMARK minimizedAffinity 19.5465775
REMARK minimizedRMSD -1
REMARK  0 active torsions:
REMARK  status: ('A' for Active; 'I' for Inactive)
ROOT
ATOM      1  O1  BZF d   1      -2.088   3.869  -4.874  0.00  0.00    -0.204 OA
ATOM      2  C2  BZF d   1      -2.321   4.978  -5.664  0.00  0.00     0.174 A 
ATOM      3  C3  BZF d   1      -1.491   5.987  -5.328  0.00  0.00    -0.012 A 
ATOM      4  C3A BZF d   1      -0.627   5.445  -4.324  0.00  0.00    -0.107 A 
ATOM      5  C4  BZF d   1       0.418   5.957  -3.609  0.00  0.00     0.055 A 
ATOM      6  C5  BZF d   1       1.003   5.189  -2.653  0.00  0.00    -0.016 A 
ATOM      7  C6  BZF d   1       0.565   3.909  -2.381  0.00  0.00     0.022 A 
ATOM      8  C7  BZF d   1      -0.465   3.357  -3.067  0.00  0.00     0.029 A 
ATOM      9  C7A BZF d   1      -1.037   4.118  -4.057  0.00  0.00     0.058 A 
ENDROOT
TORSDOF 0
ENDMDL
