MODEL 1
REMARK minimizedAffinity 8.62577343
REMARK minimizedRMSD -1
REMARK  0 active torsions:
REMARK  status: ('A' for Active; 'I' for Inactive)
ROOT
ATOM      1  O1  BZF d   1       4.329   3.593   2.547  0.00  0.00    -0.204 OA
ATOM      2  C2  BZF d   1       5.563   4.048   2.123  0.00  0.00     0.174 A 
ATOM      3  C3  BZF d   1       5.865   3.551   0.906  0.00  0.00    -0.012 A 
ATOM      4  C3A BZF d   1       4.709   2.807   0.507  0.00  0.00    -0.107 A 
ATOM      5  C4  BZF d   1       4.394   2.092  -0.613  0.00  0.00     0.055 A 
ATOM      6  C5  BZF d   1       3.211   1.424  -0.659  0.00  0.00    -0.016 A 
ATOM      7  C6  BZF d   1       2.324   1.445   0.397  0.00  0.00     0.022 A 
ATOM      8  C7  BZF d   1       2.591   2.144   1.527  0.00  0.00     0.029 A 
ATOM      9  C7A BZF d   1       3.771   2.847   1.564  0.00  0.00     0.058 A 
ENDROOT
TORSDOF 0
ENDMDL
