MODEL 1
REMARK minimizedAffinity 11.9474964
REMARK minimizedRMSD -1
REMARK  0 active torsions:
REMARK  status: ('A' for Active; 'I' for Inactive)
ROOT
ATOM      1  O1  BZF d   1       3.536   1.310   1.875  0.00  0.00    -0.204 OA
ATOM      2  C2  BZF d   1       3.010   0.713   0.746  0.00  0.00     0.174 A 
ATOM      3  C3  BZF d   1       3.484   1.302  -0.371  0.00  0.00    -0.012 A 
ATOM      4  C3A BZF d   1       4.432   2.270   0.087  0.00  0.00    -0.107 A 
ATOM      5  C4  BZF d   1       5.247   3.162  -0.550  0.00  0.00     0.055 A 
ATOM      6  C5  BZF d   1       5.999   4.016   0.192  0.00  0.00    -0.016 A 
ATOM      7  C6  BZF d   1       5.957   4.011   1.570  0.00  0.00     0.022 A 
ATOM      8  C7  BZF d   1       5.168   3.142   2.248  0.00  0.00     0.029 A 
ATOM      9  C7A BZF d   1       4.431   2.255   1.501  0.00  0.00     0.058 A 
ENDROOT
TORSDOF 0
ENDMDL
