MODEL 1
REMARK minimizedAffinity 14.8496819
REMARK minimizedRMSD -1
REMARK  0 active torsions:
REMARK  status: ('A' for Active; 'I' for Inactive)
ROOT
ATOM      1  O1  BZF d   1      -1.167   4.264  -6.000  0.00  0.00    -0.204 OA
ATOM      2  C2  BZF d   1      -2.190   5.190  -5.924  0.00  0.00     0.174 A 
ATOM      3  C3  BZF d   1      -2.042   5.979  -4.840  0.00  0.00    -0.012 A 
ATOM      4  C3A BZF d   1      -0.802   5.577  -4.249  0.00  0.00    -0.107 A 
ATOM      5  C4  BZF d   1      -0.103   6.000  -3.155  0.00  0.00     0.055 A 
ATOM      6  C5  BZF d   1       1.038   5.348  -2.808  0.00  0.00    -0.016 A 
ATOM      7  C6  BZF d   1       1.505   4.269  -3.528  0.00  0.00     0.022 A 
ATOM      8  C7  BZF d   1       0.849   3.816  -4.624  0.00  0.00     0.029 A 
ATOM      9  C7A BZF d   1      -0.287   4.493  -4.996  0.00  0.00     0.058 A 
ENDROOT
TORSDOF 0
ENDMDL
