MODEL 1
REMARK minimizedAffinity 2.04425144
REMARK minimizedRMSD -1
REMARK  0 active torsions:
REMARK  status: ('A' for Active; 'I' for Inactive)
ROOT
ATOM      1  O1  BZF d   1       4.781  -0.839   1.367  0.00  0.00    -0.204 OA
ATOM      2  C2  BZF d   1       5.899  -1.009   0.573  0.00  0.00     0.174 A 
ATOM      3  C3  BZF d   1       5.826  -0.236  -0.529  0.00  0.00    -0.012 A 
ATOM      4  C3A BZF d   1       4.628   0.531  -0.371  0.00  0.00    -0.107 A 
ATOM      5  C4  BZF d   1       4.019   1.489  -1.131  0.00  0.00     0.055 A 
ATOM      6  C5  BZF d   1       2.820   1.986  -0.730  0.00  0.00    -0.016 A 
ATOM      7  C6  BZF d   1       2.198   1.545   0.419  0.00  0.00     0.022 A 
ATOM      8  C7  BZF d   1       2.765   0.600   1.208  0.00  0.00     0.029 A 
ATOM      9  C7A BZF d   1       3.993   0.119   0.823  0.00  0.00     0.058 A 
ENDROOT
TORSDOF 0
ENDMDL
