MODEL 1
REMARK minimizedAffinity 9.78534412
REMARK minimizedRMSD -1
REMARK  0 active torsions:
REMARK  status: ('A' for Active; 'I' for Inactive)
ROOT
ATOM      1  O1  BZF d   1       5.648  -0.858   1.910  0.00  0.00    -0.204 OA
ATOM      2  C2  BZF d   1       5.780  -0.559   0.568  0.00  0.00     0.174 A 
ATOM      3  C3  BZF d   1       4.622  -0.084   0.067  0.00  0.00    -0.012 A 
ATOM      4  C3A BZF d   1       3.734   0.000   1.186  0.00  0.00    -0.107 A 
ATOM      5  C4  BZF d   1       2.441   0.415   1.329  0.00  0.00     0.055 A 
ATOM      6  C5  BZF d   1       1.842   0.302   2.544  0.00  0.00    -0.016 A 
ATOM      7  C6  BZF d   1       2.504  -0.226   3.633  0.00  0.00     0.022 A 
ATOM      8  C7  BZF d   1       3.789  -0.646   3.541  0.00  0.00     0.029 A 
ATOM      9  C7A BZF d   1       4.407  -0.503   2.323  0.00  0.00     0.058 A 
ENDROOT
TORSDOF 0
ENDMDL
