MODEL 1
REMARK minimizedAffinity 16.7323532
REMARK minimizedRMSD -1
REMARK  0 active torsions:
REMARK  status: ('A' for Active; 'I' for Inactive)
ROOT
ATOM      1  O1  BZF d   1      -4.881  -2.832  -5.341  0.00  0.00    -0.204 OA
ATOM      2  C2  BZF d   1      -6.000  -2.729  -4.536  0.00  0.00     0.174 A 
ATOM      3  C3  BZF d   1      -5.655  -2.755  -3.233  0.00  0.00    -0.012 A 
ATOM      4  C3A BZF d   1      -4.225  -2.789  -3.222  0.00  0.00    -0.107 A 
ATOM      5  C4  BZF d   1      -3.294  -2.809  -2.223  0.00  0.00     0.055 A 
ATOM      6  C5  BZF d   1      -1.979  -2.916  -2.548  0.00  0.00    -0.016 A 
ATOM      7  C6  BZF d   1      -1.560  -3.009  -3.860  0.00  0.00     0.022 A 
ATOM      8  C7  BZF d   1      -2.447  -2.987  -4.885  0.00  0.00     0.029 A 
ATOM      9  C7A BZF d   1      -3.774  -2.847  -4.561  0.00  0.00     0.058 A 
ENDROOT
TORSDOF 0
ENDMDL
