MODEL 1
REMARK minimizedAffinity 14.2117138
REMARK minimizedRMSD -1
REMARK  0 active torsions:
REMARK  status: ('A' for Active; 'I' for Inactive)
ROOT
ATOM      1  O1  BZF d   1       2.095  -0.993   4.120  0.00  0.00    -0.204 OA
ATOM      2  C2  BZF d   1       0.954  -0.709   3.395  0.00  0.00     0.174 A 
ATOM      3  C3  BZF d   1       1.256  -0.474   2.102  0.00  0.00    -0.012 A 
ATOM      4  C3A BZF d   1       2.663  -0.710   1.994  0.00  0.00    -0.107 A 
ATOM      5  C4  BZF d   1       3.547  -0.655   0.955  0.00  0.00     0.055 A 
ATOM      6  C5  BZF d   1       4.866  -0.872   1.199  0.00  0.00    -0.016 A 
ATOM      7  C6  BZF d   1       5.336  -1.140   2.468  0.00  0.00     0.022 A 
ATOM      8  C7  BZF d   1       4.496  -1.210   3.529  0.00  0.00     0.029 A 
ATOM      9  C7A BZF d   1       3.158  -1.024   3.281  0.00  0.00     0.058 A 
ENDROOT
TORSDOF 0
ENDMDL
