MODEL 1
REMARK minimizedAffinity 9.84245872
REMARK minimizedRMSD -1
REMARK  0 active torsions:
REMARK  status: ('A' for Active; 'I' for Inactive)
ROOT
ATOM      1  O1  BZF d   1      -5.114  -0.388   3.971  0.00  0.00    -0.204 OA
ATOM      2  C2  BZF d   1      -5.856  -0.897   5.019  0.00  0.00     0.174 A 
ATOM      3  C3  BZF d   1      -5.991   0.021   5.999  0.00  0.00    -0.012 A 
ATOM      4  C3A BZF d   1      -5.369   1.206   5.493  0.00  0.00    -0.107 A 
ATOM      5  C4  BZF d   1      -5.194   2.462   5.998  0.00  0.00     0.055 A 
ATOM      6  C5  BZF d   1      -4.478   3.368   5.281  0.00  0.00    -0.016 A 
ATOM      7  C6  BZF d   1      -3.919   3.050   4.061  0.00  0.00     0.022 A 
ATOM      8  C7  BZF d   1      -4.070   1.818   3.517  0.00  0.00     0.029 A 
ATOM      9  C7A BZF d   1      -4.821   0.910   4.224  0.00  0.00     0.058 A 
ENDROOT
TORSDOF 0
ENDMDL
