MODEL 1
REMARK minimizedAffinity 9.98201847
REMARK minimizedRMSD -1
REMARK  0 active torsions:
REMARK  status: ('A' for Active; 'I' for Inactive)
ROOT
ATOM      1  O1  BZF d   1       4.851  -1.174   1.877  0.00  0.00    -0.204 OA
ATOM      2  C2  BZF d   1       5.929  -1.304   1.023  0.00  0.00     0.174 A 
ATOM      3  C3  BZF d   1       5.819  -0.455  -0.019  0.00  0.00    -0.012 A 
ATOM      4  C3A BZF d   1       4.643   0.315   0.246  0.00  0.00    -0.107 A 
ATOM      5  C4  BZF d   1       4.018   1.332  -0.418  0.00  0.00     0.055 A 
ATOM      6  C5  BZF d   1       2.846   1.817   0.071  0.00  0.00    -0.016 A 
ATOM      7  C6  BZF d   1       2.270   1.307   1.215  0.00  0.00     0.022 A 
ATOM      8  C7  BZF d   1       2.855   0.301   1.910  0.00  0.00     0.029 A 
ATOM      9  C7A BZF d   1       4.056  -0.169   1.437  0.00  0.00     0.058 A 
ENDROOT
TORSDOF 0
ENDMDL
