MODEL 1
REMARK minimizedAffinity 19.2000751
REMARK minimizedRMSD -1
REMARK  0 active torsions:
REMARK  status: ('A' for Active; 'I' for Inactive)
ROOT
ATOM      1  O1  BZF d   1       3.880  -1.091   1.852  0.00  0.00    -0.204 OA
ATOM      2  C2  BZF d   1       5.011  -0.643   1.196  0.00  0.00     0.174 A 
ATOM      3  C3  BZF d   1       4.749   0.490   0.513  0.00  0.00    -0.012 A 
ATOM      4  C3A BZF d   1       3.394   0.817   0.831  0.00  0.00    -0.107 A 
ATOM      5  C4  BZF d   1       2.566   1.842   0.470  0.00  0.00     0.055 A 
ATOM      6  C5  BZF d   1       1.275   1.830   0.897  0.00  0.00    -0.016 A 
ATOM      7  C6  BZF d   1       0.779   0.808   1.679  0.00  0.00     0.022 A 
ATOM      8  C7  BZF d   1       1.563  -0.227   2.066  0.00  0.00     0.029 A 
ATOM      9  C7A BZF d   1       2.876  -0.201   1.665  0.00  0.00     0.058 A 
ENDROOT
TORSDOF 0
ENDMDL
