MODEL 1
REMARK minimizedAffinity 10.8616114
REMARK minimizedRMSD -1
REMARK  0 active torsions:
REMARK  status: ('A' for Active; 'I' for Inactive)
ROOT
ATOM      1  O1  BZF d   1      -4.905   3.011   5.242  0.00  0.00    -0.204 OA
ATOM      2  C2  BZF d   1      -4.122   3.371   4.162  0.00  0.00     0.174 A 
ATOM      3  C3  BZF d   1      -3.834   2.297   3.400  0.00  0.00    -0.012 A 
ATOM      4  C3A BZF d   1      -4.554   1.211   3.993  0.00  0.00    -0.107 A 
ATOM      5  C4  BZF d   1      -4.682  -0.112   3.680  0.00  0.00     0.055 A 
ATOM      6  C5  BZF d   1      -5.401  -0.919   4.505  0.00  0.00    -0.016 A 
ATOM      7  C6  BZF d   1      -5.999  -0.437   5.650  0.00  0.00     0.022 A 
ATOM      8  C7  BZF d   1      -5.904   0.869   5.999  0.00  0.00     0.029 A 
ATOM      9  C7A BZF d   1      -5.206   1.693   5.151  0.00  0.00     0.058 A 
ENDROOT
TORSDOF 0
ENDMDL
