MODEL 1
REMARK minimizedAffinity 20.8742332
REMARK minimizedRMSD -1
REMARK  0 active torsions:
REMARK  status: ('A' for Active; 'I' for Inactive)
ROOT
ATOM      1  O1  BZF d   1      -2.055  -3.064  -4.427  0.00  0.00    -0.204 OA
ATOM      2  C2  BZF d   1      -0.837  -2.513  -4.775  0.00  0.00     0.174 A 
ATOM      3  C3  BZF d   1      -0.323  -1.802  -3.752  0.00  0.00    -0.012 A 
ATOM      4  C3A BZF d   1      -1.236  -1.991  -2.666  0.00  0.00    -0.107 A 
ATOM      5  C4  BZF d   1      -1.263  -1.550  -1.374  0.00  0.00     0.055 A 
ATOM      6  C5  BZF d   1      -2.333  -1.855  -0.594  0.00  0.00    -0.016 A 
ATOM      7  C6  BZF d   1      -3.394  -2.595  -1.074  0.00  0.00     0.022 A 
ATOM      8  C7  BZF d   1      -3.409  -3.059  -2.347  0.00  0.00     0.029 A 
ATOM      9  C7A BZF d   1      -2.315  -2.780  -3.128  0.00  0.00     0.058 A 
ENDROOT
TORSDOF 0
ENDMDL
