MODEL 1
REMARK minimizedAffinity 7.08190107
REMARK minimizedRMSD -1
REMARK  0 active torsions:
REMARK  status: ('A' for Active; 'I' for Inactive)
ROOT
ATOM      1  O1  BZF d   1      -4.948   2.916   5.997  0.00  0.00    -0.204 OA
ATOM      2  C2  BZF d   1      -4.228   3.652   5.076  0.00  0.00     0.174 A 
ATOM      3  C3  BZF d   1      -3.975   2.922   3.971  0.00  0.00    -0.012 A 
ATOM      4  C3A BZF d   1      -4.655   1.680   4.178  0.00  0.00    -0.107 A 
ATOM      5  C4  BZF d   1      -4.792   0.548   3.426  0.00  0.00     0.055 A 
ATOM      6  C5  BZF d   1      -5.460  -0.514   3.948  0.00  0.00    -0.016 A 
ATOM      7  C6  BZF d   1      -5.998  -0.482   5.218  0.00  0.00     0.022 A 
ATOM      8  C7  BZF d   1      -5.891   0.620   5.999  0.00  0.00     0.029 A 
ATOM      9  C7A BZF d   1      -5.246   1.707   5.463  0.00  0.00     0.058 A 
ENDROOT
TORSDOF 0
ENDMDL
