MODEL 1
REMARK minimizedAffinity 14.1740561
REMARK minimizedRMSD -1
REMARK  0 active torsions:
REMARK  status: ('A' for Active; 'I' for Inactive)
ROOT
ATOM      1  O1  BZF d   1       2.342  -0.735   4.254  0.00  0.00    -0.204 OA
ATOM      2  C2  BZF d   1       3.621  -1.007   3.806  0.00  0.00     0.174 A 
ATOM      3  C3  BZF d   1       3.856  -0.394   2.628  0.00  0.00    -0.012 A 
ATOM      4  C3A BZF d   1       2.681   0.379   2.366  0.00  0.00    -0.107 A 
ATOM      5  C4  BZF d   1       2.317   1.219   1.352  0.00  0.00     0.055 A 
ATOM      6  C5  BZF d   1       1.070   1.760   1.358  0.00  0.00    -0.016 A 
ATOM      7  C6  BZF d   1       0.162   1.479   2.357  0.00  0.00     0.022 A 
ATOM      8  C7  BZF d   1       0.479   0.655   3.386  0.00  0.00     0.029 A 
ATOM      9  C7A BZF d   1       1.749   0.133   3.400  0.00  0.00     0.058 A 
ENDROOT
TORSDOF 0
ENDMDL
