MODEL 1
REMARK minimizedAffinity 12.290802
REMARK minimizedRMSD -1
REMARK  0 active torsions:
REMARK  status: ('A' for Active; 'I' for Inactive)
ROOT
ATOM      1  O1  BZF d   1      -2.582  -3.433  -1.155  0.00  0.00    -0.204 OA
ATOM      2  C2  BZF d   1      -2.256  -2.164  -1.595  0.00  0.00     0.174 A 
ATOM      3  C3  BZF d   1      -3.148  -1.731  -2.509  0.00  0.00    -0.012 A 
ATOM      4  C3A BZF d   1      -4.142  -2.758  -2.582  0.00  0.00    -0.107 A 
ATOM      5  C4  BZF d   1      -5.294  -2.901  -3.301  0.00  0.00     0.055 A 
ATOM      6  C5  BZF d   1      -6.000  -4.057  -3.195  0.00  0.00    -0.016 A 
ATOM      7  C6  BZF d   1      -5.581  -5.092  -2.384  0.00  0.00     0.022 A 
ATOM      8  C7  BZF d   1      -4.448  -4.994  -1.647  0.00  0.00     0.029 A 
ATOM      9  C7A BZF d   1      -3.750  -3.814  -1.727  0.00  0.00     0.058 A 
ENDROOT
TORSDOF 0
ENDMDL
