MODEL 1
REMARK minimizedAffinity 6.90218878
REMARK minimizedRMSD -1
REMARK  0 active torsions:
REMARK  status: ('A' for Active; 'I' for Inactive)
ROOT
ATOM      1  O1  BZF d   1      -5.119   3.433   6.000  0.00  0.00    -0.204 OA
ATOM      2  C2  BZF d   1      -4.377   4.180   5.106  0.00  0.00     0.174 A 
ATOM      3  C3  BZF d   1      -4.038   3.440   4.030  0.00  0.00    -0.012 A 
ATOM      4  C3A BZF d   1      -4.682   2.177   4.224  0.00  0.00    -0.107 A 
ATOM      5  C4  BZF d   1      -4.737   1.028   3.488  0.00  0.00     0.055 A 
ATOM      6  C5  BZF d   1      -5.393  -0.049   3.993  0.00  0.00    -0.016 A 
ATOM      7  C6  BZF d   1      -6.000  -0.015   5.231  0.00  0.00     0.022 A 
ATOM      8  C7  BZF d   1      -5.977   1.104   5.996  0.00  0.00     0.029 A 
ATOM      9  C7A BZF d   1      -5.343   2.205   5.474  0.00  0.00     0.058 A 
ENDROOT
TORSDOF 0
ENDMDL
