MODEL 1
REMARK minimizedAffinity 2.92767334
REMARK minimizedRMSD -1
REMARK  0 active torsions:
REMARK  status: ('A' for Active; 'I' for Inactive)
ROOT
ATOM      1  O1  BZF d   1      -4.624   5.535   1.065  0.00  0.00    -0.204 OA
ATOM      2  C2  BZF d   1      -5.936   5.613   0.640  0.00  0.00     0.174 A 
ATOM      3  C3  BZF d   1      -5.996   5.853  -0.686  0.00  0.00    -0.012 A 
ATOM      4  C3A BZF d   1      -4.637   5.837  -1.133  0.00  0.00    -0.107 A 
ATOM      5  C4  BZF d   1      -4.049   5.997  -2.355  0.00  0.00     0.055 A 
ATOM      6  C5  BZF d   1      -2.693   5.998  -2.440  0.00  0.00    -0.016 A 
ATOM      7  C6  BZF d   1      -1.895   5.846  -1.324  0.00  0.00     0.022 A 
ATOM      8  C7  BZF d   1      -2.433   5.679  -0.092  0.00  0.00     0.029 A 
ATOM      9  C7A BZF d   1      -3.804   5.645  -0.007  0.00  0.00     0.058 A 
ENDROOT
TORSDOF 0
ENDMDL
