MODEL 1
REMARK minimizedAffinity 0.0238917787
REMARK minimizedRMSD -1
REMARK  0 active torsions:
REMARK  status: ('A' for Active; 'I' for Inactive)
ROOT
ATOM      1  O1  BZF d   1      -4.385   3.051   4.632  0.00  0.00    -0.204 OA
ATOM      2  C2  BZF d   1      -5.193   3.323   5.719  0.00  0.00     0.174 A 
ATOM      3  C3  BZF d   1      -5.987   2.270   6.000  0.00  0.00    -0.012 A 
ATOM      4  C3A BZF d   1      -5.590   1.245   5.085  0.00  0.00    -0.107 A 
ATOM      5  C4  BZF d   1      -6.000  -0.042   4.881  0.00  0.00     0.055 A 
ATOM      6  C5  BZF d   1      -5.459  -0.753   3.857  0.00  0.00    -0.016 A 
ATOM      7  C6  BZF d   1      -4.512  -0.208   3.015  0.00  0.00     0.022 A 
ATOM      8  C7  BZF d   1      -4.070   1.062   3.181  0.00  0.00     0.029 A 
ATOM      9  C7A BZF d   1      -4.590   1.773   4.235  0.00  0.00     0.058 A 
ENDROOT
TORSDOF 0
ENDMDL
