MODEL 1
REMARK minimizedAffinity 14.0711517
REMARK minimizedRMSD -1
REMARK  0 active torsions:
REMARK  status: ('A' for Active; 'I' for Inactive)
ROOT
ATOM      1  O1  BZF d   1      -5.148  -0.149   3.990  0.00  0.00    -0.204 OA
ATOM      2  C2  BZF d   1      -5.981  -0.520   5.029  0.00  0.00     0.174 A 
ATOM      3  C3  BZF d   1      -5.979   0.416   6.000  0.00  0.00    -0.012 A 
ATOM      4  C3A BZF d   1      -5.162   1.478   5.498  0.00  0.00    -0.107 A 
ATOM      5  C4  BZF d   1      -4.791   2.694   5.998  0.00  0.00     0.055 A 
ATOM      6  C5  BZF d   1      -3.924   3.463   5.288  0.00  0.00    -0.016 A 
ATOM      7  C6  BZF d   1      -3.406   3.046   4.079  0.00  0.00     0.022 A 
ATOM      8  C7  BZF d   1      -3.748   1.851   3.541  0.00  0.00     0.029 A 
ATOM      9  C7A BZF d   1      -4.650   1.085   4.240  0.00  0.00     0.058 A 
ENDROOT
TORSDOF 0
ENDMDL
