MODEL 1
REMARK minimizedAffinity 19.7417297
REMARK minimizedRMSD -1
REMARK  0 active torsions:
REMARK  status: ('A' for Active; 'I' for Inactive)
ROOT
ATOM      1  O1  BZF d   1      -0.796  -2.187   2.036  0.00  0.00    -0.204 OA
ATOM      2  C2  BZF d   1      -0.365  -2.627   0.799  0.00  0.00     0.174 A 
ATOM      3  C3  BZF d   1       0.526  -1.765   0.269  0.00  0.00    -0.012 A 
ATOM      4  C3A BZF d   1       0.730  -0.768   1.275  0.00  0.00    -0.107 A 
ATOM      5  C4  BZF d   1       1.516   0.347   1.347  0.00  0.00     0.055 A 
ATOM      6  C5  BZF d   1       1.428   1.147   2.442  0.00  0.00    -0.016 A 
ATOM      7  C6  BZF d   1       0.563   0.867   3.479  0.00  0.00     0.022 A 
ATOM      8  C7  BZF d   1      -0.233  -0.230   3.455  0.00  0.00     0.029 A 
ATOM      9  C7A BZF d   1      -0.122  -1.059   2.365  0.00  0.00     0.058 A 
ENDROOT
TORSDOF 0
ENDMDL
