MODEL 1
REMARK minimizedAffinity 7.72159719
REMARK minimizedRMSD -1
REMARK  0 active torsions:
REMARK  status: ('A' for Active; 'I' for Inactive)
ROOT
ATOM      1  O1  BZF d   1       2.475   5.618  -3.919  0.00  0.00    -0.204 OA
ATOM      2  C2  BZF d   1       2.248   5.836  -5.264  0.00  0.00     0.174 A 
ATOM      3  C3  BZF d   1       2.700   4.799  -5.999  0.00  0.00    -0.012 A 
ATOM      4  C3A BZF d   1       3.160   3.835  -5.047  0.00  0.00    -0.107 A 
ATOM      5  C4  BZF d   1       3.706   2.589  -5.163  0.00  0.00     0.055 A 
ATOM      6  C5  BZF d   1       4.114   1.941  -4.040  0.00  0.00    -0.016 A 
ATOM      7  C6  BZF d   1       3.997   2.510  -2.789  0.00  0.00     0.022 A 
ATOM      8  C7  BZF d   1       3.457   3.742  -2.624  0.00  0.00     0.029 A 
ATOM      9  C7A BZF d   1       3.013   4.386  -3.753  0.00  0.00     0.058 A 
ENDROOT
TORSDOF 0
ENDMDL
