MODEL 1
REMARK minimizedAffinity -4.08907843
REMARK minimizedRMSD -1
REMARK  1 active torsions:
REMARK  status: ('A' for Active; 'I' for Inactive)
REMARK    1  A    between atoms: N_2  and  C1_3 
ROOT
ATOM      1  C1  UNL d   1      -0.148  -0.411   0.274  0.00  0.00     0.143 A 
ATOM      2  C2  UNL d   1      -0.936  -0.568   1.419  0.00  0.00    -0.057 A 
ATOM      3  C3  UNL d   1      -0.356  -0.772   2.677  0.00  0.00     0.033 A 
ATOM      4  C4  UNL d   1       1.026  -0.852   2.807  0.00  0.00    -0.042 A 
ATOM      5  C5  UNL d   1       1.828  -0.725   1.679  0.00  0.00     0.033 A 
ATOM      6  C6  UNL d   1       1.243  -0.514   0.426  0.00  0.00    -0.057 A 
ENDROOT
BRANCH   1   7
ATOM      7  N   UNL d   1      -0.668  -0.304  -1.019  0.00  0.00    -0.732 N 
ATOM      8  C   UNL d   1      -0.797   0.989  -1.656  0.00  0.00     0.284 C 
ATOM      9  H3  UNL d   1      -0.330  -1.040  -1.635  0.00  0.00     0.395 HD
ENDBRANCH   1   7
TORSDOF 1
ENDMDL
