MODEL 1
REMARK minimizedAffinity -2.97203851
REMARK minimizedRMSD -1
REMARK  1 active torsions:
REMARK  status: ('A' for Active; 'I' for Inactive)
REMARK    1  A    between atoms: N_2  and  C1_3 
ROOT
ATOM      1  C1  UNL d   1       0.188  -0.280  -0.079  0.00  0.00     0.143 A 
ATOM      2  C2  UNL d   1      -0.823  -0.260   0.887  0.00  0.00    -0.057 A 
ATOM      3  C3  UNL d   1      -0.577  -0.663   2.205  0.00  0.00     0.033 A 
ATOM      4  C4  UNL d   1       0.684  -1.122   2.574  0.00  0.00    -0.042 A 
ATOM      5  C5  UNL d   1       1.698  -1.173   1.625  0.00  0.00     0.033 A 
ATOM      6  C6  UNL d   1       1.447  -0.763   0.312  0.00  0.00    -0.057 A 
ENDROOT
BRANCH   1   7
ATOM      7  N   UNL d   1      -0.020   0.015  -1.428  0.00  0.00    -0.732 N 
ATOM      8  C   UNL d   1      -0.669   1.246  -1.823  0.00  0.00     0.284 C 
ATOM      9  H3  UNL d   1       0.777  -0.240  -2.009  0.00  0.00     0.395 HD
ENDBRANCH   1   7
TORSDOF 1
ENDMDL
