MODEL 1
REMARK minimizedAffinity -4.36592484
REMARK minimizedRMSD -1
REMARK  1 active torsions:
REMARK  status: ('A' for Active; 'I' for Inactive)
REMARK    1  A    between atoms: N_2  and  C1_3 
ROOT
ATOM      1  C1  UNL d   1      -0.313  -0.703   1.084  0.00  0.00     0.143 A 
ATOM      2  C2  UNL d   1       0.656  -0.095   0.279  0.00  0.00    -0.057 A 
ATOM      3  C3  UNL d   1       1.957   0.125   0.749  0.00  0.00     0.033 A 
ATOM      4  C4  UNL d   1       2.304  -0.234   2.047  0.00  0.00    -0.042 A 
ATOM      5  C5  UNL d   1       1.350  -0.817   2.874  0.00  0.00     0.033 A 
ATOM      6  C6  UNL d   1       0.055  -1.040   2.396  0.00  0.00    -0.057 A 
ENDROOT
BRANCH   1   7
ATOM      7  N   UNL d   1      -1.649  -0.859   0.709  0.00  0.00    -0.732 N 
ATOM      8  C   UNL d   1      -2.717  -0.482   1.611  0.00  0.00     0.284 C 
ATOM      9  H3  UNL d   1      -1.813  -0.599  -0.261  0.00  0.00     0.395 HD
ENDBRANCH   1   7
TORSDOF 1
ENDMDL
