MODEL 1
REMARK minimizedAffinity 0.273179352
REMARK minimizedRMSD -1
REMARK  1 active torsions:
REMARK  status: ('A' for Active; 'I' for Inactive)
REMARK    1  A    between atoms: N_2  and  C1_3 
ROOT
ATOM      1  C1  UNL d   1      -0.216   0.399  -0.912  0.00  0.00     0.143 A 
ATOM      2  C2  UNL d   1       0.808  -0.552  -0.873  0.00  0.00    -0.057 A 
ATOM      3  C3  UNL d   1       1.109  -1.248   0.304  0.00  0.00     0.033 A 
ATOM      4  C4  UNL d   1       0.407  -0.983   1.475  0.00  0.00    -0.042 A 
ATOM      5  C5  UNL d   1      -0.599  -0.023   1.466  0.00  0.00     0.033 A 
ATOM      6  C6  UNL d   1      -0.899   0.664   0.286  0.00  0.00    -0.057 A 
ENDROOT
BRANCH   1   7
ATOM      7  N   UNL d   1      -0.498   1.195  -2.025  0.00  0.00    -0.732 N 
ATOM      8  C   UNL d   1      -1.820   1.751  -2.219  0.00  0.00     0.284 C 
ATOM      9  H3  UNL d   1       0.260   1.837  -2.245  0.00  0.00     0.395 HD
ENDBRANCH   1   7
TORSDOF 1
ENDMDL
