MODEL 1
REMARK minimizedAffinity -3.27814698
REMARK minimizedRMSD -1
REMARK  1 active torsions:
REMARK  status: ('A' for Active; 'I' for Inactive)
REMARK    1  A    between atoms: N_2  and  C1_3 
ROOT
ATOM      1  C1  UNL d   1      -0.253   0.080  -0.088  0.00  0.00     0.143 A 
ATOM      2  C2  UNL d   1       1.094  -0.294  -0.129  0.00  0.00    -0.057 A 
ATOM      3  C3  UNL d   1       1.766  -0.720   1.023  0.00  0.00     0.033 A 
ATOM      4  C4  UNL d   1       1.106  -0.752   2.248  0.00  0.00    -0.042 A 
ATOM      5  C5  UNL d   1      -0.226  -0.361   2.317  0.00  0.00     0.033 A 
ATOM      6  C6  UNL d   1      -0.893   0.057   1.162  0.00  0.00    -0.057 A 
ENDROOT
BRANCH   1   7
ATOM      7  N   UNL d   1      -0.948   0.605  -1.179  0.00  0.00    -0.732 N 
ATOM      8  C   UNL d   1      -0.557   1.870  -1.763  0.00  0.00     0.284 C 
ATOM      9  H3  UNL d   1      -1.197  -0.108  -1.861  0.00  0.00     0.395 HD
ENDBRANCH   1   7
TORSDOF 1
ENDMDL
