MODEL 1
REMARK minimizedAffinity -1.16193807
REMARK minimizedRMSD -1
REMARK  1 active torsions:
REMARK  status: ('A' for Active; 'I' for Inactive)
REMARK    1  A    between atoms: N_2  and  C1_3 
ROOT
ATOM      1  C1  UNL d   1       0.381  -0.819   1.326  0.00  0.00     0.143 A 
ATOM      2  C2  UNL d   1      -0.964  -0.676   0.970  0.00  0.00    -0.057 A 
ATOM      3  C3  UNL d   1      -1.338  -0.014  -0.205  0.00  0.00     0.033 A 
ATOM      4  C4  UNL d   1      -0.371   0.546  -1.033  0.00  0.00    -0.042 A 
ATOM      5  C5  UNL d   1       0.971   0.439  -0.686  0.00  0.00     0.033 A 
ATOM      6  C6  UNL d   1       1.339  -0.230   0.485  0.00  0.00    -0.057 A 
ENDROOT
BRANCH   1   7
ATOM      7  N   UNL d   1       0.812  -1.381   2.530  0.00  0.00    -0.732 N 
ATOM      8  C   UNL d   1       2.151  -1.135   3.021  0.00  0.00     0.284 C 
ATOM      9  H3  UNL d   1       0.094  -1.353   3.251  0.00  0.00     0.395 HD
ENDBRANCH   1   7
TORSDOF 1
ENDMDL
