MODEL 1
REMARK minimizedAffinity -2.37140203
REMARK minimizedRMSD -1
REMARK  1 active torsions:
REMARK  status: ('A' for Active; 'I' for Inactive)
REMARK    1  A    between atoms: N_2  and  C1_3 
ROOT
ATOM      1  C1  UNL d   1      -0.633   0.839  -1.409  0.00  0.00     0.143 A 
ATOM      2  C2  UNL d   1       0.694   0.397  -1.416  0.00  0.00    -0.057 A 
ATOM      3  C3  UNL d   1       1.340   0.017  -0.233  0.00  0.00     0.033 A 
ATOM      4  C4  UNL d   1       0.675   0.100   0.986  0.00  0.00    -0.042 A 
ATOM      5  C5  UNL d   1      -0.636   0.560   1.020  0.00  0.00     0.033 A 
ATOM      6  C6  UNL d   1      -1.277   0.932  -0.165  0.00  0.00    -0.057 A 
ENDROOT
BRANCH   1   7
ATOM      7  N   UNL d   1      -1.298   1.324  -2.538  0.00  0.00    -0.732 N 
ATOM      8  C   UNL d   1      -1.311   2.740  -2.834  0.00  0.00     0.284 C 
ATOM      9  H3  UNL d   1      -1.162   0.730  -3.353  0.00  0.00     0.395 HD
ENDBRANCH   1   7
TORSDOF 1
ENDMDL
