MODEL 1
REMARK minimizedAffinity -4.45404863
REMARK minimizedRMSD -1
REMARK  1 active torsions:
REMARK  status: ('A' for Active; 'I' for Inactive)
REMARK    1  A    between atoms: N_2  and  C1_3 
ROOT
ATOM      1  C1  UNL d   1      -0.055   0.201  -0.146  0.00  0.00     0.143 A 
ATOM      2  C2  UNL d   1      -0.966   0.138   0.914  0.00  0.00    -0.057 A 
ATOM      3  C3  UNL d   1      -0.596  -0.384   2.159  0.00  0.00     0.033 A 
ATOM      4  C4  UNL d   1       0.688  -0.882   2.358  0.00  0.00    -0.042 A 
ATOM      5  C5  UNL d   1       1.602  -0.853   1.311  0.00  0.00     0.033 A 
ATOM      6  C6  UNL d   1       1.229  -0.324   0.072  0.00  0.00    -0.057 A 
ENDROOT
BRANCH   1   7
ATOM      7  N   UNL d   1      -0.390   0.618  -1.436  0.00  0.00    -0.732 N 
ATOM      8  C   UNL d   1      -0.371   2.022  -1.786  0.00  0.00     0.284 C 
ATOM      9  H3  UNL d   1      -0.009   0.006  -2.154  0.00  0.00     0.395 HD
ENDBRANCH   1   7
TORSDOF 1
ENDMDL
