MODEL 1
REMARK minimizedAffinity -2.44772887
REMARK minimizedRMSD -1
REMARK  0 active torsions:
REMARK  status: ('A' for Active; 'I' for Inactive)
ROOT
ATOM      1  C1  DEN d   1       0.279   1.166  -0.182  0.00  0.00     0.130 A 
ATOM      2  C2  DEN d   1      -1.069   1.580   0.197  0.00  0.00    -0.031 A 
ATOM      3  C3  DEN d   1      -1.701   0.462   0.927  0.00  0.00     0.027 A 
ATOM      4  C4  DEN d   1      -0.727  -1.854   1.508  0.00  0.00     0.027 A 
ATOM      5  C5  DEN d   1       0.375  -2.671   1.386  0.00  0.00    -0.003 A 
ATOM      6  C6  DEN d   1       1.501  -2.282   0.710  0.00  0.00     0.001 A 
ATOM      7  C7  DEN d   1       1.567  -1.026   0.168  0.00  0.00     0.017 A 
ATOM      8  C8  DEN d   1       0.457  -0.199   0.279  0.00  0.00    -0.094 A 
ATOM      9  C9  DEN d   1      -0.668  -0.606   0.977  0.00  0.00    -0.072 A 
ENDROOT
TORSDOF 0
ENDMDL
