MODEL 1
REMARK minimizedAffinity -4.44151402
REMARK minimizedRMSD -1
REMARK  0 active torsions:
REMARK  status: ('A' for Active; 'I' for Inactive)
ROOT
ATOM      1  C1  DEN d   1       0.329   3.635  -1.497  0.00  0.00     0.130 A 
ATOM      2  C2  DEN d   1       1.315   3.789  -0.431  0.00  0.00    -0.031 A 
ATOM      3  C3  DEN d   1       1.201   2.623   0.469  0.00  0.00     0.027 A 
ATOM      4  C4  DEN d   1      -0.395   0.603   0.311  0.00  0.00     0.027 A 
ATOM      5  C5  DEN d   1      -1.420   0.035  -0.414  0.00  0.00    -0.003 A 
ATOM      6  C6  DEN d   1      -1.952   0.639  -1.522  0.00  0.00     0.001 A 
ATOM      7  C7  DEN d   1      -1.430   1.827  -1.964  0.00  0.00     0.017 A 
ATOM      8  C8  DEN d   1      -0.402   2.409  -1.234  0.00  0.00    -0.094 A 
ATOM      9  C9  DEN d   1       0.130   1.776  -0.123  0.00  0.00    -0.072 A 
ENDROOT
TORSDOF 0
ENDMDL
