MODEL 1
REMARK minimizedAffinity -4.40555573
REMARK minimizedRMSD -1
REMARK  0 active torsions:
REMARK  status: ('A' for Active; 'I' for Inactive)
ROOT
ATOM      1  C1  DEN d   1       2.111  -0.787  -0.467  0.00  0.00     0.130 A 
ATOM      2  C2  DEN d   1       2.489  -2.071   0.115  0.00  0.00    -0.031 A 
ATOM      3  C3  DEN d   1       1.500  -2.408   1.158  0.00  0.00     0.027 A 
ATOM      4  C4  DEN d   1      -0.572  -1.075   1.921  0.00  0.00     0.027 A 
ATOM      5  C5  DEN d   1      -1.297   0.080   1.729  0.00  0.00    -0.003 A 
ATOM      6  C6  DEN d   1      -0.921   1.035   0.822  0.00  0.00     0.001 A 
ATOM      7  C7  DEN d   1       0.186   0.832   0.041  0.00  0.00     0.017 A 
ATOM      8  C8  DEN d   1       0.926  -0.327   0.235  0.00  0.00    -0.094 A 
ATOM      9  C9  DEN d   1       0.522  -1.287   1.148  0.00  0.00    -0.072 A 
ENDROOT
TORSDOF 0
ENDMDL
