MODEL 1
REMARK minimizedAffinity -3.48702741
REMARK minimizedRMSD -1
REMARK  0 active torsions:
REMARK  status: ('A' for Active; 'I' for Inactive)
ROOT
ATOM      1  C1  DEN d   1      -1.315  -0.941   0.075  0.00  0.00     0.130 A 
ATOM      2  C2  DEN d   1      -1.274   0.484  -0.239  0.00  0.00    -0.031 A 
ATOM      3  C3  DEN d   1       0.120   0.946  -0.082  0.00  0.00     0.027 A 
ATOM      4  C4  DEN d   1       2.208  -0.401   0.610  0.00  0.00     0.027 A 
ATOM      5  C5  DEN d   1       2.668  -1.643   0.988  0.00  0.00    -0.003 A 
ATOM      6  C6  DEN d   1       1.834  -2.721   1.121  0.00  0.00     0.001 A 
ATOM      7  C7  DEN d   1       0.502  -2.589   0.829  0.00  0.00     0.017 A 
ATOM      8  C8  DEN d   1       0.029  -1.338   0.454  0.00  0.00    -0.094 A 
ATOM      9  C9  DEN d   1       0.891  -0.263   0.314  0.00  0.00    -0.072 A 
ENDROOT
TORSDOF 0
ENDMDL
