MODEL 1
REMARK minimizedAffinity 0.918281376
REMARK minimizedRMSD -1
REMARK  0 active torsions:
REMARK  status: ('A' for Active; 'I' for Inactive)
ROOT
ATOM      1  C1  DEN d   1      -0.370  -2.355   0.063  0.00  0.00     0.130 A 
ATOM      2  C2  DEN d   1      -0.521  -2.514   1.507  0.00  0.00    -0.031 A 
ATOM      3  C3  DEN d   1      -0.753  -1.179   2.092  0.00  0.00     0.027 A 
ATOM      4  C4  DEN d   1      -0.899   1.108   0.908  0.00  0.00     0.027 A 
ATOM      5  C5  DEN d   1      -0.823   1.749  -0.309  0.00  0.00    -0.003 A 
ATOM      6  C6  DEN d   1      -0.560   1.077  -1.473  0.00  0.00     0.001 A 
ATOM      7  C7  DEN d   1      -0.407  -0.284  -1.452  0.00  0.00     0.017 A 
ATOM      8  C8  DEN d   1      -0.475  -0.936  -0.227  0.00  0.00    -0.094 A 
ATOM      9  C9  DEN d   1      -0.754  -0.241   0.937  0.00  0.00    -0.072 A 
ENDROOT
TORSDOF 0
ENDMDL
