MODEL 1
REMARK minimizedAffinity -0.731348515
REMARK minimizedRMSD -1
REMARK  0 active torsions:
REMARK  status: ('A' for Active; 'I' for Inactive)
ROOT
ATOM      1  C1  DEN d   1       2.162  -2.162   0.268  0.00  0.00     0.130 A 
ATOM      2  C2  DEN d   1       1.703  -3.294   1.068  0.00  0.00    -0.031 A 
ATOM      3  C3  DEN d   1       0.327  -3.007   1.520  0.00  0.00     0.027 A 
ATOM      4  C4  DEN d   1      -1.133  -0.932   1.057  0.00  0.00     0.027 A 
ATOM      5  C5  DEN d   1      -1.172   0.298   0.437  0.00  0.00    -0.003 A 
ATOM      6  C6  DEN d   1      -0.099   0.804  -0.248  0.00  0.00     0.001 A 
ATOM      7  C7  DEN d   1       1.043   0.058  -0.369  0.00  0.00     0.017 A 
ATOM      8  C8  DEN d   1       1.093  -1.179   0.260  0.00  0.00    -0.094 A 
ATOM      9  C9  DEN d   1      -0.006  -1.679   0.938  0.00  0.00    -0.072 A 
ENDROOT
TORSDOF 0
ENDMDL
