MODEL 1
REMARK minimizedAffinity -2.29857206
REMARK minimizedRMSD -1
REMARK  0 active torsions:
REMARK  status: ('A' for Active; 'I' for Inactive)
ROOT
ATOM      1  C1  DEN d   1      -1.622  -0.949   1.609  0.00  0.00     0.130 A 
ATOM      2  C2  DEN d   1      -1.825   0.412   1.119  0.00  0.00    -0.031 A 
ATOM      3  C3  DEN d   1      -0.649   0.786   0.309  0.00  0.00     0.027 A 
ATOM      4  C4  DEN d   1       1.455  -0.604  -0.235  0.00  0.00     0.027 A 
ATOM      5  C5  DEN d   1       2.086  -1.812  -0.033  0.00  0.00    -0.003 A 
ATOM      6  C6  DEN d   1       1.545  -2.796   0.752  0.00  0.00     0.001 A 
ATOM      7  C7  DEN d   1       0.316  -2.606   1.327  0.00  0.00     0.017 A 
ATOM      8  C8  DEN d   1      -0.322  -1.388   1.134  0.00  0.00    -0.094 A 
ATOM      9  C9  DEN d   1       0.235  -0.411   0.328  0.00  0.00    -0.072 A 
ENDROOT
TORSDOF 0
ENDMDL
