MODEL 1
REMARK minimizedAffinity -0.95383966
REMARK minimizedRMSD -1
REMARK  0 active torsions:
REMARK  status: ('A' for Active; 'I' for Inactive)
ROOT
ATOM      1  C1  DEN d   1       0.753  -0.012   0.233  0.00  0.00     0.130 A 
ATOM      2  C2  DEN d   1      -0.489  -0.140  -0.523  0.00  0.00    -0.031 A 
ATOM      3  C3  DEN d   1      -0.817   1.184  -1.090  0.00  0.00     0.027 A 
ATOM      4  C4  DEN d   1       0.474   3.406  -0.876  0.00  0.00     0.027 A 
ATOM      5  C5  DEN d   1       1.581   4.012  -0.324  0.00  0.00    -0.003 A 
ATOM      6  C6  DEN d   1       2.463   3.334   0.475  0.00  0.00     0.001 A 
ATOM      7  C7  DEN d   1       2.279   1.997   0.706  0.00  0.00     0.017 A 
ATOM      8  C8  DEN d   1       1.162   1.380   0.158  0.00  0.00    -0.094 A 
ATOM      9  C9  DEN d   1       0.288   2.080  -0.656  0.00  0.00    -0.072 A 
ENDROOT
TORSDOF 0
ENDMDL
