MODEL 1
REMARK minimizedAffinity 0.0976451859
REMARK minimizedRMSD -1
REMARK  0 active torsions:
REMARK  status: ('A' for Active; 'I' for Inactive)
ROOT
ATOM      1  C1  DEN d   1      -2.726   1.952  -1.719  0.00  0.00     0.130 A 
ATOM      2  C2  DEN d   1      -2.949   1.549  -3.104  0.00  0.00    -0.031 A 
ATOM      3  C3  DEN d   1      -2.136   0.344  -3.366  0.00  0.00     0.027 A 
ATOM      4  C4  DEN d   1      -0.566  -0.932  -1.766  0.00  0.00     0.027 A 
ATOM      5  C5  DEN d   1      -0.044  -0.961  -0.492  0.00  0.00    -0.003 A 
ATOM      6  C6  DEN d   1      -0.350  -0.010   0.445  0.00  0.00     0.001 A 
ATOM      7  C7  DEN d   1      -1.238   0.987   0.135  0.00  0.00     0.017 A 
ATOM      8  C8  DEN d   1      -1.763   1.027  -1.150  0.00  0.00    -0.094 A 
ATOM      9  C9  DEN d   1      -1.450   0.049  -2.079  0.00  0.00    -0.072 A 
ENDROOT
TORSDOF 0
ENDMDL
