MODEL 1
REMARK minimizedAffinity -3.3536253
REMARK minimizedRMSD -1
REMARK  0 active torsions:
REMARK  status: ('A' for Active; 'I' for Inactive)
ROOT
ATOM      1  C1  DEN d   1       0.769   3.624  -0.156  0.00  0.00     0.130 A 
ATOM      2  C2  DEN d   1       2.207   3.848  -0.029  0.00  0.00    -0.031 A 
ATOM      3  C3  DEN d   1       2.876   2.532  -0.039  0.00  0.00     0.027 A 
ATOM      4  C4  DEN d   1       1.833   0.182  -0.242  0.00  0.00     0.027 A 
ATOM      5  C5  DEN d   1       0.650  -0.515  -0.359  0.00  0.00    -0.003 A 
ATOM      6  C6  DEN d   1      -0.567   0.111  -0.383  0.00  0.00     0.001 A 
ATOM      7  C7  DEN d   1      -0.628   1.479  -0.333  0.00  0.00     0.017 A 
ATOM      8  C8  DEN d   1       0.559   2.188  -0.207  0.00  0.00    -0.094 A 
ATOM      9  C9  DEN d   1       1.781   1.537  -0.197  0.00  0.00    -0.072 A 
ENDROOT
TORSDOF 0
ENDMDL
