MODEL 1
REMARK minimizedAffinity -5.09884739
REMARK minimizedRMSD -1
REMARK  0 active torsions:
REMARK  status: ('A' for Active; 'I' for Inactive)
ROOT
ATOM      1  C1  DEN d   1       1.944  -2.165   0.570  0.00  0.00     0.130 A 
ATOM      2  C2  DEN d   1       1.299  -3.192   1.384  0.00  0.00    -0.031 A 
ATOM      3  C3  DEN d   1      -0.062  -2.723   1.715  0.00  0.00     0.027 A 
ATOM      4  C4  DEN d   1      -1.227  -0.521   1.046  0.00  0.00     0.027 A 
ATOM      5  C5  DEN d   1      -1.075   0.669   0.370  0.00  0.00    -0.003 A 
ATOM      6  C6  DEN d   1       0.096   1.010  -0.254  0.00  0.00     0.001 A 
ATOM      7  C7  DEN d   1       1.147   0.131  -0.251  0.00  0.00     0.017 A 
ATOM      8  C8  DEN d   1       1.004  -1.068   0.435  0.00  0.00    -0.094 A 
ATOM      9  C9  DEN d   1      -0.193  -1.399   1.048  0.00  0.00    -0.072 A 
ENDROOT
TORSDOF 0
ENDMDL
