MODEL 1
REMARK minimizedAffinity -1.9815774
REMARK minimizedRMSD -1
REMARK  0 active torsions:
REMARK  status: ('A' for Active; 'I' for Inactive)
ROOT
ATOM      1  C1  DEN d   1       0.096  -2.496   1.335  0.00  0.00     0.130 A 
ATOM      2  C2  DEN d   1       1.501  -2.870   1.199  0.00  0.00    -0.031 A 
ATOM      3  C3  DEN d   1       2.192  -1.790   0.466  0.00  0.00     0.027 A 
ATOM      4  C4  DEN d   1       1.229   0.414  -0.464  0.00  0.00     0.027 A 
ATOM      5  C5  DEN d   1       0.086   1.169  -0.604  0.00  0.00    -0.003 A 
ATOM      6  C6  DEN d   1      -1.131   0.743  -0.141  0.00  0.00     0.001 A 
ATOM      7  C7  DEN d   1      -1.225  -0.451   0.524  0.00  0.00     0.017 A 
ATOM      8  C8  DEN d   1      -0.077  -1.221   0.662  0.00  0.00    -0.094 A 
ATOM      9  C9  DEN d   1       1.146  -0.767   0.198  0.00  0.00    -0.072 A 
ENDROOT
TORSDOF 0
ENDMDL
