MODEL 1
REMARK minimizedAffinity -1.95174479
REMARK minimizedRMSD -1
REMARK  0 active torsions:
REMARK  status: ('A' for Active; 'I' for Inactive)
ROOT
ATOM      1  C1  DEN d   1      -0.675   0.353   0.169  0.00  0.00     0.130 A 
ATOM      2  C2  DEN d   1       0.313   1.427   0.112  0.00  0.00    -0.031 A 
ATOM      3  C3  DEN d   1       1.627   0.858   0.473  0.00  0.00     0.027 A 
ATOM      4  C4  DEN d   1       2.225  -1.570   1.105  0.00  0.00     0.027 A 
ATOM      5  C5  DEN d   1       1.719  -2.836   1.301  0.00  0.00    -0.003 A 
ATOM      6  C6  DEN d   1       0.385  -3.118   1.168  0.00  0.00     0.001 A 
ATOM      7  C7  DEN d   1      -0.482  -2.130   0.785  0.00  0.00     0.017 A 
ATOM      8  C8  DEN d   1       0.019  -0.849   0.592  0.00  0.00    -0.094 A 
ATOM      9  C9  DEN d   1       1.372  -0.587   0.720  0.00  0.00    -0.072 A 
ENDROOT
TORSDOF 0
ENDMDL
