MODEL 1
REMARK minimizedAffinity -4.66104126
REMARK minimizedRMSD -1
REMARK  0 active torsions:
REMARK  status: ('A' for Active; 'I' for Inactive)
ROOT
ATOM      1  C1  DEN d   1       1.281   3.732  -0.015  0.00  0.00     0.130 A 
ATOM      2  C2  DEN d   1       2.732   3.893   0.013  0.00  0.00    -0.031 A 
ATOM      3  C3  DEN d   1       3.342   2.557  -0.137  0.00  0.00     0.027 A 
ATOM      4  C4  DEN d   1       2.188   0.268  -0.416  0.00  0.00     0.027 A 
ATOM      5  C5  DEN d   1       0.972  -0.375  -0.487  0.00  0.00    -0.003 A 
ATOM      6  C6  DEN d   1      -0.217   0.296  -0.373  0.00  0.00     0.001 A 
ATOM      7  C7  DEN d   1      -0.215   1.658  -0.227  0.00  0.00     0.017 A 
ATOM      8  C8  DEN d   1       1.007   2.312  -0.146  0.00  0.00    -0.094 A 
ATOM      9  C9  DEN d   1       2.197   1.617  -0.276  0.00  0.00    -0.072 A 
ENDROOT
TORSDOF 0
ENDMDL
