MODEL 1
REMARK minimizedAffinity -1.51060271
REMARK minimizedRMSD -1
REMARK  0 active torsions:
REMARK  status: ('A' for Active; 'I' for Inactive)
ROOT
ATOM      1  C   UNL d   1       1.314  -0.390   1.274  0.00  0.00     0.124 A 
ATOM      2  C1  UNL d   1       1.329   0.766   0.506  0.00  0.00     0.062 A 
ATOM      3  C2  UNL d   1       0.191   1.157  -0.193  0.00  0.00     0.162 A 
ATOM      4  C3  UNL d   1      -0.973   0.391  -0.128  0.00  0.00    -0.034 A 
ATOM      5  C4  UNL d   1      -0.980  -0.771   0.646  0.00  0.00     0.162 A 
ATOM      6  C5  UNL d   1       0.160  -1.157   1.343  0.00  0.00     0.062 A 
ATOM      7  F   UNL d   1       0.144  -2.275   2.084  0.00  0.00    -0.097 F 
ATOM      8  F1  UNL d   1      -2.082  -1.531   0.731  0.00  0.00    -0.096 F 
ATOM      9  I   UNL d   1      -2.677   0.972  -1.172  0.00  0.00    -0.060 I 
ATOM     10  F2  UNL d   1       0.234   2.279  -0.927  0.00  0.00    -0.096 F 
ATOM     11  F3  UNL d   1       2.443   1.509   0.437  0.00  0.00    -0.097 F 
ATOM     12  F4  UNL d   1       2.411  -0.764   1.945  0.00  0.00    -0.092 F 
ENDROOT
TORSDOF 0
ENDMDL
