MODEL 1
REMARK minimizedAffinity 7.14543009
REMARK minimizedRMSD -1
REMARK  0 active torsions:
REMARK  status: ('A' for Active; 'I' for Inactive)
ROOT
ATOM      1  C   UNL d   1       0.978  -1.307  -0.390  0.00  0.00     0.124 A 
ATOM      2  C1  UNL d   1       0.360  -1.735  -1.557  0.00  0.00     0.062 A 
ATOM      3  C2  UNL d   1      -0.766  -1.071  -2.036  0.00  0.00     0.162 A 
ATOM      4  C3  UNL d   1      -1.281   0.028  -1.349  0.00  0.00    -0.034 A 
ATOM      5  C4  UNL d   1      -0.654   0.452  -0.176  0.00  0.00     0.162 A 
ATOM      6  C5  UNL d   1       0.471  -0.215   0.299  0.00  0.00     0.062 A 
ATOM      7  F   UNL d   1       1.067   0.199   1.427  0.00  0.00    -0.097 F 
ATOM      8  F1  UNL d   1      -1.123   1.505   0.510  0.00  0.00    -0.096 F 
ATOM      9  I   UNL d   1      -2.964   1.023  -2.063  0.00  0.00    -0.060 I 
ATOM     10  F2  UNL d   1      -1.343  -1.506  -3.167  0.00  0.00    -0.096 F 
ATOM     11  F3  UNL d   1       0.847  -2.790  -2.224  0.00  0.00    -0.097 F 
ATOM     12  F4  UNL d   1       2.060  -1.948   0.069  0.00  0.00    -0.092 F 
ENDROOT
TORSDOF 0
ENDMDL
