MODEL 1
REMARK minimizedAffinity -4.52849388
REMARK minimizedRMSD -1
REMARK  0 active torsions:
REMARK  status: ('A' for Active; 'I' for Inactive)
ROOT
ATOM      1  C   UNL d   1       1.640  -2.464   1.724  0.00  0.00     0.124 A 
ATOM      2  C1  UNL d   1       0.270  -2.247   1.694  0.00  0.00     0.062 A 
ATOM      3  C2  UNL d   1      -0.237  -1.032   1.241  0.00  0.00     0.162 A 
ATOM      4  C3  UNL d   1       0.628  -0.025   0.812  0.00  0.00    -0.034 A 
ATOM      5  C4  UNL d   1       2.005  -0.250   0.845  0.00  0.00     0.162 A 
ATOM      6  C5  UNL d   1       2.506  -1.466   1.300  0.00  0.00     0.062 A 
ATOM      7  F   UNL d   1       3.831  -1.674   1.328  0.00  0.00    -0.097 F 
ATOM      8  F1  UNL d   1       2.864   0.696   0.441  0.00  0.00    -0.096 F 
ATOM      9  I   UNL d   1      -0.126   1.792   0.133  0.00  0.00    -0.060 I 
ATOM     10  F2  UNL d   1      -1.566  -0.850   1.223  0.00  0.00    -0.096 F 
ATOM     11  F3  UNL d   1      -0.569  -3.209   2.104  0.00  0.00    -0.097 F 
ATOM     12  F4  UNL d   1       2.125  -3.633   2.162  0.00  0.00    -0.092 F 
ENDROOT
TORSDOF 0
ENDMDL
