MODEL 1
REMARK minimizedAffinity 4.38597393
REMARK minimizedRMSD -1
REMARK  0 active torsions:
REMARK  status: ('A' for Active; 'I' for Inactive)
ROOT
ATOM      1  C   UNL d   1       1.809  -2.161   2.267  0.00  0.00     0.124 A 
ATOM      2  C1  UNL d   1       0.610  -2.105   1.569  0.00  0.00     0.062 A 
ATOM      3  C2  UNL d   1       0.219  -0.924   0.945  0.00  0.00     0.162 A 
ATOM      4  C3  UNL d   1       1.027   0.211   1.015  0.00  0.00    -0.034 A 
ATOM      5  C4  UNL d   1       2.231   0.147   1.720  0.00  0.00     0.162 A 
ATOM      6  C5  UNL d   1       2.618  -1.036   2.341  0.00  0.00     0.062 A 
ATOM      7  F   UNL d   1       3.776  -1.089   3.015  0.00  0.00    -0.097 F 
ATOM      8  F1  UNL d   1       3.032   1.219   1.807  0.00  0.00    -0.096 F 
ATOM      9  I   UNL d   1       0.445   1.979   0.084  0.00  0.00    -0.060 I 
ATOM     10  F2  UNL d   1      -0.945  -0.898   0.278  0.00  0.00    -0.096 F 
ATOM     11  F3  UNL d   1      -0.173  -3.190   1.496  0.00  0.00    -0.097 F 
ATOM     12  F4  UNL d   1       2.183  -3.299   2.867  0.00  0.00    -0.092 F 
ENDROOT
TORSDOF 0
ENDMDL
