MODEL 1
REMARK minimizedAffinity -3.11765504
REMARK minimizedRMSD -1
REMARK  0 active torsions:
REMARK  status: ('A' for Active; 'I' for Inactive)
ROOT
ATOM      1  C   UNL d   1       2.342  -1.919   1.925  0.00  0.00     0.124 A 
ATOM      2  C1  UNL d   1       2.487  -0.846   1.057  0.00  0.00     0.062 A 
ATOM      3  C2  UNL d   1       1.373  -0.303   0.423  0.00  0.00     0.162 A 
ATOM      4  C3  UNL d   1       0.104  -0.832   0.655  0.00  0.00    -0.034 A 
ATOM      5  C4  UNL d   1      -0.034  -1.912   1.529  0.00  0.00     0.162 A 
ATOM      6  C5  UNL d   1       1.083  -2.451   2.160  0.00  0.00     0.062 A 
ATOM      7  F   UNL d   1       0.941  -3.488   2.999  0.00  0.00    -0.097 F 
ATOM      8  F1  UNL d   1      -1.240  -2.445   1.776  0.00  0.00    -0.096 F 
ATOM      9  I   UNL d   1      -1.564  -0.024  -0.291  0.00  0.00    -0.060 I 
ATOM     10  F2  UNL d   1       1.543   0.733  -0.411  0.00  0.00    -0.096 F 
ATOM     11  F3  UNL d   1       3.704  -0.331   0.827  0.00  0.00    -0.097 F 
ATOM     12  F4  UNL d   1       3.416  -2.440   2.533  0.00  0.00    -0.092 F 
ENDROOT
TORSDOF 0
ENDMDL
