MODEL 1
REMARK minimizedAffinity -2.14463854
REMARK minimizedRMSD -1
REMARK  0 active torsions:
REMARK  status: ('A' for Active; 'I' for Inactive)
ROOT
ATOM      1  C   UNL d   1       1.901  -1.943   1.007  0.00  0.00     0.124 A 
ATOM      2  C1  UNL d   1       0.782  -1.600   0.262  0.00  0.00     0.062 A 
ATOM      3  C2  UNL d   1       0.399  -0.267   0.146  0.00  0.00     0.162 A 
ATOM      4  C3  UNL d   1       1.137   0.734   0.778  0.00  0.00    -0.034 A 
ATOM      5  C4  UNL d   1       2.261   0.381   1.527  0.00  0.00     0.162 A 
ATOM      6  C5  UNL d   1       2.640  -0.953   1.639  0.00  0.00     0.062 A 
ATOM      7  F   UNL d   1       3.721  -1.282   2.360  0.00  0.00    -0.097 F 
ATOM      8  F1  UNL d   1       2.994   1.318   2.147  0.00  0.00    -0.096 F 
ATOM      9  I   UNL d   1       0.568   2.729   0.608  0.00  0.00    -0.060 I 
ATOM     10  F2  UNL d   1      -0.687   0.035  -0.580  0.00  0.00    -0.096 F 
ATOM     11  F3  UNL d   1       0.066  -2.556  -0.349  0.00  0.00    -0.097 F 
ATOM     12  F4  UNL d   1       2.267  -3.227   1.117  0.00  0.00    -0.092 F 
ENDROOT
TORSDOF 0
ENDMDL
