MODEL 1
REMARK minimizedAffinity -0.373679161
REMARK minimizedRMSD -1
REMARK  0 active torsions:
REMARK  status: ('A' for Active; 'I' for Inactive)
ROOT
ATOM      1  C   UNL d   1      -2.000  -0.564   0.339  0.00  0.00     0.124 A 
ATOM      2  C1  UNL d   1      -1.295   0.356  -0.423  0.00  0.00     0.062 A 
ATOM      3  C2  UNL d   1       0.096   0.377  -0.386  0.00  0.00     0.162 A 
ATOM      4  C3  UNL d   1       0.792  -0.527   0.417  0.00  0.00    -0.034 A 
ATOM      5  C4  UNL d   1       0.076  -1.449   1.182  0.00  0.00     0.162 A 
ATOM      6  C5  UNL d   1      -1.315  -1.466   1.141  0.00  0.00     0.062 A 
ATOM      7  F   UNL d   1      -1.995  -2.356   1.878  0.00  0.00    -0.097 F 
ATOM      8  F1  UNL d   1       0.713  -2.333   1.965  0.00  0.00    -0.096 F 
ATOM      9  I   UNL d   1       2.872  -0.499   0.477  0.00  0.00    -0.060 I 
ATOM     10  F2  UNL d   1       0.752   1.277  -1.133  0.00  0.00    -0.096 F 
ATOM     11  F3  UNL d   1      -1.955   1.229  -1.198  0.00  0.00    -0.097 F 
ATOM     12  F4  UNL d   1      -3.339  -0.582   0.302  0.00  0.00    -0.092 F 
ENDROOT
TORSDOF 0
ENDMDL
