MODEL 1
REMARK minimizedAffinity 10.2159338
REMARK minimizedRMSD -1
REMARK  0 active torsions:
REMARK  status: ('A' for Active; 'I' for Inactive)
ROOT
ATOM      1  C   UNL d   1       2.372   0.735  -2.402  0.00  0.00     0.078 C 
ATOM      2  C1  UNL d   1       1.601   0.999  -3.661  0.00  0.00    -0.077 A 
ATOM      3  C2  UNL d   1       1.983   2.019  -4.541  0.00  0.00    -0.001 A 
ATOM      4  C3  UNL d   1       1.250   2.259  -5.704  0.00  0.00     0.003 A 
ATOM      5  C4  UNL d   1       0.129   1.484  -5.998  0.00  0.00    -0.005 A 
ATOM      6  C5  UNL d   1      -0.260   0.468  -5.127  0.00  0.00     0.003 A 
ATOM      7  C6  UNL d   1       0.472   0.226  -3.963  0.00  0.00    -0.001 A 
ENDROOT
TORSDOF 0
ENDMDL
