MODEL 1
REMARK minimizedAffinity 4.66429663
REMARK minimizedRMSD -1
REMARK  0 active torsions:
REMARK  status: ('A' for Active; 'I' for Inactive)
ROOT
ATOM      1  C   UNL d   1       4.495   3.746   2.105  0.00  0.00     0.078 C 
ATOM      2  C1  UNL d   1       4.893   4.247   3.461  0.00  0.00    -0.077 A 
ATOM      3  C2  UNL d   1       5.645   3.449   4.333  0.00  0.00    -0.001 A 
ATOM      4  C3  UNL d   1       6.000   3.925   5.596  0.00  0.00     0.003 A 
ATOM      5  C4  UNL d   1       5.607   5.199   6.000  0.00  0.00    -0.005 A 
ATOM      6  C5  UNL d   1       4.857   6.000   5.140  0.00  0.00     0.003 A 
ATOM      7  C6  UNL d   1       4.501   5.526   3.877  0.00  0.00    -0.001 A 
ENDROOT
TORSDOF 0
ENDMDL
