MODEL 1
REMARK minimizedAffinity 7.99337864
REMARK minimizedRMSD -1
REMARK  0 active torsions:
REMARK  status: ('A' for Active; 'I' for Inactive)
ROOT
ATOM      1  C   UNL d   1       2.658   0.889  -3.024  0.00  0.00     0.078 C 
ATOM      2  C1  UNL d   1       1.766   1.490  -4.068  0.00  0.00    -0.077 A 
ATOM      3  C2  UNL d   1       2.277   2.359  -5.040  0.00  0.00    -0.001 A 
ATOM      4  C3  UNL d   1       1.433   2.919  -6.000  0.00  0.00     0.003 A 
ATOM      5  C4  UNL d   1       0.072   2.618  -5.997  0.00  0.00    -0.005 A 
ATOM      6  C5  UNL d   1      -0.446   1.756  -5.032  0.00  0.00     0.003 A 
ATOM      7  C6  UNL d   1       0.397   1.195  -4.071  0.00  0.00    -0.001 A 
ENDROOT
TORSDOF 0
ENDMDL
