MODEL 1
REMARK minimizedAffinity -1.93670642
REMARK minimizedRMSD -1
REMARK  0 active torsions:
REMARK  status: ('A' for Active; 'I' for Inactive)
ROOT
ATOM      1  C   UNL d   1       2.762   1.839   1.600  0.00  0.00     0.078 C 
ATOM      2  C1  UNL d   1       2.894   3.284   1.978  0.00  0.00    -0.077 A 
ATOM      3  C2  UNL d   1       2.458   3.745   3.226  0.00  0.00    -0.001 A 
ATOM      4  C3  UNL d   1       2.578   5.095   3.561  0.00  0.00     0.003 A 
ATOM      5  C4  UNL d   1       3.133   5.995   2.653  0.00  0.00    -0.005 A 
ATOM      6  C5  UNL d   1       3.567   5.545   1.408  0.00  0.00     0.003 A 
ATOM      7  C6  UNL d   1       3.448   4.196   1.071  0.00  0.00    -0.001 A 
ENDROOT
TORSDOF 0
ENDMDL
