MODEL 1
REMARK minimizedAffinity 6.46270514
REMARK minimizedRMSD -1
REMARK  0 active torsions:
REMARK  status: ('A' for Active; 'I' for Inactive)
ROOT
ATOM      1  C   UNL d   1       2.288  -1.770   0.047  0.00  0.00     0.078 C 
ATOM      2  C1  UNL d   1       1.591  -3.095  -0.047  0.00  0.00    -0.077 A 
ATOM      3  C2  UNL d   1       0.915  -3.634   1.054  0.00  0.00    -0.001 A 
ATOM      4  C3  UNL d   1       0.278  -4.872   0.955  0.00  0.00     0.003 A 
ATOM      5  C4  UNL d   1       0.313  -5.582  -0.243  0.00  0.00    -0.005 A 
ATOM      6  C5  UNL d   1       0.985  -5.055  -1.344  0.00  0.00     0.003 A 
ATOM      7  C6  UNL d   1       1.622  -3.817  -1.247  0.00  0.00    -0.001 A 
ENDROOT
TORSDOF 0
ENDMDL
