MODEL 1
REMARK minimizedAffinity 10.1085262
REMARK minimizedRMSD -1
REMARK  0 active torsions:
REMARK  status: ('A' for Active; 'I' for Inactive)
ROOT
ATOM      1  C   UNL d   1       6.000   1.736  -1.913  0.00  0.00     0.078 C 
ATOM      2  C1  UNL d   1       5.297   0.411  -1.943  0.00  0.00    -0.077 A 
ATOM      3  C2  UNL d   1       3.957   0.315  -2.337  0.00  0.00    -0.001 A 
ATOM      4  C3  UNL d   1       3.313  -0.924  -2.351  0.00  0.00     0.003 A 
ATOM      5  C4  UNL d   1       4.001  -2.074  -1.971  0.00  0.00    -0.005 A 
ATOM      6  C5  UNL d   1       5.334  -1.988  -1.576  0.00  0.00     0.003 A 
ATOM      7  C6  UNL d   1       5.980  -0.751  -1.561  0.00  0.00    -0.001 A 
ENDROOT
TORSDOF 0
ENDMDL
