MODEL 1
REMARK minimizedAffinity -0.873806655
REMARK minimizedRMSD -1
REMARK  0 active torsions:
REMARK  status: ('A' for Active; 'I' for Inactive)
ROOT
ATOM      1  C   UNL d   1       3.766   5.589   4.514  0.00  0.00     0.078 C 
ATOM      2  C1  UNL d   1       3.718   5.123   3.089  0.00  0.00    -0.077 A 
ATOM      3  C2  UNL d   1       3.332   3.815   2.771  0.00  0.00    -0.001 A 
ATOM      4  C3  UNL d   1       3.300   3.392   1.441  0.00  0.00     0.003 A 
ATOM      5  C4  UNL d   1       3.654   4.271   0.419  0.00  0.00    -0.005 A 
ATOM      6  C5  UNL d   1       4.042   5.573   0.726  0.00  0.00     0.003 A 
ATOM      7  C6  UNL d   1       4.074   5.998   2.056  0.00  0.00    -0.001 A 
ENDROOT
TORSDOF 0
ENDMDL
