MODEL 1
REMARK minimizedAffinity 0.483262569
REMARK minimizedRMSD -1
REMARK  0 active torsions:
REMARK  status: ('A' for Active; 'I' for Inactive)
ROOT
ATOM      1  C   UNL d   1       1.115   2.221   0.496  0.00  0.00     0.078 C 
ATOM      2  C1  UNL d   1       0.467   0.900   0.790  0.00  0.00    -0.077 A 
ATOM      3  C2  UNL d   1       1.227  -0.272   0.878  0.00  0.00    -0.001 A 
ATOM      4  C3  UNL d   1       0.610  -1.495   1.143  0.00  0.00     0.003 A 
ATOM      5  C4  UNL d   1      -0.771  -1.558   1.321  0.00  0.00    -0.005 A 
ATOM      6  C5  UNL d   1      -1.536  -0.397   1.233  0.00  0.00     0.003 A 
ATOM      7  C6  UNL d   1      -0.920   0.827   0.968  0.00  0.00    -0.001 A 
ENDROOT
TORSDOF 0
ENDMDL
