MODEL 1
REMARK minimizedAffinity 0.540766776
REMARK minimizedRMSD -1
REMARK  0 active torsions:
REMARK  status: ('A' for Active; 'I' for Inactive)
ROOT
ATOM      1  C   UNL d   1      -3.655   2.704  -5.985  0.00  0.00     0.078 C 
ATOM      2  C1  UNL d   1      -2.187   3.007  -5.996  0.00  0.00    -0.077 A 
ATOM      3  C2  UNL d   1      -1.238   1.978  -5.990  0.00  0.00    -0.001 A 
ATOM      4  C3  UNL d   1       0.126   2.275  -5.991  0.00  0.00     0.003 A 
ATOM      5  C4  UNL d   1       0.553   3.601  -5.996  0.00  0.00    -0.005 A 
ATOM      6  C5  UNL d   1      -0.384   4.632  -5.999  0.00  0.00     0.003 A 
ATOM      7  C6  UNL d   1      -1.748   4.337  -5.999  0.00  0.00    -0.001 A 
ENDROOT
TORSDOF 0
ENDMDL
