MODEL 1
REMARK minimizedAffinity -3.30263424
REMARK minimizedRMSD -1
REMARK  0 active torsions:
REMARK  status: ('A' for Active; 'I' for Inactive)
ROOT
ATOM      1  C   UNL d   1      -3.701   2.630  -5.795  0.00  0.00     0.078 C 
ATOM      2  C1  UNL d   1      -2.228   2.909  -5.809  0.00  0.00    -0.077 A 
ATOM      3  C2  UNL d   1      -1.297   1.879  -5.625  0.00  0.00    -0.001 A 
ATOM      4  C3  UNL d   1       0.071   2.154  -5.630  0.00  0.00     0.003 A 
ATOM      5  C4  UNL d   1       0.521   3.459  -5.818  0.00  0.00    -0.005 A 
ATOM      6  C5  UNL d   1      -0.397   4.491  -6.000  0.00  0.00     0.003 A 
ATOM      7  C6  UNL d   1      -1.766   4.218  -5.994  0.00  0.00    -0.001 A 
ENDROOT
TORSDOF 0
ENDMDL
