MODEL 1
REMARK minimizedAffinity -2.17419028
REMARK minimizedRMSD -1
REMARK  0 active torsions:
REMARK  status: ('A' for Active; 'I' for Inactive)
ROOT
ATOM      1  C   UNL d   1      -4.210   5.683  -6.000  0.00  0.00     0.078 C 
ATOM      2  C1  UNL d   1      -2.935   4.894  -5.991  0.00  0.00    -0.077 A 
ATOM      3  C2  UNL d   1      -1.690   5.535  -5.997  0.00  0.00    -0.001 A 
ATOM      4  C3  UNL d   1      -0.511   4.788  -6.000  0.00  0.00     0.003 A 
ATOM      5  C4  UNL d   1      -0.565   3.395  -5.997  0.00  0.00    -0.005 A 
ATOM      6  C5  UNL d   1      -1.800   2.749  -5.993  0.00  0.00     0.003 A 
ATOM      7  C6  UNL d   1      -2.979   3.494  -5.991  0.00  0.00    -0.001 A 
ENDROOT
TORSDOF 0
ENDMDL
