MODEL 1
REMARK minimizedAffinity -2.61857915
REMARK minimizedRMSD -1
REMARK  0 active torsions:
REMARK  status: ('A' for Active; 'I' for Inactive)
ROOT
ATOM      1  C   UNL d   1       0.049   3.779  -5.989  0.00  0.00     0.078 C 
ATOM      2  C1  UNL d   1      -1.429   3.526  -5.981  0.00  0.00    -0.077 A 
ATOM      3  C2  UNL d   1      -1.938   2.222  -5.970  0.00  0.00    -0.001 A 
ATOM      4  C3  UNL d   1      -3.316   2.002  -5.972  0.00  0.00     0.003 A 
ATOM      5  C4  UNL d   1      -4.197   3.081  -5.986  0.00  0.00    -0.005 A 
ATOM      6  C5  UNL d   1      -3.700   4.383  -5.999  0.00  0.00     0.003 A 
ATOM      7  C6  UNL d   1      -2.322   4.605  -5.997  0.00  0.00    -0.001 A 
ENDROOT
TORSDOF 0
ENDMDL
