MODEL 1
REMARK minimizedAffinity -2.39662981
REMARK minimizedRMSD -1
REMARK  0 active torsions:
REMARK  status: ('A' for Active; 'I' for Inactive)
ROOT
ATOM      1  C   UNL d   1      -0.136   3.625  -1.019  0.00  0.00     0.078 C 
ATOM      2  C1  UNL d   1       0.972   2.622  -0.895  0.00  0.00    -0.077 A 
ATOM      3  C2  UNL d   1       1.409   2.181   0.360  0.00  0.00    -0.001 A 
ATOM      4  C3  UNL d   1       2.447   1.254   0.461  0.00  0.00     0.003 A 
ATOM      5  C4  UNL d   1       3.058   0.761  -0.690  0.00  0.00    -0.005 A 
ATOM      6  C5  UNL d   1       2.632   1.195  -1.944  0.00  0.00     0.003 A 
ATOM      7  C6  UNL d   1       1.593   2.122  -2.046  0.00  0.00    -0.001 A 
ENDROOT
TORSDOF 0
ENDMDL
