MODEL 1
REMARK minimizedAffinity 2.31486011
REMARK minimizedRMSD -1
REMARK  0 active torsions:
REMARK  status: ('A' for Active; 'I' for Inactive)
ROOT
ATOM      1  C   UNL d   1      -2.005   2.534  -5.626  0.00  0.00     0.078 C 
ATOM      2  C1  UNL d   1      -0.539   2.826  -5.510  0.00  0.00    -0.077 A 
ATOM      3  C2  UNL d   1       0.333   1.913  -4.905  0.00  0.00    -0.001 A 
ATOM      4  C3  UNL d   1       1.694   2.202  -4.796  0.00  0.00     0.003 A 
ATOM      5  C4  UNL d   1       2.195   3.406  -5.288  0.00  0.00    -0.005 A 
ATOM      6  C5  UNL d   1       1.335   4.322  -5.889  0.00  0.00     0.003 A 
ATOM      7  C6  UNL d   1      -0.026   4.034  -6.000  0.00  0.00    -0.001 A 
ENDROOT
TORSDOF 0
ENDMDL
