MODEL 1
REMARK minimizedAffinity -0.668003798
REMARK minimizedRMSD -1
REMARK  0 active torsions:
REMARK  status: ('A' for Active; 'I' for Inactive)
ROOT
ATOM      1  C   UNL d   1      -3.371   3.066  -5.992  0.00  0.00     0.078 C 
ATOM      2  C1  UNL d   1      -2.053   3.781  -6.000  0.00  0.00    -0.077 A 
ATOM      3  C2  UNL d   1      -0.846   3.070  -5.994  0.00  0.00    -0.001 A 
ATOM      4  C3  UNL d   1       0.373   3.749  -5.991  0.00  0.00     0.003 A 
ATOM      5  C4  UNL d   1       0.399   5.142  -5.993  0.00  0.00    -0.005 A 
ATOM      6  C5  UNL d   1      -0.797   5.858  -5.997  0.00  0.00     0.003 A 
ATOM      7  C6  UNL d   1      -2.017   5.181  -5.999  0.00  0.00    -0.001 A 
ENDROOT
TORSDOF 0
ENDMDL
