MODEL 1
REMARK minimizedAffinity -2.54490566
REMARK minimizedRMSD -1
REMARK  0 active torsions:
REMARK  status: ('A' for Active; 'I' for Inactive)
ROOT
ATOM      1  N1  IND d   1      -0.356   1.247  -0.446  0.00  0.00    -0.196 N 
ATOM      2  C2  IND d   1      -1.590   1.194   0.140  0.00  0.00     0.054 A 
ATOM      3  C3  IND d   1      -1.813  -0.035   0.657  0.00  0.00    -0.031 A 
ATOM      4  C4  IND d   1      -0.251  -2.080   0.745  0.00  0.00     0.051 A 
ATOM      5  C5  IND d   1       0.965  -2.526   0.310  0.00  0.00    -0.031 A 
ATOM      6  C6  IND d   1       1.822  -1.720  -0.412  0.00  0.00     0.015 A 
ATOM      7  C7  IND d   1       1.497  -0.428  -0.717  0.00  0.00    -0.016 A 
ATOM      8  C8  IND d   1       0.260   0.026  -0.283  0.00  0.00    -0.047 A 
ATOM      9  C9  IND d   1      -0.632  -0.801   0.414  0.00  0.00    -0.096 A 
ATOM     10  HN1 IND d   1      -0.021   1.929  -0.849  0.00  0.00     0.298 HD
ENDROOT
TORSDOF 0
ENDMDL
