MODEL 1
REMARK minimizedAffinity -5.00144815
REMARK minimizedRMSD -1
REMARK  0 active torsions:
REMARK  status: ('A' for Active; 'I' for Inactive)
ROOT
ATOM      1  N1  IND d   1       0.290  -1.097  -0.179  0.00  0.00    -0.196 N 
ATOM      2  C2  IND d   1      -0.543  -0.052   0.109  0.00  0.00     0.054 A 
ATOM      3  C3  IND d   1       0.139   0.938   0.726  0.00  0.00    -0.031 A 
ATOM      4  C4  IND d   1       2.650   1.101   1.271  0.00  0.00     0.051 A 
ATOM      5  C5  IND d   1       3.809   0.379   1.233  0.00  0.00    -0.031 A 
ATOM      6  C6  IND d   1       3.857  -0.897   0.709  0.00  0.00     0.015 A 
ATOM      7  C7  IND d   1       2.744  -1.496   0.192  0.00  0.00    -0.016 A 
ATOM      8  C8  IND d   1       1.563  -0.769   0.235  0.00  0.00    -0.047 A 
ATOM      9  C9  IND d   1       1.500   0.510   0.804  0.00  0.00    -0.096 A 
ATOM     10  HN1 IND d   1       0.059  -1.835  -0.555  0.00  0.00     0.298 HD
ENDROOT
TORSDOF 0
ENDMDL
