MODEL 1
REMARK minimizedAffinity -4.67121887
REMARK minimizedRMSD -1
REMARK  0 active torsions:
REMARK  status: ('A' for Active; 'I' for Inactive)
ROOT
ATOM      1  N1  IND d   1       1.782   2.099   0.058  0.00  0.00    -0.196 N 
ATOM      2  C2  IND d   1       0.476   2.245  -0.320  0.00  0.00     0.054 A 
ATOM      3  C3  IND d   1      -0.115   1.036  -0.446  0.00  0.00    -0.031 A 
ATOM      4  C4  IND d   1       0.842  -1.309   0.016  0.00  0.00     0.051 A 
ATOM      5  C5  IND d   1       2.000  -1.953   0.347  0.00  0.00    -0.031 A 
ATOM      6  C6  IND d   1       3.169  -1.266   0.606  0.00  0.00     0.015 A 
ATOM      7  C7  IND d   1       3.219   0.098   0.555  0.00  0.00    -0.016 A 
ATOM      8  C8  IND d   1       2.046   0.756   0.213  0.00  0.00    -0.047 A 
ATOM      9  C9  IND d   1       0.868   0.061  -0.093  0.00  0.00    -0.096 A 
ATOM     10  HN1 IND d   1       2.344   2.738   0.179  0.00  0.00     0.298 HD
ENDROOT
TORSDOF 0
ENDMDL
