MODEL 1
REMARK minimizedAffinity -3.57276535
REMARK minimizedRMSD -1
REMARK  0 active torsions:
REMARK  status: ('A' for Active; 'I' for Inactive)
ROOT
ATOM      1  N1  IND d   1      -0.526   1.070   0.216  0.00  0.00    -0.196 N 
ATOM      2  C2  IND d   1      -1.302  -0.046   0.076  0.00  0.00     0.054 A 
ATOM      3  C3  IND d   1      -0.535  -1.159   0.101  0.00  0.00    -0.031 A 
ATOM      4  C4  IND d   1       2.004  -1.387   0.461  0.00  0.00     0.051 A 
ATOM      5  C5  IND d   1       3.144  -0.644   0.598  0.00  0.00    -0.031 A 
ATOM      6  C6  IND d   1       3.117   0.735   0.617  0.00  0.00     0.015 A 
ATOM      7  C7  IND d   1       1.944   1.427   0.511  0.00  0.00    -0.016 A 
ATOM      8  C8  IND d   1       0.785   0.676   0.365  0.00  0.00    -0.047 A 
ATOM      9  C9  IND d   1       0.811  -0.723   0.303  0.00  0.00    -0.096 A 
ATOM     10  HN1 IND d   1      -0.810   1.882   0.210  0.00  0.00     0.298 HD
ENDROOT
TORSDOF 0
ENDMDL
