MODEL 1
REMARK minimizedAffinity -6.139112
REMARK minimizedRMSD -1
REMARK  0 active torsions:
REMARK  status: ('A' for Active; 'I' for Inactive)
ROOT
ATOM      1  N1  IND d   1       1.175   2.321  -0.467  0.00  0.00    -0.196 N 
ATOM      2  C2  IND d   1      -0.039   1.889  -0.923  0.00  0.00     0.054 A 
ATOM      3  C3  IND d   1      -0.154   0.552  -0.759  0.00  0.00    -0.031 A 
ATOM      4  C4  IND d   1       1.484  -1.110   0.327  0.00  0.00     0.051 A 
ATOM      5  C5  IND d   1       2.741  -1.193   0.858  0.00  0.00    -0.031 A 
ATOM      6  C6  IND d   1       3.555  -0.085   0.980  0.00  0.00     0.015 A 
ATOM      7  C7  IND d   1       3.137   1.154   0.583  0.00  0.00    -0.016 A 
ATOM      8  C8  IND d   1       1.864   1.240   0.037  0.00  0.00    -0.047 A 
ATOM      9  C9  IND d   1       1.050   0.112  -0.128  0.00  0.00    -0.096 A 
ATOM     10  HN1 IND d   1       1.461   3.132  -0.492  0.00  0.00     0.298 HD
ENDROOT
TORSDOF 0
ENDMDL
