MODEL 1
REMARK minimizedAffinity -5.28306055
REMARK minimizedRMSD -1
REMARK  0 active torsions:
REMARK  status: ('A' for Active; 'I' for Inactive)
ROOT
ATOM      1  N1  IND d   1      -0.354   1.008  -0.003  0.00  0.00    -0.196 N 
ATOM      2  C2  IND d   1      -1.261  -0.012  -0.084  0.00  0.00     0.054 A 
ATOM      3  C3  IND d   1      -0.646  -1.203   0.089  0.00  0.00    -0.031 A 
ATOM      4  C4  IND d   1       1.822  -1.708   0.618  0.00  0.00     0.051 A 
ATOM      5  C5  IND d   1       3.041  -1.103   0.751  0.00  0.00    -0.031 A 
ATOM      6  C6  IND d   1       3.192   0.264   0.640  0.00  0.00     0.015 A 
ATOM      7  C7  IND d   1       2.124   1.082   0.402  0.00  0.00    -0.016 A 
ATOM      8  C8  IND d   1       0.887   0.471   0.259  0.00  0.00    -0.047 A 
ATOM      9  C9  IND d   1       0.734  -0.920   0.328  0.00  0.00    -0.096 A 
ATOM     10  HN1 IND d   1      -0.530   1.844  -0.101  0.00  0.00     0.298 HD
ENDROOT
TORSDOF 0
ENDMDL
