MODEL 1
REMARK minimizedAffinity -5.44005919
REMARK minimizedRMSD -1
REMARK  0 active torsions:
REMARK  status: ('A' for Active; 'I' for Inactive)
ROOT
ATOM      1  N1  IND d   1       0.033   0.923  -0.558  0.00  0.00    -0.196 N 
ATOM      2  C2  IND d   1      -0.767  -0.084  -1.020  0.00  0.00     0.054 A 
ATOM      3  C3  IND d   1      -0.195  -1.286  -0.781  0.00  0.00    -0.031 A 
ATOM      4  C4  IND d   1       2.001  -1.838   0.444  0.00  0.00     0.051 A 
ATOM      5  C5  IND d   1       3.094  -1.248   1.014  0.00  0.00    -0.031 A 
ATOM      6  C6  IND d   1       3.224   0.124   1.092  0.00  0.00     0.015 A 
ATOM      7  C7  IND d   1       2.256   0.960   0.612  0.00  0.00    -0.016 A 
ATOM      8  C8  IND d   1       1.148   0.364   0.027  0.00  0.00    -0.047 A 
ATOM      9  C9  IND d   1       1.030  -1.026  -0.093  0.00  0.00    -0.096 A 
ATOM     10  HN1 IND d   1      -0.132   1.765  -0.622  0.00  0.00     0.298 HD
ENDROOT
TORSDOF 0
ENDMDL
