MODEL 1
REMARK minimizedAffinity -4.39756107
REMARK minimizedRMSD -1
REMARK  0 active torsions:
REMARK  status: ('A' for Active; 'I' for Inactive)
ROOT
ATOM      1  N1  IND d   1       2.829   0.742   0.079  0.00  0.00    -0.196 N 
ATOM      2  C2  IND d   1       3.302  -0.541   0.055  0.00  0.00     0.054 A 
ATOM      3  C3  IND d   1       2.280  -1.417  -0.074  0.00  0.00    -0.031 A 
ATOM      4  C4  IND d   1      -0.237  -0.962  -0.369  0.00  0.00     0.051 A 
ATOM      5  C5  IND d   1      -1.155   0.050  -0.374  0.00  0.00    -0.031 A 
ATOM      6  C6  IND d   1      -0.785   1.371  -0.229  0.00  0.00     0.015 A 
ATOM      7  C7  IND d   1       0.525   1.732  -0.084  0.00  0.00    -0.016 A 
ATOM      8  C8  IND d   1       1.459   0.707  -0.070  0.00  0.00    -0.047 A 
ATOM      9  C9  IND d   1       1.086  -0.639  -0.174  0.00  0.00    -0.096 A 
ATOM     10  HN1 IND d   1       3.306   1.451   0.171  0.00  0.00     0.298 HD
ENDROOT
TORSDOF 0
ENDMDL
