MODEL 1
REMARK minimizedAffinity -3.68970776
REMARK minimizedRMSD -1
REMARK  1 active torsions:
REMARK  status: ('A' for Active; 'I' for Inactive)
REMARK    1  A    between atoms: C1_2  and  C2_3 
ROOT
ATOM      1  C2  UNL d   1       0.047  -0.270  -0.091  0.00  0.00    -0.077 A 
ATOM      2  C3  UNL d   1       0.821   0.326   0.915  0.00  0.00     0.002 A 
ATOM      3  C4  UNL d   1       0.206   0.930   2.014  0.00  0.00     0.002 A 
ATOM      4  C5  UNL d   1      -1.183   0.939   2.119  0.00  0.00    -0.004 A 
ATOM      5  C6  UNL d   1      -1.961   0.350   1.123  0.00  0.00     0.002 A 
ATOM      6  C7  UNL d   1      -1.348  -0.252   0.024  0.00  0.00     0.002 A 
ENDROOT
BRANCH   1   7
ATOM      7  C1  UNL d   1       0.710  -0.965  -1.252  0.00  0.00     0.055 C 
ATOM      8  C   UNL d   1       0.700  -0.092  -2.498  0.00  0.00     0.019 C 
ENDBRANCH   1   7
TORSDOF 1
ENDMDL
