MODEL 1
REMARK minimizedAffinity -3.63634157
REMARK minimizedRMSD -1
REMARK  1 active torsions:
REMARK  status: ('A' for Active; 'I' for Inactive)
REMARK    1  A    between atoms: C1_2  and  C2_3 
ROOT
ATOM      1  C2  UNL d   1       0.052   0.041   0.657  0.00  0.00    -0.077 A 
ATOM      2  C3  UNL d   1       0.779   0.131   1.853  0.00  0.00     0.002 A 
ATOM      3  C4  UNL d   1       0.128   0.409   3.056  0.00  0.00     0.002 A 
ATOM      4  C5  UNL d   1      -1.252   0.594   3.077  0.00  0.00    -0.004 A 
ATOM      5  C6  UNL d   1      -1.984   0.508   1.893  0.00  0.00     0.002 A 
ATOM      6  C7  UNL d   1      -1.335   0.232   0.689  0.00  0.00     0.002 A 
ENDROOT
BRANCH   1   7
ATOM      7  C1  UNL d   1       0.745  -0.308  -0.634  0.00  0.00     0.055 C 
ATOM      8  C   UNL d   1      -0.124   0.027  -1.837  0.00  0.00     0.019 C 
ENDBRANCH   1   7
TORSDOF 1
ENDMDL
