MODEL 1
REMARK minimizedAffinity -5.1103406
REMARK minimizedRMSD -1
REMARK  1 active torsions:
REMARK  status: ('A' for Active; 'I' for Inactive)
REMARK    1  A    between atoms: C1_2  and  C2_3 
ROOT
ATOM      1  C2  UNL d   1      -0.141   0.278   0.818  0.00  0.00    -0.077 A 
ATOM      2  C3  UNL d   1       1.091  -0.254   1.224  0.00  0.00     0.002 A 
ATOM      3  C4  UNL d   1       1.552  -0.052   2.527  0.00  0.00     0.002 A 
ATOM      4  C5  UNL d   1       0.786   0.677   3.434  0.00  0.00    -0.004 A 
ATOM      5  C6  UNL d   1      -0.440   1.211   3.039  0.00  0.00     0.002 A 
ATOM      6  C7  UNL d   1      -0.901   1.011   1.737  0.00  0.00     0.002 A 
ENDROOT
BRANCH   1   7
ATOM      7  C1  UNL d   1      -0.662   0.019  -0.571  0.00  0.00     0.055 C 
ATOM      8  C   UNL d   1       0.471  -0.289  -1.540  0.00  0.00     0.019 C 
ENDBRANCH   1   7
TORSDOF 1
ENDMDL
