MODEL 1
REMARK minimizedAffinity -4.48896027
REMARK minimizedRMSD -1
REMARK  1 active torsions:
REMARK  status: ('A' for Active; 'I' for Inactive)
REMARK    1  A    between atoms: C1_2  and  C2_3 
ROOT
ATOM      1  C2  UNL d   1      -0.482   0.726   2.000  0.00  0.00    -0.077 A 
ATOM      2  C3  UNL d   1       0.638   0.358   1.241  0.00  0.00     0.002 A 
ATOM      3  C4  UNL d   1       1.794  -0.110   1.869  0.00  0.00     0.002 A 
ATOM      4  C5  UNL d   1       1.840  -0.218   3.257  0.00  0.00    -0.004 A 
ATOM      5  C6  UNL d   1       0.732   0.147   4.021  0.00  0.00     0.002 A 
ATOM      6  C7  UNL d   1      -0.424   0.616   3.395  0.00  0.00     0.002 A 
ENDROOT
BRANCH   1   7
ATOM      7  C1  UNL d   1      -1.747   1.184   1.322  0.00  0.00     0.055 C 
ATOM      8  C   UNL d   1      -1.956   0.466  -0.004  0.00  0.00     0.019 C 
ENDBRANCH   1   7
TORSDOF 1
ENDMDL
