MODEL 1
REMARK minimizedAffinity -4.54278851
REMARK minimizedRMSD -1
REMARK  1 active torsions:
REMARK  status: ('A' for Active; 'I' for Inactive)
REMARK    1  A    between atoms: C1_2  and  C2_3 
ROOT
ATOM      1  C2  UNL d   1      -0.049   0.028  -0.090  0.00  0.00    -0.077 A 
ATOM      2  C3  UNL d   1       0.852   0.794   0.663  0.00  0.00     0.002 A 
ATOM      3  C4  UNL d   1       0.432   1.434   1.830  0.00  0.00     0.002 A 
ATOM      4  C5  UNL d   1      -0.889   1.312   2.256  0.00  0.00    -0.004 A 
ATOM      5  C6  UNL d   1      -1.794   0.555   1.513  0.00  0.00     0.002 A 
ATOM      6  C7  UNL d   1      -1.376  -0.085   0.346  0.00  0.00     0.002 A 
ENDROOT
BRANCH   1   7
ATOM      7  C1  UNL d   1       0.414  -0.703  -1.323  0.00  0.00     0.055 C 
ATOM      8  C   UNL d   1       1.035   0.251  -2.333  0.00  0.00     0.019 C 
ENDBRANCH   1   7
TORSDOF 1
ENDMDL
