MODEL 1
REMARK minimizedAffinity -0.982656419
REMARK minimizedRMSD -1
REMARK  1 active torsions:
REMARK  status: ('A' for Active; 'I' for Inactive)
REMARK    1  A    between atoms: C1_2  and  C2_3 
ROOT
ATOM      1  C2  UNL d   1      -0.970   0.337   1.271  0.00  0.00    -0.077 A 
ATOM      2  C3  UNL d   1      -1.835  -0.138   0.275  0.00  0.00     0.002 A 
ATOM      3  C4  UNL d   1      -1.327  -0.785  -0.853  0.00  0.00     0.002 A 
ATOM      4  C5  UNL d   1       0.048  -0.966  -0.993  0.00  0.00    -0.004 A 
ATOM      5  C6  UNL d   1       0.916  -0.496  -0.009  0.00  0.00     0.002 A 
ATOM      6  C7  UNL d   1       0.410   0.152   1.118  0.00  0.00     0.002 A 
ENDROOT
BRANCH   1   7
ATOM      7  C1  UNL d   1      -1.520   0.991   2.512  0.00  0.00     0.055 C 
ATOM      8  C   UNL d   1      -1.103   0.237   3.766  0.00  0.00     0.019 C 
ENDBRANCH   1   7
TORSDOF 1
ENDMDL
