MODEL 1
REMARK minimizedAffinity -4.39343309
REMARK minimizedRMSD -1
REMARK  1 active torsions:
REMARK  status: ('A' for Active; 'I' for Inactive)
REMARK    1  A    between atoms: C1_2  and  C2_3 
ROOT
ATOM      1  C2  UNL d   1      -0.614   0.598   1.534  0.00  0.00    -0.077 A 
ATOM      2  C3  UNL d   1       0.692   0.264   1.148  0.00  0.00     0.002 A 
ATOM      3  C4  UNL d   1       1.721   0.232   2.092  0.00  0.00     0.002 A 
ATOM      4  C5  UNL d   1       1.453   0.529   3.427  0.00  0.00    -0.004 A 
ATOM      5  C6  UNL d   1       0.158   0.865   3.820  0.00  0.00     0.002 A 
ATOM      6  C7  UNL d   1      -0.871   0.898   2.878  0.00  0.00     0.002 A 
ENDROOT
BRANCH   1   7
ATOM      7  C1  UNL d   1      -1.734   0.585   0.527  0.00  0.00     0.055 C 
ATOM      8  C   UNL d   1      -1.693  -0.671  -0.331  0.00  0.00     0.019 C 
ENDBRANCH   1   7
TORSDOF 1
ENDMDL
