MODEL 1
REMARK minimizedAffinity -5.20292902
REMARK minimizedRMSD -1
REMARK  1 active torsions:
REMARK  status: ('A' for Active; 'I' for Inactive)
REMARK    1  A    between atoms: C1_2  and  C2_3 
ROOT
ATOM      1  C2  UNL d   1      -0.449   0.277   0.861  0.00  0.00    -0.077 A 
ATOM      2  C3  UNL d   1       0.682  -0.070   1.613  0.00  0.00     0.002 A 
ATOM      3  C4  UNL d   1       0.762   0.266   2.966  0.00  0.00     0.002 A 
ATOM      4  C5  UNL d   1      -0.288   0.948   3.579  0.00  0.00    -0.004 A 
ATOM      5  C6  UNL d   1      -1.416   1.299   2.839  0.00  0.00     0.002 A 
ATOM      6  C7  UNL d   1      -1.497   0.965   1.487  0.00  0.00     0.002 A 
ENDROOT
BRANCH   1   7
ATOM      7  C1  UNL d   1      -0.558  -0.128  -0.585  0.00  0.00     0.055 C 
ATOM      8  C   UNL d   1       0.672  -0.901  -1.038  0.00  0.00     0.019 C 
ENDBRANCH   1   7
TORSDOF 1
ENDMDL
