MODEL 1
REMARK minimizedAffinity -6.13212299
REMARK minimizedRMSD -1
REMARK  1 active torsions:
REMARK  status: ('A' for Active; 'I' for Inactive)
REMARK    1  A    between atoms: C1_2  and  C2_3 
ROOT
ATOM      1  C2  UNL d   1      -0.620   0.790   1.892  0.00  0.00    -0.077 A 
ATOM      2  C3  UNL d   1       0.432   0.174   1.200  0.00  0.00     0.002 A 
ATOM      3  C4  UNL d   1       1.547  -0.304   1.891  0.00  0.00     0.002 A 
ATOM      4  C5  UNL d   1       1.619  -0.174   3.276  0.00  0.00    -0.004 A 
ATOM      5  C6  UNL d   1       0.579   0.440   3.973  0.00  0.00     0.002 A 
ATOM      6  C7  UNL d   1      -0.536   0.919   3.284  0.00  0.00     0.002 A 
ENDROOT
BRANCH   1   7
ATOM      7  C1  UNL d   1      -1.846   1.262   1.154  0.00  0.00     0.055 C 
ATOM      8  C   UNL d   1      -2.091   0.434  -0.098  0.00  0.00     0.019 C 
ENDBRANCH   1   7
TORSDOF 1
ENDMDL
