MODEL 1
REMARK minimizedAffinity -5.93638515
REMARK minimizedRMSD -1
REMARK  1 active torsions:
REMARK  status: ('A' for Active; 'I' for Inactive)
REMARK    1  A    between atoms: C1_2  and  C2_3 
ROOT
ATOM      1  C2  UNL d   1      -0.138  -0.036   0.368  0.00  0.00    -0.077 A 
ATOM      2  C3  UNL d   1       0.761   0.735   1.119  0.00  0.00     0.002 A 
ATOM      3  C4  UNL d   1       0.322   1.436   2.243  0.00  0.00     0.002 A 
ATOM      4  C5  UNL d   1      -1.015   1.370   2.630  0.00  0.00    -0.004 A 
ATOM      5  C6  UNL d   1      -1.917   0.607   1.889  0.00  0.00     0.002 A 
ATOM      6  C7  UNL d   1      -1.480  -0.094   0.764  0.00  0.00     0.002 A 
ENDROOT
BRANCH   1   7
ATOM      7  C1  UNL d   1       0.344  -0.833  -0.816  0.00  0.00     0.055 C 
ATOM      8  C   UNL d   1       0.662   0.071  -1.998  0.00  0.00     0.019 C 
ENDBRANCH   1   7
TORSDOF 1
ENDMDL
