MODEL 1
REMARK minimizedAffinity -5.30661106
REMARK minimizedRMSD -1
REMARK  0 active torsions:
REMARK  status: ('A' for Active; 'I' for Inactive)
ROOT
ATOM      1  C1  DEN d   1       0.233  -0.599  -1.038  0.00  0.00     0.130 A 
ATOM      2  C2  DEN d   1       1.419   0.226  -1.256  0.00  0.00    -0.031 A 
ATOM      3  C3  DEN d   1       1.811   0.813   0.041  0.00  0.00     0.027 A 
ATOM      4  C4  DEN d   1       0.707   0.522   2.354  0.00  0.00     0.027 A 
ATOM      5  C5  DEN d   1      -0.332  -0.074   3.035  0.00  0.00    -0.003 A 
ATOM      6  C6  DEN d   1      -1.266  -0.853   2.406  0.00  0.00     0.001 A 
ATOM      7  C7  DEN d   1      -1.155  -1.093   1.062  0.00  0.00     0.017 A 
ATOM      8  C8  DEN d   1      -0.115  -0.490   0.367  0.00  0.00    -0.094 A 
ATOM      9  C9  DEN d   1       0.826   0.284   1.023  0.00  0.00    -0.072 A 
ENDROOT
TORSDOF 0
ENDMDL
