MODEL 1
REMARK minimizedAffinity -5.07904053
REMARK minimizedRMSD -1
REMARK  0 active torsions:
REMARK  status: ('A' for Active; 'I' for Inactive)
ROOT
ATOM      1  C1  DEN d   1      -2.391   0.327   0.673  0.00  0.00     0.130 A 
ATOM      2  C2  DEN d   1      -1.762   0.439  -0.640  0.00  0.00    -0.031 A 
ATOM      3  C3  DEN d   1      -0.349   0.034  -0.505  0.00  0.00     0.027 A 
ATOM      4  C4  DEN d   1       0.919  -0.755   1.598  0.00  0.00     0.027 A 
ATOM      5  C5  DEN d   1       0.809  -1.001   2.948  0.00  0.00    -0.003 A 
ATOM      6  C6  DEN d   1      -0.356  -0.790   3.636  0.00  0.00     0.001 A 
ATOM      7  C7  DEN d   1      -1.472  -0.363   2.967  0.00  0.00     0.017 A 
ATOM      8  C8  DEN d   1      -1.367  -0.106   1.606  0.00  0.00    -0.094 A 
ATOM      9  C9  DEN d   1      -0.183  -0.337   0.926  0.00  0.00    -0.072 A 
ENDROOT
TORSDOF 0
ENDMDL
