MODEL 1
REMARK minimizedAffinity -3.68112254
REMARK minimizedRMSD -1
REMARK  0 active torsions:
REMARK  status: ('A' for Active; 'I' for Inactive)
ROOT
ATOM      1  C1  DEN d   1       0.512   1.157  -0.052  0.00  0.00     0.130 A 
ATOM      2  C2  DEN d   1       0.659   0.191  -1.137  0.00  0.00    -0.031 A 
ATOM      3  C3  DEN d   1       0.065  -1.086  -0.696  0.00  0.00     0.027 A 
ATOM      4  C4  DEN d   1      -1.068  -1.658   1.550  0.00  0.00     0.027 A 
ATOM      5  C5  DEN d   1      -1.418  -1.166   2.788  0.00  0.00    -0.003 A 
ATOM      6  C6  DEN d   1      -1.122   0.114   3.175  0.00  0.00     0.001 A 
ATOM      7  C7  DEN d   1      -0.495   0.961   2.299  0.00  0.00     0.017 A 
ATOM      8  C8  DEN d   1      -0.132   0.469   1.052  0.00  0.00    -0.094 A 
ATOM      9  C9  DEN d   1      -0.452  -0.824   0.675  0.00  0.00    -0.072 A 
ENDROOT
TORSDOF 0
ENDMDL
