MODEL 1
REMARK minimizedAffinity -3.96730447
REMARK minimizedRMSD -1
REMARK  0 active torsions:
REMARK  status: ('A' for Active; 'I' for Inactive)
ROOT
ATOM      1  C1  DEN d   1       2.115  -2.285  -1.732  0.00  0.00     0.130 A 
ATOM      2  C2  DEN d   1       1.613  -1.927  -3.056  0.00  0.00    -0.031 A 
ATOM      3  C3  DEN d   1       0.517  -0.954  -2.881  0.00  0.00     0.027 A 
ATOM      4  C4  DEN d   1      -0.444   0.033  -0.700  0.00  0.00     0.027 A 
ATOM      5  C5  DEN d   1      -0.350   0.022   0.674  0.00  0.00    -0.003 A 
ATOM      6  C6  DEN d   1       0.542  -0.778   1.338  0.00  0.00     0.001 A 
ATOM      7  C7  DEN d   1       1.407  -1.567   0.627  0.00  0.00     0.017 A 
ATOM      8  C8  DEN d   1       1.313  -1.566  -0.759  0.00  0.00    -0.094 A 
ATOM      9  C9  DEN d   1       0.413  -0.742  -1.412  0.00  0.00    -0.072 A 
ENDROOT
TORSDOF 0
ENDMDL
