MODEL 1
REMARK minimizedAffinity -3.87085414
REMARK minimizedRMSD -1
REMARK  0 active torsions:
REMARK  status: ('A' for Active; 'I' for Inactive)
ROOT
ATOM      1  C1  DEN d   1      -0.442   0.136  -0.673  0.00  0.00     0.130 A 
ATOM      2  C2  DEN d   1       0.586   1.173  -0.672  0.00  0.00    -0.031 A 
ATOM      3  C3  DEN d   1       1.023   1.382   0.724  0.00  0.00     0.027 A 
ATOM      4  C4  DEN d   1       0.214   0.202   2.870  0.00  0.00     0.027 A 
ATOM      5  C5  DEN d   1      -0.654  -0.742   3.373  0.00  0.00    -0.003 A 
ATOM      6  C6  DEN d   1      -1.528  -1.429   2.574  0.00  0.00     0.001 A 
ATOM      7  C7  DEN d   1      -1.524  -1.215   1.221  0.00  0.00     0.017 A 
ATOM      8  C8  DEN d   1      -0.657  -0.260   0.707  0.00  0.00    -0.094 A 
ATOM      9  C9  DEN d   1       0.229   0.416   1.530  0.00  0.00    -0.072 A 
ENDROOT
TORSDOF 0
ENDMDL
