MODEL 1
REMARK minimizedAffinity -6.66698313
REMARK minimizedRMSD -1
REMARK  0 active torsions:
REMARK  status: ('A' for Active; 'I' for Inactive)
ROOT
ATOM      1  C1  DEN d   1       1.255   0.772   0.613  0.00  0.00     0.130 A 
ATOM      2  C2  DEN d   1       0.733   1.006  -0.730  0.00  0.00    -0.031 A 
ATOM      3  C3  DEN d   1      -0.716   0.720  -0.713  0.00  0.00     0.027 A 
ATOM      4  C4  DEN d   1      -2.194  -0.052   1.255  0.00  0.00     0.027 A 
ATOM      5  C5  DEN d   1      -2.197  -0.396   2.589  0.00  0.00    -0.003 A 
ATOM      6  C6  DEN d   1      -1.054  -0.408   3.343  0.00  0.00     0.001 A 
ATOM      7  C7  DEN d   1       0.135  -0.025   2.779  0.00  0.00     0.017 A 
ATOM      8  C8  DEN d   1       0.147   0.316   1.433  0.00  0.00    -0.094 A 
ATOM      9  C9  DEN d   1      -1.021   0.334   0.691  0.00  0.00    -0.072 A 
ENDROOT
TORSDOF 0
ENDMDL
