MODEL 1
REMARK minimizedAffinity -3.92187881
REMARK minimizedRMSD -1
REMARK  0 active torsions:
REMARK  status: ('A' for Active; 'I' for Inactive)
ROOT
ATOM      1  C1  DEN d   1      -2.346  -0.878   0.743  0.00  0.00     0.130 A 
ATOM      2  C2  DEN d   1      -1.925  -1.461   2.015  0.00  0.00    -0.031 A 
ATOM      3  C3  DEN d   1      -0.612  -0.885   2.368  0.00  0.00     0.027 A 
ATOM      4  C4  DEN d   1       0.801   0.846   1.080  0.00  0.00     0.027 A 
ATOM      5  C5  DEN d   1       0.863   1.622  -0.056  0.00  0.00    -0.003 A 
ATOM      6  C6  DEN d   1      -0.115   1.594  -1.014  0.00  0.00     0.001 A 
ATOM      7  C7  DEN d   1      -1.221   0.806  -0.832  0.00  0.00     0.017 A 
ATOM      8  C8  DEN d   1      -1.288   0.016   0.308  0.00  0.00    -0.094 A 
ATOM      9  C9  DEN d   1      -0.294   0.067   1.270  0.00  0.00    -0.072 A 
ENDROOT
TORSDOF 0
ENDMDL
