MODEL 1
REMARK minimizedAffinity 4.77868938
REMARK minimizedRMSD -1
REMARK  0 active torsions:
REMARK  status: ('A' for Active; 'I' for Inactive)
ROOT
ATOM      1  C1  DEN d   1      -0.863  -0.135   2.759  0.00  0.00     0.130 A 
ATOM      2  C2  DEN d   1      -0.724   0.741   3.919  0.00  0.00    -0.031 A 
ATOM      3  C3  DEN d   1       0.370   1.694   3.643  0.00  0.00     0.027 A 
ATOM      4  C4  DEN d   1       1.852   1.898   1.542  0.00  0.00     0.027 A 
ATOM      5  C5  DEN d   1       2.117   1.367   0.299  0.00  0.00    -0.003 A 
ATOM      6  C6  DEN d   1       1.436   0.286  -0.193  0.00  0.00     0.001 A 
ATOM      7  C7  DEN d   1       0.424  -0.272   0.543  0.00  0.00     0.017 A 
ATOM      8  C8  DEN d   1       0.156   0.253   1.801  0.00  0.00    -0.094 A 
ATOM      9  C9  DEN d   1       0.848   1.355   2.276  0.00  0.00    -0.072 A 
ENDROOT
TORSDOF 0
ENDMDL
