MODEL 1
REMARK minimizedAffinity -4.07402754
REMARK minimizedRMSD -1
REMARK  0 active torsions:
REMARK  status: ('A' for Active; 'I' for Inactive)
ROOT
ATOM      1  C1  DEN d   1       1.191   0.920   0.308  0.00  0.00     0.130 A 
ATOM      2  C2  DEN d   1       0.724   0.721  -1.061  0.00  0.00    -0.031 A 
ATOM      3  C3  DEN d   1      -0.635   0.145  -1.001  0.00  0.00     0.027 A 
ATOM      4  C4  DEN d   1      -2.055  -0.449   1.069  0.00  0.00     0.027 A 
ATOM      5  C5  DEN d   1      -2.078  -0.470   2.446  0.00  0.00    -0.003 A 
ATOM      6  C6  DEN d   1      -1.009  -0.064   3.201  0.00  0.00     0.001 A 
ATOM      7  C7  DEN d   1       0.112   0.423   2.583  0.00  0.00     0.017 A 
ATOM      8  C8  DEN d   1       0.146   0.440   1.194  0.00  0.00    -0.094 A 
ATOM      9  C9  DEN d   1      -0.949   0.037   0.450  0.00  0.00    -0.072 A 
ENDROOT
TORSDOF 0
ENDMDL
