MODEL 1
REMARK minimizedAffinity 6.5185318
REMARK minimizedRMSD -1
REMARK  0 active torsions:
REMARK  status: ('A' for Active; 'I' for Inactive)
ROOT
ATOM      1  C1  DEN d   1       0.912  -0.067   0.038  0.00  0.00     0.130 A 
ATOM      2  C2  DEN d   1       1.085   1.121  -0.794  0.00  0.00    -0.031 A 
ATOM      3  C3  DEN d   1      -0.252   1.583  -1.216  0.00  0.00     0.027 A 
ATOM      4  C4  DEN d   1      -2.564   0.581  -0.662  0.00  0.00     0.027 A 
ATOM      5  C5  DEN d   1      -3.218  -0.434  -0.000  0.00  0.00    -0.003 A 
ATOM      6  C6  DEN d   1      -2.545  -1.410   0.686  0.00  0.00     0.001 A 
ATOM      7  C7  DEN d   1      -1.178  -1.365   0.765  0.00  0.00     0.017 A 
ATOM      8  C8  DEN d   1      -0.511  -0.349   0.094  0.00  0.00    -0.094 A 
ATOM      9  C9  DEN d   1      -1.210   0.636  -0.584  0.00  0.00    -0.072 A 
ENDROOT
TORSDOF 0
ENDMDL
