MODEL 1
REMARK minimizedAffinity -1.4297421
REMARK minimizedRMSD -1
REMARK  0 active torsions:
REMARK  status: ('A' for Active; 'I' for Inactive)
ROOT
ATOM      1  C1  DEN d   1       0.867   1.520   0.371  0.00  0.00     0.130 A 
ATOM      2  C2  DEN d   1       0.694   0.900  -0.940  0.00  0.00    -0.031 A 
ATOM      3  C3  DEN d   1       0.006  -0.392  -0.746  0.00  0.00     0.027 A 
ATOM      4  C4  DEN d   1      -0.808  -1.485   1.444  0.00  0.00     0.027 A 
ATOM      5  C5  DEN d   1      -0.875  -1.342   2.812  0.00  0.00    -0.003 A 
ATOM      6  C6  DEN d   1      -0.341  -0.261   3.461  0.00  0.00     0.001 A 
ATOM      7  C7  DEN d   1       0.246   0.743   2.736  0.00  0.00     0.017 A 
ATOM      8  C8  DEN d   1       0.324   0.603   1.357  0.00  0.00    -0.094 A 
ATOM      9  C9  DEN d   1      -0.234  -0.492   0.719  0.00  0.00    -0.072 A 
ENDROOT
TORSDOF 0
ENDMDL
