MODEL 1
REMARK minimizedAffinity -3.76225209
REMARK minimizedRMSD -1
REMARK  0 active torsions:
REMARK  status: ('A' for Active; 'I' for Inactive)
ROOT
ATOM      1  C1  DEN d   1      -0.828  -1.456   2.380  0.00  0.00     0.130 A 
ATOM      2  C2  DEN d   1      -0.295  -0.739   3.536  0.00  0.00    -0.031 A 
ATOM      3  C3  DEN d   1       0.441   0.441   3.041  0.00  0.00     0.027 A 
ATOM      4  C4  DEN d   1       0.802   1.227   0.611  0.00  0.00     0.027 A 
ATOM      5  C5  DEN d   1       0.550   0.937  -0.712  0.00  0.00    -0.003 A 
ATOM      6  C6  DEN d   1      -0.144  -0.180  -1.095  0.00  0.00     0.001 A 
ATOM      7  C7  DEN d   1      -0.650  -1.025  -0.143  0.00  0.00     0.017 A 
ATOM      8  C8  DEN d   1      -0.393  -0.743   1.193  0.00  0.00    -0.094 A 
ATOM      9  C9  DEN d   1       0.300   0.398   1.560  0.00  0.00    -0.072 A 
ENDROOT
TORSDOF 0
ENDMDL
