MODEL 1
REMARK minimizedAffinity 6.08508015
REMARK minimizedRMSD -1
REMARK  1 active torsions:
REMARK  status: ('A' for Active; 'I' for Inactive)
REMARK    1  A    between atoms: C1_2  and  C2_3 
ROOT
ATOM      1  C2  UNL d   1      -5.262   2.606   5.217  0.00  0.00    -0.073 A 
ATOM      2  C3  UNL d   1      -5.868   1.541   5.893  0.00  0.00    -0.002 A 
ATOM      3  C4  UNL d   1      -5.262   0.284   5.914  0.00  0.00     0.004 A 
ATOM      4  C5  UNL d   1      -4.044   0.081   5.266  0.00  0.00    -0.004 A 
ATOM      5  C6  UNL d   1      -3.417   1.135   4.595  0.00  0.00    -0.075 A 
ATOM      6  C7  UNL d   1      -2.107   0.933   3.892  0.00  0.00     0.076 C 
ATOM      7  C8  UNL d   1      -4.033   2.394   4.576  0.00  0.00     0.001 A 
ENDROOT
BRANCH   1   8
ATOM      8  C1  UNL d   1      -5.909   3.967   5.196  0.00  0.00     0.053 C 
ATOM      9  C   UNL d   1      -4.979   5.048   5.725  0.00  0.00     0.018 C 
ENDBRANCH   1   8
TORSDOF 1
ENDMDL
