MODEL 1
REMARK minimizedAffinity 16.4008102
REMARK minimizedRMSD -1
REMARK  1 active torsions:
REMARK  status: ('A' for Active; 'I' for Inactive)
REMARK    1  A    between atoms: C1_2  and  C2_3 
ROOT
ATOM      1  C2  UNL d   1       1.393  -0.250   1.482  0.00  0.00    -0.073 A 
ATOM      2  C3  UNL d   1       0.161  -0.114   0.832  0.00  0.00    -0.002 A 
ATOM      3  C4  UNL d   1      -0.888  -0.987   1.121  0.00  0.00     0.004 A 
ATOM      4  C5  UNL d   1      -0.719  -2.000   2.066  0.00  0.00    -0.004 A 
ATOM      5  C6  UNL d   1       0.501  -2.144   2.734  0.00  0.00    -0.075 A 
ATOM      6  C7  UNL d   1       0.700  -3.229   3.752  0.00  0.00     0.076 C 
ATOM      7  C8  UNL d   1       1.551  -1.265   2.437  0.00  0.00     0.001 A 
ENDROOT
BRANCH   1   8
ATOM      8  C1  UNL d   1       2.527   0.695   1.178  0.00  0.00     0.053 C 
ATOM      9  C   UNL d   1       2.351   1.383  -0.166  0.00  0.00     0.018 C 
ENDBRANCH   1   8
TORSDOF 1
ENDMDL
