MODEL 1
REMARK minimizedAffinity 3.89371443
REMARK minimizedRMSD -1
REMARK  1 active torsions:
REMARK  status: ('A' for Active; 'I' for Inactive)
REMARK    1  A    between atoms: C1_2  and  C2_3 
ROOT
ATOM      1  C2  UNL d   1       0.085  -1.760   3.027  0.00  0.00    -0.073 A 
ATOM      2  C3  UNL d   1      -0.214  -1.036   4.187  0.00  0.00    -0.002 A 
ATOM      3  C4  UNL d   1      -1.278  -0.133   4.200  0.00  0.00     0.004 A 
ATOM      4  C5  UNL d   1      -2.057   0.050   3.058  0.00  0.00    -0.004 A 
ATOM      5  C6  UNL d   1      -1.782  -0.673   1.893  0.00  0.00    -0.075 A 
ATOM      6  C7  UNL d   1      -2.610  -0.486   0.656  0.00  0.00     0.076 C 
ATOM      7  C8  UNL d   1      -0.710  -1.576   1.887  0.00  0.00     0.001 A 
ENDROOT
BRANCH   1   8
ATOM      8  C1  UNL d   1       1.228  -2.741   3.010  0.00  0.00     0.053 C 
ATOM      9  C   UNL d   1       2.576  -2.044   2.911  0.00  0.00     0.018 C 
ENDBRANCH   1   8
TORSDOF 1
ENDMDL
