MODEL 1
REMARK minimizedAffinity 3.93247557
REMARK minimizedRMSD -1
REMARK  1 active torsions:
REMARK  status: ('A' for Active; 'I' for Inactive)
REMARK    1  A    between atoms: C1_2  and  C2_3 
ROOT
ATOM      1  C2  UNL d   1      -5.727  -4.813   3.209  0.00  0.00    -0.073 A 
ATOM      2  C3  UNL d   1      -5.868  -6.000   3.938  0.00  0.00    -0.002 A 
ATOM      3  C4  UNL d   1      -5.999  -5.963   5.326  0.00  0.00     0.004 A 
ATOM      4  C5  UNL d   1      -5.998  -4.742   6.000  0.00  0.00    -0.004 A 
ATOM      5  C6  UNL d   1      -5.870  -3.544   5.288  0.00  0.00    -0.075 A 
ATOM      6  C7  UNL d   1      -5.864  -2.222   5.998  0.00  0.00     0.076 C 
ATOM      7  C8  UNL d   1      -5.736  -3.590   3.894  0.00  0.00     0.001 A 
ENDROOT
BRANCH   1   8
ATOM      8  C1  UNL d   1      -5.591  -4.848   1.709  0.00  0.00     0.053 C 
ATOM      9  C   UNL d   1      -4.337  -4.130   1.234  0.00  0.00     0.018 C 
ENDBRANCH   1   8
TORSDOF 1
ENDMDL
