MODEL 1
REMARK minimizedAffinity 3.39585185
REMARK minimizedRMSD -1
REMARK  1 active torsions:
REMARK  status: ('A' for Active; 'I' for Inactive)
REMARK    1  A    between atoms: C1_2  and  C2_3 
ROOT
ATOM      1  C2  UNL d   1       0.880   4.593  -4.473  0.00  0.00    -0.073 A 
ATOM      2  C3  UNL d   1       0.812   5.776  -3.728  0.00  0.00    -0.002 A 
ATOM      3  C4  UNL d   1       1.703   5.999  -2.678  0.00  0.00     0.004 A 
ATOM      4  C5  UNL d   1       2.674   5.048  -2.366  0.00  0.00    -0.004 A 
ATOM      5  C6  UNL d   1       2.765   3.865  -3.106  0.00  0.00    -0.075 A 
ATOM      6  C7  UNL d   1       3.802   2.830  -2.782  0.00  0.00     0.076 C 
ATOM      7  C8  UNL d   1       1.865   3.646  -4.158  0.00  0.00     0.001 A 
ENDROOT
BRANCH   1   8
ATOM      8  C1  UNL d   1      -0.076   4.349  -5.612  0.00  0.00     0.053 C 
ATOM      9  C   UNL d   1      -0.881   5.593  -5.956  0.00  0.00     0.018 C 
ENDBRANCH   1   8
TORSDOF 1
ENDMDL
