MODEL 1
REMARK minimizedAffinity 12.0084696
REMARK minimizedRMSD -1
REMARK  1 active torsions:
REMARK  status: ('A' for Active; 'I' for Inactive)
REMARK    1  A    between atoms: C1_2  and  C2_3 
ROOT
ATOM      1  C2  UNL d   1       3.151   1.519  -1.483  0.00  0.00    -0.073 A 
ATOM      2  C3  UNL d   1       4.286   2.334  -1.566  0.00  0.00    -0.002 A 
ATOM      3  C4  UNL d   1       4.389   3.299  -2.568  0.00  0.00     0.004 A 
ATOM      4  C5  UNL d   1       3.358   3.464  -3.493  0.00  0.00    -0.004 A 
ATOM      5  C6  UNL d   1       2.211   2.667  -3.419  0.00  0.00    -0.075 A 
ATOM      6  C7  UNL d   1       1.093   2.831  -4.407  0.00  0.00     0.076 C 
ATOM      7  C8  UNL d   1       2.116   1.698  -2.411  0.00  0.00     0.001 A 
ENDROOT
BRANCH   1   8
ATOM      8  C1  UNL d   1       3.032   0.480  -0.398  0.00  0.00     0.053 C 
ATOM      9  C   UNL d   1       2.579   1.083   0.922  0.00  0.00     0.018 C 
ENDBRANCH   1   8
TORSDOF 1
ENDMDL
