MODEL 1
REMARK minimizedAffinity 14.1414385
REMARK minimizedRMSD -1
REMARK  1 active torsions:
REMARK  status: ('A' for Active; 'I' for Inactive)
REMARK    1  A    between atoms: C1_2  and  C2_3 
ROOT
ATOM      1  C2  UNL d   1      -0.446  -0.978   1.666  0.00  0.00    -0.073 A 
ATOM      2  C3  UNL d   1      -1.086   0.259   1.810  0.00  0.00    -0.002 A 
ATOM      3  C4  UNL d   1      -2.397   0.430   1.363  0.00  0.00     0.004 A 
ATOM      4  C5  UNL d   1      -3.083  -0.632   0.774  0.00  0.00    -0.004 A 
ATOM      5  C6  UNL d   1      -2.464  -1.879   0.633  0.00  0.00    -0.075 A 
ATOM      6  C7  UNL d   1      -3.187  -3.031  -0.000  0.00  0.00     0.076 C 
ATOM      7  C8  UNL d   1      -1.147  -2.042   1.082  0.00  0.00     0.001 A 
ENDROOT
BRANCH   1   8
ATOM      8  C1  UNL d   1       0.967  -1.169   2.153  0.00  0.00     0.053 C 
ATOM      9  C   UNL d   1       1.344  -2.639   2.244  0.00  0.00     0.018 C 
ENDBRANCH   1   8
TORSDOF 1
ENDMDL
