MODEL 1
REMARK minimizedAffinity 14.8740263
REMARK minimizedRMSD -1
REMARK  1 active torsions:
REMARK  status: ('A' for Active; 'I' for Inactive)
REMARK    1  A    between atoms: C1_2  and  C2_3 
ROOT
ATOM      1  C2  UNL d   1      -0.706  -0.856   4.007  0.00  0.00    -0.073 A 
ATOM      2  C3  UNL d   1       0.509  -1.451   4.365  0.00  0.00    -0.002 A 
ATOM      3  C4  UNL d   1       1.130  -2.358   3.506  0.00  0.00     0.004 A 
ATOM      4  C5  UNL d   1       0.547  -2.674   2.279  0.00  0.00    -0.004 A 
ATOM      5  C6  UNL d   1      -0.661  -2.081   1.898  0.00  0.00    -0.075 A 
ATOM      6  C7  UNL d   1      -1.301  -2.413   0.582  0.00  0.00     0.076 C 
ATOM      7  C8  UNL d   1      -1.279  -1.173   2.767  0.00  0.00     0.001 A 
ENDROOT
BRANCH   1   8
ATOM      8  C1  UNL d   1      -1.377   0.130   4.929  0.00  0.00     0.053 C 
ATOM      9  C   UNL d   1      -2.691   0.640   4.358  0.00  0.00     0.018 C 
ENDBRANCH   1   8
TORSDOF 1
ENDMDL
