MODEL 1
REMARK minimizedAffinity 5.61020803
REMARK minimizedRMSD -1
REMARK  1 active torsions:
REMARK  status: ('A' for Active; 'I' for Inactive)
REMARK    1  A    between atoms: C1_2  and  C2_3 
ROOT
ATOM      1  C2  UNL d   1      -3.349   0.485   0.657  0.00  0.00    -0.073 A 
ATOM      2  C3  UNL d   1      -2.356  -0.267   0.018  0.00  0.00    -0.002 A 
ATOM      3  C4  UNL d   1      -1.379  -0.924   0.767  0.00  0.00     0.004 A 
ATOM      4  C5  UNL d   1      -1.387  -0.842   2.159  0.00  0.00    -0.004 A 
ATOM      5  C6  UNL d   1      -2.378  -0.105   2.816  0.00  0.00    -0.075 A 
ATOM      6  C7  UNL d   1      -2.400  -0.006   4.313  0.00  0.00     0.076 C 
ATOM      7  C8  UNL d   1      -3.355   0.554   2.058  0.00  0.00     0.001 A 
ENDROOT
BRANCH   1   8
ATOM      8  C1  UNL d   1      -4.411   1.191  -0.146  0.00  0.00     0.053 C 
ATOM      9  C   UNL d   1      -5.805   0.940   0.407  0.00  0.00     0.018 C 
ENDBRANCH   1   8
TORSDOF 1
ENDMDL
