MODEL 1
REMARK minimizedAffinity 13.0884857
REMARK minimizedRMSD -1
REMARK  1 active torsions:
REMARK  status: ('A' for Active; 'I' for Inactive)
REMARK    1  A    between atoms: C1_2  and  C2_3 
ROOT
ATOM      1  C2  UNL d   1       4.591   3.758  -2.470  0.00  0.00    -0.073 A 
ATOM      2  C3  UNL d   1       4.380   2.995  -1.316  0.00  0.00    -0.002 A 
ATOM      3  C4  UNL d   1       3.207   2.254  -1.166  0.00  0.00     0.004 A 
ATOM      4  C5  UNL d   1       2.237   2.263  -2.168  0.00  0.00    -0.004 A 
ATOM      5  C6  UNL d   1       2.435   3.010  -3.334  0.00  0.00    -0.075 A 
ATOM      6  C7  UNL d   1       1.401   3.032  -4.421  0.00  0.00     0.076 C 
ATOM      7  C8  UNL d   1       3.614   3.754  -3.476  0.00  0.00     0.001 A 
ENDROOT
BRANCH   1   8
ATOM      8  C1  UNL d   1       5.859   4.555  -2.639  0.00  0.00     0.053 C 
ATOM      9  C   UNL d   1       6.000   5.635  -1.579  0.00  0.00     0.018 C 
ENDBRANCH   1   8
TORSDOF 1
ENDMDL
