MODEL 1
REMARK minimizedAffinity 2.22846794
REMARK minimizedRMSD -1
REMARK  1 active torsions:
REMARK  status: ('A' for Active; 'I' for Inactive)
REMARK    1  A    between atoms: C1_2  and  C2_3 
ROOT
ATOM      1  C2  UNL d   1      -5.366  -4.843   3.210  0.00  0.00    -0.073 A 
ATOM      2  C3  UNL d   1      -5.603  -6.000   3.961  0.00  0.00    -0.002 A 
ATOM      3  C4  UNL d   1      -5.740  -5.925   5.348  0.00  0.00     0.004 A 
ATOM      4  C5  UNL d   1      -5.648  -4.693   5.996  0.00  0.00    -0.004 A 
ATOM      5  C6  UNL d   1      -5.423  -3.524   5.262  0.00  0.00    -0.075 A 
ATOM      6  C7  UNL d   1      -5.319  -2.192   5.945  0.00  0.00     0.076 C 
ATOM      7  C8  UNL d   1      -5.284  -3.608   3.870  0.00  0.00     0.001 A 
ENDROOT
BRANCH   1   8
ATOM      8  C1  UNL d   1      -5.224  -4.918   1.712  0.00  0.00     0.053 C 
ATOM      9  C   UNL d   1      -5.999  -3.814   1.010  0.00  0.00     0.018 C 
ENDBRANCH   1   8
TORSDOF 1
ENDMDL
