MODEL 1
REMARK minimizedAffinity 18.0170021
REMARK minimizedRMSD -1
REMARK  1 active torsions:
REMARK  status: ('A' for Active; 'I' for Inactive)
REMARK    1  A    between atoms: C1_2  and  C2_3 
ROOT
ATOM      1  C2  UNL d   1       0.586   4.747  -4.280  0.00  0.00    -0.073 A 
ATOM      2  C3  UNL d   1       1.114   5.967  -3.844  0.00  0.00    -0.002 A 
ATOM      3  C4  UNL d   1       2.232   5.994  -3.010  0.00  0.00     0.004 A 
ATOM      4  C5  UNL d   1       2.839   4.803  -2.611  0.00  0.00    -0.004 A 
ATOM      5  C6  UNL d   1       2.334   3.573  -3.046  0.00  0.00    -0.075 A 
ATOM      6  C7  UNL d   1       2.973   2.283  -2.624  0.00  0.00     0.076 C 
ATOM      7  C8  UNL d   1       1.208   3.555  -3.881  0.00  0.00     0.001 A 
ENDROOT
BRANCH   1   8
ATOM      8  C1  UNL d   1      -0.618   4.713  -5.186  0.00  0.00     0.053 C 
ATOM      9  C   UNL d   1      -0.754   5.990  -6.000  0.00  0.00     0.018 C 
ENDBRANCH   1   8
TORSDOF 1
ENDMDL
