MODEL 1
REMARK minimizedAffinity 0.808551133
REMARK minimizedRMSD -1
REMARK  0 active torsions:
REMARK  status: ('A' for Active; 'I' for Inactive)
ROOT
ATOM      1  C   UNL d   1       0.881   4.110  -1.926  0.00  0.00     0.077 C 
ATOM      2  C1  UNL d   1       0.914   2.763  -1.268  0.00  0.00    -0.074 A 
ATOM      3  C2  UNL d   1       0.567   2.612   0.079  0.00  0.00    -0.005 A 
ATOM      4  C3  UNL d   1       0.594   1.352   0.675  0.00  0.00     0.006 A 
ATOM      5  C4  UNL d   1       0.968   0.231  -0.067  0.00  0.00    -0.005 A 
ATOM      6  C5  UNL d   1       1.317   0.362  -1.415  0.00  0.00    -0.074 A 
ATOM      7  C6  UNL d   1       1.712  -0.834  -2.230  0.00  0.00     0.077 C 
ATOM      8  C7  UNL d   1       1.281   1.631  -2.009  0.00  0.00    -0.001 A 
ENDROOT
TORSDOF 0
ENDMDL
