MODEL 1
REMARK minimizedAffinity 4.33666563
REMARK minimizedRMSD -1
REMARK  0 active torsions:
REMARK  status: ('A' for Active; 'I' for Inactive)
ROOT
ATOM      1  C   UNL d   1       1.003   3.961   1.799  0.00  0.00     0.077 C 
ATOM      2  C1  UNL d   1       0.936   3.643   0.335  0.00  0.00    -0.074 A 
ATOM      3  C2  UNL d   1       0.833   4.662  -0.618  0.00  0.00    -0.005 A 
ATOM      4  C3  UNL d   1       0.782   4.352  -1.976  0.00  0.00     0.006 A 
ATOM      5  C4  UNL d   1       0.833   3.022  -2.396  0.00  0.00    -0.005 A 
ATOM      6  C5  UNL d   1       0.937   1.990  -1.458  0.00  0.00    -0.074 A 
ATOM      7  C6  UNL d   1       1.003   0.556  -1.892  0.00  0.00     0.077 C 
ATOM      8  C7  UNL d   1       0.995   2.310  -0.094  0.00  0.00    -0.001 A 
ENDROOT
TORSDOF 0
ENDMDL
