MODEL 1
REMARK minimizedAffinity 3.65868449
REMARK minimizedRMSD -1
REMARK  0 active torsions:
REMARK  status: ('A' for Active; 'I' for Inactive)
ROOT
ATOM      1  C   UNL d   1       1.342   3.594   1.703  0.00  0.00     0.077 C 
ATOM      2  C1  UNL d   1       1.181   2.878   0.395  0.00  0.00    -0.074 A 
ATOM      3  C2  UNL d   1       0.712   3.549  -0.739  0.00  0.00    -0.005 A 
ATOM      4  C3  UNL d   1       0.577   2.873  -1.951  0.00  0.00     0.006 A 
ATOM      5  C4  UNL d   1       0.909   1.521  -2.042  0.00  0.00    -0.005 A 
ATOM      6  C5  UNL d   1       1.380   0.833  -0.919  0.00  0.00    -0.074 A 
ATOM      7  C6  UNL d   1       1.751  -0.618  -1.002  0.00  0.00     0.077 C 
ATOM      8  C7  UNL d   1       1.520   1.521   0.293  0.00  0.00    -0.001 A 
ENDROOT
TORSDOF 0
ENDMDL
