MODEL 1
REMARK minimizedAffinity -1.05271089
REMARK minimizedRMSD -1
REMARK  0 active torsions:
REMARK  status: ('A' for Active; 'I' for Inactive)
ROOT
ATOM      1  C   UNL d   1       1.263   3.008   2.010  0.00  0.00     0.077 C 
ATOM      2  C1  UNL d   1       1.131   2.612   0.570  0.00  0.00    -0.074 A 
ATOM      3  C2  UNL d   1       0.931   3.575  -0.425  0.00  0.00    -0.005 A 
ATOM      4  C3  UNL d   1       0.820   3.192  -1.762  0.00  0.00     0.006 A 
ATOM      5  C4  UNL d   1       0.908   1.845  -2.117  0.00  0.00    -0.005 A 
ATOM      6  C5  UNL d   1       1.109   0.869  -1.136  0.00  0.00    -0.074 A 
ATOM      7  C6  UNL d   1       1.216  -0.582  -1.502  0.00  0.00     0.077 C 
ATOM      8  C7  UNL d   1       1.227   1.262   0.204  0.00  0.00    -0.001 A 
ENDROOT
TORSDOF 0
ENDMDL
