MODEL 1
REMARK minimizedAffinity -2.44023156
REMARK minimizedRMSD -1
REMARK  0 active torsions:
REMARK  status: ('A' for Active; 'I' for Inactive)
ROOT
ATOM      1  C   UNL d   1       0.886   4.039  -1.541  0.00  0.00     0.077 C 
ATOM      2  C1  UNL d   1       0.958   2.751  -0.776  0.00  0.00    -0.074 A 
ATOM      3  C2  UNL d   1       1.039   2.748   0.621  0.00  0.00    -0.005 A 
ATOM      4  C3  UNL d   1       1.096   1.542   1.319  0.00  0.00     0.006 A 
ATOM      5  C4  UNL d   1       1.073   0.329   0.630  0.00  0.00    -0.005 A 
ATOM      6  C5  UNL d   1       0.991   0.312  -0.766  0.00  0.00    -0.074 A 
ATOM      7  C6  UNL d   1       0.955  -0.983  -1.522  0.00  0.00     0.077 C 
ATOM      8  C7  UNL d   1       0.927   1.528  -1.461  0.00  0.00    -0.001 A 
ENDROOT
TORSDOF 0
ENDMDL
