MODEL 1
REMARK minimizedAffinity 6.08848572
REMARK minimizedRMSD -1
REMARK  0 active torsions:
REMARK  status: ('A' for Active; 'I' for Inactive)
ROOT
ATOM      1  C   UNL d   1      -3.157   2.478   2.148  0.00  0.00     0.077 C 
ATOM      2  C1  UNL d   1      -2.765   1.950   3.496  0.00  0.00    -0.074 A 
ATOM      3  C2  UNL d   1      -3.430   2.368   4.653  0.00  0.00    -0.005 A 
ATOM      4  C3  UNL d   1      -3.061   1.860   5.899  0.00  0.00     0.006 A 
ATOM      5  C4  UNL d   1      -2.024   0.932   6.000  0.00  0.00    -0.005 A 
ATOM      6  C5  UNL d   1      -1.348   0.502   4.854  0.00  0.00    -0.074 A 
ATOM      7  C6  UNL d   1      -0.238  -0.503   4.944  0.00  0.00     0.077 C 
ATOM      8  C7  UNL d   1      -1.730   1.011   3.605  0.00  0.00    -0.001 A 
ENDROOT
TORSDOF 0
ENDMDL
