MODEL 1
REMARK minimizedAffinity -0.821699619
REMARK minimizedRMSD -1
REMARK  0 active torsions:
REMARK  status: ('A' for Active; 'I' for Inactive)
ROOT
ATOM      1  C   UNL d   1       0.779   3.628   1.132  0.00  0.00     0.077 C 
ATOM      2  C1  UNL d   1       0.841   2.570   0.070  0.00  0.00    -0.074 A 
ATOM      3  C2  UNL d   1       0.736   2.905  -1.284  0.00  0.00    -0.005 A 
ATOM      4  C3  UNL d   1       0.805   1.911  -2.261  0.00  0.00     0.006 A 
ATOM      5  C4  UNL d   1       0.980   0.576  -1.894  0.00  0.00    -0.005 A 
ATOM      6  C5  UNL d   1       1.088   0.223  -0.545  0.00  0.00    -0.074 A 
ATOM      7  C6  UNL d   1       1.286  -1.206  -0.135  0.00  0.00     0.077 C 
ATOM      8  C7  UNL d   1       1.025   1.228   0.430  0.00  0.00    -0.001 A 
ENDROOT
TORSDOF 0
ENDMDL
