MODEL 1
REMARK minimizedAffinity -4.51676416
REMARK minimizedRMSD -1
REMARK  0 active torsions:
REMARK  status: ('A' for Active; 'I' for Inactive)
ROOT
ATOM      1  C   UNL d   1       2.278  -1.227  -0.359  0.00  0.00     0.077 C 
ATOM      2  C1  UNL d   1       1.820   0.142  -0.769  0.00  0.00    -0.074 A 
ATOM      3  C2  UNL d   1       1.398   0.397  -2.077  0.00  0.00    -0.005 A 
ATOM      4  C3  UNL d   1       0.965   1.672  -2.441  0.00  0.00     0.006 A 
ATOM      5  C4  UNL d   1       0.951   2.704  -1.501  0.00  0.00    -0.005 A 
ATOM      6  C5  UNL d   1       1.369   2.467  -0.187  0.00  0.00    -0.074 A 
ATOM      7  C6  UNL d   1       1.351   3.562   0.838  0.00  0.00     0.077 C 
ATOM      8  C7  UNL d   1       1.795   1.181   0.172  0.00  0.00    -0.001 A 
ENDROOT
TORSDOF 0
ENDMDL
