MODEL 1
REMARK minimizedAffinity 4.77500343
REMARK minimizedRMSD -1
REMARK  0 active torsions:
REMARK  status: ('A' for Active; 'I' for Inactive)
ROOT
ATOM      1  C   UNL d   1       1.354   1.026  -2.114  0.00  0.00     0.077 C 
ATOM      2  C1  UNL d   1       1.336   2.219  -1.205  0.00  0.00    -0.074 A 
ATOM      3  C2  UNL d   1       1.131   2.072   0.171  0.00  0.00    -0.005 A 
ATOM      4  C3  UNL d   1       1.126   3.190   1.005  0.00  0.00     0.006 A 
ATOM      5  C4  UNL d   1       1.326   4.465   0.473  0.00  0.00    -0.005 A 
ATOM      6  C5  UNL d   1       1.533   4.631  -0.900  0.00  0.00    -0.074 A 
ATOM      7  C6  UNL d   1       1.759   5.993  -1.487  0.00  0.00     0.077 C 
ATOM      8  C7  UNL d   1       1.544   3.502  -1.731  0.00  0.00    -0.001 A 
ENDROOT
TORSDOF 0
ENDMDL
