MODEL 1
REMARK minimizedAffinity 5.58389521
REMARK minimizedRMSD -1
REMARK  0 active torsions:
REMARK  status: ('A' for Active; 'I' for Inactive)
ROOT
ATOM      1  C   UNL d   1       1.906  -0.259  -0.220  0.00  0.00     0.077 C 
ATOM      2  C1  UNL d   1       1.274   0.917  -0.904  0.00  0.00    -0.074 A 
ATOM      3  C2  UNL d   1       0.374   0.736  -1.959  0.00  0.00    -0.005 A 
ATOM      4  C3  UNL d   1      -0.213   1.838  -2.580  0.00  0.00     0.006 A 
ATOM      5  C4  UNL d   1       0.093   3.131  -2.152  0.00  0.00    -0.005 A 
ATOM      6  C5  UNL d   1       0.989   3.331  -1.098  0.00  0.00    -0.074 A 
ATOM      7  C6  UNL d   1       1.321   4.713  -0.619  0.00  0.00     0.077 C 
ATOM      8  C7  UNL d   1       1.570   2.218  -0.475  0.00  0.00    -0.001 A 
ENDROOT
TORSDOF 0
ENDMDL
