MODEL 1
REMARK minimizedAffinity 11.7656879
REMARK minimizedRMSD -1
REMARK  0 active torsions:
REMARK  status: ('A' for Active; 'I' for Inactive)
ROOT
ATOM      1  C   UNL d   1      -2.101   3.005  -3.638  0.00  0.00     0.077 C 
ATOM      2  C1  UNL d   1      -0.839   2.900  -2.834  0.00  0.00    -0.074 A 
ATOM      3  C2  UNL d   1      -0.179   1.676  -2.689  0.00  0.00    -0.005 A 
ATOM      4  C3  UNL d   1       1.000   1.596  -1.946  0.00  0.00     0.006 A 
ATOM      5  C4  UNL d   1       1.529   2.738  -1.343  0.00  0.00    -0.005 A 
ATOM      6  C5  UNL d   1       0.883   3.971  -1.479  0.00  0.00    -0.074 A 
ATOM      7  C6  UNL d   1       1.444   5.209  -0.845  0.00  0.00     0.077 C 
ATOM      8  C7  UNL d   1      -0.296   4.044  -2.232  0.00  0.00    -0.001 A 
ENDROOT
TORSDOF 0
ENDMDL
