MODEL 1
REMARK minimizedAffinity -0.489308625
REMARK minimizedRMSD -1
REMARK  0 active torsions:
REMARK  status: ('A' for Active; 'I' for Inactive)
ROOT
ATOM      1  C   UNL d   1       1.100  -2.100  -0.747  0.00  0.00     0.077 C 
ATOM      2  C1  UNL d   1       1.034  -0.651  -0.364  0.00  0.00    -0.074 A 
ATOM      3  C2  UNL d   1       1.076  -0.259   0.978  0.00  0.00    -0.005 A 
ATOM      4  C3  UNL d   1       1.023   1.093   1.318  0.00  0.00     0.006 A 
ATOM      5  C4  UNL d   1       0.928   2.065   0.321  0.00  0.00    -0.005 A 
ATOM      6  C5  UNL d   1       0.885   1.692  -1.026  0.00  0.00    -0.074 A 
ATOM      7  C6  UNL d   1       0.792   2.724  -2.110  0.00  0.00     0.077 C 
ATOM      8  C7  UNL d   1       0.946   0.332  -1.360  0.00  0.00    -0.001 A 
ENDROOT
TORSDOF 0
ENDMDL
