MODEL 1
REMARK minimizedAffinity 4.25452089
REMARK minimizedRMSD -1
REMARK  0 active torsions:
REMARK  status: ('A' for Active; 'I' for Inactive)
ROOT
ATOM      1  C   UNL d   1       2.660   1.096   2.197  0.00  0.00     0.077 C 
ATOM      2  C1  UNL d   1       2.253   1.084   0.754  0.00  0.00    -0.074 A 
ATOM      3  C2  UNL d   1       2.330  -0.089  -0.005  0.00  0.00    -0.005 A 
ATOM      4  C3  UNL d   1       1.939  -0.088  -1.344  0.00  0.00     0.006 A 
ATOM      5  C4  UNL d   1       1.467   1.084  -1.937  0.00  0.00    -0.005 A 
ATOM      6  C5  UNL d   1       1.382   2.266  -1.194  0.00  0.00    -0.074 A 
ATOM      7  C6  UNL d   1       0.868   3.532  -1.813  0.00  0.00     0.077 C 
ATOM      8  C7  UNL d   1       1.770   2.255   0.153  0.00  0.00    -0.001 A 
ENDROOT
TORSDOF 0
ENDMDL
