MODEL 1
REMARK minimizedAffinity 4.49516726
REMARK minimizedRMSD -1
REMARK  0 active torsions:
REMARK  status: ('A' for Active; 'I' for Inactive)
ROOT
ATOM      1  C   UNL d   1       1.534   3.905   1.945  0.00  0.00     0.077 C 
ATOM      2  C1  UNL d   1       1.313   3.487   0.522  0.00  0.00    -0.074 A 
ATOM      3  C2  UNL d   1       1.319   4.428  -0.513  0.00  0.00    -0.005 A 
ATOM      4  C3  UNL d   1       1.122   4.023  -1.833  0.00  0.00     0.006 A 
ATOM      5  C4  UNL d   1       0.916   2.675  -2.131  0.00  0.00    -0.005 A 
ATOM      6  C5  UNL d   1       0.907   1.720  -1.110  0.00  0.00    -0.074 A 
ATOM      7  C6  UNL d   1       0.698   0.266  -1.414  0.00  0.00     0.077 C 
ATOM      8  C7  UNL d   1       1.114   2.134   0.213  0.00  0.00    -0.001 A 
ENDROOT
TORSDOF 0
ENDMDL
