MODEL 1
REMARK minimizedAffinity 4.15603495
REMARK minimizedRMSD -1
REMARK  0 active torsions:
REMARK  status: ('A' for Active; 'I' for Inactive)
ROOT
ATOM      1  C   UNL d   1       0.548   3.279   0.334  0.00  0.00     0.077 C 
ATOM      2  C1  UNL d   1       0.906   2.099  -0.520  0.00  0.00    -0.074 A 
ATOM      3  C2  UNL d   1       0.934   2.204  -1.915  0.00  0.00    -0.005 A 
ATOM      4  C3  UNL d   1       1.278   1.100  -2.696  0.00  0.00     0.006 A 
ATOM      5  C4  UNL d   1       1.596  -0.117  -2.091  0.00  0.00    -0.005 A 
ATOM      6  C5  UNL d   1       1.574  -0.240  -0.698  0.00  0.00    -0.074 A 
ATOM      7  C6  UNL d   1       1.923  -1.537  -0.032  0.00  0.00     0.077 C 
ATOM      8  C7  UNL d   1       1.234   0.876   0.080  0.00  0.00    -0.001 A 
ENDROOT
TORSDOF 0
ENDMDL
