MODEL 1
REMARK minimizedAffinity 1.72377908
REMARK minimizedRMSD -1
REMARK  0 active torsions:
REMARK  status: ('A' for Active; 'I' for Inactive)
ROOT
ATOM      1  C   UNL d   1       1.367  -0.310  -2.884  0.00  0.00     0.077 C 
ATOM      2  C1  UNL d   1       1.151   0.934  -2.074  0.00  0.00    -0.074 A 
ATOM      3  C2  UNL d   1       0.691   2.111  -2.673  0.00  0.00    -0.005 A 
ATOM      4  C3  UNL d   1       0.485   3.257  -1.906  0.00  0.00     0.006 A 
ATOM      5  C4  UNL d   1       0.736   3.238  -0.533  0.00  0.00    -0.005 A 
ATOM      6  C5  UNL d   1       1.195   2.070   0.084  0.00  0.00    -0.074 A 
ATOM      7  C6  UNL d   1       1.461   2.029   1.560  0.00  0.00     0.077 C 
ATOM      8  C7  UNL d   1       1.393   0.920  -0.693  0.00  0.00    -0.001 A 
ENDROOT
TORSDOF 0
ENDMDL
