MODEL 1
REMARK minimizedAffinity -1.37747252
REMARK minimizedRMSD -1
REMARK  0 active torsions:
REMARK  status: ('A' for Active; 'I' for Inactive)
ROOT
ATOM      1  C   UNL d   1       0.771   2.330  -1.866  0.00  0.00     0.077 C 
ATOM      2  C1  UNL d   1       1.051   0.929  -1.408  0.00  0.00    -0.074 A 
ATOM      3  C2  UNL d   1       2.076   0.664  -0.494  0.00  0.00    -0.005 A 
ATOM      4  C3  UNL d   1       2.319  -0.643  -0.070  0.00  0.00     0.006 A 
ATOM      5  C4  UNL d   1       1.541  -1.695  -0.554  0.00  0.00    -0.005 A 
ATOM      6  C5  UNL d   1       0.510  -1.448  -1.467  0.00  0.00    -0.074 A 
ATOM      7  C6  UNL d   1      -0.342  -2.566  -1.990  0.00  0.00     0.077 C 
ATOM      8  C7  UNL d   1       0.268  -0.132  -1.883  0.00  0.00    -0.001 A 
ENDROOT
TORSDOF 0
ENDMDL
