MODEL 1
REMARK minimizedAffinity 4.82049084
REMARK minimizedRMSD -1
REMARK  0 active torsions:
REMARK  status: ('A' for Active; 'I' for Inactive)
ROOT
ATOM      1  C   UNL d   1       1.220   3.238   1.559  0.00  0.00     0.077 C 
ATOM      2  C1  UNL d   1       0.992   2.850   0.129  0.00  0.00    -0.074 A 
ATOM      3  C2  UNL d   1       0.864   3.822  -0.869  0.00  0.00    -0.005 A 
ATOM      4  C3  UNL d   1       0.662   3.445  -2.197  0.00  0.00     0.006 A 
ATOM      5  C4  UNL d   1       0.585   2.095  -2.540  0.00  0.00    -0.005 A 
ATOM      6  C5  UNL d   1       0.710   1.108  -1.556  0.00  0.00    -0.074 A 
ATOM      7  C6  UNL d   1       0.640  -0.348  -1.909  0.00  0.00     0.077 C 
ATOM      8  C7  UNL d   1       0.921   1.495  -0.225  0.00  0.00    -0.001 A 
ENDROOT
TORSDOF 0
ENDMDL
