MODEL 1
REMARK minimizedAffinity 9.71929932
REMARK minimizedRMSD -1
REMARK  0 active torsions:
REMARK  status: ('A' for Active; 'I' for Inactive)
ROOT
ATOM      1  C   UNL d   1       1.163  -0.251  -1.412  0.00  0.00     0.077 C 
ATOM      2  C1  UNL d   1       0.717   1.159  -1.662  0.00  0.00    -0.074 A 
ATOM      3  C2  UNL d   1       1.648   2.193  -1.806  0.00  0.00    -0.005 A 
ATOM      4  C3  UNL d   1       1.218   3.497  -2.048  0.00  0.00     0.006 A 
ATOM      5  C4  UNL d   1      -0.144   3.781  -2.148  0.00  0.00    -0.005 A 
ATOM      6  C5  UNL d   1      -1.090   2.760  -2.008  0.00  0.00    -0.074 A 
ATOM      7  C6  UNL d   1      -2.558   3.046  -2.122  0.00  0.00     0.077 C 
ATOM      8  C7  UNL d   1      -0.650   1.451  -1.772  0.00  0.00    -0.001 A 
ENDROOT
TORSDOF 0
ENDMDL
