MODEL 1
REMARK minimizedAffinity 9.71649551
REMARK minimizedRMSD -1
REMARK  2 active torsions:
REMARK  status: ('A' for Active; 'I' for Inactive)
REMARK    1  A    between atoms: C1_2  and  C2_3 
REMARK    2  A    between atoms: C2_3  and  C3_4 
ROOT
ATOM      1  C3  UNL d   1      -2.286   0.594   1.915  0.00  0.00    -0.075 A 
ATOM      2  C4  UNL d   1      -2.821   0.700   3.208  0.00  0.00     0.002 A 
ATOM      3  C5  UNL d   1      -4.196   0.835   3.396  0.00  0.00     0.002 A 
ATOM      4  C6  UNL d   1      -5.052   0.877   2.298  0.00  0.00    -0.004 A 
ATOM      5  C7  UNL d   1      -4.531   0.789   1.009  0.00  0.00     0.002 A 
ATOM      6  C8  UNL d   1      -3.155   0.649   0.817  0.00  0.00     0.002 A 
ENDROOT
BRANCH   1   7
ATOM      7  C2  UNL d   1      -0.801   0.417   1.705  0.00  0.00     0.056 C 
BRANCH   7   8
ATOM      8  C1  UNL d   1      -0.005   0.235   3.002  0.00  0.00     0.007 C 
ATOM      9  C   UNL d   1       1.206   1.153   3.098  0.00  0.00     0.009 C 
ENDBRANCH   7   8
ENDBRANCH   1   7
TORSDOF 2
ENDMDL
