MODEL 1
REMARK minimizedAffinity 0.0477657579
REMARK minimizedRMSD -1
REMARK  2 active torsions:
REMARK  status: ('A' for Active; 'I' for Inactive)
REMARK    1  A    between atoms: C1_2  and  C2_3 
REMARK    2  A    between atoms: C2_3  and  C3_4 
ROOT
ATOM      1  C3  UNL d   1      -3.691   0.397   3.378  0.00  0.00    -0.075 A 
ATOM      2  C4  UNL d   1      -4.164   0.947   2.177  0.00  0.00     0.002 A 
ATOM      3  C5  UNL d   1      -3.308   1.112   1.088  0.00  0.00     0.002 A 
ATOM      4  C6  UNL d   1      -1.969   0.741   1.188  0.00  0.00    -0.004 A 
ATOM      5  C7  UNL d   1      -1.485   0.209   2.381  0.00  0.00     0.002 A 
ATOM      6  C8  UNL d   1      -2.340   0.039   3.471  0.00  0.00     0.002 A 
ENDROOT
BRANCH   1   7
ATOM      7  C2  UNL d   1      -4.620   0.189   4.550  0.00  0.00     0.056 C 
BRANCH   7   8
ATOM      8  C1  UNL d   1      -4.051  -0.725   5.641  0.00  0.00     0.007 C 
ATOM      9  C   UNL d   1      -4.974  -1.883   5.996  0.00  0.00     0.009 C 
ENDBRANCH   7   8
ENDBRANCH   1   7
TORSDOF 2
ENDMDL
