MODEL 1
REMARK minimizedAffinity 8.03982162
REMARK minimizedRMSD -1
REMARK  2 active torsions:
REMARK  status: ('A' for Active; 'I' for Inactive)
REMARK    1  A    between atoms: C1_2  and  C2_3 
REMARK    2  A    between atoms: C2_3  and  C3_4 
ROOT
ATOM      1  C3  UNL d   1       2.940  -5.780   2.009  0.00  0.00    -0.075 A 
ATOM      2  C4  UNL d   1       2.001  -5.350   1.060  0.00  0.00     0.002 A 
ATOM      3  C5  UNL d   1       0.674  -5.125   1.429  0.00  0.00     0.002 A 
ATOM      4  C6  UNL d   1       0.268  -5.335   2.745  0.00  0.00    -0.004 A 
ATOM      5  C7  UNL d   1       1.189  -5.777   3.692  0.00  0.00     0.002 A 
ATOM      6  C8  UNL d   1       2.518  -6.000   3.327  0.00  0.00     0.002 A 
ENDROOT
BRANCH   1   7
ATOM      7  C2  UNL d   1       4.384  -5.998   1.623  0.00  0.00     0.056 C 
BRANCH   7   8
ATOM      8  C1  UNL d   1       5.375  -5.119   2.394  0.00  0.00     0.007 C 
ATOM      9  C   UNL d   1       5.999  -5.825   3.590  0.00  0.00     0.009 C 
ENDBRANCH   7   8
ENDBRANCH   1   7
TORSDOF 2
ENDMDL
