MODEL 1
REMARK minimizedAffinity 4.49117422
REMARK minimizedRMSD -1
REMARK  2 active torsions:
REMARK  status: ('A' for Active; 'I' for Inactive)
REMARK    1  A    between atoms: C1_2  and  C2_3 
REMARK    2  A    between atoms: C2_3  and  C3_4 
ROOT
ATOM      1  C3  UNL d   1       3.766  -5.718   2.156  0.00  0.00    -0.075 A 
ATOM      2  C4  UNL d   1       3.055  -5.175   1.075  0.00  0.00     0.002 A 
ATOM      3  C5  UNL d   1       1.693  -4.895   1.192  0.00  0.00     0.002 A 
ATOM      4  C6  UNL d   1       1.024  -5.164   2.384  0.00  0.00    -0.004 A 
ATOM      5  C7  UNL d   1       1.716  -5.719   3.458  0.00  0.00     0.002 A 
ATOM      6  C8  UNL d   1       3.080  -5.996   3.345  0.00  0.00     0.002 A 
ENDROOT
BRANCH   1   7
ATOM      7  C2  UNL d   1       5.246  -5.995   2.046  0.00  0.00     0.056 C 
BRANCH   7   8
ATOM      8  C1  UNL d   1       5.989  -5.957   3.385  0.00  0.00     0.007 C 
ATOM      9  C   UNL d   1       6.000  -4.576   4.027  0.00  0.00     0.009 C 
ENDBRANCH   7   8
ENDBRANCH   1   7
TORSDOF 2
ENDMDL
