MODEL 1
REMARK minimizedAffinity 10.0436363
REMARK minimizedRMSD -1
REMARK  2 active torsions:
REMARK  status: ('A' for Active; 'I' for Inactive)
REMARK    1  A    between atoms: C1_2  and  C2_3 
REMARK    2  A    between atoms: C2_3  and  C3_4 
ROOT
ATOM      1  C3  UNL d   1      -5.362   3.834   3.890  0.00  0.00    -0.075 A 
ATOM      2  C4  UNL d   1      -5.999   3.875   5.139  0.00  0.00     0.002 A 
ATOM      3  C5  UNL d   1      -5.802   4.954   6.000  0.00  0.00     0.002 A 
ATOM      4  C6  UNL d   1      -4.959   6.000   5.629  0.00  0.00    -0.004 A 
ATOM      5  C7  UNL d   1      -4.308   5.962   4.398  0.00  0.00     0.002 A 
ATOM      6  C8  UNL d   1      -4.507   4.885   3.533  0.00  0.00     0.002 A 
ENDROOT
BRANCH   1   7
ATOM      7  C2  UNL d   1      -5.595   2.683   2.941  0.00  0.00     0.056 C 
BRANCH   7   8
ATOM      8  C1  UNL d   1      -4.469   2.478   1.922  0.00  0.00     0.007 C 
ATOM      9  C   UNL d   1      -4.516   1.116   1.241  0.00  0.00     0.009 C 
ENDBRANCH   7   8
ENDBRANCH   1   7
TORSDOF 2
ENDMDL
