MODEL 1
REMARK minimizedAffinity 10.454814
REMARK minimizedRMSD -1
REMARK  2 active torsions:
REMARK  status: ('A' for Active; 'I' for Inactive)
REMARK    1  A    between atoms: C1_2  and  C2_3 
REMARK    2  A    between atoms: C2_3  and  C3_4 
ROOT
ATOM      1  C3  UNL d   1      -2.408   0.163   2.216  0.00  0.00    -0.075 A 
ATOM      2  C4  UNL d   1      -2.865   1.166   1.349  0.00  0.00     0.002 A 
ATOM      3  C5  UNL d   1      -4.163   1.663   1.463  0.00  0.00     0.002 A 
ATOM      4  C6  UNL d   1      -5.023   1.159   2.436  0.00  0.00    -0.004 A 
ATOM      5  C7  UNL d   1      -4.585   0.152   3.293  0.00  0.00     0.002 A 
ATOM      6  C8  UNL d   1      -3.284  -0.345   3.184  0.00  0.00     0.002 A 
ENDROOT
BRANCH   1   7
ATOM      7  C2  UNL d   1      -0.994  -0.359   2.117  0.00  0.00     0.056 C 
BRANCH   7   8
ATOM      8  C1  UNL d   1       0.065   0.736   1.947  0.00  0.00     0.007 C 
ATOM      9  C   UNL d   1       1.120   0.726   3.045  0.00  0.00     0.009 C 
ENDBRANCH   7   8
ENDBRANCH   1   7
TORSDOF 2
ENDMDL
