MODEL 1
REMARK minimizedAffinity 2.44431973
REMARK minimizedRMSD -1
REMARK  2 active torsions:
REMARK  status: ('A' for Active; 'I' for Inactive)
REMARK    1  A    between atoms: C1_2  and  C2_3 
REMARK    2  A    between atoms: C2_3  and  C3_4 
ROOT
ATOM      1  C3  UNL d   1      -1.460   0.111   2.804  0.00  0.00    -0.075 A 
ATOM      2  C4  UNL d   1      -2.735   0.335   3.344  0.00  0.00     0.002 A 
ATOM      3  C5  UNL d   1      -3.848   0.446   2.511  0.00  0.00     0.002 A 
ATOM      4  C6  UNL d   1      -3.700   0.346   1.129  0.00  0.00    -0.004 A 
ATOM      5  C7  UNL d   1      -2.436   0.141   0.580  0.00  0.00     0.002 A 
ATOM      6  C8  UNL d   1      -1.321   0.024   1.412  0.00  0.00     0.002 A 
ENDROOT
BRANCH   1   7
ATOM      7  C2  UNL d   1      -0.256  -0.040   3.702  0.00  0.00     0.056 C 
BRANCH   7   8
ATOM      8  C1  UNL d   1       0.912   0.883   3.341  0.00  0.00     0.007 C 
ATOM      9  C   UNL d   1       0.670   2.337   3.726  0.00  0.00     0.009 C 
ENDBRANCH   7   8
ENDBRANCH   1   7
TORSDOF 2
ENDMDL
