MODEL 1
REMARK minimizedAffinity 4.20105505
REMARK minimizedRMSD -1
REMARK  2 active torsions:
REMARK  status: ('A' for Active; 'I' for Inactive)
REMARK    1  A    between atoms: C1_2  and  C2_3 
REMARK    2  A    between atoms: C2_3  and  C3_4 
ROOT
ATOM      1  C3  UNL d   1      -2.151   1.349   2.646  0.00  0.00    -0.075 A 
ATOM      2  C4  UNL d   1      -1.387   0.172   2.631  0.00  0.00     0.002 A 
ATOM      3  C5  UNL d   1      -0.075   0.174   3.104  0.00  0.00     0.002 A 
ATOM      4  C6  UNL d   1       0.494   1.350   3.586  0.00  0.00    -0.004 A 
ATOM      5  C7  UNL d   1      -0.249   2.529   3.590  0.00  0.00     0.002 A 
ATOM      6  C8  UNL d   1      -1.564   2.529   3.122  0.00  0.00     0.002 A 
ENDROOT
BRANCH   1   7
ATOM      7  C2  UNL d   1      -3.581   1.348   2.163  0.00  0.00     0.056 C 
BRANCH   7   8
ATOM      8  C1  UNL d   1      -4.613   1.596   3.269  0.00  0.00     0.007 C 
ATOM      9  C   UNL d   1      -4.682   0.468   4.290  0.00  0.00     0.009 C 
ENDBRANCH   7   8
ENDBRANCH   1   7
TORSDOF 2
ENDMDL
