MODEL 1
REMARK minimizedAffinity 10.0385227
REMARK minimizedRMSD -1
REMARK  2 active torsions:
REMARK  status: ('A' for Active; 'I' for Inactive)
REMARK    1  A    between atoms: C1_2  and  C2_3 
REMARK    2  A    between atoms: C2_3  and  C3_4 
ROOT
ATOM      1  C3  UNL d   1      -1.794  -2.624  -5.971  0.00  0.00    -0.075 A 
ATOM      2  C4  UNL d   1      -2.134  -1.263  -5.972  0.00  0.00     0.002 A 
ATOM      3  C5  UNL d   1      -3.471  -0.867  -5.971  0.00  0.00     0.002 A 
ATOM      4  C6  UNL d   1      -4.484  -1.824  -5.980  0.00  0.00    -0.004 A 
ATOM      5  C7  UNL d   1      -4.158  -3.178  -5.996  0.00  0.00     0.002 A 
ATOM      6  C8  UNL d   1      -2.820  -3.577  -5.992  0.00  0.00     0.002 A 
ENDROOT
BRANCH   1   7
ATOM      7  C2  UNL d   1      -0.348  -3.059  -5.942  0.00  0.00     0.056 C 
BRANCH   7   8
ATOM      8  C1  UNL d   1       0.459  -2.463  -4.784  0.00  0.00     0.007 C 
ATOM      9  C   UNL d   1       1.848  -1.994  -5.198  0.00  0.00     0.009 C 
ENDBRANCH   7   8
ENDBRANCH   1   7
TORSDOF 2
ENDMDL
