MODEL 1
REMARK minimizedAffinity 0.13416715
REMARK minimizedRMSD -1
REMARK  2 active torsions:
REMARK  status: ('A' for Active; 'I' for Inactive)
REMARK    1  A    between atoms: C1_2  and  C2_3 
REMARK    2  A    between atoms: C2_3  and  C3_4 
ROOT
ATOM      1  C3  UNL d   1      -2.048   1.048   2.856  0.00  0.00    -0.075 A 
ATOM      2  C4  UNL d   1      -1.632   2.366   3.094  0.00  0.00     0.002 A 
ATOM      3  C5  UNL d   1      -0.327   2.634   3.507  0.00  0.00     0.002 A 
ATOM      4  C6  UNL d   1       0.575   1.589   3.698  0.00  0.00    -0.004 A 
ATOM      5  C7  UNL d   1       0.168   0.274   3.481  0.00  0.00     0.002 A 
ATOM      6  C8  UNL d   1      -1.136   0.004   3.063  0.00  0.00     0.002 A 
ENDROOT
BRANCH   1   7
ATOM      7  C2  UNL d   1      -3.450   0.754   2.380  0.00  0.00     0.056 C 
BRANCH   7   8
ATOM      8  C1  UNL d   1      -3.552   0.465   0.879  0.00  0.00     0.007 C 
ATOM      9  C   UNL d   1      -4.467  -0.708   0.554  0.00  0.00     0.009 C 
ENDBRANCH   7   8
ENDBRANCH   1   7
TORSDOF 2
ENDMDL
