MODEL 1
REMARK minimizedAffinity 8.78639889
REMARK minimizedRMSD -1
REMARK  2 active torsions:
REMARK  status: ('A' for Active; 'I' for Inactive)
REMARK    1  A    between atoms: C1_2  and  C2_3 
REMARK    2  A    between atoms: C2_3  and  C3_4 
ROOT
ATOM      1  C3  UNL d   1      -4.241   1.752   1.749  0.00  0.00    -0.075 A 
ATOM      2  C4  UNL d   1      -5.160   1.218   0.834  0.00  0.00     0.002 A 
ATOM      3  C5  UNL d   1      -4.868   0.044   0.140  0.00  0.00     0.002 A 
ATOM      4  C6  UNL d   1      -3.652  -0.605   0.344  0.00  0.00    -0.004 A 
ATOM      5  C7  UNL d   1      -2.725  -0.075   1.239  0.00  0.00     0.002 A 
ATOM      6  C8  UNL d   1      -3.017   1.098   1.938  0.00  0.00     0.002 A 
ENDROOT
BRANCH   1   7
ATOM      7  C2  UNL d   1      -4.564   3.007   2.525  0.00  0.00     0.056 C 
BRANCH   7   8
ATOM      8  C1  UNL d   1      -5.971   3.020   3.133  0.00  0.00     0.007 C 
ATOM      9  C   UNL d   1      -6.000   3.529   4.568  0.00  0.00     0.009 C 
ENDBRANCH   7   8
ENDBRANCH   1   7
TORSDOF 2
ENDMDL
