MODEL 1
REMARK minimizedAffinity -3.96863341
REMARK minimizedRMSD -1
REMARK  0 active torsions:
REMARK  status: ('A' for Active; 'I' for Inactive)
ROOT
ATOM      1  C1  BNZ d   1       0.365  -2.093   0.283  0.00  0.00     0.000 A 
ATOM      2  C2  BNZ d   1       0.446  -0.766  -0.043  0.00  0.00     0.000 A 
ATOM      3  C3  BNZ d   1      -0.314   0.163   0.611  0.00  0.00     0.000 A 
ATOM      4  C4  BNZ d   1      -1.182  -0.240   1.561  0.00  0.00     0.000 A 
ATOM      5  C5  BNZ d   1      -1.282  -1.576   1.894  0.00  0.00     0.000 A 
ATOM      6  C6  BNZ d   1      -0.487  -2.504   1.261  0.00  0.00     0.000 A 
ENDROOT
TORSDOF 0
ENDMDL
