MODEL 1
REMARK minimizedAffinity -4.09659815
REMARK minimizedRMSD -1
REMARK  0 active torsions:
REMARK  status: ('A' for Active; 'I' for Inactive)
ROOT
ATOM      1  C1  BNZ d   1       1.099  -1.506  -0.084  0.00  0.00     0.000 A 
ATOM      2  C2  BNZ d   1       0.932  -2.866  -0.091  0.00  0.00     0.000 A 
ATOM      3  C3  BNZ d   1      -0.292  -3.422   0.153  0.00  0.00     0.000 A 
ATOM      4  C4  BNZ d   1      -1.338  -2.622   0.444  0.00  0.00     0.000 A 
ATOM      5  C5  BNZ d   1      -1.184  -1.250   0.465  0.00  0.00     0.000 A 
ATOM      6  C6  BNZ d   1       0.041  -0.692   0.180  0.00  0.00     0.000 A 
ENDROOT
TORSDOF 0
ENDMDL
