MODEL 1
REMARK minimizedAffinity -4.43179178
REMARK minimizedRMSD -1
REMARK  0 active torsions:
REMARK  status: ('A' for Active; 'I' for Inactive)
ROOT
ATOM      1  C1  BNZ d   1       0.689  -2.789  -0.064  0.00  0.00     0.000 A 
ATOM      2  C2  BNZ d   1      -0.205  -3.073   0.933  0.00  0.00     0.000 A 
ATOM      3  C3  BNZ d   1      -1.029  -2.103   1.433  0.00  0.00     0.000 A 
ATOM      4  C4  BNZ d   1      -0.930  -0.843   0.963  0.00  0.00     0.000 A 
ATOM      5  C5  BNZ d   1      -0.027  -0.538  -0.036  0.00  0.00     0.000 A 
ATOM      6  C6  BNZ d   1       0.773  -1.526  -0.564  0.00  0.00     0.000 A 
ENDROOT
TORSDOF 0
ENDMDL
