MODEL 1
REMARK minimizedAffinity -0.914319098
REMARK minimizedRMSD -1
REMARK  0 active torsions:
REMARK  status: ('A' for Active; 'I' for Inactive)
ROOT
ATOM      1  C1  BNZ d   1      -1.733  -2.510   1.068  0.00  0.00     0.000 A 
ATOM      2  C2  BNZ d   1      -1.652  -1.288   1.681  0.00  0.00     0.000 A 
ATOM      3  C3  BNZ d   1      -0.956  -0.262   1.106  0.00  0.00     0.000 A 
ATOM      4  C4  BNZ d   1      -0.308  -0.470  -0.058  0.00  0.00     0.000 A 
ATOM      5  C5  BNZ d   1      -0.371  -1.700  -0.683  0.00  0.00     0.000 A 
ATOM      6  C6  BNZ d   1      -1.106  -2.719  -0.122  0.00  0.00     0.000 A 
ENDROOT
TORSDOF 0
ENDMDL
