MODEL 1
REMARK minimizedAffinity -0.666624129
REMARK minimizedRMSD -1
REMARK  0 active torsions:
REMARK  status: ('A' for Active; 'I' for Inactive)
ROOT
ATOM      1  C1  BNZ d   1      -0.693   0.442   0.219  0.00  0.00     0.000 A 
ATOM      2  C2  BNZ d   1      -1.592   0.033   1.168  0.00  0.00     0.000 A 
ATOM      3  C3  BNZ d   1      -1.762  -1.295   1.444  0.00  0.00     0.000 A 
ATOM      4  C4  BNZ d   1      -1.064  -2.212   0.745  0.00  0.00     0.000 A 
ATOM      5  C5  BNZ d   1      -0.161  -1.816  -0.221  0.00  0.00     0.000 A 
ATOM      6  C6  BNZ d   1       0.036  -0.477  -0.470  0.00  0.00     0.000 A 
ENDROOT
TORSDOF 0
ENDMDL
