MODEL 1
REMARK minimizedAffinity -4.64077759
REMARK minimizedRMSD -1
REMARK  0 active torsions:
REMARK  status: ('A' for Active; 'I' for Inactive)
ROOT
ATOM      1  C1  BNZ d   1      -0.781   0.507   0.664  0.00  0.00     0.000 A 
ATOM      2  C2  BNZ d   1      -1.364  -0.386   1.523  0.00  0.00     0.000 A 
ATOM      3  C3  BNZ d   1      -1.116  -1.725   1.417  0.00  0.00     0.000 A 
ATOM      4  C4  BNZ d   1      -0.317  -2.175   0.427  0.00  0.00     0.000 A 
ATOM      5  C5  BNZ d   1       0.271  -1.289  -0.453  0.00  0.00     0.000 A 
ATOM      6  C6  BNZ d   1       0.050   0.063  -0.319  0.00  0.00     0.000 A 
ENDROOT
TORSDOF 0
ENDMDL
