MODEL 1
REMARK minimizedAffinity -4.35077333
REMARK minimizedRMSD -1
REMARK  0 active torsions:
REMARK  status: ('A' for Active; 'I' for Inactive)
ROOT
ATOM      1  C1  BNZ d   1       0.608  -0.965  -1.379  0.00  0.00     0.000 A 
ATOM      2  C2  BNZ d   1       0.338   0.377  -1.338  0.00  0.00     0.000 A 
ATOM      3  C3  BNZ d   1      -0.274   0.935  -0.251  0.00  0.00     0.000 A 
ATOM      4  C4  BNZ d   1      -0.653   0.145   0.775  0.00  0.00     0.000 A 
ATOM      5  C5  BNZ d   1      -0.397  -1.211   0.744  0.00  0.00     0.000 A 
ATOM      6  C6  BNZ d   1       0.255  -1.763  -0.335  0.00  0.00     0.000 A 
ENDROOT
TORSDOF 0
ENDMDL
