MODEL 1
REMARK minimizedAffinity -3.76773643
REMARK minimizedRMSD -1
REMARK  0 active torsions:
REMARK  status: ('A' for Active; 'I' for Inactive)
ROOT
ATOM      1  C1  BNZ d   1      -1.036  -3.002   0.205  0.00  0.00     0.000 A 
ATOM      2  C2  BNZ d   1      -0.259  -2.157  -0.541  0.00  0.00     0.000 A 
ATOM      3  C3  BNZ d   1      -0.114  -0.844  -0.188  0.00  0.00     0.000 A 
ATOM      4  C4  BNZ d   1      -0.777  -0.370   0.887  0.00  0.00     0.000 A 
ATOM      5  C5  BNZ d   1      -1.571  -1.208   1.644  0.00  0.00     0.000 A 
ATOM      6  C6  BNZ d   1      -1.684  -2.537   1.308  0.00  0.00     0.000 A 
ENDROOT
TORSDOF 0
ENDMDL
