MODEL 1
REMARK minimizedAffinity -4.61369562
REMARK minimizedRMSD -1
REMARK  0 active torsions:
REMARK  status: ('A' for Active; 'I' for Inactive)
ROOT
ATOM      1  C1  BNZ d   1      -0.224  -1.185   0.462  0.00  0.00     0.000 A 
ATOM      2  C2  BNZ d   1       0.264  -0.869  -0.777  0.00  0.00     0.000 A 
ATOM      3  C3  BNZ d   1       0.524  -1.845  -1.697  0.00  0.00     0.000 A 
ATOM      4  C4  BNZ d   1       0.333  -3.138  -1.364  0.00  0.00     0.000 A 
ATOM      5  C5  BNZ d   1      -0.151  -3.474  -0.115  0.00  0.00     0.000 A 
ATOM      6  C6  BNZ d   1      -0.448  -2.485   0.795  0.00  0.00     0.000 A 
ENDROOT
TORSDOF 0
ENDMDL
