MODEL 1
REMARK minimizedAffinity -3.87376332
REMARK minimizedRMSD -1
REMARK  0 active torsions:
REMARK  status: ('A' for Active; 'I' for Inactive)
ROOT
ATOM      1  C1  BNZ d   1       1.800   1.063   1.078  0.00  0.00     0.000 A 
ATOM      2  C2  BNZ d   1       2.448   2.246   1.318  0.00  0.00     0.000 A 
ATOM      3  C3  BNZ d   1       2.035   3.404   0.720  0.00  0.00     0.000 A 
ATOM      4  C4  BNZ d   1       1.003   3.371  -0.147  0.00  0.00     0.000 A 
ATOM      5  C5  BNZ d   1       0.345   2.185  -0.406  0.00  0.00     0.000 A 
ATOM      6  C6  BNZ d   1       0.738   1.029   0.227  0.00  0.00     0.000 A 
ENDROOT
TORSDOF 0
ENDMDL
