MODEL 1
REMARK minimizedAffinity -4.67633152
REMARK minimizedRMSD -1
REMARK  0 active torsions:
REMARK  status: ('A' for Active; 'I' for Inactive)
ROOT
ATOM      1  C1  BNZ d   1       0.143  -0.552   0.057  0.00  0.00     0.000 A 
ATOM      2  C2  BNZ d   1      -0.197  -1.497   0.988  0.00  0.00     0.000 A 
ATOM      3  C3  BNZ d   1      -0.278  -2.818   0.647  0.00  0.00     0.000 A 
ATOM      4  C4  BNZ d   1      -0.060  -3.187  -0.631  0.00  0.00     0.000 A 
ATOM      5  C5  BNZ d   1       0.275  -2.245  -1.584  0.00  0.00     0.000 A 
ATOM      6  C6  BNZ d   1       0.394  -0.921  -1.228  0.00  0.00     0.000 A 
ENDROOT
TORSDOF 0
ENDMDL
