MODEL 1
REMARK minimizedAffinity -3.51155758
REMARK minimizedRMSD -1
REMARK  0 active torsions:
REMARK  status: ('A' for Active; 'I' for Inactive)
ROOT
ATOM      1  C1  BNZ d   1       1.228   3.511   1.809  0.00  0.00     0.000 A 
ATOM      2  C2  BNZ d   1       2.440   3.168   1.272  0.00  0.00     0.000 A 
ATOM      3  C3  BNZ d   1       2.514   2.401   0.143  0.00  0.00     0.000 A 
ATOM      4  C4  BNZ d   1       1.378   1.946  -0.425  0.00  0.00     0.000 A 
ATOM      5  C5  BNZ d   1       0.149   2.276   0.110  0.00  0.00     0.000 A 
ATOM      6  C6  BNZ d   1       0.077   3.080   1.224  0.00  0.00     0.000 A 
ENDROOT
TORSDOF 0
ENDMDL
