MODEL 1
REMARK minimizedAffinity -2.99983883
REMARK minimizedRMSD -1
REMARK  0 active torsions:
REMARK  status: ('A' for Active; 'I' for Inactive)
ROOT
ATOM      1  C1  BNZ d   1      -0.201  -0.398  -0.786  0.00  0.00     0.000 A 
ATOM      2  C2  BNZ d   1      -0.224  -0.010   0.527  0.00  0.00     0.000 A 
ATOM      3  C3  BNZ d   1      -0.552  -0.897   1.514  0.00  0.00     0.000 A 
ATOM      4  C4  BNZ d   1      -0.895  -2.158   1.184  0.00  0.00     0.000 A 
ATOM      5  C5  BNZ d   1      -0.886  -2.563  -0.136  0.00  0.00     0.000 A 
ATOM      6  C6  BNZ d   1      -0.518  -1.678  -1.123  0.00  0.00     0.000 A 
ENDROOT
TORSDOF 0
ENDMDL
