MODEL 1
REMARK minimizedAffinity -2.6655128
REMARK minimizedRMSD -1
REMARK  0 active torsions:
REMARK  status: ('A' for Active; 'I' for Inactive)
ROOT
ATOM      1  C1  BNZ d   1       1.534   3.304   1.602  0.00  0.00     0.000 A 
ATOM      2  C2  BNZ d   1       0.334   2.862   1.112  0.00  0.00     0.000 A 
ATOM      3  C3  BNZ d   1       0.220   2.438  -0.183  0.00  0.00     0.000 A 
ATOM      4  C4  BNZ d   1       1.294   2.495  -0.996  0.00  0.00     0.000 A 
ATOM      5  C5  BNZ d   1       2.508   2.947  -0.519  0.00  0.00     0.000 A 
ATOM      6  C6  BNZ d   1       2.629   3.336   0.795  0.00  0.00     0.000 A 
ENDROOT
TORSDOF 0
ENDMDL
