MODEL 1
REMARK minimizedAffinity 3.95961905
REMARK minimizedRMSD -1
REMARK  0 active torsions:
REMARK  status: ('A' for Active; 'I' for Inactive)
ROOT
ATOM      1  C1  BNZ d   1      -1.925   5.476   2.051  0.00  0.00     0.000 A 
ATOM      2  C2  BNZ d   1      -1.367   4.667   1.098  0.00  0.00     0.000 A 
ATOM      3  C3  BNZ d   1      -0.152   4.076   1.305  0.00  0.00     0.000 A 
ATOM      4  C4  BNZ d   1       0.520   4.327   2.447  0.00  0.00     0.000 A 
ATOM      5  C5  BNZ d   1      -0.025   5.147   3.414  0.00  0.00     0.000 A 
ATOM      6  C6  BNZ d   1      -1.266   5.709   3.218  0.00  0.00     0.000 A 
ENDROOT
TORSDOF 0
ENDMDL
