MODEL 1
REMARK minimizedAffinity -3.43503618
REMARK minimizedRMSD -1
REMARK  0 active torsions:
REMARK  status: ('A' for Active; 'I' for Inactive)
ROOT
ATOM      1  C1  BNZ d   1      -0.307   0.980   0.244  0.00  0.00     0.000 A 
ATOM      2  C2  BNZ d   1      -0.878   0.143   1.166  0.00  0.00     0.000 A 
ATOM      3  C3  BNZ d   1      -0.720  -1.211   1.074  0.00  0.00     0.000 A 
ATOM      4  C4  BNZ d   1      -0.028  -1.729   0.039  0.00  0.00     0.000 A 
ATOM      5  C5  BNZ d   1       0.545  -0.900  -0.904  0.00  0.00     0.000 A 
ATOM      6  C6  BNZ d   1       0.418   0.465  -0.786  0.00  0.00     0.000 A 
ENDROOT
TORSDOF 0
ENDMDL
