MODEL 1
REMARK minimizedAffinity -4.30749083
REMARK minimizedRMSD -1
REMARK  0 active torsions:
REMARK  status: ('A' for Active; 'I' for Inactive)
ROOT
ATOM      1  C   UNL d   1      -0.106   0.504   1.018  0.00  0.00     0.020 A 
ATOM      2  C1  UNL d   1       0.527   1.545   0.340  0.00  0.00     0.020 A 
ATOM      3  C2  UNL d   1       1.116   1.311  -0.905  0.00  0.00     0.034 A 
ATOM      4  C3  UNL d   1       1.073   0.034  -1.475  0.00  0.00     0.017 A 
ATOM      5  C4  UNL d   1       0.438  -1.010  -0.794  0.00  0.00     0.017 A 
ATOM      6  C5  UNL d   1      -0.151  -0.771   0.452  0.00  0.00     0.034 A 
ATOM      7 Cl   UNL d   1       0.345  -2.613  -1.433  0.00  0.00    -0.070 Cl
ATOM      8 Cl1  UNL d   1       1.823  -0.183  -3.017  0.00  0.00    -0.070 Cl
ENDROOT
TORSDOF 0
ENDMDL
