MODEL 1
REMARK minimizedAffinity -0.633850694
REMARK minimizedRMSD -1
REMARK  0 active torsions:
REMARK  status: ('A' for Active; 'I' for Inactive)
ROOT
ATOM      1  C   UNL d   1      -3.279   2.012   3.825  0.00  0.00     0.020 A 
ATOM      2  C1  UNL d   1      -1.895   1.852   3.874  0.00  0.00     0.020 A 
ATOM      3  C2  UNL d   1      -1.244   1.099   2.894  0.00  0.00     0.034 A 
ATOM      4  C3  UNL d   1      -1.977   0.503   1.862  0.00  0.00     0.017 A 
ATOM      5  C4  UNL d   1      -3.366   0.664   1.814  0.00  0.00     0.017 A 
ATOM      6  C5  UNL d   1      -4.013   1.419   2.797  0.00  0.00     0.034 A 
ATOM      7 Cl   UNL d   1      -4.339  -0.041   0.570  0.00  0.00    -0.070 Cl
ATOM      8 Cl1  UNL d   1      -1.107  -0.415   0.684  0.00  0.00    -0.070 Cl
ENDROOT
TORSDOF 0
ENDMDL
