MODEL 1
REMARK minimizedAffinity -2.35221624
REMARK minimizedRMSD -1
REMARK  0 active torsions:
REMARK  status: ('A' for Active; 'I' for Inactive)
ROOT
ATOM      1  C   UNL d   1       2.824   3.468   3.291  0.00  0.00     0.020 A 
ATOM      2  C1  UNL d   1       2.528   3.471   1.928  0.00  0.00     0.020 A 
ATOM      3  C2  UNL d   1       1.735   2.459   1.384  0.00  0.00     0.034 A 
ATOM      4  C3  UNL d   1       1.234   1.440   2.202  0.00  0.00     0.017 A 
ATOM      5  C4  UNL d   1       1.531   1.438   3.570  0.00  0.00     0.017 A 
ATOM      6  C5  UNL d   1       2.326   2.454   4.110  0.00  0.00     0.034 A 
ATOM      7 Cl   UNL d   1       0.950   0.214   4.643  0.00  0.00    -0.070 Cl
ATOM      8 Cl1  UNL d   1       0.259   0.221   1.462  0.00  0.00    -0.070 Cl
ENDROOT
TORSDOF 0
ENDMDL
