MODEL 1
REMARK minimizedAffinity -3.79626918
REMARK minimizedRMSD -1
REMARK  0 active torsions:
REMARK  status: ('A' for Active; 'I' for Inactive)
ROOT
ATOM      1  C   UNL d   1       1.966   0.186  -2.128  0.00  0.00     0.020 A 
ATOM      2  C1  UNL d   1       0.769  -0.429  -2.493  0.00  0.00     0.020 A 
ATOM      3  C2  UNL d   1      -0.301  -0.463  -1.597  0.00  0.00     0.034 A 
ATOM      4  C3  UNL d   1      -0.177   0.119  -0.330  0.00  0.00     0.017 A 
ATOM      5  C4  UNL d   1       1.025   0.736   0.036  0.00  0.00     0.017 A 
ATOM      6  C5  UNL d   1       2.093   0.767  -0.866  0.00  0.00     0.034 A 
ATOM      7 Cl   UNL d   1       1.254   1.476   1.581  0.00  0.00    -0.070 Cl
ATOM      8 Cl1  UNL d   1      -1.541   0.040   0.728  0.00  0.00    -0.070 Cl
ENDROOT
TORSDOF 0
ENDMDL
