MODEL 1
REMARK minimizedAffinity 0.0230523329
REMARK minimizedRMSD -1
REMARK  0 active torsions:
REMARK  status: ('A' for Active; 'I' for Inactive)
ROOT
ATOM      1  C   UNL d   1       1.171  -0.802  -2.908  0.00  0.00     0.020 A 
ATOM      2  C1  UNL d   1       0.128  -1.353  -2.164  0.00  0.00     0.020 A 
ATOM      3  C2  UNL d   1      -0.135  -0.884  -0.876  0.00  0.00     0.034 A 
ATOM      4  C3  UNL d   1       0.645   0.140  -0.327  0.00  0.00     0.017 A 
ATOM      5  C4  UNL d   1       1.692   0.693  -1.073  0.00  0.00     0.017 A 
ATOM      6  C5  UNL d   1       1.951   0.219  -2.363  0.00  0.00     0.034 A 
ATOM      7 Cl   UNL d   1       2.698   1.959  -0.463  0.00  0.00    -0.070 Cl
ATOM      8 Cl1  UNL d   1       0.262   0.673   1.272  0.00  0.00    -0.070 Cl
ENDROOT
TORSDOF 0
ENDMDL
