MODEL 1
REMARK minimizedAffinity -3.70437789
REMARK minimizedRMSD -1
REMARK  0 active torsions:
REMARK  status: ('A' for Active; 'I' for Inactive)
ROOT
ATOM      1  C   UNL d   1       1.108   1.310  -1.521  0.00  0.00     0.020 A 
ATOM      2  C1  UNL d   1       1.538   0.392  -2.478  0.00  0.00     0.020 A 
ATOM      3  C2  UNL d   1       1.217  -0.960  -2.344  0.00  0.00     0.034 A 
ATOM      4  C3  UNL d   1       0.464  -1.399  -1.249  0.00  0.00     0.017 A 
ATOM      5  C4  UNL d   1       0.032  -0.477  -0.288  0.00  0.00     0.017 A 
ATOM      6  C5  UNL d   1       0.357   0.876  -0.428  0.00  0.00     0.034 A 
ATOM      7 Cl   UNL d   1      -0.901  -0.943   1.090  0.00  0.00    -0.070 Cl
ATOM      8 Cl1  UNL d   1       0.103  -3.085  -1.146  0.00  0.00    -0.070 Cl
ENDROOT
TORSDOF 0
ENDMDL
