MODEL 1
REMARK minimizedAffinity -2.2906611
REMARK minimizedRMSD -1
REMARK  0 active torsions:
REMARK  status: ('A' for Active; 'I' for Inactive)
ROOT
ATOM      1  C   UNL d   1      -3.370   2.306   3.538  0.00  0.00     0.020 A 
ATOM      2  C1  UNL d   1      -3.990   1.474   2.607  0.00  0.00     0.020 A 
ATOM      3  C2  UNL d   1      -3.245   0.506   1.931  0.00  0.00     0.034 A 
ATOM      4  C3  UNL d   1      -1.876   0.368   2.184  0.00  0.00     0.017 A 
ATOM      5  C4  UNL d   1      -1.254   1.203   3.118  0.00  0.00     0.017 A 
ATOM      6  C5  UNL d   1      -2.005   2.171   3.793  0.00  0.00     0.034 A 
ATOM      7 Cl   UNL d   1       0.432   1.093   3.484  0.00  0.00    -0.070 Cl
ATOM      8 Cl1  UNL d   1      -1.016  -0.851   1.311  0.00  0.00    -0.070 Cl
ENDROOT
TORSDOF 0
ENDMDL
