MODEL 1
REMARK minimizedAffinity -2.46776342
REMARK minimizedRMSD -1
REMARK  0 active torsions:
REMARK  status: ('A' for Active; 'I' for Inactive)
ROOT
ATOM      1  C   UNL d   1       0.742  -0.748  -2.081  0.00  0.00     0.020 A 
ATOM      2  C1  UNL d   1       1.924  -0.067  -1.793  0.00  0.00     0.020 A 
ATOM      3  C2  UNL d   1       2.071   0.590  -0.569  0.00  0.00     0.034 A 
ATOM      4  C3  UNL d   1       1.034   0.568   0.370  0.00  0.00     0.017 A 
ATOM      5  C4  UNL d   1      -0.152  -0.116   0.081  0.00  0.00     0.017 A 
ATOM      6  C5  UNL d   1      -0.294  -0.773  -1.146  0.00  0.00     0.034 A 
ATOM      7 Cl   UNL d   1      -1.476  -0.188   1.190  0.00  0.00    -0.070 Cl
ATOM      8 Cl1  UNL d   1       1.284   1.402   1.863  0.00  0.00    -0.070 Cl
ENDROOT
TORSDOF 0
ENDMDL
