MODEL 1
REMARK minimizedAffinity 6.96677494
REMARK minimizedRMSD -1
REMARK  0 active torsions:
REMARK  status: ('A' for Active; 'I' for Inactive)
ROOT
ATOM      1  C   UNL d   1      -4.626   0.492   0.840  0.00  0.00     0.020 A 
ATOM      2  C1  UNL d   1      -3.484  -0.299   0.948  0.00  0.00     0.020 A 
ATOM      3  C2  UNL d   1      -2.518  -0.004   1.913  0.00  0.00     0.034 A 
ATOM      4  C3  UNL d   1      -2.694   1.085   2.774  0.00  0.00     0.017 A 
ATOM      5  C4  UNL d   1      -3.841   1.879   2.665  0.00  0.00     0.017 A 
ATOM      6  C5  UNL d   1      -4.805   1.579   1.697  0.00  0.00     0.034 A 
ATOM      7 Cl   UNL d   1      -4.128   3.239   3.692  0.00  0.00    -0.070 Cl
ATOM      8 Cl1  UNL d   1      -1.460   1.391   3.944  0.00  0.00    -0.070 Cl
ENDROOT
TORSDOF 0
ENDMDL
