MODEL 1
REMARK minimizedAffinity 0.527784288
REMARK minimizedRMSD -1
REMARK  0 active torsions:
REMARK  status: ('A' for Active; 'I' for Inactive)
ROOT
ATOM      1  C   UNL d   1      -1.956   3.777  -5.281  0.00  0.00     0.020 A 
ATOM      2  C1  UNL d   1      -2.000   5.170  -5.284  0.00  0.00     0.020 A 
ATOM      3  C2  UNL d   1      -3.210   5.831  -5.508  0.00  0.00     0.034 A 
ATOM      4  C3  UNL d   1      -4.381   5.098  -5.729  0.00  0.00     0.017 A 
ATOM      5  C4  UNL d   1      -4.337   3.699  -5.726  0.00  0.00     0.017 A 
ATOM      6  C5  UNL d   1      -3.123   3.043  -5.501  0.00  0.00     0.034 A 
ATOM      7 Cl   UNL d   1      -5.741   2.726  -5.991  0.00  0.00    -0.070 Cl
ATOM      8 Cl1  UNL d   1      -5.842   5.980  -5.998  0.00  0.00    -0.070 Cl
ENDROOT
TORSDOF 0
ENDMDL
