MODEL 1
REMARK minimizedAffinity -2.44526243
REMARK minimizedRMSD -1
REMARK  0 active torsions:
REMARK  status: ('A' for Active; 'I' for Inactive)
ROOT
ATOM      1  C   UNL d   1      -0.265   0.458   0.668  0.00  0.00     0.020 A 
ATOM      2  C1  UNL d   1      -0.567  -0.823   1.130  0.00  0.00     0.020 A 
ATOM      3  C2  UNL d   1      -0.206  -1.941   0.376  0.00  0.00     0.034 A 
ATOM      4  C3  UNL d   1       0.460  -1.781  -0.845  0.00  0.00     0.017 A 
ATOM      5  C4  UNL d   1       0.764  -0.495  -1.308  0.00  0.00     0.017 A 
ATOM      6  C5  UNL d   1       0.399   0.621  -0.548  0.00  0.00     0.034 A 
ATOM      7 Cl   UNL d   1       1.583  -0.218  -2.804  0.00  0.00    -0.070 Cl
ATOM      8 Cl1  UNL d   1       0.878  -3.208  -1.726  0.00  0.00    -0.070 Cl
ENDROOT
TORSDOF 0
ENDMDL
