MODEL 1
REMARK minimizedAffinity -0.0423266701
REMARK minimizedRMSD -1
REMARK  0 active torsions:
REMARK  status: ('A' for Active; 'I' for Inactive)
ROOT
ATOM      1  C   UNL d   1      -3.994   0.780   1.570  0.00  0.00     0.020 A 
ATOM      2  C1  UNL d   1      -4.221  -0.596   1.591  0.00  0.00     0.020 A 
ATOM      3  C2  UNL d   1      -3.175  -1.480   1.323  0.00  0.00     0.034 A 
ATOM      4  C3  UNL d   1      -1.896  -0.990   1.032  0.00  0.00     0.017 A 
ATOM      5  C4  UNL d   1      -1.669   0.391   1.011  0.00  0.00     0.017 A 
ATOM      6  C5  UNL d   1      -2.721   1.272   1.281  0.00  0.00     0.034 A 
ATOM      7 Cl   UNL d   1      -0.119   1.070   0.660  0.00  0.00    -0.070 Cl
ATOM      8 Cl1  UNL d   1      -0.649  -2.142   0.710  0.00  0.00    -0.070 Cl
ENDROOT
TORSDOF 0
ENDMDL
