MODEL 1
REMARK minimizedAffinity -0.273581028
REMARK minimizedRMSD -1
REMARK  0 active torsions:
REMARK  status: ('A' for Active; 'I' for Inactive)
ROOT
ATOM      1  C   UNL d   1      -3.678   1.165   2.922  0.00  0.00     0.020 A 
ATOM      2  C1  UNL d   1      -4.046   0.351   1.852  0.00  0.00     0.020 A 
ATOM      3  C2  UNL d   1      -3.066  -0.312   1.110  0.00  0.00     0.034 A 
ATOM      4  C3  UNL d   1      -1.713  -0.162   1.437  0.00  0.00     0.017 A 
ATOM      5  C4  UNL d   1      -1.345   0.656   2.512  0.00  0.00     0.017 A 
ATOM      6  C5  UNL d   1      -2.330   1.317   3.251  0.00  0.00     0.034 A 
ATOM      7 Cl   UNL d   1       0.303   0.890   2.976  0.00  0.00    -0.070 Cl
ATOM      8 Cl1  UNL d   1      -0.555  -1.011   0.477  0.00  0.00    -0.070 Cl
ENDROOT
TORSDOF 0
ENDMDL
