MODEL 1
REMARK minimizedAffinity -1.78040922
REMARK minimizedRMSD -1
REMARK  0 active torsions:
REMARK  status: ('A' for Active; 'I' for Inactive)
ROOT
ATOM      1  C   UNL d   1       2.258   0.289  -2.029  0.00  0.00     0.020 A 
ATOM      2  C1  UNL d   1       1.135  -0.441  -2.415  0.00  0.00     0.020 A 
ATOM      3  C2  UNL d   1       0.036  -0.538  -1.558  0.00  0.00     0.034 A 
ATOM      4  C3  UNL d   1       0.059   0.097  -0.311  0.00  0.00     0.017 A 
ATOM      5  C4  UNL d   1       1.187   0.829   0.076  0.00  0.00     0.017 A 
ATOM      6  C5  UNL d   1       2.284   0.923  -0.786  0.00  0.00     0.034 A 
ATOM      7 Cl   UNL d   1       1.288   1.639   1.599  0.00  0.00    -0.070 Cl
ATOM      8 Cl1  UNL d   1      -1.335  -0.065   0.698  0.00  0.00    -0.070 Cl
ENDROOT
TORSDOF 0
ENDMDL
