MODEL 1
REMARK minimizedAffinity -1.50397158
REMARK minimizedRMSD -1
REMARK  0 active torsions:
REMARK  status: ('A' for Active; 'I' for Inactive)
ROOT
ATOM      1  C   UNL d   1       1.900   1.708   3.168  0.00  0.00     0.020 A 
ATOM      2  C1  UNL d   1       0.636   1.120   3.187  0.00  0.00     0.020 A 
ATOM      3  C2  UNL d   1       0.087   0.605   2.011  0.00  0.00     0.034 A 
ATOM      4  C3  UNL d   1       0.803   0.677   0.810  0.00  0.00     0.017 A 
ATOM      5  C4  UNL d   1       2.071   1.267   0.792  0.00  0.00     0.017 A 
ATOM      6  C5  UNL d   1       2.616   1.781   1.972  0.00  0.00     0.034 A 
ATOM      7 Cl   UNL d   1       3.014   1.392  -0.652  0.00  0.00    -0.070 Cl
ATOM      8 Cl1  UNL d   1       0.063   0.019  -0.606  0.00  0.00    -0.070 Cl
ENDROOT
TORSDOF 0
ENDMDL
