MODEL 1
REMARK minimizedAffinity -1.327842
REMARK minimizedRMSD -1
REMARK  0 active torsions:
REMARK  status: ('A' for Active; 'I' for Inactive)
ROOT
ATOM      1  C   UNL d   1      -3.660   0.676   1.869  0.00  0.00     0.020 A 
ATOM      2  C1  UNL d   1      -3.185   1.306   3.018  0.00  0.00     0.020 A 
ATOM      3  C2  UNL d   1      -1.818   1.302   3.303  0.00  0.00     0.034 A 
ATOM      4  C3  UNL d   1      -0.921   0.666   2.437  0.00  0.00     0.017 A 
ATOM      5  C4  UNL d   1      -1.398   0.034   1.283  0.00  0.00     0.017 A 
ATOM      6  C5  UNL d   1      -2.768   0.042   1.003  0.00  0.00     0.034 A 
ATOM      7 Cl   UNL d   1      -0.353  -0.771   0.167  0.00  0.00    -0.070 Cl
ATOM      8 Cl1  UNL d   1       0.757   0.701   2.850  0.00  0.00    -0.070 Cl
ENDROOT
TORSDOF 0
ENDMDL
