MODEL 1
REMARK minimizedAffinity -4.3131671
REMARK minimizedRMSD -1
REMARK  0 active torsions:
REMARK  status: ('A' for Active; 'I' for Inactive)
ROOT
ATOM      1  C   UNL d   1       1.297  -1.000  -2.366  0.00  0.00     0.020 A 
ATOM      2  C1  UNL d   1       2.086   0.139  -2.522  0.00  0.00     0.020 A 
ATOM      3  C2  UNL d   1       1.982   1.190  -1.608  0.00  0.00     0.034 A 
ATOM      4  C3  UNL d   1       1.089   1.104  -0.535  0.00  0.00     0.017 A 
ATOM      5  C4  UNL d   1       0.298  -0.040  -0.379  0.00  0.00     0.017 A 
ATOM      6  C5  UNL d   1       0.405  -1.090  -1.297  0.00  0.00     0.034 A 
ATOM      7 Cl   UNL d   1      -0.828  -0.219   0.921  0.00  0.00    -0.070 Cl
ATOM      8 Cl1  UNL d   1       1.013   2.441   0.557  0.00  0.00    -0.070 Cl
ENDROOT
TORSDOF 0
ENDMDL
