MODEL 1
REMARK minimizedAffinity -2.35758424
REMARK minimizedRMSD -1
REMARK  0 active torsions:
REMARK  status: ('A' for Active; 'I' for Inactive)
ROOT
ATOM      1  C   UNL d   1       1.810  -1.127  -2.465  0.00  0.00     0.020 A 
ATOM      2  C1  UNL d   1       0.745  -1.889  -1.985  0.00  0.00     0.020 A 
ATOM      3  C2  UNL d   1      -0.034  -1.413  -0.928  0.00  0.00     0.034 A 
ATOM      4  C3  UNL d   1       0.250  -0.171  -0.349  0.00  0.00     0.017 A 
ATOM      5  C4  UNL d   1       1.319   0.594  -0.831  0.00  0.00     0.017 A 
ATOM      6  C5  UNL d   1       2.096   0.112  -1.890  0.00  0.00     0.034 A 
ATOM      7 Cl   UNL d   1       1.731   2.135  -0.167  0.00  0.00    -0.070 Cl
ATOM      8 Cl1  UNL d   1      -0.754   0.356   0.954  0.00  0.00    -0.070 Cl
ENDROOT
TORSDOF 0
ENDMDL
