MODEL 1
REMARK minimizedAffinity -5.22950888
REMARK minimizedRMSD -1
REMARK  0 active torsions:
REMARK  status: ('A' for Active; 'I' for Inactive)
ROOT
ATOM      1  C   UNL d   1      -3.810   0.802   2.304  0.00  0.00     0.020 A 
ATOM      2  C1  UNL d   1      -3.460   1.614   3.382  0.00  0.00     0.020 A 
ATOM      3  C2  UNL d   1      -2.117   1.779   3.725  0.00  0.00     0.034 A 
ATOM      4  C3  UNL d   1      -1.118   1.131   2.989  0.00  0.00     0.017 A 
ATOM      5  C4  UNL d   1      -1.470   0.316   1.907  0.00  0.00     0.017 A 
ATOM      6  C5  UNL d   1      -2.817   0.154   1.568  0.00  0.00     0.034 A 
ATOM      7 Cl   UNL d   1      -0.294  -0.516   0.951  0.00  0.00    -0.070 Cl
ATOM      8 Cl1  UNL d   1       0.523   1.380   3.468  0.00  0.00    -0.070 Cl
ENDROOT
TORSDOF 0
ENDMDL
