MODEL 1
REMARK minimizedAffinity -3.10139823
REMARK minimizedRMSD -1
REMARK  1 active torsions:
REMARK  status: ('A' for Active; 'I' for Inactive)
REMARK    1  A    between atoms: C3_4  and  O_7 
ROOT
ATOM      1  C   UNL d   1      -0.583   0.700   0.006  0.00  0.00    -0.033 A 
ATOM      2  C1  UNL d   1      -0.469  -0.691   0.021  0.00  0.00     0.039 A 
ATOM      3  C2  UNL d   1       0.737  -1.298  -0.335  0.00  0.00    -0.080 A 
ATOM      4  C3  UNL d   1       1.820  -0.504  -0.702  0.00  0.00     0.150 A 
ATOM      5  C4  UNL d   1       1.714   0.883  -0.715  0.00  0.00    -0.007 A 
ATOM      6  C5  UNL d   1       0.509   1.487  -0.360  0.00  0.00     0.039 A 
ENDROOT
BRANCH   4   7
ATOM      7  O   UNL d   1       3.016  -1.051  -1.062  0.00  0.00    -0.526 OA
ATOM      8  H5  UNL d   1       2.932  -2.018  -1.034  0.00  0.00     0.418 HD
ENDBRANCH   4   7
TORSDOF 1
ENDMDL
