MODEL 1
REMARK minimizedAffinity -4.16705513
REMARK minimizedRMSD -1
REMARK  1 active torsions:
REMARK  status: ('A' for Active; 'I' for Inactive)
REMARK    1  A    between atoms: C3_4  and  O_7 
ROOT
ATOM      1  C   UNL d   1      -0.472  -0.021   0.100  0.00  0.00    -0.033 A 
ATOM      2  C1  UNL d   1       0.315   1.054  -0.321  0.00  0.00     0.039 A 
ATOM      3  C2  UNL d   1       1.622   0.835  -0.759  0.00  0.00    -0.080 A 
ATOM      4  C3  UNL d   1       2.131  -0.461  -0.771  0.00  0.00     0.150 A 
ATOM      5  C4  UNL d   1       1.352  -1.537  -0.356  0.00  0.00    -0.007 A 
ATOM      6  C5  UNL d   1       0.046  -1.316   0.081  0.00  0.00     0.039 A 
ENDROOT
BRANCH   4   7
ATOM      7  O   UNL d   1       3.403  -0.724  -1.185  0.00  0.00    -0.526 OA
ATOM      8  H5  UNL d   1       3.832   0.118  -1.414  0.00  0.00     0.418 HD
ENDBRANCH   4   7
TORSDOF 1
ENDMDL
