MODEL 1
REMARK minimizedAffinity -3.9254117
REMARK minimizedRMSD -1
REMARK  1 active torsions:
REMARK  status: ('A' for Active; 'I' for Inactive)
REMARK    1  A    between atoms: C3_4  and  O_7 
ROOT
ATOM      1  C   UNL d   1      -0.133  -0.581   0.002  0.00  0.00    -0.033 A 
ATOM      2  C1  UNL d   1       0.587  -1.773  -0.105  0.00  0.00     0.039 A 
ATOM      3  C2  UNL d   1       1.922  -1.749  -0.512  0.00  0.00    -0.080 A 
ATOM      4  C3  UNL d   1       2.525  -0.530  -0.808  0.00  0.00     0.150 A 
ATOM      5  C4  UNL d   1       1.815   0.662  -0.699  0.00  0.00    -0.007 A 
ATOM      6  C5  UNL d   1       0.481   0.636  -0.293  0.00  0.00     0.039 A 
ENDROOT
BRANCH   4   7
ATOM      7  O   UNL d   1       3.825  -0.457  -1.214  0.00  0.00    -0.526 OA
ATOM      8  H5  UNL d   1       4.180  -1.359  -1.270  0.00  0.00     0.418 HD
ENDBRANCH   4   7
TORSDOF 1
ENDMDL
