MODEL 1
REMARK minimizedAffinity -3.57588387
REMARK minimizedRMSD -1
REMARK  1 active torsions:
REMARK  status: ('A' for Active; 'I' for Inactive)
REMARK    1  A    between atoms: C3_4  and  O_7 
ROOT
ATOM      1  C   UNL d   1       0.067  -0.005  -0.300  0.00  0.00    -0.033 A 
ATOM      2  C1  UNL d   1       0.852   1.132  -0.502  0.00  0.00     0.039 A 
ATOM      3  C2  UNL d   1       2.217   1.002  -0.767  0.00  0.00    -0.080 A 
ATOM      4  C3  UNL d   1       2.783  -0.268  -0.827  0.00  0.00     0.150 A 
ATOM      5  C4  UNL d   1       2.006  -1.405  -0.631  0.00  0.00    -0.007 A 
ATOM      6  C5  UNL d   1       0.644  -1.273  -0.366  0.00  0.00     0.039 A 
ENDROOT
BRANCH   4   7
ATOM      7  O   UNL d   1       4.111  -0.445  -1.078  0.00  0.00    -0.526 OA
ATOM      8  H5  UNL d   1       4.527   0.429  -1.164  0.00  0.00     0.418 HD
ENDBRANCH   4   7
TORSDOF 1
ENDMDL
