MODEL 1
REMARK minimizedAffinity -3.88142991
REMARK minimizedRMSD -1
REMARK  1 active torsions:
REMARK  status: ('A' for Active; 'I' for Inactive)
REMARK    1  A    between atoms: C3_4  and  O_7 
ROOT
ATOM      1  C   UNL d   1      -0.521  -0.637  -0.268  0.00  0.00    -0.033 A 
ATOM      2  C1  UNL d   1       0.132  -1.868  -0.353  0.00  0.00     0.039 A 
ATOM      3  C2  UNL d   1       1.524  -1.917  -0.447  0.00  0.00    -0.080 A 
ATOM      4  C3  UNL d   1       2.250  -0.730  -0.454  0.00  0.00     0.150 A 
ATOM      5  C4  UNL d   1       1.606   0.500  -0.366  0.00  0.00    -0.007 A 
ATOM      6  C5  UNL d   1       0.216   0.547  -0.273  0.00  0.00     0.039 A 
ENDROOT
BRANCH   4   7
ATOM      7  O   UNL d   1       3.610  -0.727  -0.549  0.00  0.00    -0.526 OA
ATOM      8  H5  UNL d   1       3.915  -1.646  -0.632  0.00  0.00     0.418 HD
ENDBRANCH   4   7
TORSDOF 1
ENDMDL
