MODEL 1
REMARK minimizedAffinity -3.98952293
REMARK minimizedRMSD -1
REMARK  1 active torsions:
REMARK  status: ('A' for Active; 'I' for Inactive)
REMARK    1  A    between atoms: C3_4  and  O_7 
ROOT
ATOM      1  C   UNL d   1       1.022  -1.574  -0.080  0.00  0.00    -0.033 A 
ATOM      2  C1  UNL d   1      -0.045  -0.761   0.306  0.00  0.00     0.039 A 
ATOM      3  C2  UNL d   1      -0.227   0.487  -0.292  0.00  0.00    -0.080 A 
ATOM      4  C3  UNL d   1       0.664   0.910  -1.275  0.00  0.00     0.150 A 
ATOM      5  C4  UNL d   1       1.727   0.103  -1.668  0.00  0.00    -0.007 A 
ATOM      6  C5  UNL d   1       1.907  -1.143  -1.069  0.00  0.00     0.039 A 
ENDROOT
BRANCH   4   7
ATOM      7  O   UNL d   1       0.531   2.122  -1.884  0.00  0.00    -0.526 OA
ATOM      8  H5  UNL d   1      -0.230   2.582  -1.492  0.00  0.00     0.418 HD
ENDBRANCH   4   7
TORSDOF 1
ENDMDL
