MODEL 1
REMARK minimizedAffinity -2.78984284
REMARK minimizedRMSD -1
REMARK  1 active torsions:
REMARK  status: ('A' for Active; 'I' for Inactive)
REMARK    1  A    between atoms: C3_4  and  O_7 
ROOT
ATOM      1  C   UNL d   1       5.810  -2.137   4.803  0.00  0.00    -0.033 A 
ATOM      2  C1  UNL d   1       5.615  -1.437   5.996  0.00  0.00     0.039 A 
ATOM      3  C2  UNL d   1       5.598  -0.041   5.994  0.00  0.00    -0.080 A 
ATOM      4  C3  UNL d   1       5.777   0.642   4.794  0.00  0.00     0.150 A 
ATOM      5  C4  UNL d   1       5.968  -0.048   3.602  0.00  0.00    -0.007 A 
ATOM      6  C5  UNL d   1       5.985  -1.442   3.606  0.00  0.00     0.039 A 
ENDROOT
BRANCH   4   7
ATOM      7  O   UNL d   1       5.773   2.005   4.743  0.00  0.00    -0.526 OA
ATOM      8  H5  UNL d   1       5.659   2.346   5.646  0.00  0.00     0.418 HD
ENDBRANCH   4   7
TORSDOF 1
ENDMDL
