MODEL 1
REMARK minimizedAffinity -3.96827722
REMARK minimizedRMSD -1
REMARK  1 active torsions:
REMARK  status: ('A' for Active; 'I' for Inactive)
REMARK    1  A    between atoms: C3_4  and  O_7 
ROOT
ATOM      1  C   UNL d   1       2.661  -1.028  -0.451  0.00  0.00    -0.033 A 
ATOM      2  C1  UNL d   1       2.460   0.349  -0.568  0.00  0.00     0.039 A 
ATOM      3  C2  UNL d   1       1.216   0.903  -0.260  0.00  0.00    -0.080 A 
ATOM      4  C3  UNL d   1       0.184   0.071   0.165  0.00  0.00     0.150 A 
ATOM      5  C4  UNL d   1       0.378  -1.301   0.287  0.00  0.00    -0.007 A 
ATOM      6  C5  UNL d   1       1.621  -1.853  -0.022  0.00  0.00     0.039 A 
ENDROOT
BRANCH   4   7
ATOM      7  O   UNL d   1      -1.049   0.566   0.472  0.00  0.00    -0.526 OA
ATOM      8  H5  UNL d   1      -1.044   1.524   0.313  0.00  0.00     0.418 HD
ENDBRANCH   4   7
TORSDOF 1
ENDMDL
