MODEL 1
REMARK minimizedAffinity -0.670865059
REMARK minimizedRMSD -1
REMARK  1 active torsions:
REMARK  status: ('A' for Active; 'I' for Inactive)
REMARK    1  A    between atoms: C3_4  and  O_7 
ROOT
ATOM      1  C   UNL d   1      -0.761  -0.014   0.467  0.00  0.00    -0.033 A 
ATOM      2  C1  UNL d   1       0.054   0.815  -0.306  0.00  0.00     0.039 A 
ATOM      3  C2  UNL d   1       1.168   0.287  -0.962  0.00  0.00    -0.080 A 
ATOM      4  C3  UNL d   1       1.454  -1.069  -0.838  0.00  0.00     0.150 A 
ATOM      5  C4  UNL d   1       0.644  -1.902  -0.072  0.00  0.00    -0.007 A 
ATOM      6  C5  UNL d   1      -0.467  -1.372   0.583  0.00  0.00     0.039 A 
ENDROOT
BRANCH   4   7
ATOM      7  O   UNL d   1       2.533  -1.629  -1.456  0.00  0.00    -0.526 OA
ATOM      8  H5  UNL d   1       3.016  -0.929  -1.925  0.00  0.00     0.418 HD
ENDBRANCH   4   7
TORSDOF 1
ENDMDL
