MODEL 1
REMARK minimizedAffinity -4.97415113
REMARK minimizedRMSD -1
REMARK  1 active torsions:
REMARK  status: ('A' for Active; 'I' for Inactive)
REMARK    1  A    between atoms: C3_4  and  O_7 
ROOT
ATOM      1  C   UNL d   1      -0.259  -0.758  -0.150  0.00  0.00    -0.033 A 
ATOM      2  C1  UNL d   1       0.349   0.413  -0.607  0.00  0.00     0.039 A 
ATOM      3  C2  UNL d   1       1.713   0.422  -0.908  0.00  0.00    -0.080 A 
ATOM      4  C3  UNL d   1       2.455  -0.745  -0.749  0.00  0.00     0.150 A 
ATOM      5  C4  UNL d   1       1.854  -1.916  -0.299  0.00  0.00    -0.007 A 
ATOM      6  C5  UNL d   1       0.493  -1.923   0.002  0.00  0.00     0.039 A 
ENDROOT
BRANCH   4   7
ATOM      7  O   UNL d   1       3.789  -0.784  -1.026  0.00  0.00    -0.526 OA
ATOM      8  H5  UNL d   1       4.073   0.104  -1.300  0.00  0.00     0.418 HD
ENDBRANCH   4   7
TORSDOF 1
ENDMDL
