MODEL 1
REMARK minimizedAffinity -4.37915421
REMARK minimizedRMSD -1
REMARK  1 active torsions:
REMARK  status: ('A' for Active; 'I' for Inactive)
REMARK    1  A    between atoms: C3_4  and  O_7 
ROOT
ATOM      1  C   UNL d   1       0.056  -0.507  -0.255  0.00  0.00    -0.033 A 
ATOM      2  C1  UNL d   1       0.450  -1.495  -1.160  0.00  0.00     0.039 A 
ATOM      3  C2  UNL d   1       1.733  -1.468  -1.711  0.00  0.00    -0.080 A 
ATOM      4  C3  UNL d   1       2.611  -0.450  -1.349  0.00  0.00     0.150 A 
ATOM      5  C4  UNL d   1       2.227   0.535  -0.445  0.00  0.00    -0.007 A 
ATOM      6  C5  UNL d   1       0.945   0.507   0.103  0.00  0.00     0.039 A 
ENDROOT
BRANCH   4   7
ATOM      7  O   UNL d   1       3.871  -0.379  -1.864  0.00  0.00    -0.526 OA
ATOM      8  H5  UNL d   1       3.987  -1.109  -2.496  0.00  0.00     0.418 HD
ENDBRANCH   4   7
TORSDOF 1
ENDMDL
