MODEL 1
REMARK minimizedAffinity -3.7961688
REMARK minimizedRMSD -1
REMARK  1 active torsions:
REMARK  status: ('A' for Active; 'I' for Inactive)
REMARK    1  A    between atoms: C3_4  and  O_7 
ROOT
ATOM      1  C   UNL d   1      -0.742  -0.804   0.090  0.00  0.00    -0.033 A 
ATOM      2  C1  UNL d   1      -0.212   0.273  -0.623  0.00  0.00     0.039 A 
ATOM      3  C2  UNL d   1       1.136   0.275  -0.987  0.00  0.00    -0.080 A 
ATOM      4  C3  UNL d   1       1.941  -0.803  -0.633  0.00  0.00     0.150 A 
ATOM      5  C4  UNL d   1       1.419  -1.881   0.075  0.00  0.00    -0.007 A 
ATOM      6  C5  UNL d   1       0.073  -1.881   0.438  0.00  0.00     0.039 A 
ENDROOT
BRANCH   4   7
ATOM      7  O   UNL d   1       3.264  -0.844  -0.962  0.00  0.00    -0.526 OA
ATOM      8  H5  UNL d   1       3.491  -0.019  -1.424  0.00  0.00     0.418 HD
ENDBRANCH   4   7
TORSDOF 1
ENDMDL
