MODEL 1
REMARK minimizedAffinity -3.63041592
REMARK minimizedRMSD -1
REMARK  1 active torsions:
REMARK  status: ('A' for Active; 'I' for Inactive)
REMARK    1  A    between atoms: C3_4  and  O_7 
ROOT
ATOM      1  C   UNL d   1       3.003  -0.512  -1.662  0.00  0.00    -0.033 A 
ATOM      2  C1  UNL d   1       2.838   0.634  -0.882  0.00  0.00     0.039 A 
ATOM      3  C2  UNL d   1       1.677   0.805  -0.125  0.00  0.00    -0.080 A 
ATOM      4  C3  UNL d   1       0.691  -0.177  -0.156  0.00  0.00     0.150 A 
ATOM      5  C4  UNL d   1       0.850  -1.323  -0.928  0.00  0.00    -0.007 A 
ATOM      6  C5  UNL d   1       2.009  -1.491  -1.683  0.00  0.00     0.039 A 
ENDROOT
BRANCH   4   7
ATOM      7  O   UNL d   1      -0.461  -0.052   0.562  0.00  0.00    -0.526 OA
ATOM      8  H5  UNL d   1      -0.445   0.803   1.025  0.00  0.00     0.418 HD
ENDBRANCH   4   7
TORSDOF 1
ENDMDL
