MODEL 1
REMARK minimizedAffinity -4.00609159
REMARK minimizedRMSD -1
REMARK  1 active torsions:
REMARK  status: ('A' for Active; 'I' for Inactive)
REMARK    1  A    between atoms: C3_4  and  O_7 
ROOT
ATOM      1  C   UNL d   1      -3.288   0.670   2.542  0.00  0.00    -0.033 A 
ATOM      2  C1  UNL d   1      -3.294  -0.107   1.383  0.00  0.00     0.039 A 
ATOM      3  C2  UNL d   1      -2.290   0.053   0.426  0.00  0.00    -0.080 A 
ATOM      4  C3  UNL d   1      -1.285   0.993   0.642  0.00  0.00     0.150 A 
ATOM      5  C4  UNL d   1      -1.270   1.768   1.797  0.00  0.00    -0.007 A 
ATOM      6  C5  UNL d   1      -2.275   1.607   2.750  0.00  0.00     0.039 A 
ENDROOT
BRANCH   4   7
ATOM      7  O   UNL d   1      -0.286   1.189  -0.265  0.00  0.00    -0.526 OA
ATOM      8  H5  UNL d   1      -0.442   0.604  -1.025  0.00  0.00     0.418 HD
ENDBRANCH   4   7
TORSDOF 1
ENDMDL
