MODEL 1
REMARK minimizedAffinity -5.45254564
REMARK minimizedRMSD -1
REMARK  2 active torsions:
REMARK  status: ('A' for Active; 'I' for Inactive)
REMARK    1  A    between atoms: C1_2  and  C2_3 
REMARK    2  A    between atoms: C2_3  and  C3_4 
ROOT
ATOM      1  C3  UNL d   1      -0.052   0.286  -0.010  0.00  0.00    -0.075 A 
ATOM      2  C4  UNL d   1      -1.087   1.089   0.492  0.00  0.00     0.002 A 
ATOM      3  C5  UNL d   1      -1.004   2.480   0.418  0.00  0.00     0.002 A 
ATOM      4  C6  UNL d   1       0.116   3.084  -0.148  0.00  0.00    -0.004 A 
ATOM      5  C7  UNL d   1       1.157   2.297  -0.635  0.00  0.00     0.002 A 
ATOM      6  C8  UNL d   1       1.075   0.905  -0.566  0.00  0.00     0.002 A 
ENDROOT
BRANCH   1   7
ATOM      7  C2  UNL d   1      -0.149  -1.220   0.041  0.00  0.00     0.056 C 
BRANCH   7   8
ATOM      8  C1  UNL d   1      -0.002  -1.901  -1.324  0.00  0.00     0.007 C 
ATOM      9  C   UNL d   1      -1.219  -2.728  -1.716  0.00  0.00     0.009 C 
ENDBRANCH   7   8
ENDBRANCH   1   7
TORSDOF 2
ENDMDL
