MODEL 1
REMARK minimizedAffinity -3.49226618
REMARK minimizedRMSD -1
REMARK  2 active torsions:
REMARK  status: ('A' for Active; 'I' for Inactive)
REMARK    1  A    between atoms: C1_2  and  C2_3 
REMARK    2  A    between atoms: C2_3  and  C3_4 
ROOT
ATOM      1  C3  UNL d   1      -0.060   0.413   0.134  0.00  0.00    -0.075 A 
ATOM      2  C4  UNL d   1       0.673   1.043  -0.883  0.00  0.00     0.002 A 
ATOM      3  C5  UNL d   1       0.962   2.405  -0.808  0.00  0.00     0.002 A 
ATOM      4  C6  UNL d   1       0.515   3.157   0.277  0.00  0.00    -0.004 A 
ATOM      5  C7  UNL d   1      -0.228   2.545   1.284  0.00  0.00     0.002 A 
ATOM      6  C8  UNL d   1      -0.515   1.181   1.214  0.00  0.00     0.002 A 
ENDROOT
BRANCH   1   7
ATOM      7  C2  UNL d   1      -0.351  -1.067   0.073  0.00  0.00     0.056 C 
BRANCH   7   8
ATOM      8  C1  UNL d   1      -0.225  -1.671  -1.330  0.00  0.00     0.007 C 
ATOM      9  C   UNL d   1      -1.008  -2.966  -1.499  0.00  0.00     0.009 C 
ENDBRANCH   7   8
ENDBRANCH   1   7
TORSDOF 2
ENDMDL
