MODEL 1
REMARK minimizedAffinity -6.17636204
REMARK minimizedRMSD -1
REMARK  2 active torsions:
REMARK  status: ('A' for Active; 'I' for Inactive)
REMARK    1  A    between atoms: C1_2  and  C2_3 
REMARK    2  A    between atoms: C2_3  and  C3_4 
ROOT
ATOM      1  C3  UNL d   1       0.205   0.303  -0.067  0.00  0.00    -0.075 A 
ATOM      2  C4  UNL d   1      -0.839   0.982   0.579  0.00  0.00     0.002 A 
ATOM      3  C5  UNL d   1      -0.891   2.376   0.566  0.00  0.00     0.002 A 
ATOM      4  C6  UNL d   1       0.102   3.108  -0.081  0.00  0.00    -0.004 A 
ATOM      5  C7  UNL d   1       1.152   2.444  -0.712  0.00  0.00     0.002 A 
ATOM      6  C8  UNL d   1       1.205   1.049  -0.704  0.00  0.00     0.002 A 
ENDROOT
BRANCH   1   7
ATOM      7  C2  UNL d   1       0.251  -1.206  -0.082  0.00  0.00     0.056 C 
BRANCH   7   8
ATOM      8  C1  UNL d   1      -0.717  -1.850  -1.080  0.00  0.00     0.007 C 
ATOM      9  C   UNL d   1      -0.021  -2.433  -2.302  0.00  0.00     0.009 C 
ENDBRANCH   7   8
ENDBRANCH   1   7
TORSDOF 2
ENDMDL
