MODEL 1
REMARK minimizedAffinity -6.2965703
REMARK minimizedRMSD -1
REMARK  2 active torsions:
REMARK  status: ('A' for Active; 'I' for Inactive)
REMARK    1  A    between atoms: C1_2  and  C2_3 
REMARK    2  A    between atoms: C2_3  and  C3_4 
ROOT
ATOM      1  C3  UNL d   1      -0.068  -0.015   0.000  0.00  0.00    -0.075 A 
ATOM      2  C4  UNL d   1      -1.054   0.671   0.723  0.00  0.00     0.002 A 
ATOM      3  C5  UNL d   1      -1.007   2.060   0.845  0.00  0.00     0.002 A 
ATOM      4  C6  UNL d   1       0.031   2.778   0.256  0.00  0.00    -0.004 A 
ATOM      5  C7  UNL d   1       1.026   2.105  -0.451  0.00  0.00     0.002 A 
ATOM      6  C8  UNL d   1       0.978   0.716  -0.578  0.00  0.00     0.002 A 
ENDROOT
BRANCH   1   7
ATOM      7  C2  UNL d   1      -0.130  -1.516  -0.160  0.00  0.00     0.056 C 
BRANCH   7   8
ATOM      8  C1  UNL d   1      -0.084  -1.990  -1.616  0.00  0.00     0.007 C 
ATOM      9  C   UNL d   1      -0.726  -3.355  -1.824  0.00  0.00     0.009 C 
ENDBRANCH   7   8
ENDBRANCH   1   7
TORSDOF 2
ENDMDL
