MODEL 1
REMARK minimizedAffinity -6.41788816
REMARK minimizedRMSD -1
REMARK  2 active torsions:
REMARK  status: ('A' for Active; 'I' for Inactive)
REMARK    1  A    between atoms: C1_2  and  C2_3 
REMARK    2  A    between atoms: C2_3  and  C3_4 
ROOT
ATOM      1  C3  UNL d   1       0.273   1.969   0.480  0.00  0.00    -0.075 A 
ATOM      2  C4  UNL d   1       0.543   0.612   0.251  0.00  0.00     0.002 A 
ATOM      3  C5  UNL d   1      -0.494  -0.321   0.219  0.00  0.00     0.002 A 
ATOM      4  C6  UNL d   1      -1.810   0.088   0.424  0.00  0.00    -0.004 A 
ATOM      5  C7  UNL d   1      -2.088   1.431   0.669  0.00  0.00     0.002 A 
ATOM      6  C8  UNL d   1      -1.052   2.367   0.697  0.00  0.00     0.002 A 
ENDROOT
BRANCH   1   7
ATOM      7  C2  UNL d   1       1.388   2.988   0.486  0.00  0.00     0.056 C 
BRANCH   7   8
ATOM      8  C1  UNL d   1       2.628   2.550   1.273  0.00  0.00     0.007 C 
ATOM      9  C   UNL d   1       3.598   1.714   0.449  0.00  0.00     0.009 C 
ENDBRANCH   7   8
ENDBRANCH   1   7
TORSDOF 2
ENDMDL
