MODEL 1
REMARK minimizedAffinity -3.09452343
REMARK minimizedRMSD -1
REMARK  2 active torsions:
REMARK  status: ('A' for Active; 'I' for Inactive)
REMARK    1  A    between atoms: C1_2  and  C2_3 
REMARK    2  A    between atoms: C2_3  and  C3_4 
ROOT
ATOM      1  C3  UNL d   1      -0.341  -2.095  -0.672  0.00  0.00    -0.075 A 
ATOM      2  C4  UNL d   1       0.533  -2.104  -1.769  0.00  0.00     0.002 A 
ATOM      3  C5  UNL d   1       0.333  -2.990  -2.827  0.00  0.00     0.002 A 
ATOM      4  C6  UNL d   1      -0.735  -3.885  -2.798  0.00  0.00    -0.004 A 
ATOM      5  C7  UNL d   1      -1.599  -3.897  -1.706  0.00  0.00     0.002 A 
ATOM      6  C8  UNL d   1      -1.404  -3.008  -0.648  0.00  0.00     0.002 A 
ENDROOT
BRANCH   1   7
ATOM      7  C2  UNL d   1      -0.147  -1.118   0.463  0.00  0.00     0.056 C 
BRANCH   7   8
ATOM      8  C1  UNL d   1      -0.191   0.352   0.035  0.00  0.00     0.007 C 
ATOM      9  C   UNL d   1      -1.577   0.971   0.153  0.00  0.00     0.009 C 
ENDBRANCH   7   8
ENDBRANCH   1   7
TORSDOF 2
ENDMDL
