MODEL 1
REMARK minimizedAffinity -1.98702812
REMARK minimizedRMSD -1
REMARK  2 active torsions:
REMARK  status: ('A' for Active; 'I' for Inactive)
REMARK    1  A    between atoms: C1_2  and  C2_3 
REMARK    2  A    between atoms: C2_3  and  C3_4 
ROOT
ATOM      1  C3  UNL d   1      -0.060   0.156  -0.760  0.00  0.00    -0.075 A 
ATOM      2  C4  UNL d   1      -0.655   0.245   0.506  0.00  0.00     0.002 A 
ATOM      3  C5  UNL d   1      -0.832   1.485   1.121  0.00  0.00     0.002 A 
ATOM      4  C6  UNL d   1      -0.407   2.648   0.483  0.00  0.00    -0.004 A 
ATOM      5  C7  UNL d   1       0.201   2.570  -0.768  0.00  0.00     0.002 A 
ATOM      6  C8  UNL d   1       0.375   1.331  -1.387  0.00  0.00     0.002 A 
ENDROOT
BRANCH   1   7
ATOM      7  C2  UNL d   1       0.107  -1.180  -1.444  0.00  0.00     0.056 C 
BRANCH   7   8
ATOM      8  C1  UNL d   1      -1.148  -2.058  -1.412  0.00  0.00     0.007 C 
ATOM      9  C   UNL d   1      -0.967  -3.391  -2.126  0.00  0.00     0.009 C 
ENDBRANCH   7   8
ENDBRANCH   1   7
TORSDOF 2
ENDMDL
