MODEL 1
REMARK minimizedAffinity -3.77392197
REMARK minimizedRMSD -1
REMARK  2 active torsions:
REMARK  status: ('A' for Active; 'I' for Inactive)
REMARK    1  A    between atoms: C1_2  and  C2_3 
REMARK    2  A    between atoms: C2_3  and  C3_4 
ROOT
ATOM      1  C3  UNL d   1      -0.188  -1.720  -0.440  0.00  0.00    -0.075 A 
ATOM      2  C4  UNL d   1       0.607  -1.998  -1.562  0.00  0.00     0.002 A 
ATOM      3  C5  UNL d   1       0.351  -3.119  -2.351  0.00  0.00     0.002 A 
ATOM      4  C6  UNL d   1      -0.695  -3.980  -2.025  0.00  0.00    -0.004 A 
ATOM      5  C7  UNL d   1      -1.480  -3.723  -0.904  0.00  0.00     0.002 A 
ATOM      6  C8  UNL d   1      -1.229  -2.600  -0.114  0.00  0.00     0.002 A 
ENDROOT
BRANCH   1   7
ATOM      7  C2  UNL d   1       0.066  -0.492   0.402  0.00  0.00     0.056 C 
BRANCH   7   8
ATOM      8  C1  UNL d   1      -1.074   0.531   0.372  0.00  0.00     0.007 C 
ATOM      9  C   UNL d   1      -0.614   1.951   0.677  0.00  0.00     0.009 C 
ENDBRANCH   7   8
ENDBRANCH   1   7
TORSDOF 2
ENDMDL
