MODEL 1
REMARK minimizedAffinity -3.75543141
REMARK minimizedRMSD -1
REMARK  3 active torsions:
REMARK  status: ('A' for Active; 'I' for Inactive)
REMARK    1  A    between atoms: C3'_2  and  C2'_3 
REMARK    2  A    between atoms: C2'_3  and  C1'_4 
REMARK    3  A    between atoms: C1'_4  and  C1_5 
ROOT
ATOM      1  C1  N4B d   1      -2.486   0.646   1.085  0.00  0.00    -0.075 A 
ATOM      2  C2  N4B d   1      -2.386  -0.757   0.956  0.00  0.00     0.002 A 
ATOM      3  C3  N4B d   1      -2.375  -1.550   2.077  0.00  0.00     0.002 A 
ATOM      4  C4  N4B d   1      -2.444  -0.965   3.333  0.00  0.00    -0.004 A 
ATOM      5  C5  N4B d   1      -2.565   0.389   3.448  0.00  0.00     0.002 A 
ATOM      6  C6  N4B d   1      -2.582   1.199   2.330  0.00  0.00     0.002 A 
ENDROOT
BRANCH   1   7
ATOM      7  C1' N4B d   1      -2.416   1.560  -0.107  0.00  0.00     0.057 C 
BRANCH   7   8
ATOM      8  C2' N4B d   1      -0.954   1.872  -0.414  0.00  0.00     0.009 C 
BRANCH   8   9
ATOM      9  C3' N4B d   1      -0.333   0.836  -1.335  0.00  0.00     0.004 C 
ATOM     10  C4' N4B d   1       0.336   1.448  -2.530  0.00  0.00     0.003 C 
ENDBRANCH   8   9
ENDBRANCH   7   8
ENDBRANCH   1   7
TORSDOF 3
ENDMDL
