MODEL 1
REMARK minimizedAffinity 2.55164361
REMARK minimizedRMSD -1
REMARK  3 active torsions:
REMARK  status: ('A' for Active; 'I' for Inactive)
REMARK    1  A    between atoms: C3'_2  and  C2'_3 
REMARK    2  A    between atoms: C2'_3  and  C1'_4 
REMARK    3  A    between atoms: C1'_4  and  C1_5 
ROOT
ATOM      1  C1  N4B d   1       4.823   0.682   4.325  0.00  0.00    -0.075 A 
ATOM      2  C2  N4B d   1       3.610   0.071   4.714  0.00  0.00     0.002 A 
ATOM      3  C3  N4B d   1       3.617  -1.203   5.227  0.00  0.00     0.002 A 
ATOM      4  C4  N4B d   1       4.817  -1.889   5.343  0.00  0.00    -0.004 A 
ATOM      5  C5  N4B d   1       5.986  -1.283   4.989  0.00  0.00     0.002 A 
ATOM      6  C6  N4B d   1       5.995  -0.001   4.475  0.00  0.00     0.002 A 
ENDROOT
BRANCH   1   7
ATOM      7  C1' N4B d   1       4.856   2.040   3.680  0.00  0.00     0.057 C 
BRANCH   7   8
ATOM      8  C2' N4B d   1       5.967   2.870   4.316  0.00  0.00     0.009 C 
BRANCH   8   9
ATOM      9  C3' N4B d   1       5.901   4.327   3.892  0.00  0.00     0.004 C 
ATOM     10  C4' N4B d   1       5.939   5.273   5.055  0.00  0.00     0.003 C 
ENDBRANCH   8   9
ENDBRANCH   7   8
ENDBRANCH   1   7
TORSDOF 3
ENDMDL
