MODEL 1
REMARK minimizedAffinity 5.26347923
REMARK minimizedRMSD -1
REMARK  3 active torsions:
REMARK  status: ('A' for Active; 'I' for Inactive)
REMARK    1  A    between atoms: C3'_2  and  C2'_3 
REMARK    2  A    between atoms: C2'_3  and  C1'_4 
REMARK    3  A    between atoms: C1'_4  and  C1_5 
ROOT
ATOM      1  C1  N4B d   1       5.194   0.658   3.315  0.00  0.00    -0.075 A 
ATOM      2  C2  N4B d   1       5.953   1.533   4.123  0.00  0.00     0.002 A 
ATOM      3  C3  N4B d   1       6.000   2.873   3.828  0.00  0.00     0.002 A 
ATOM      4  C4  N4B d   1       5.315   3.357   2.723  0.00  0.00    -0.004 A 
ATOM      5  C5  N4B d   1       4.564   2.509   1.962  0.00  0.00     0.002 A 
ATOM      6  C6  N4B d   1       4.504   1.160   2.250  0.00  0.00     0.002 A 
ENDROOT
BRANCH   1   7
ATOM      7  C1' N4B d   1       5.181  -0.828   3.548  0.00  0.00     0.057 C 
BRANCH   7   8
ATOM      8  C2' N4B d   1       4.451  -1.509   2.395  0.00  0.00     0.009 C 
BRANCH   8   9
ATOM      9  C3' N4B d   1       3.314  -2.391   2.883  0.00  0.00     0.004 C 
ATOM     10  C4' N4B d   1       2.733  -1.921   4.184  0.00  0.00     0.003 C 
ENDBRANCH   8   9
ENDBRANCH   7   8
ENDBRANCH   1   7
TORSDOF 3
ENDMDL
