MODEL 1
REMARK minimizedAffinity -0.666693509
REMARK minimizedRMSD -1
REMARK  3 active torsions:
REMARK  status: ('A' for Active; 'I' for Inactive)
REMARK    1  A    between atoms: C3'_2  and  C2'_3 
REMARK    2  A    between atoms: C2'_3  and  C1'_4 
REMARK    3  A    between atoms: C1'_4  and  C1_5 
ROOT
ATOM      1  C1  N4B d   1      -3.037   1.500   0.793  0.00  0.00    -0.075 A 
ATOM      2  C2  N4B d   1      -3.942   1.772  -0.256  0.00  0.00     0.002 A 
ATOM      3  C3  N4B d   1      -4.245   3.071  -0.582  0.00  0.00     0.002 A 
ATOM      4  C4  N4B d   1      -3.672   4.110   0.136  0.00  0.00    -0.004 A 
ATOM      5  C5  N4B d   1      -2.779   3.839   1.131  0.00  0.00     0.002 A 
ATOM      6  C6  N4B d   1      -2.462   2.538   1.467  0.00  0.00     0.002 A 
ENDROOT
BRANCH   1   7
ATOM      7  C1' N4B d   1      -2.741   0.095   1.242  0.00  0.00     0.057 C 
BRANCH   7   8
ATOM      8  C2' N4B d   1      -2.505   0.090   2.749  0.00  0.00     0.009 C 
BRANCH   8   9
ATOM      9  C3' N4B d   1      -2.946  -1.215   3.389  0.00  0.00     0.004 C 
ATOM     10  C4' N4B d   1      -4.259  -1.098   4.103  0.00  0.00     0.003 C 
ENDBRANCH   8   9
ENDBRANCH   7   8
ENDBRANCH   1   7
TORSDOF 3
ENDMDL
