MODEL 1
REMARK minimizedAffinity 4.29304934
REMARK minimizedRMSD -1
REMARK  3 active torsions:
REMARK  status: ('A' for Active; 'I' for Inactive)
REMARK    1  A    between atoms: C3'_2  and  C2'_3 
REMARK    2  A    between atoms: C2'_3  and  C1'_4 
REMARK    3  A    between atoms: C1'_4  and  C1_5 
ROOT
ATOM      1  C1  N4B d   1       3.787   0.071   3.583  0.00  0.00    -0.075 A 
ATOM      2  C2  N4B d   1       3.374   1.067   2.670  0.00  0.00     0.002 A 
ATOM      3  C3  N4B d   1       4.045   2.264   2.611  0.00  0.00     0.002 A 
ATOM      4  C4  N4B d   1       5.115   2.493   3.463  0.00  0.00    -0.004 A 
ATOM      5  C5  N4B d   1       5.522   1.517   4.324  0.00  0.00     0.002 A 
ATOM      6  C6  N4B d   1       4.860   0.308   4.391  0.00  0.00     0.002 A 
ENDROOT
BRANCH   1   7
ATOM      7  C1' N4B d   1       3.031  -1.220   3.744  0.00  0.00     0.057 C 
BRANCH   7   8
ATOM      8  C2' N4B d   1       2.946  -1.923   2.392  0.00  0.00     0.009 C 
BRANCH   8   9
ATOM      9  C3' N4B d   1       2.215  -3.251   2.487  0.00  0.00     0.004 C 
ATOM     10  C4' N4B d   1       1.430  -3.571   1.250  0.00  0.00     0.003 C 
ENDBRANCH   8   9
ENDBRANCH   7   8
ENDBRANCH   1   7
TORSDOF 3
ENDMDL
