MODEL 1
REMARK minimizedAffinity -0.595928729
REMARK minimizedRMSD -1
REMARK  3 active torsions:
REMARK  status: ('A' for Active; 'I' for Inactive)
REMARK    1  A    between atoms: C3'_2  and  C2'_3 
REMARK    2  A    between atoms: C2'_3  and  C1'_4 
REMARK    3  A    between atoms: C1'_4  and  C1_5 
ROOT
ATOM      1  C1  N4B d   1       0.990  -3.062  -1.089  0.00  0.00    -0.075 A 
ATOM      2  C2  N4B d   1       1.638  -3.864  -0.124  0.00  0.00     0.002 A 
ATOM      3  C3  N4B d   1       0.952  -4.294   0.984  0.00  0.00     0.002 A 
ATOM      4  C4  N4B d   1      -0.373  -3.923   1.158  0.00  0.00    -0.004 A 
ATOM      5  C5  N4B d   1      -1.000  -3.170   0.208  0.00  0.00     0.002 A 
ATOM      6  C6  N4B d   1      -0.323  -2.733  -0.913  0.00  0.00     0.002 A 
ENDROOT
BRANCH   1   7
ATOM      7  C1' N4B d   1       1.723  -2.496  -2.274  0.00  0.00     0.057 C 
BRANCH   7   8
ATOM      8  C2' N4B d   1       0.767  -1.629  -3.088  0.00  0.00     0.009 C 
BRANCH   8   9
ATOM      9  C3' N4B d   1       1.254  -0.194  -3.195  0.00  0.00     0.004 C 
ATOM     10  C4' N4B d   1       0.379   0.773  -2.454  0.00  0.00     0.003 C 
ENDBRANCH   8   9
ENDBRANCH   7   8
ENDBRANCH   1   7
TORSDOF 3
ENDMDL
