MODEL 1
REMARK minimizedAffinity 12.4511871
REMARK minimizedRMSD -1
REMARK  0 active torsions:
REMARK  status: ('A' for Active; 'I' for Inactive)
ROOT
ATOM      1  C2' OXE d   1      -1.634   3.176  -5.855  0.00  0.00     0.078 C 
ATOM      2  C1' OXE d   1      -3.693   1.269  -5.812  0.00  0.00     0.078 C 
ATOM      3  C1  OXE d   1      -4.083   2.724  -5.875  0.00  0.00    -0.078 A 
ATOM      4  C2  OXE d   1      -3.070   3.652  -5.848  0.00  0.00    -0.078 A 
ATOM      5  C3  OXE d   1      -3.373   5.006  -5.959  0.00  0.00     0.003 A 
ATOM      6  C4  OXE d   1      -4.704   5.439  -5.942  0.00  0.00    -0.002 A 
ATOM      7  C5  OXE d   1      -5.752   4.512  -5.929  0.00  0.00    -0.002 A 
ATOM      8  C6  OXE d   1      -5.459   3.152  -5.938  0.00  0.00     0.003 A 
ENDROOT
TORSDOF 0
ENDMDL
