MODEL 1
REMARK minimizedAffinity 11.0551863
REMARK minimizedRMSD -1
REMARK  0 active torsions:
REMARK  status: ('A' for Active; 'I' for Inactive)
ROOT
ATOM      1  C2' OXE d   1       2.294   0.752   6.000  0.00  0.00     0.078 C 
ATOM      2  C1' OXE d   1       3.596   3.238   5.993  0.00  0.00     0.078 C 
ATOM      3  C1  OXE d   1       3.136   2.682   4.669  0.00  0.00    -0.078 A 
ATOM      4  C2  OXE d   1       2.541   1.443   4.676  0.00  0.00    -0.078 A 
ATOM      5  C3  OXE d   1       2.049   0.908   3.490  0.00  0.00     0.003 A 
ATOM      6  C4  OXE d   1       2.290   1.549   2.269  0.00  0.00    -0.002 A 
ATOM      7  C5  OXE d   1       2.929   2.793   2.234  0.00  0.00    -0.002 A 
ATOM      8  C6  OXE d   1       3.319   3.392   3.427  0.00  0.00     0.003 A 
ENDROOT
TORSDOF 0
ENDMDL
