MODEL 1
REMARK minimizedAffinity 13.691431
REMARK minimizedRMSD -1
REMARK  0 active torsions:
REMARK  status: ('A' for Active; 'I' for Inactive)
ROOT
ATOM      1  C2' OXE d   1       2.637  -4.584  -0.636  0.00  0.00     0.078 C 
ATOM      2  C1' OXE d   1       0.383  -4.105  -2.238  0.00  0.00     0.078 C 
ATOM      3  C1  OXE d   1       1.190  -2.914  -1.786  0.00  0.00    -0.078 A 
ATOM      4  C2  OXE d   1       2.264  -3.154  -0.963  0.00  0.00    -0.078 A 
ATOM      5  C3  OXE d   1       3.075  -2.096  -0.561  0.00  0.00     0.003 A 
ATOM      6  C4  OXE d   1       2.717  -0.776  -0.860  0.00  0.00    -0.002 A 
ATOM      7  C5  OXE d   1       1.604  -0.506  -1.664  0.00  0.00    -0.002 A 
ATOM      8  C6  OXE d   1       0.856  -1.564  -2.169  0.00  0.00     0.003 A 
ENDROOT
TORSDOF 0
ENDMDL
