MODEL 1
REMARK minimizedAffinity 15.4658556
REMARK minimizedRMSD -1
REMARK  0 active torsions:
REMARK  status: ('A' for Active; 'I' for Inactive)
ROOT
ATOM      1  C2' OXE d   1       1.917  -5.978  -1.879  0.00  0.00     0.078 C 
ATOM      2  C1' OXE d   1       2.360  -3.606  -0.444  0.00  0.00     0.078 C 
ATOM      3  C1  OXE d   1       3.535  -4.225  -1.160  0.00  0.00    -0.078 A 
ATOM      4  C2  OXE d   1       3.319  -5.410  -1.821  0.00  0.00    -0.078 A 
ATOM      5  C3  OXE d   1       4.355  -5.995  -2.544  0.00  0.00     0.003 A 
ATOM      6  C4  OXE d   1       5.651  -5.469  -2.477  0.00  0.00    -0.002 A 
ATOM      7  C5  OXE d   1       5.901  -4.284  -1.777  0.00  0.00    -0.002 A 
ATOM      8  C6  OXE d   1       4.847  -3.628  -1.150  0.00  0.00     0.003 A 
ENDROOT
TORSDOF 0
ENDMDL
