MODEL 1
REMARK minimizedAffinity 8.97859859
REMARK minimizedRMSD -1
REMARK  0 active torsions:
REMARK  status: ('A' for Active; 'I' for Inactive)
ROOT
ATOM      1  C2' OXE d   1      -1.808   3.932   3.071  0.00  0.00     0.078 C 
ATOM      2  C1' OXE d   1      -2.798   1.315   2.846  0.00  0.00     0.078 C 
ATOM      3  C1  OXE d   1      -1.359   1.557   2.466  0.00  0.00    -0.078 A 
ATOM      4  C2  OXE d   1      -0.896   2.850   2.535  0.00  0.00    -0.078 A 
ATOM      5  C3  OXE d   1       0.439   3.120   2.248  0.00  0.00     0.003 A 
ATOM      6  C4  OXE d   1       1.273   2.115   1.743  0.00  0.00    -0.002 A 
ATOM      7  C5  OXE d   1       0.811   0.800   1.628  0.00  0.00    -0.002 A 
ATOM      8  C6  OXE d   1      -0.487   0.497   2.024  0.00  0.00     0.003 A 
ENDROOT
TORSDOF 0
ENDMDL
