MODEL 1
REMARK minimizedAffinity 2.03905535
REMARK minimizedRMSD -1
REMARK  0 active torsions:
REMARK  status: ('A' for Active; 'I' for Inactive)
ROOT
ATOM      1  C2' OXE d   1       0.852   0.816  -3.063  0.00  0.00     0.078 C 
ATOM      2  C1' OXE d   1       0.343  -1.752  -2.049  0.00  0.00     0.078 C 
ATOM      3  C1  OXE d   1       1.539  -1.007  -1.510  0.00  0.00    -0.078 A 
ATOM      4  C2  OXE d   1       1.807   0.229  -2.045  0.00  0.00    -0.078 A 
ATOM      5  C3  OXE d   1       2.866   0.982  -1.545  0.00  0.00     0.003 A 
ATOM      6  C4  OXE d   1       3.751   0.428  -0.612  0.00  0.00    -0.002 A 
ATOM      7  C5  OXE d   1       3.518  -0.846  -0.082  0.00  0.00    -0.002 A 
ATOM      8  C6  OXE d   1       2.395  -1.558  -0.489  0.00  0.00     0.003 A 
ENDROOT
TORSDOF 0
ENDMDL
