MODEL 1
REMARK minimizedAffinity 14.0122614
REMARK minimizedRMSD -1
REMARK  0 active torsions:
REMARK  status: ('A' for Active; 'I' for Inactive)
ROOT
ATOM      1  C2' OXE d   1       0.138   1.788  -3.771  0.00  0.00     0.078 C 
ATOM      2  C1' OXE d   1       1.447   3.629  -2.105  0.00  0.00     0.078 C 
ATOM      3  C1  OXE d   1       1.707   2.162  -1.873  0.00  0.00    -0.078 A 
ATOM      4  C2  OXE d   1       1.026   1.266  -2.662  0.00  0.00    -0.078 A 
ATOM      5  C3  OXE d   1       1.270  -0.097  -2.526  0.00  0.00     0.003 A 
ATOM      6  C4  OXE d   1       2.086  -0.572  -1.492  0.00  0.00    -0.002 A 
ATOM      7  C5  OXE d   1       2.758   0.322  -0.651  0.00  0.00    -0.002 A 
ATOM      8  C6  OXE d   1       2.613   1.690  -0.855  0.00  0.00     0.003 A 
ENDROOT
TORSDOF 0
ENDMDL
