MODEL 1
REMARK minimizedAffinity 2.47279143
REMARK minimizedRMSD -1
REMARK  0 active torsions:
REMARK  status: ('A' for Active; 'I' for Inactive)
ROOT
ATOM      1  C2' OXE d   1       1.255   0.148   4.884  0.00  0.00     0.078 C 
ATOM      2  C1' OXE d   1       2.592   2.542   5.484  0.00  0.00     0.078 C 
ATOM      3  C1  OXE d   1       2.461   2.154   4.032  0.00  0.00    -0.078 A 
ATOM      4  C2  OXE d   1       1.846   0.958   3.750  0.00  0.00    -0.078 A 
ATOM      5  C3  OXE d   1       1.651   0.579   2.425  0.00  0.00     0.003 A 
ATOM      6  C4  OXE d   1       2.209   1.329   1.383  0.00  0.00    -0.002 A 
ATOM      7  C5  OXE d   1       2.874   2.530   1.651  0.00  0.00    -0.002 A 
ATOM      8  C6  OXE d   1       2.971   2.978   2.964  0.00  0.00     0.003 A 
ENDROOT
TORSDOF 0
ENDMDL
