MODEL 1
REMARK minimizedAffinity 8.14806652
REMARK minimizedRMSD -1
REMARK  0 active torsions:
REMARK  status: ('A' for Active; 'I' for Inactive)
ROOT
ATOM      1  C2' OXE d   1       1.261  -3.646  -0.573  0.00  0.00     0.078 C 
ATOM      2  C1' OXE d   1      -0.243  -3.468  -2.936  0.00  0.00     0.078 C 
ATOM      3  C1  OXE d   1       0.628  -2.294  -2.567  0.00  0.00    -0.078 A 
ATOM      4  C2  OXE d   1       1.325  -2.371  -1.385  0.00  0.00    -0.078 A 
ATOM      5  C3  OXE d   1       2.186  -1.338  -1.024  0.00  0.00     0.003 A 
ATOM      6  C4  OXE d   1       2.231  -0.158  -1.776  0.00  0.00    -0.002 A 
ATOM      7  C5  OXE d   1       1.499  -0.043  -2.962  0.00  0.00    -0.002 A 
ATOM      8  C6  OXE d   1       0.727  -1.116  -3.393  0.00  0.00     0.003 A 
ENDROOT
TORSDOF 0
ENDMDL
