MODEL 1
REMARK minimizedAffinity 10.701272
REMARK minimizedRMSD -1
REMARK  0 active torsions:
REMARK  status: ('A' for Active; 'I' for Inactive)
ROOT
ATOM      1  C2' OXE d   1       4.472   3.680   1.609  0.00  0.00     0.078 C 
ATOM      2  C1' OXE d   1       2.342   2.770   3.195  0.00  0.00     0.078 C 
ATOM      3  C1  OXE d   1       2.732   1.940   1.997  0.00  0.00    -0.078 A 
ATOM      4  C2  OXE d   1       3.744   2.417   1.200  0.00  0.00    -0.078 A 
ATOM      5  C3  OXE d   1       4.180   1.663   0.114  0.00  0.00     0.003 A 
ATOM      6  C4  OXE d   1       3.495   0.502  -0.264  0.00  0.00    -0.002 A 
ATOM      7  C5  OXE d   1       2.435   0.020   0.512  0.00  0.00    -0.002 A 
ATOM      8  C6  OXE d   1       2.069   0.702   1.667  0.00  0.00     0.003 A 
ENDROOT
TORSDOF 0
ENDMDL
