MODEL 1
REMARK minimizedAffinity 6.17125416
REMARK minimizedRMSD -1
REMARK  0 active torsions:
REMARK  status: ('A' for Active; 'I' for Inactive)
ROOT
ATOM      1  C2' OXE d   1       2.394  -0.728  -0.426  0.00  0.00     0.078 C 
ATOM      2  C1' OXE d   1       1.133  -0.194  -2.877  0.00  0.00     0.078 C 
ATOM      3  C1  OXE d   1       0.774  -1.474  -2.165  0.00  0.00    -0.078 A 
ATOM      4  C2  OXE d   1       1.430  -1.750  -0.990  0.00  0.00    -0.078 A 
ATOM      5  C3  OXE d   1       1.097  -2.891  -0.265  0.00  0.00     0.003 A 
ATOM      6  C4  OXE d   1       0.212  -3.836  -0.798  0.00  0.00    -0.002 A 
ATOM      7  C5  OXE d   1      -0.438  -3.594  -2.013  0.00  0.00    -0.002 A 
ATOM      8  C6  OXE d   1      -0.200  -2.401  -2.687  0.00  0.00     0.003 A 
ENDROOT
TORSDOF 0
ENDMDL
