MODEL 1
REMARK minimizedAffinity 10.9243908
REMARK minimizedRMSD -1
REMARK  0 active torsions:
REMARK  status: ('A' for Active; 'I' for Inactive)
ROOT
ATOM      1  C2' OXE d   1      -2.123  -0.772  -2.419  0.00  0.00     0.078 C 
ATOM      2  C1' OXE d   1       0.509  -1.664  -2.021  0.00  0.00     0.078 C 
ATOM      3  C1  OXE d   1      -0.580  -2.704  -2.115  0.00  0.00    -0.078 A 
ATOM      4  C2  OXE d   1      -1.870  -2.256  -2.262  0.00  0.00    -0.078 A 
ATOM      5  C3  OXE d   1      -2.906  -3.174  -2.409  0.00  0.00     0.003 A 
ATOM      6  C4  OXE d   1      -2.666  -4.545  -2.253  0.00  0.00    -0.002 A 
ATOM      7  C5  OXE d   1      -1.364  -5.020  -2.062  0.00  0.00    -0.002 A 
ATOM      8  C6  OXE d   1      -0.306  -4.117  -2.033  0.00  0.00     0.003 A 
ENDROOT
TORSDOF 0
ENDMDL
