MODEL 1
REMARK minimizedAffinity 16.5579891
REMARK minimizedRMSD -1
REMARK  0 active torsions:
REMARK  status: ('A' for Active; 'I' for Inactive)
ROOT
ATOM      1  C2' OXE d   1       0.704   0.600   2.271  0.00  0.00     0.078 C 
ATOM      2  C1' OXE d   1       2.073   2.978   2.862  0.00  0.00     0.078 C 
ATOM      3  C1  OXE d   1       2.440   2.252   1.592  0.00  0.00    -0.078 A 
ATOM      4  C2  OXE d   1       1.798   1.065   1.334  0.00  0.00    -0.078 A 
ATOM      5  C3  OXE d   1       2.060   0.383   0.149  0.00  0.00     0.003 A 
ATOM      6  C4  OXE d   1       3.080   0.815  -0.707  0.00  0.00    -0.002 A 
ATOM      7  C5  OXE d   1       3.774   2.000  -0.442  0.00  0.00    -0.002 A 
ATOM      8  C6  OXE d   1       3.438   2.751   0.678  0.00  0.00     0.003 A 
ENDROOT
TORSDOF 0
ENDMDL
