MODEL 1
REMARK minimizedAffinity 15.5777225
REMARK minimizedRMSD -1
REMARK  0 active torsions:
REMARK  status: ('A' for Active; 'I' for Inactive)
ROOT
ATOM      1  C2' OXE d   1       0.620  -3.267  -0.654  0.00  0.00     0.078 C 
ATOM      2  C1' OXE d   1      -1.033  -5.242  -1.772  0.00  0.00     0.078 C 
ATOM      3  C1  OXE d   1      -1.391  -3.799  -2.025  0.00  0.00    -0.078 A 
ATOM      4  C2  OXE d   1      -0.603  -2.839  -1.436  0.00  0.00    -0.078 A 
ATOM      5  C3  OXE d   1      -0.857  -1.493  -1.681  0.00  0.00     0.003 A 
ATOM      6  C4  OXE d   1      -1.996  -1.105  -2.397  0.00  0.00    -0.002 A 
ATOM      7  C5  OXE d   1      -2.834  -2.066  -2.973  0.00  0.00    -0.002 A 
ATOM      8  C6  OXE d   1      -2.522  -3.414  -2.833  0.00  0.00     0.003 A 
ENDROOT
TORSDOF 0
ENDMDL
