MODEL 1
REMARK minimizedAffinity 12.259593
REMARK minimizedRMSD -1
REMARK  0 active torsions:
REMARK  status: ('A' for Active; 'I' for Inactive)
ROOT
ATOM      1  C2' OXE d   1       0.057   1.217  -3.775  0.00  0.00     0.078 C 
ATOM      2  C1' OXE d   1       0.707  -1.431  -3.106  0.00  0.00     0.078 C 
ATOM      3  C1  OXE d   1       1.532  -0.327  -2.493  0.00  0.00    -0.078 A 
ATOM      4  C2  OXE d   1       1.238   0.963  -2.862  0.00  0.00    -0.078 A 
ATOM      5  C3  OXE d   1       1.933   2.021  -2.285  0.00  0.00     0.003 A 
ATOM      6  C4  OXE d   1       3.029   1.777  -1.449  0.00  0.00    -0.002 A 
ATOM      7  C5  OXE d   1       3.372   0.469  -1.091  0.00  0.00    -0.002 A 
ATOM      8  C6  OXE d   1       2.609  -0.590  -1.569  0.00  0.00     0.003 A 
ENDROOT
TORSDOF 0
ENDMDL
