MODEL 1
REMARK minimizedAffinity 4.91469193
REMARK minimizedRMSD -1
REMARK  0 active torsions:
REMARK  status: ('A' for Active; 'I' for Inactive)
ROOT
ATOM      1  C2' OXE d   1       0.822  -3.314   0.171  0.00  0.00     0.078 C 
ATOM      2  C1' OXE d   1      -0.719  -3.590  -2.159  0.00  0.00     0.078 C 
ATOM      3  C1  OXE d   1       0.397  -2.575  -2.170  0.00  0.00    -0.078 A 
ATOM      4  C2  OXE d   1       1.116  -2.414  -1.010  0.00  0.00    -0.078 A 
ATOM      5  C3  OXE d   1       2.192  -1.531  -0.983  0.00  0.00     0.003 A 
ATOM      6  C4  OXE d   1       2.451  -0.695  -2.076  0.00  0.00    -0.002 A 
ATOM      7  C5  OXE d   1       1.705  -0.815  -3.253  0.00  0.00    -0.002 A 
ATOM      8  C6  OXE d   1       0.704  -1.778  -3.331  0.00  0.00     0.003 A 
ENDROOT
TORSDOF 0
ENDMDL
