MODEL 1
REMARK minimizedAffinity 1.81244433
REMARK minimizedRMSD -1
REMARK  0 active torsions:
REMARK  status: ('A' for Active; 'I' for Inactive)
ROOT
ATOM      1  C2' OXE d   1      -0.674  -5.324  -3.160  0.00  0.00     0.078 C 
ATOM      2  C1' OXE d   1       0.558  -3.291  -1.667  0.00  0.00     0.078 C 
ATOM      3  C1  OXE d   1      -0.768  -2.983  -2.315  0.00  0.00    -0.078 A 
ATOM      4  C2  OXE d   1      -1.341  -3.968  -3.083  0.00  0.00    -0.078 A 
ATOM      5  C3  OXE d   1      -2.591  -3.755  -3.658  0.00  0.00     0.003 A 
ATOM      6  C4  OXE d   1      -3.197  -2.495  -3.590  0.00  0.00    -0.002 A 
ATOM      7  C5  OXE d   1      -2.611  -1.465  -2.846  0.00  0.00    -0.002 A 
ATOM      8  C6  OXE d   1      -1.421  -1.705  -2.169  0.00  0.00     0.003 A 
ENDROOT
TORSDOF 0
ENDMDL
