MODEL 1
REMARK minimizedAffinity 8.42421055
REMARK minimizedRMSD -1
REMARK  0 active torsions:
REMARK  status: ('A' for Active; 'I' for Inactive)
ROOT
ATOM      1  C2' OXE d   1       1.291   0.002   1.479  0.00  0.00     0.078 C 
ATOM      2  C1' OXE d   1       3.882   0.301   0.441  0.00  0.00     0.078 C 
ATOM      3  C1  OXE d   1       3.253   1.494   1.118  0.00  0.00    -0.078 A 
ATOM      4  C2  OXE d   1       1.967   1.352   1.582  0.00  0.00    -0.078 A 
ATOM      5  C3  OXE d   1       1.361   2.403   2.263  0.00  0.00     0.003 A 
ATOM      6  C4  OXE d   1       1.989   3.652   2.344  0.00  0.00    -0.002 A 
ATOM      7  C5  OXE d   1       3.283   3.829   1.844  0.00  0.00    -0.002 A 
ATOM      8  C6  OXE d   1       3.944   2.750   1.267  0.00  0.00     0.003 A 
ENDROOT
TORSDOF 0
ENDMDL
