MODEL 1
REMARK minimizedAffinity 19.2455139
REMARK minimizedRMSD -1
REMARK  0 active torsions:
REMARK  status: ('A' for Active; 'I' for Inactive)
ROOT
ATOM      1  C2' OXE d   1       3.600   1.240  -0.272  0.00  0.00     0.078 C 
ATOM      2  C1' OXE d   1       2.531  -1.216  -1.113  0.00  0.00     0.078 C 
ATOM      3  C1  OXE d   1       2.124   0.024  -1.868  0.00  0.00    -0.078 A 
ATOM      4  C2  OXE d   1       2.615   1.227  -1.420  0.00  0.00    -0.078 A 
ATOM      5  C3  OXE d   1       2.315   2.396  -2.114  0.00  0.00     0.003 A 
ATOM      6  C4  OXE d   1       1.395   2.377  -3.170  0.00  0.00    -0.002 A 
ATOM      7  C5  OXE d   1       0.852   1.168  -3.616  0.00  0.00    -0.002 A 
ATOM      8  C6  OXE d   1       1.238  -0.020  -3.005  0.00  0.00     0.003 A 
ENDROOT
TORSDOF 0
ENDMDL
