MODEL 1
REMARK minimizedAffinity -0.210442632
REMARK minimizedRMSD -1
REMARK  0 active torsions:
REMARK  status: ('A' for Active; 'I' for Inactive)
ROOT
ATOM      1  O1  BZF d   1      -1.705  -2.412  -2.521  0.00  0.00    -0.204 OA
ATOM      2  C2  BZF d   1      -2.021  -2.047  -1.227  0.00  0.00     0.174 A 
ATOM      3  C3  BZF d   1      -0.906  -1.757  -0.526  0.00  0.00    -0.012 A 
ATOM      4  C3A BZF d   1       0.168  -1.865  -1.465  0.00  0.00    -0.107 A 
ATOM      5  C4  BZF d   1       1.517  -1.680  -1.373  0.00  0.00     0.055 A 
ATOM      6  C5  BZF d   1       2.295  -1.937  -2.457  0.00  0.00    -0.016 A 
ATOM      7  C6  BZF d   1       1.757  -2.384  -3.646  0.00  0.00     0.022 A 
ATOM      8  C7  BZF d   1       0.423  -2.578  -3.787  0.00  0.00     0.029 A 
ATOM      9  C7A BZF d   1      -0.369  -2.287  -2.703  0.00  0.00     0.058 A 
ENDROOT
TORSDOF 0
ENDMDL
