MODEL 1
REMARK minimizedAffinity 5.25270987
REMARK minimizedRMSD -1
REMARK  0 active torsions:
REMARK  status: ('A' for Active; 'I' for Inactive)
ROOT
ATOM      1  O1  BZF d   1       5.985   3.955  -2.526  0.00  0.00    -0.204 OA
ATOM      2  C2  BZF d   1       5.584   4.961  -1.668  0.00  0.00     0.174 A 
ATOM      3  C3  BZF d   1       4.831   5.872  -2.318  0.00  0.00    -0.012 A 
ATOM      4  C3A BZF d   1       4.679   5.358  -3.644  0.00  0.00    -0.107 A 
ATOM      5  C4  BZF d   1       4.022   5.806  -4.755  0.00  0.00     0.055 A 
ATOM      6  C5  BZF d   1       4.133   5.105  -5.914  0.00  0.00    -0.016 A 
ATOM      7  C6  BZF d   1       4.895   3.958  -6.000  0.00  0.00     0.022 A 
ATOM      8  C7  BZF d   1       5.560   3.473  -4.924  0.00  0.00     0.029 A 
ATOM      9  C7A BZF d   1       5.424   4.160  -3.742  0.00  0.00     0.058 A 
ENDROOT
TORSDOF 0
ENDMDL
