MODEL 1
REMARK minimizedAffinity 3.82036352
REMARK minimizedRMSD -1
REMARK  0 active torsions:
REMARK  status: ('A' for Active; 'I' for Inactive)
ROOT
ATOM      1  O1  BZF d   1       5.517   3.805  -1.983  0.00  0.00    -0.204 OA
ATOM      2  C2  BZF d   1       5.882   4.968  -1.334  0.00  0.00     0.174 A 
ATOM      3  C3  BZF d   1       5.998   5.988  -2.209  0.00  0.00    -0.012 A 
ATOM      4  C3A BZF d   1       5.595   5.448  -3.472  0.00  0.00    -0.107 A 
ATOM      5  C4  BZF d   1       5.481   5.977  -4.725  0.00  0.00     0.055 A 
ATOM      6  C5  BZF d   1       5.131   5.163  -5.756  0.00  0.00    -0.016 A 
ATOM      7  C6  BZF d   1       4.893   3.817  -5.570  0.00  0.00     0.022 A 
ATOM      8  C7  BZF d   1       4.989   3.248  -4.344  0.00  0.00     0.029 A 
ATOM      9  C7A BZF d   1       5.310   4.074  -3.295  0.00  0.00     0.058 A 
ENDROOT
TORSDOF 0
ENDMDL
