MODEL 1
REMARK minimizedAffinity -0.41061452
REMARK minimizedRMSD -1
REMARK  0 active torsions:
REMARK  status: ('A' for Active; 'I' for Inactive)
ROOT
ATOM      1  O1  BZF d   1       5.101   4.854  -1.572  0.00  0.00    -0.204 OA
ATOM      2  C2  BZF d   1       5.996   3.807  -1.680  0.00  0.00     0.174 A 
ATOM      3  C3  BZF d   1       6.000   3.308  -2.933  0.00  0.00    -0.012 A 
ATOM      4  C3A BZF d   1       5.115   4.152  -3.676  0.00  0.00    -0.107 A 
ATOM      5  C4  BZF d   1       4.715   4.174  -4.982  0.00  0.00     0.055 A 
ATOM      6  C5  BZF d   1       3.784   5.084  -5.372  0.00  0.00    -0.016 A 
ATOM      7  C6  BZF d   1       3.228   5.980  -4.483  0.00  0.00     0.022 A 
ATOM      8  C7  BZF d   1       3.596   5.999  -3.179  0.00  0.00     0.029 A 
ATOM      9  C7A BZF d   1       4.561   5.104  -2.789  0.00  0.00     0.058 A 
ENDROOT
TORSDOF 0
ENDMDL
