MODEL 1
REMARK minimizedAffinity 1.01423776
REMARK minimizedRMSD -1
REMARK  0 active torsions:
REMARK  status: ('A' for Active; 'I' for Inactive)
ROOT
ATOM      1  O1  BZF d   1       3.732   5.986  -2.476  0.00  0.00    -0.204 OA
ATOM      2  C2  BZF d   1       4.522   5.415  -1.496  0.00  0.00     0.174 A 
ATOM      3  C3  BZF d   1       5.478   4.638  -2.045  0.00  0.00    -0.012 A 
ATOM      4  C3A BZF d   1       5.331   4.802  -3.459  0.00  0.00    -0.107 A 
ATOM      5  C4  BZF d   1       6.000   4.297  -4.537  0.00  0.00     0.055 A 
ATOM      6  C5  BZF d   1       5.558   4.596  -5.787  0.00  0.00    -0.016 A 
ATOM      7  C6  BZF d   1       4.450   5.391  -5.995  0.00  0.00     0.022 A 
ATOM      8  C7  BZF d   1       3.757   5.919  -4.957  0.00  0.00     0.029 A 
ATOM      9  C7A BZF d   1       4.220   5.645  -3.693  0.00  0.00     0.058 A 
ENDROOT
TORSDOF 0
ENDMDL
