MODEL 1
REMARK minimizedAffinity -0.482423872
REMARK minimizedRMSD -1
REMARK  0 active torsions:
REMARK  status: ('A' for Active; 'I' for Inactive)
ROOT
ATOM      1  O1  BZF d   1       4.940   4.578  -5.149  0.00  0.00    -0.204 OA
ATOM      2  C2  BZF d   1       4.537   3.260  -5.243  0.00  0.00     0.174 A 
ATOM      3  C3  BZF d   1       4.651   2.639  -4.051  0.00  0.00    -0.012 A 
ATOM      4  C3A BZF d   1       5.069   3.656  -3.135  0.00  0.00    -0.107 A 
ATOM      5  C4  BZF d   1       5.337   3.661  -1.796  0.00  0.00     0.055 A 
ATOM      6  C5  BZF d   1       5.794   4.803  -1.218  0.00  0.00    -0.016 A 
ATOM      7  C6  BZF d   1       6.000   5.954  -1.949  0.00  0.00     0.022 A 
ATOM      8  C7  BZF d   1       5.743   5.999  -3.280  0.00  0.00     0.029 A 
ATOM      9  C7A BZF d   1       5.250   4.857  -3.860  0.00  0.00     0.058 A 
ENDROOT
TORSDOF 0
ENDMDL
