MODEL 1
REMARK minimizedAffinity -3.89444995
REMARK minimizedRMSD -1
REMARK  0 active torsions:
REMARK  status: ('A' for Active; 'I' for Inactive)
ROOT
ATOM      1  O1  BZF d   1       0.842  -1.895  -1.514  0.00  0.00    -0.204 OA
ATOM      2  C2  BZF d   1       0.951  -2.041  -2.884  0.00  0.00     0.174 A 
ATOM      3  C3  BZF d   1      -0.193  -2.528  -3.406  0.00  0.00    -0.012 A 
ATOM      4  C3A BZF d   1      -1.104  -2.610  -2.305  0.00  0.00    -0.107 A 
ATOM      5  C4  BZF d   1      -2.406  -3.006  -2.192  0.00  0.00     0.055 A 
ATOM      6  C5  BZF d   1      -2.982  -3.036  -0.962  0.00  0.00    -0.016 A 
ATOM      7  C6  BZF d   1      -2.285  -2.682   0.175  0.00  0.00     0.022 A 
ATOM      8  C7  BZF d   1      -0.993  -2.278   0.112  0.00  0.00     0.029 A 
ATOM      9  C7A BZF d   1      -0.418  -2.215  -1.133  0.00  0.00     0.058 A 
ENDROOT
TORSDOF 0
ENDMDL
