MODEL 1
REMARK minimizedAffinity -0.344841599
REMARK minimizedRMSD -1
REMARK  0 active torsions:
REMARK  status: ('A' for Active; 'I' for Inactive)
ROOT
ATOM      1  O1  BZF d   1      -1.087  -1.694  -3.534  0.00  0.00    -0.204 OA
ATOM      2  C2  BZF d   1       0.211  -1.292  -3.284  0.00  0.00     0.174 A 
ATOM      3  C3  BZF d   1       0.538  -1.508  -1.994  0.00  0.00    -0.012 A 
ATOM      4  C3A BZF d   1      -0.597  -2.164  -1.422  0.00  0.00    -0.107 A 
ATOM      5  C4  BZF d   1      -0.872  -2.649  -0.175  0.00  0.00     0.055 A 
ATOM      6  C5  BZF d   1      -2.102  -3.168   0.075  0.00  0.00    -0.016 A 
ATOM      7  C6  BZF d   1      -3.082  -3.215  -0.895  0.00  0.00     0.022 A 
ATOM      8  C7  BZF d   1      -2.854  -2.751  -2.148  0.00  0.00     0.029 A 
ATOM      9  C7A BZF d   1      -1.601  -2.256  -2.414  0.00  0.00     0.058 A 
ENDROOT
TORSDOF 0
ENDMDL
