MODEL 1
REMARK minimizedAffinity 1.29608762
REMARK minimizedRMSD -1
REMARK  0 active torsions:
REMARK  status: ('A' for Active; 'I' for Inactive)
ROOT
ATOM      1  O1  BZF d   1       5.199   5.989  -2.515  0.00  0.00    -0.204 OA
ATOM      2  C2  BZF d   1       5.854   5.045  -1.748  0.00  0.00     0.174 A 
ATOM      3  C3  BZF d   1       5.986   3.886  -2.425  0.00  0.00    -0.012 A 
ATOM      4  C3A BZF d   1       5.459   4.149  -3.728  0.00  0.00    -0.107 A 
ATOM      5  C4  BZF d   1       5.326   3.393  -4.858  0.00  0.00     0.055 A 
ATOM      6  C5  BZF d   1       4.702   3.926  -5.940  0.00  0.00    -0.016 A 
ATOM      7  C6  BZF d   1       4.193   5.209  -5.926  0.00  0.00     0.022 A 
ATOM      8  C7  BZF d   1       4.305   5.999  -4.831  0.00  0.00     0.029 A 
ATOM      9  C7A BZF d   1       4.965   5.474  -3.746  0.00  0.00     0.058 A 
ENDROOT
TORSDOF 0
ENDMDL
