MODEL 1
REMARK minimizedAffinity -0.875235021
REMARK minimizedRMSD -1
REMARK  0 active torsions:
REMARK  status: ('A' for Active; 'I' for Inactive)
ROOT
ATOM      1  O1  BZF d   1       4.311   5.667  -5.073  0.00  0.00    -0.204 OA
ATOM      2  C2  BZF d   1       4.544   4.646  -5.974  0.00  0.00     0.174 A 
ATOM      3  C3  BZF d   1       5.246   3.649  -5.397  0.00  0.00    -0.012 A 
ATOM      4  C3A BZF d   1       5.386   4.033  -4.026  0.00  0.00    -0.107 A 
ATOM      5  C4  BZF d   1       5.975   3.446  -2.942  0.00  0.00     0.055 A 
ATOM      6  C5  BZF d   1       6.000   4.117  -1.761  0.00  0.00    -0.016 A 
ATOM      7  C6  BZF d   1       5.452   5.376  -1.628  0.00  0.00     0.022 A 
ATOM      8  C7  BZF d   1       4.853   5.996  -2.674  0.00  0.00     0.029 A 
ATOM      9  C7A BZF d   1       4.797   5.308  -3.861  0.00  0.00     0.058 A 
ENDROOT
TORSDOF 0
ENDMDL
