MODEL 1
REMARK minimizedAffinity 1.60048807
REMARK minimizedRMSD -1
REMARK  0 active torsions:
REMARK  status: ('A' for Active; 'I' for Inactive)
ROOT
ATOM      1  O1  BZF d   1      -2.008  -2.536   2.492  0.00  0.00    -0.204 OA
ATOM      2  C2  BZF d   1      -1.700  -2.454   1.148  0.00  0.00     0.174 A 
ATOM      3  C3  BZF d   1      -1.416  -1.183   0.799  0.00  0.00    -0.012 A 
ATOM      4  C3A BZF d   1      -1.464  -0.438   2.019  0.00  0.00    -0.107 A 
ATOM      5  C4  BZF d   1      -1.256   0.876   2.326  0.00  0.00     0.055 A 
ATOM      6  C5  BZF d   1      -1.455   1.296   3.603  0.00  0.00    -0.016 A 
ATOM      7  C6  BZF d   1      -1.866   0.431   4.596  0.00  0.00     0.022 A 
ATOM      8  C7  BZF d   1      -2.080  -0.882   4.341  0.00  0.00     0.029 A 
ATOM      9  C7A BZF d   1      -1.849  -1.316   3.059  0.00  0.00     0.058 A 
ENDROOT
TORSDOF 0
ENDMDL
