MODEL 1
REMARK minimizedAffinity 6.91961908
REMARK minimizedRMSD -1
REMARK  0 active torsions:
REMARK  status: ('A' for Active; 'I' for Inactive)
ROOT
ATOM      1  O1  BZF d   1      -1.256  -2.182  -1.518  0.00  0.00    -0.204 OA
ATOM      2  C2  BZF d   1       0.017  -1.827  -1.117  0.00  0.00     0.174 A 
ATOM      3  C3  BZF d   1       0.188  -2.065   0.199  0.00  0.00    -0.012 A 
ATOM      4  C3A BZF d   1      -1.025  -2.689   0.630  0.00  0.00    -0.107 A 
ATOM      5  C4  BZF d   1      -1.456  -3.176   1.831  0.00  0.00     0.055 A 
ATOM      6  C5  BZF d   1      -2.723  -3.657   1.932  0.00  0.00    -0.016 A 
ATOM      7  C6  BZF d   1      -3.587  -3.661   0.856  0.00  0.00     0.022 A 
ATOM      8  C7  BZF d   1      -3.203  -3.193  -0.356  0.00  0.00     0.029 A 
ATOM      9  C7A BZF d   1      -1.912  -2.738  -0.471  0.00  0.00     0.058 A 
ENDROOT
TORSDOF 0
ENDMDL
