MODEL 1
REMARK minimizedAffinity -0.195624888
REMARK minimizedRMSD -1
REMARK  0 active torsions:
REMARK  status: ('A' for Active; 'I' for Inactive)
ROOT
ATOM      1  O1  BZF d   1      -1.983  -2.991  -2.332  0.00  0.00    -0.204 OA
ATOM      2  C2  BZF d   1      -0.788  -2.698  -2.961  0.00  0.00     0.174 A 
ATOM      3  C3  BZF d   1       0.143  -2.314  -2.064  0.00  0.00    -0.012 A 
ATOM      4  C3A BZF d   1      -0.484  -2.458  -0.786  0.00  0.00    -0.107 A 
ATOM      5  C4  BZF d   1      -0.062  -2.246   0.495  0.00  0.00     0.055 A 
ATOM      6  C5  BZF d   1      -0.944  -2.411   1.516  0.00  0.00    -0.016 A 
ATOM      7  C6  BZF d   1      -2.253  -2.782   1.292  0.00  0.00     0.022 A 
ATOM      8  C7  BZF d   1      -2.716  -3.009   0.039  0.00  0.00     0.029 A 
ATOM      9  C7A BZF d   1      -1.819  -2.874  -0.993  0.00  0.00     0.058 A 
ENDROOT
TORSDOF 0
ENDMDL
