MODEL 1
REMARK minimizedAffinity -0.42669481
REMARK minimizedRMSD -1
REMARK  0 active torsions:
REMARK  status: ('A' for Active; 'I' for Inactive)
ROOT
ATOM      1  O1  BZF d   1      -2.597  -2.417   3.451  0.00  0.00    -0.204 OA
ATOM      2  C2  BZF d   1      -1.979  -2.191   2.237  0.00  0.00     0.174 A 
ATOM      3  C3  BZF d   1      -1.497  -0.933   2.172  0.00  0.00    -0.012 A 
ATOM      4  C3A BZF d   1      -1.754  -0.365   3.460  0.00  0.00    -0.107 A 
ATOM      5  C4  BZF d   1      -1.493   0.854   4.017  0.00  0.00     0.055 A 
ATOM      6  C5  BZF d   1      -1.940   1.115   5.274  0.00  0.00    -0.016 A 
ATOM      7  C6  BZF d   1      -2.654   0.183   5.999  0.00  0.00     0.022 A 
ATOM      8  C7  BZF d   1      -2.933  -1.042   5.490  0.00  0.00     0.029 A 
ATOM      9  C7A BZF d   1      -2.454  -1.320   4.233  0.00  0.00     0.058 A 
ENDROOT
TORSDOF 0
ENDMDL
