MODEL 1
REMARK minimizedAffinity 3.58716035
REMARK minimizedRMSD -1
REMARK  0 active torsions:
REMARK  status: ('A' for Active; 'I' for Inactive)
ROOT
ATOM      1  O1  BZF d   1      -2.818  -3.727   0.562  0.00  0.00    -0.204 OA
ATOM      2  C2  BZF d   1      -1.683  -3.678   1.348  0.00  0.00     0.174 A 
ATOM      3  C3  BZF d   1      -0.600  -3.366   0.607  0.00  0.00    -0.012 A 
ATOM      4  C3A BZF d   1      -1.103  -3.121  -0.709  0.00  0.00    -0.107 A 
ATOM      5  C4  BZF d   1      -0.515  -2.755  -1.886  0.00  0.00     0.055 A 
ATOM      6  C5  BZF d   1      -1.277  -2.670  -3.008  0.00  0.00    -0.016 A 
ATOM      7  C6  BZF d   1      -2.628  -2.949  -2.990  0.00  0.00     0.022 A 
ATOM      8  C7  BZF d   1      -3.257  -3.312  -1.845  0.00  0.00     0.029 A 
ATOM      9  C7A BZF d   1      -2.496  -3.366  -0.704  0.00  0.00     0.058 A 
ENDROOT
TORSDOF 0
ENDMDL
