MODEL 1
REMARK minimizedAffinity 1.41016984
REMARK minimizedRMSD -1
REMARK  0 active torsions:
REMARK  status: ('A' for Active; 'I' for Inactive)
ROOT
ATOM      1  O1  BZF d   1       5.273  -3.373   2.391  0.00  0.00    -0.204 OA
ATOM      2  C2  BZF d   1       4.480  -2.643   1.527  0.00  0.00     0.174 A 
ATOM      3  C3  BZF d   1       3.628  -1.853   2.212  0.00  0.00    -0.012 A 
ATOM      4  C3A BZF d   1       3.970  -2.037   3.589  0.00  0.00    -0.107 A 
ATOM      5  C4  BZF d   1       3.489  -1.510   4.754  0.00  0.00     0.055 A 
ATOM      6  C5  BZF d   1       3.992  -1.953   5.936  0.00  0.00    -0.016 A 
ATOM      7  C6  BZF d   1       4.969  -2.925   5.991  0.00  0.00     0.022 A 
ATOM      8  C7  BZF d   1       5.480  -3.474   4.862  0.00  0.00     0.029 A 
ATOM      9  C7A BZF d   1       4.998  -3.004   3.665  0.00  0.00     0.058 A 
ENDROOT
TORSDOF 0
ENDMDL
