MODEL 1
REMARK minimizedAffinity 4.7259059
REMARK minimizedRMSD -1
REMARK  0 active torsions:
REMARK  status: ('A' for Active; 'I' for Inactive)
ROOT
ATOM      1  O1  BZF d   1       3.747   5.861  -4.864  0.00  0.00    -0.204 OA
ATOM      2  C2  BZF d   1       4.054   5.010  -5.908  0.00  0.00     0.174 A 
ATOM      3  C3  BZF d   1       4.968   4.095  -5.526  0.00  0.00    -0.012 A 
ATOM      4  C3A BZF d   1       5.181   4.334  -4.132  0.00  0.00    -0.107 A 
ATOM      5  C4  BZF d   1       5.966   3.739  -3.186  0.00  0.00     0.055 A 
ATOM      6  C5  BZF d   1       6.000   4.261  -1.932  0.00  0.00    -0.016 A 
ATOM      7  C6  BZF d   1       5.266   5.378  -1.590  0.00  0.00     0.022 A 
ATOM      8  C7  BZF d   1       4.469   6.000  -2.493  0.00  0.00     0.029 A 
ATOM      9  C7A BZF d   1       4.407   5.455  -3.752  0.00  0.00     0.058 A 
ENDROOT
TORSDOF 0
ENDMDL
