MODEL 1
REMARK minimizedAffinity -1.67214978
REMARK minimizedRMSD -1
REMARK  0 active torsions:
REMARK  status: ('A' for Active; 'I' for Inactive)
ROOT
ATOM      1  C   UNL d   1       1.250  -1.850  -0.364  0.00  0.00     0.023 A 
ATOM      2  C1  UNL d   1      -0.014  -2.246  -0.803  0.00  0.00     0.003 A 
ATOM      3  C2  UNL d   1      -1.104  -1.384  -0.664  0.00  0.00     0.048 A 
ATOM      4  C3  UNL d   1      -0.924  -0.129  -0.085  0.00  0.00     0.023 A 
ATOM      5  C4  UNL d   1       0.339   0.272   0.355  0.00  0.00     0.048 A 
ATOM      6  C5  UNL d   1       1.426  -0.593   0.214  0.00  0.00     0.003 A 
ATOM      7  I   UNL d   1      -2.545   1.155   0.124  0.00  0.00    -0.146 I 
ENDROOT
TORSDOF 0
ENDMDL
