MODEL 1
REMARK minimizedAffinity -1.77072275
REMARK minimizedRMSD -1
REMARK  0 active torsions:
REMARK  status: ('A' for Active; 'I' for Inactive)
ROOT
ATOM      1  C   UNL d   1       1.916  -1.563  -0.611  0.00  0.00     0.023 A 
ATOM      2  C1  UNL d   1       0.779  -2.274  -0.231  0.00  0.00     0.003 A 
ATOM      3  C2  UNL d   1      -0.374  -1.592   0.164  0.00  0.00     0.048 A 
ATOM      4  C3  UNL d   1      -0.383  -0.197   0.174  0.00  0.00     0.023 A 
ATOM      5  C4  UNL d   1       0.753   0.519  -0.207  0.00  0.00     0.048 A 
ATOM      6  C5  UNL d   1       1.904  -0.168  -0.600  0.00  0.00     0.003 A 
ATOM      7  I   UNL d   1      -2.097   0.821   0.759  0.00  0.00    -0.146 I 
ENDROOT
TORSDOF 0
ENDMDL
