MODEL 1
REMARK minimizedAffinity -2.72847986
REMARK minimizedRMSD -1
REMARK  0 active torsions:
REMARK  status: ('A' for Active; 'I' for Inactive)
ROOT
ATOM      1  C   UNL d   1       1.765  -1.899  -0.287  0.00  0.00     0.023 A 
ATOM      2  C1  UNL d   1       0.540  -2.555  -0.159  0.00  0.00     0.003 A 
ATOM      3  C2  UNL d   1      -0.634  -1.817   0.000  0.00  0.00     0.048 A 
ATOM      4  C3  UNL d   1      -0.577  -0.424   0.029  0.00  0.00     0.023 A 
ATOM      5  C4  UNL d   1       0.646   0.236  -0.099  0.00  0.00     0.048 A 
ATOM      6  C5  UNL d   1       1.818  -0.506  -0.257  0.00  0.00     0.003 A 
ATOM      7  I   UNL d   1      -2.324   0.677   0.265  0.00  0.00    -0.146 I 
ENDROOT
TORSDOF 0
ENDMDL
