MODEL 1
REMARK minimizedAffinity -3.04264998
REMARK minimizedRMSD -1
REMARK  0 active torsions:
REMARK  status: ('A' for Active; 'I' for Inactive)
ROOT
ATOM      1  C   UNL d   1       3.071  -0.885  -0.086  0.00  0.00     0.023 A 
ATOM      2  C1  UNL d   1       2.902   0.495   0.020  0.00  0.00     0.003 A 
ATOM      3  C2  UNL d   1       1.622   1.050  -0.048  0.00  0.00     0.048 A 
ATOM      4  C3  UNL d   1       0.516   0.219  -0.221  0.00  0.00     0.023 A 
ATOM      5  C4  UNL d   1       0.681  -1.163  -0.327  0.00  0.00     0.048 A 
ATOM      6  C5  UNL d   1       1.962  -1.714  -0.259  0.00  0.00     0.003 A 
ATOM      7  I   UNL d   1      -1.389   1.042  -0.323  0.00  0.00    -0.146 I 
ENDROOT
TORSDOF 0
ENDMDL
