MODEL 1
REMARK minimizedAffinity 2.59601402
REMARK minimizedRMSD -1
REMARK  0 active torsions:
REMARK  status: ('A' for Active; 'I' for Inactive)
ROOT
ATOM      1  C   UNL d   1      -4.487   0.785   1.255  0.00  0.00     0.023 A 
ATOM      2  C1  UNL d   1      -3.489   0.387   2.145  0.00  0.00     0.003 A 
ATOM      3  C2  UNL d   1      -2.223   0.043   1.667  0.00  0.00     0.048 A 
ATOM      4  C3  UNL d   1      -1.961   0.099   0.298  0.00  0.00     0.023 A 
ATOM      5  C4  UNL d   1      -2.957   0.497  -0.596  0.00  0.00     0.048 A 
ATOM      6  C5  UNL d   1      -4.221   0.839  -0.113  0.00  0.00     0.003 A 
ATOM      7  I   UNL d   1      -0.077  -0.413  -0.415  0.00  0.00    -0.146 I 
ENDROOT
TORSDOF 0
ENDMDL
