MODEL 1
REMARK minimizedAffinity -2.43375039
REMARK minimizedRMSD -1
REMARK  0 active torsions:
REMARK  status: ('A' for Active; 'I' for Inactive)
ROOT
ATOM      1  C   UNL d   1       5.098  -0.851   4.659  0.00  0.00     0.023 A 
ATOM      2  C1  UNL d   1       4.135  -1.693   4.102  0.00  0.00     0.003 A 
ATOM      3  C2  UNL d   1       4.071  -3.034   4.485  0.00  0.00     0.048 A 
ATOM      4  C3  UNL d   1       4.974  -3.527   5.427  0.00  0.00     0.023 A 
ATOM      5  C4  UNL d   1       5.939  -2.689   5.988  0.00  0.00     0.048 A 
ATOM      6  C5  UNL d   1       5.999  -1.349   5.601  0.00  0.00     0.003 A 
ATOM      7  I   UNL d   1       4.881  -5.523   6.000  0.00  0.00    -0.146 I 
ENDROOT
TORSDOF 0
ENDMDL
