MODEL 1
REMARK minimizedAffinity 9.87751675
REMARK minimizedRMSD -1
REMARK  0 active torsions:
REMARK  status: ('A' for Active; 'I' for Inactive)
ROOT
ATOM      1  C   UNL d   1       1.354  -2.032  -0.954  0.00  0.00     0.023 A 
ATOM      2  C1  UNL d   1       0.773  -3.010  -0.146  0.00  0.00     0.003 A 
ATOM      3  C2  UNL d   1      -0.173  -2.650   0.816  0.00  0.00     0.048 A 
ATOM      4  C3  UNL d   1      -0.534  -1.312   0.964  0.00  0.00     0.023 A 
ATOM      5  C4  UNL d   1       0.044  -0.330   0.158  0.00  0.00     0.048 A 
ATOM      6  C5  UNL d   1       0.990  -0.694  -0.802  0.00  0.00     0.003 A 
ATOM      7  I   UNL d   1      -1.942  -0.774   2.396  0.00  0.00    -0.146 I 
ENDROOT
TORSDOF 0
ENDMDL
