MODEL 1
REMARK minimizedAffinity -2.07506728
REMARK minimizedRMSD -1
REMARK  0 active torsions:
REMARK  status: ('A' for Active; 'I' for Inactive)
ROOT
ATOM      1  C   UNL d   1       5.337   3.037   4.525  0.00  0.00     0.023 A 
ATOM      2  C1  UNL d   1       5.801   2.599   5.766  0.00  0.00     0.003 A 
ATOM      3  C2  UNL d   1       5.990   1.235   6.000  0.00  0.00     0.048 A 
ATOM      4  C3  UNL d   1       5.716   0.316   4.988  0.00  0.00     0.023 A 
ATOM      5  C4  UNL d   1       5.253   0.750   3.745  0.00  0.00     0.048 A 
ATOM      6  C5  UNL d   1       5.064   2.114   3.516  0.00  0.00     0.003 A 
ATOM      7  I   UNL d   1       5.998  -1.714   5.334  0.00  0.00    -0.146 I 
ENDROOT
TORSDOF 0
ENDMDL
