MODEL 1
REMARK minimizedAffinity -2.66810584
REMARK minimizedRMSD -1
REMARK  0 active torsions:
REMARK  status: ('A' for Active; 'I' for Inactive)
ROOT
ATOM      1  C   UNL d   1       5.605   3.169   4.236  0.00  0.00     0.023 A 
ATOM      2  C1  UNL d   1       5.589   2.845   5.592  0.00  0.00     0.003 A 
ATOM      3  C2  UNL d   1       5.544   1.507   5.991  0.00  0.00     0.048 A 
ATOM      4  C3  UNL d   1       5.515   0.499   5.028  0.00  0.00     0.023 A 
ATOM      5  C4  UNL d   1       5.531   0.819   3.669  0.00  0.00     0.048 A 
ATOM      6  C5  UNL d   1       5.576   2.158   3.275  0.00  0.00     0.003 A 
ATOM      7  I   UNL d   1       5.447  -1.492   5.619  0.00  0.00    -0.146 I 
ENDROOT
TORSDOF 0
ENDMDL
