MODEL 1
REMARK minimizedAffinity -2.06786489
REMARK minimizedRMSD -1
REMARK  0 active torsions:
REMARK  status: ('A' for Active; 'I' for Inactive)
ROOT
ATOM      1  C   UNL d   1       5.331  -0.390   4.566  0.00  0.00     0.023 A 
ATOM      2  C1  UNL d   1       5.803   0.076   5.794  0.00  0.00     0.003 A 
ATOM      3  C2  UNL d   1       5.995   1.444   5.995  0.00  0.00     0.048 A 
ATOM      4  C3  UNL d   1       5.714   2.341   4.965  0.00  0.00     0.023 A 
ATOM      5  C4  UNL d   1       5.241   1.880   3.736  0.00  0.00     0.048 A 
ATOM      6  C5  UNL d   1       5.051   0.511   3.539  0.00  0.00     0.003 A 
ATOM      7  I   UNL d   1       6.000   4.378   5.263  0.00  0.00    -0.146 I 
ENDROOT
TORSDOF 0
ENDMDL
