MODEL 1
REMARK minimizedAffinity -2.63429999
REMARK minimizedRMSD -1
REMARK  0 active torsions:
REMARK  status: ('A' for Active; 'I' for Inactive)
ROOT
ATOM      1  C   UNL d   1       5.588  -1.917   4.829  0.00  0.00     0.023 A 
ATOM      2  C1  UNL d   1       5.242  -1.203   3.681  0.00  0.00     0.003 A 
ATOM      3  C2  UNL d   1       5.272   0.193   3.690  0.00  0.00     0.048 A 
ATOM      4  C3  UNL d   1       5.650   0.869   4.849  0.00  0.00     0.023 A 
ATOM      5  C4  UNL d   1       5.998   0.159   5.999  0.00  0.00     0.048 A 
ATOM      6  C5  UNL d   1       5.965  -1.236   5.986  0.00  0.00     0.003 A 
ATOM      7  I   UNL d   1       5.696   2.947   4.864  0.00  0.00    -0.146 I 
ENDROOT
TORSDOF 0
ENDMDL
