MODEL 1
REMARK minimizedAffinity 4.33928871
REMARK minimizedRMSD -1
REMARK  0 active torsions:
REMARK  status: ('A' for Active; 'I' for Inactive)
ROOT
ATOM      1  C   UNL d   1       1.423   3.025  -0.776  0.00  0.00     0.023 A 
ATOM      2  C1  UNL d   1       1.141   3.628   0.450  0.00  0.00     0.003 A 
ATOM      3  C2  UNL d   1       0.391   2.946   1.410  0.00  0.00     0.048 A 
ATOM      4  C3  UNL d   1      -0.075   1.660   1.138  0.00  0.00     0.023 A 
ATOM      5  C4  UNL d   1       0.205   1.052  -0.087  0.00  0.00     0.048 A 
ATOM      6  C5  UNL d   1       0.955   1.738  -1.044  0.00  0.00     0.003 A 
ATOM      7  I   UNL d   1      -1.192   0.642   2.564  0.00  0.00    -0.146 I 
ENDROOT
TORSDOF 0
ENDMDL
