MODEL 1
REMARK minimizedAffinity -0.818368793
REMARK minimizedRMSD -1
REMARK  0 active torsions:
REMARK  status: ('A' for Active; 'I' for Inactive)
ROOT
ATOM      1  C   UNL d   1       5.073   2.985   4.091  0.00  0.00     0.023 A 
ATOM      2  C1  UNL d   1       5.735   2.781   5.301  0.00  0.00     0.003 A 
ATOM      3  C2  UNL d   1       6.000   1.484   5.744  0.00  0.00     0.048 A 
ATOM      4  C3  UNL d   1       5.600   0.394   4.971  0.00  0.00     0.023 A 
ATOM      5  C4  UNL d   1       4.939   0.593   3.758  0.00  0.00     0.048 A 
ATOM      6  C5  UNL d   1       4.675   1.892   3.320  0.00  0.00     0.003 A 
ATOM      7  I   UNL d   1       5.993  -1.538   5.628  0.00  0.00    -0.146 I 
ENDROOT
TORSDOF 0
ENDMDL
