MODEL 1
REMARK minimizedAffinity -2.37519693
REMARK minimizedRMSD -1
REMARK  0 active torsions:
REMARK  status: ('A' for Active; 'I' for Inactive)
ROOT
ATOM      1  C   UNL d   1       5.986   5.584   3.709  0.00  0.00     0.023 A 
ATOM      2  C1  UNL d   1       5.982   4.479   2.857  0.00  0.00     0.003 A 
ATOM      3  C2  UNL d   1       5.986   3.187   3.388  0.00  0.00     0.048 A 
ATOM      4  C3  UNL d   1       5.993   3.008   4.771  0.00  0.00     0.023 A 
ATOM      5  C4  UNL d   1       5.997   4.111   5.626  0.00  0.00     0.048 A 
ATOM      6  C5  UNL d   1       5.993   5.400   5.091  0.00  0.00     0.003 A 
ATOM      7  I   UNL d   1       6.000   1.086   5.563  0.00  0.00    -0.146 I 
ENDROOT
TORSDOF 0
ENDMDL
