MODEL 1
REMARK minimizedAffinity -0.410861015
REMARK minimizedRMSD -1
REMARK  0 active torsions:
REMARK  status: ('A' for Active; 'I' for Inactive)
ROOT
ATOM      1  C   UNL d   1       5.618   1.593   4.194  0.00  0.00     0.023 A 
ATOM      2  C1  UNL d   1       5.499   0.535   3.292  0.00  0.00     0.003 A 
ATOM      3  C2  UNL d   1       5.607  -0.783   3.741  0.00  0.00     0.048 A 
ATOM      4  C3  UNL d   1       5.834  -1.036   5.093  0.00  0.00     0.023 A 
ATOM      5  C4  UNL d   1       5.953   0.019   5.999  0.00  0.00     0.048 A 
ATOM      6  C5  UNL d   1       5.844   1.335   5.546  0.00  0.00     0.003 A 
ATOM      7  I   UNL d   1       5.995  -2.996   5.764  0.00  0.00    -0.146 I 
ENDROOT
TORSDOF 0
ENDMDL
