MODEL 1
REMARK minimizedAffinity -2.22305942
REMARK minimizedRMSD -1
REMARK  0 active torsions:
REMARK  status: ('A' for Active; 'I' for Inactive)
ROOT
ATOM      1  C   UNL d   1       5.619   2.622   4.739  0.00  0.00     0.023 A 
ATOM      2  C1  UNL d   1       5.247   1.985   5.923  0.00  0.00     0.003 A 
ATOM      3  C2  UNL d   1       5.249   0.591   5.998  0.00  0.00     0.048 A 
ATOM      4  C3  UNL d   1       5.624  -0.161   4.885  0.00  0.00     0.023 A 
ATOM      5  C4  UNL d   1       5.998   0.472   3.698  0.00  0.00     0.048 A 
ATOM      6  C5  UNL d   1       5.994   1.866   3.628  0.00  0.00     0.003 A 
ATOM      7  I   UNL d   1       5.627  -2.236   4.994  0.00  0.00    -0.146 I 
ENDROOT
TORSDOF 0
ENDMDL
