MODEL 1
REMARK minimizedAffinity -1.94194055
REMARK minimizedRMSD -1
REMARK  0 active torsions:
REMARK  status: ('A' for Active; 'I' for Inactive)
ROOT
ATOM      1  C   UNL d   1       5.973  -3.322   4.446  0.00  0.00     0.023 A 
ATOM      2  C1  UNL d   1       5.952  -2.844   5.757  0.00  0.00     0.003 A 
ATOM      3  C2  UNL d   1       5.956  -1.469   6.000  0.00  0.00     0.048 A 
ATOM      4  C3  UNL d   1       5.980  -0.578   4.928  0.00  0.00     0.023 A 
ATOM      5  C4  UNL d   1       6.000  -1.052   3.615  0.00  0.00     0.048 A 
ATOM      6  C5  UNL d   1       5.997  -2.427   3.377  0.00  0.00     0.003 A 
ATOM      7  I   UNL d   1       5.986   1.469   5.287  0.00  0.00    -0.146 I 
ENDROOT
TORSDOF 0
ENDMDL
