MODEL 1
REMARK minimizedAffinity 4.52470779
REMARK minimizedRMSD -1
REMARK  0 active torsions:
REMARK  status: ('A' for Active; 'I' for Inactive)
ROOT
ATOM      1  C   UNL d   1       0.759   1.244  -1.116  0.00  0.00     0.023 A 
ATOM      2  C1  UNL d   1       0.389  -0.038  -0.710  0.00  0.00     0.003 A 
ATOM      3  C2  UNL d   1      -0.319  -0.218   0.480  0.00  0.00     0.048 A 
ATOM      4  C3  UNL d   1      -0.654   0.889   1.259  0.00  0.00     0.023 A 
ATOM      5  C4  UNL d   1      -0.286   2.174   0.857  0.00  0.00     0.048 A 
ATOM      6  C5  UNL d   1       0.422   2.349  -0.333  0.00  0.00     0.003 A 
ATOM      7  I   UNL d   1      -1.708   0.624   3.031  0.00  0.00    -0.146 I 
ENDROOT
TORSDOF 0
ENDMDL
