MODEL 1
REMARK minimizedAffinity 2.40365219
REMARK minimizedRMSD -1
REMARK  0 active torsions:
REMARK  status: ('A' for Active; 'I' for Inactive)
ROOT
ATOM      1  C   UNL d   1       5.610   0.394   4.169  0.00  0.00     0.023 A 
ATOM      2  C1  UNL d   1       5.448   1.434   3.254  0.00  0.00     0.003 A 
ATOM      3  C2  UNL d   1       5.559   2.761   3.676  0.00  0.00     0.048 A 
ATOM      4  C3  UNL d   1       5.834   3.039   5.015  0.00  0.00     0.023 A 
ATOM      5  C4  UNL d   1       5.997   2.002   5.934  0.00  0.00     0.048 A 
ATOM      6  C5  UNL d   1       5.884   0.677   5.507  0.00  0.00     0.003 A 
ATOM      7  I   UNL d   1       6.000   5.013   5.646  0.00  0.00    -0.146 I 
ENDROOT
TORSDOF 0
ENDMDL
