MODEL 1
REMARK minimizedAffinity 4.43324661
REMARK minimizedRMSD -1
REMARK  0 active torsions:
REMARK  status: ('A' for Active; 'I' for Inactive)
ROOT
ATOM      1  C   UNL d   1       4.936   1.550   4.916  0.00  0.00     0.023 A 
ATOM      2  C1  UNL d   1       5.671   1.016   5.974  0.00  0.00     0.003 A 
ATOM      3  C2  UNL d   1       5.976  -0.347   5.997  0.00  0.00     0.048 A 
ATOM      4  C3  UNL d   1       5.544  -1.169   4.958  0.00  0.00     0.023 A 
ATOM      5  C4  UNL d   1       4.809  -0.640   3.896  0.00  0.00     0.048 A 
ATOM      6  C5  UNL d   1       4.505   0.723   3.878  0.00  0.00     0.003 A 
ATOM      7  I   UNL d   1       5.998  -3.197   4.989  0.00  0.00    -0.146 I 
ENDROOT
TORSDOF 0
ENDMDL
