MODEL 1
REMARK minimizedAffinity -2.00614071
REMARK minimizedRMSD -1
REMARK  0 active torsions:
REMARK  status: ('A' for Active; 'I' for Inactive)
ROOT
ATOM      1  C   UNL d   1       5.972  -2.031   4.693  0.00  0.00     0.023 A 
ATOM      2  C1  UNL d   1       5.995  -1.279   3.518  0.00  0.00     0.003 A 
ATOM      3  C2  UNL d   1       5.999   0.116   3.581  0.00  0.00     0.048 A 
ATOM      4  C3  UNL d   1       5.980   0.752   4.822  0.00  0.00     0.023 A 
ATOM      5  C4  UNL d   1       5.957   0.004   6.000  0.00  0.00     0.048 A 
ATOM      6  C5  UNL d   1       5.953  -1.391   5.932  0.00  0.00     0.003 A 
ATOM      7  I   UNL d   1       5.986   2.828   4.918  0.00  0.00    -0.146 I 
ENDROOT
TORSDOF 0
ENDMDL
