MODEL 1
REMARK minimizedAffinity 7.91227055
REMARK minimizedRMSD -1
REMARK  0 active torsions:
REMARK  status: ('A' for Active; 'I' for Inactive)
ROOT
ATOM      1  C   UNL d   1       1.671  -2.678   0.163  0.00  0.00     0.023 A 
ATOM      2  C1  UNL d   1       2.679  -1.723   0.036  0.00  0.00     0.003 A 
ATOM      3  C2  UNL d   1       2.350  -0.375  -0.121  0.00  0.00     0.048 A 
ATOM      4  C3  UNL d   1       1.010   0.011  -0.148  0.00  0.00     0.023 A 
ATOM      5  C4  UNL d   1      -0.002  -0.941  -0.020  0.00  0.00     0.048 A 
ATOM      6  C5  UNL d   1       0.332  -2.288   0.135  0.00  0.00     0.003 A 
ATOM      7  I   UNL d   1       0.518   2.017  -0.381  0.00  0.00    -0.146 I 
ENDROOT
TORSDOF 0
ENDMDL
