MODEL 1
REMARK minimizedAffinity -2.25793147
REMARK minimizedRMSD -1
REMARK  0 active torsions:
REMARK  status: ('A' for Active; 'I' for Inactive)
ROOT
ATOM      1  C   UNL d   1       5.592  -0.667   4.066  0.00  0.00     0.023 A 
ATOM      2  C1  UNL d   1       5.535   0.459   3.244  0.00  0.00     0.003 A 
ATOM      3  C2  UNL d   1       5.651   1.736   3.797  0.00  0.00     0.048 A 
ATOM      4  C3  UNL d   1       5.825   1.879   5.173  0.00  0.00     0.023 A 
ATOM      5  C4  UNL d   1       5.882   0.756   6.000  0.00  0.00     0.048 A 
ATOM      6  C5  UNL d   1       5.765  -0.519   5.442  0.00  0.00     0.003 A 
ATOM      7  I   UNL d   1       5.998   3.779   6.000  0.00  0.00    -0.146 I 
ENDROOT
TORSDOF 0
ENDMDL
