MODEL 1
REMARK minimizedAffinity 12.9714899
REMARK minimizedRMSD -1
REMARK  0 active torsions:
REMARK  status: ('A' for Active; 'I' for Inactive)
ROOT
ATOM      1  C   UNL d   1       0.272   0.196  -0.077  0.00  0.00     0.078 C 
ATOM      2  C1  UNL d   1       1.489   1.060  -0.220  0.00  0.00    -0.077 A 
ATOM      3  C2  UNL d   1       1.902   1.903   0.819  0.00  0.00    -0.001 A 
ATOM      4  C3  UNL d   1       3.031   2.709   0.668  0.00  0.00     0.003 A 
ATOM      5  C4  UNL d   1       3.758   2.679  -0.521  0.00  0.00    -0.005 A 
ATOM      6  C5  UNL d   1       3.354   1.845  -1.561  0.00  0.00     0.003 A 
ATOM      7  C6  UNL d   1       2.224   1.039  -1.412  0.00  0.00    -0.001 A 
ENDROOT
TORSDOF 0
ENDMDL
