MODEL 1
REMARK minimizedAffinity 1.86557496
REMARK minimizedRMSD -1
REMARK  0 active torsions:
REMARK  status: ('A' for Active; 'I' for Inactive)
ROOT
ATOM      1  C   UNL d   1      -2.299   0.502   1.103  0.00  0.00     0.078 C 
ATOM      2  C1  UNL d   1      -2.126  -0.310   2.351  0.00  0.00    -0.077 A 
ATOM      3  C2  UNL d   1      -0.850  -0.596   2.854  0.00  0.00    -0.001 A 
ATOM      4  C3  UNL d   1      -0.704  -1.362   4.012  0.00  0.00     0.003 A 
ATOM      5  C4  UNL d   1      -1.828  -1.848   4.676  0.00  0.00    -0.005 A 
ATOM      6  C5  UNL d   1      -3.101  -1.571   4.182  0.00  0.00     0.003 A 
ATOM      7  C6  UNL d   1      -3.249  -0.805   3.025  0.00  0.00    -0.001 A 
ENDROOT
TORSDOF 0
ENDMDL
