MODEL 1
REMARK minimizedAffinity 0.145168483
REMARK minimizedRMSD -1
REMARK  0 active torsions:
REMARK  status: ('A' for Active; 'I' for Inactive)
ROOT
ATOM      1  C   UNL d   1       0.749   1.100  -3.851  0.00  0.00     0.078 C 
ATOM      2  C1  UNL d   1       0.728   0.881  -2.367  0.00  0.00    -0.077 A 
ATOM      3  C2  UNL d   1       1.915   0.870  -1.624  0.00  0.00    -0.001 A 
ATOM      4  C3  UNL d   1       1.882   0.656  -0.245  0.00  0.00     0.003 A 
ATOM      5  C4  UNL d   1       0.665   0.450   0.402  0.00  0.00    -0.005 A 
ATOM      6  C5  UNL d   1      -0.520   0.457  -0.330  0.00  0.00     0.003 A 
ATOM      7  C6  UNL d   1      -0.489   0.671  -1.709  0.00  0.00    -0.001 A 
ENDROOT
TORSDOF 0
ENDMDL
