MODEL 1
REMARK minimizedAffinity 7.45462322
REMARK minimizedRMSD -1
REMARK  0 active torsions:
REMARK  status: ('A' for Active; 'I' for Inactive)
ROOT
ATOM      1  C   UNL d   1       4.932   2.849   4.236  0.00  0.00     0.078 C 
ATOM      2  C1  UNL d   1       4.246   3.039   2.916  0.00  0.00    -0.077 A 
ATOM      3  C2  UNL d   1       4.071   1.967   2.033  0.00  0.00    -0.001 A 
ATOM      4  C3  UNL d   1       3.440   2.160   0.804  0.00  0.00     0.003 A 
ATOM      5  C4  UNL d   1       2.979   3.426   0.445  0.00  0.00    -0.005 A 
ATOM      6  C5  UNL d   1       3.150   4.500   1.316  0.00  0.00     0.003 A 
ATOM      7  C6  UNL d   1       3.782   4.308   2.546  0.00  0.00    -0.001 A 
ENDROOT
TORSDOF 0
ENDMDL
