MODEL 1
REMARK minimizedAffinity 4.12067699
REMARK minimizedRMSD -1
REMARK  0 active torsions:
REMARK  status: ('A' for Active; 'I' for Inactive)
ROOT
ATOM      1  C   UNL d   1      -1.859   0.647   0.464  0.00  0.00     0.078 C 
ATOM      2  C1  UNL d   1      -1.894  -0.062   1.785  0.00  0.00    -0.077 A 
ATOM      3  C2  UNL d   1      -0.712  -0.468   2.417  0.00  0.00    -0.001 A 
ATOM      4  C3  UNL d   1      -0.760  -1.135   3.642  0.00  0.00     0.003 A 
ATOM      5  C4  UNL d   1      -1.987  -1.403   4.245  0.00  0.00    -0.005 A 
ATOM      6  C5  UNL d   1      -3.168  -1.004   3.623  0.00  0.00     0.003 A 
ATOM      7  C6  UNL d   1      -3.122  -0.337   2.398  0.00  0.00    -0.001 A 
ENDROOT
TORSDOF 0
ENDMDL
