MODEL 1
REMARK minimizedAffinity 6.73966408
REMARK minimizedRMSD -1
REMARK  0 active torsions:
REMARK  status: ('A' for Active; 'I' for Inactive)
ROOT
ATOM      1  C   UNL d   1      -2.278   0.875   0.441  0.00  0.00     0.078 C 
ATOM      2  C1  UNL d   1      -2.281   0.048   1.692  0.00  0.00    -0.077 A 
ATOM      3  C2  UNL d   1      -1.084  -0.420   2.249  0.00  0.00    -0.001 A 
ATOM      4  C3  UNL d   1      -1.102  -1.197   3.409  0.00  0.00     0.003 A 
ATOM      5  C4  UNL d   1      -2.314  -1.514   4.020  0.00  0.00    -0.005 A 
ATOM      6  C5  UNL d   1      -3.509  -1.055   3.471  0.00  0.00     0.003 A 
ATOM      7  C6  UNL d   1      -3.494  -0.278   2.312  0.00  0.00    -0.001 A 
ENDROOT
TORSDOF 0
ENDMDL
