MODEL 1
REMARK minimizedAffinity 8.32997894
REMARK minimizedRMSD -1
REMARK  0 active torsions:
REMARK  status: ('A' for Active; 'I' for Inactive)
ROOT
ATOM      1  C   UNL d   1      -1.577   1.291   1.365  0.00  0.00     0.078 C 
ATOM      2  C1  UNL d   1      -1.852   0.153   2.302  0.00  0.00    -0.077 A 
ATOM      3  C2  UNL d   1      -0.876  -0.291   3.203  0.00  0.00    -0.001 A 
ATOM      4  C3  UNL d   1      -1.143  -1.358   4.063  0.00  0.00     0.003 A 
ATOM      5  C4  UNL d   1      -2.385  -1.990   4.030  0.00  0.00    -0.005 A 
ATOM      6  C5  UNL d   1      -3.361  -1.556   3.135  0.00  0.00     0.003 A 
ATOM      7  C6  UNL d   1      -3.096  -0.490   2.274  0.00  0.00    -0.001 A 
ENDROOT
TORSDOF 0
ENDMDL
