MODEL 1
REMARK minimizedAffinity 0.185829341
REMARK minimizedRMSD -1
REMARK  0 active torsions:
REMARK  status: ('A' for Active; 'I' for Inactive)
ROOT
ATOM      1  C   UNL d   1       1.370   0.358   0.620  0.00  0.00     0.078 C 
ATOM      2  C1  UNL d   1       0.161   0.146   1.481  0.00  0.00    -0.077 A 
ATOM      3  C2  UNL d   1       0.236  -0.614   2.655  0.00  0.00    -0.001 A 
ATOM      4  C3  UNL d   1      -0.900  -0.811   3.441  0.00  0.00     0.003 A 
ATOM      5  C4  UNL d   1      -2.119  -0.253   3.063  0.00  0.00    -0.005 A 
ATOM      6  C5  UNL d   1      -2.204   0.503   1.895  0.00  0.00     0.003 A 
ATOM      7  C6  UNL d   1      -1.069   0.702   1.107  0.00  0.00    -0.001 A 
ENDROOT
TORSDOF 0
ENDMDL
