MODEL 1
REMARK minimizedAffinity 5.83313704
REMARK minimizedRMSD -1
REMARK  0 active torsions:
REMARK  status: ('A' for Active; 'I' for Inactive)
ROOT
ATOM      1  C   UNL d   1      -1.913   0.723   2.623  0.00  0.00     0.078 C 
ATOM      2  C1  UNL d   1      -1.261   0.307   1.339  0.00  0.00    -0.077 A 
ATOM      3  C2  UNL d   1       0.133   0.234   1.227  0.00  0.00    -0.001 A 
ATOM      4  C3  UNL d   1       0.726  -0.146   0.022  0.00  0.00     0.003 A 
ATOM      5  C4  UNL d   1      -0.067  -0.455  -1.081  0.00  0.00    -0.005 A 
ATOM      6  C5  UNL d   1      -1.455  -0.383  -0.980  0.00  0.00     0.003 A 
ATOM      7  C6  UNL d   1      -2.050  -0.004   0.224  0.00  0.00    -0.001 A 
ENDROOT
TORSDOF 0
ENDMDL
