MODEL 1
REMARK minimizedAffinity 2.03770638
REMARK minimizedRMSD -1
REMARK  0 active torsions:
REMARK  status: ('A' for Active; 'I' for Inactive)
ROOT
ATOM      1  C   UNL d   1      -0.907   0.365   0.016  0.00  0.00     0.078 C 
ATOM      2  C1  UNL d   1      -0.814  -0.065   1.450  0.00  0.00    -0.077 A 
ATOM      3  C2  UNL d   1       0.412  -0.442   2.011  0.00  0.00    -0.001 A 
ATOM      4  C3  UNL d   1       0.483  -0.849   3.345  0.00  0.00     0.003 A 
ATOM      5  C4  UNL d   1      -0.669  -0.883   4.128  0.00  0.00    -0.005 A 
ATOM      6  C5  UNL d   1      -1.894  -0.511   3.578  0.00  0.00     0.003 A 
ATOM      7  C6  UNL d   1      -1.966  -0.104   2.245  0.00  0.00    -0.001 A 
ENDROOT
TORSDOF 0
ENDMDL
