MODEL 1
REMARK minimizedAffinity 7.49243212
REMARK minimizedRMSD -1
REMARK  0 active torsions:
REMARK  status: ('A' for Active; 'I' for Inactive)
ROOT
ATOM      1  C   UNL d   1      -2.248   1.327   0.862  0.00  0.00     0.078 C 
ATOM      2  C1  UNL d   1      -2.235   0.227   1.882  0.00  0.00    -0.077 A 
ATOM      3  C2  UNL d   1      -1.089  -0.038   2.642  0.00  0.00    -0.001 A 
ATOM      4  C3  UNL d   1      -1.089  -1.071   3.580  0.00  0.00     0.003 A 
ATOM      5  C4  UNL d   1      -2.230  -1.848   3.767  0.00  0.00    -0.005 A 
ATOM      6  C5  UNL d   1      -3.375  -1.593   3.014  0.00  0.00     0.003 A 
ATOM      7  C6  UNL d   1      -3.377  -0.560   2.075  0.00  0.00    -0.001 A 
ENDROOT
TORSDOF 0
ENDMDL
