MODEL 1
REMARK minimizedAffinity 1.14770114
REMARK minimizedRMSD -1
REMARK  0 active torsions:
REMARK  status: ('A' for Active; 'I' for Inactive)
ROOT
ATOM      1  C   UNL d   1       3.094   2.205   1.289  0.00  0.00     0.078 C 
ATOM      2  C1  UNL d   1       2.155   1.435   0.410  0.00  0.00    -0.077 A 
ATOM      3  C2  UNL d   1       1.119   0.668   0.959  0.00  0.00    -0.001 A 
ATOM      4  C3  UNL d   1       0.258  -0.052   0.129  0.00  0.00     0.003 A 
ATOM      5  C4  UNL d   1       0.424  -0.014  -1.254  0.00  0.00    -0.005 A 
ATOM      6  C5  UNL d   1       1.453   0.745  -1.809  0.00  0.00     0.003 A 
ATOM      7  C6  UNL d   1       2.315   1.465  -0.981  0.00  0.00    -0.001 A 
ENDROOT
TORSDOF 0
ENDMDL
