MODEL 1
REMARK minimizedAffinity 3.25753975
REMARK minimizedRMSD -1
REMARK  0 active torsions:
REMARK  status: ('A' for Active; 'I' for Inactive)
ROOT
ATOM      1  C   UNL d   1       1.388  -0.089   0.336  0.00  0.00     0.078 C 
ATOM      2  C1  UNL d   1      -0.081   0.093   0.575  0.00  0.00    -0.077 A 
ATOM      3  C2  UNL d   1      -1.018  -0.224  -0.416  0.00  0.00    -0.001 A 
ATOM      4  C3  UNL d   1      -2.382  -0.040  -0.183  0.00  0.00     0.003 A 
ATOM      5  C4  UNL d   1      -2.821   0.462   1.041  0.00  0.00    -0.005 A 
ATOM      6  C5  UNL d   1      -1.896   0.782   2.033  0.00  0.00     0.003 A 
ATOM      7  C6  UNL d   1      -0.532   0.599   1.801  0.00  0.00    -0.001 A 
ENDROOT
TORSDOF 0
ENDMDL
