MODEL 1
REMARK minimizedAffinity -0.599054456
REMARK minimizedRMSD -1
REMARK  0 active torsions:
REMARK  status: ('A' for Active; 'I' for Inactive)
ROOT
ATOM      1  C   UNL d   1       0.669  -1.118   3.861  0.00  0.00     0.078 C 
ATOM      2  C1  UNL d   1      -0.294  -0.478   2.906  0.00  0.00    -0.077 A 
ATOM      3  C2  UNL d   1      -1.529   0.013   3.347  0.00  0.00    -0.001 A 
ATOM      4  C3  UNL d   1      -2.420   0.597   2.445  0.00  0.00     0.003 A 
ATOM      5  C4  UNL d   1      -2.086   0.694   1.096  0.00  0.00    -0.005 A 
ATOM      6  C5  UNL d   1      -0.861   0.206   0.647  0.00  0.00     0.003 A 
ATOM      7  C6  UNL d   1       0.031  -0.379   1.547  0.00  0.00    -0.001 A 
ENDROOT
TORSDOF 0
ENDMDL
