MODEL 1
REMARK minimizedAffinity -1.20702052
REMARK minimizedRMSD -1
REMARK  0 active torsions:
REMARK  status: ('A' for Active; 'I' for Inactive)
ROOT
ATOM      1  C   UNL d   1       0.944  -1.915   4.852  0.00  0.00     0.078 C 
ATOM      2  C1  UNL d   1       0.188  -1.354   3.685  0.00  0.00    -0.077 A 
ATOM      3  C2  UNL d   1       0.839  -1.048   2.483  0.00  0.00    -0.001 A 
ATOM      4  C3  UNL d   1       0.124  -0.517   1.408  0.00  0.00     0.003 A 
ATOM      5  C4  UNL d   1      -1.245  -0.287   1.524  0.00  0.00    -0.005 A 
ATOM      6  C5  UNL d   1      -1.901  -0.587   2.716  0.00  0.00     0.003 A 
ATOM      7  C6  UNL d   1      -1.188  -1.117   3.792  0.00  0.00    -0.001 A 
ENDROOT
TORSDOF 0
ENDMDL
