MODEL 1
REMARK minimizedAffinity 13.982482
REMARK minimizedRMSD -1
REMARK  0 active torsions:
REMARK  status: ('A' for Active; 'I' for Inactive)
ROOT
ATOM      1  C   UNL d   1      -4.851   0.649  -1.743  0.00  0.00    -0.002 A 
ATOM      2  C1  UNL d   1      -4.072  -0.102  -0.873  0.00  0.00     0.010 A 
ATOM      3  C2  UNL d   1      -2.680   0.001  -0.898  0.00  0.00     0.041 A 
ATOM      4  C3  UNL d   1      -2.078   0.880  -1.819  0.00  0.00    -0.075 A 
ATOM      5  S   UNL d   1      -0.391   1.171  -2.029  0.00  0.00     0.015 SA
ATOM      6  C4  UNL d   1      -0.665   2.299  -3.277  0.00  0.00     0.022 A 
ATOM      7  C5  UNL d   1      -2.004   2.462  -3.540  0.00  0.00     0.026 A 
ATOM      8  C6  UNL d   1      -2.841   1.647  -2.704  0.00  0.00    -0.082 A 
ATOM      9  C7  UNL d   1      -4.250   1.520  -2.655  0.00  0.00     0.045 A 
ENDROOT
TORSDOF 0
ENDMDL
