MODEL 1
REMARK minimizedAffinity 10.0066643
REMARK minimizedRMSD -1
REMARK  0 active torsions:
REMARK  status: ('A' for Active; 'I' for Inactive)
ROOT
ATOM      1  C   UNL d   1      -0.467  -5.382  -1.570  0.00  0.00    -0.002 A 
ATOM      2  C1  UNL d   1      -1.589  -5.788  -2.280  0.00  0.00     0.010 A 
ATOM      3  C2  UNL d   1      -1.518  -6.000  -3.659  0.00  0.00     0.041 A 
ATOM      4  C3  UNL d   1      -0.290  -5.797  -4.317  0.00  0.00    -0.075 A 
ATOM      5  S   UNL d   1       0.033  -5.996  -5.999  0.00  0.00     0.015 SA
ATOM      6  C4  UNL d   1       1.667  -5.548  -5.815  0.00  0.00     0.022 A 
ATOM      7  C5  UNL d   1       1.976  -5.250  -4.509  0.00  0.00     0.026 A 
ATOM      8  C6  UNL d   1       0.854  -5.389  -3.624  0.00  0.00    -0.082 A 
ATOM      9  C7  UNL d   1       0.750  -5.182  -2.227  0.00  0.00     0.045 A 
ENDROOT
TORSDOF 0
ENDMDL
