MODEL 1
REMARK minimizedAffinity 7.20121098
REMARK minimizedRMSD -1
REMARK  0 active torsions:
REMARK  status: ('A' for Active; 'I' for Inactive)
ROOT
ATOM      1  C   UNL d   1      -2.862  -5.988  -3.166  0.00  0.00    -0.002 A 
ATOM      2  C1  UNL d   1      -1.969  -5.935  -2.105  0.00  0.00     0.010 A 
ATOM      3  C2  UNL d   1      -0.593  -5.892  -2.337  0.00  0.00     0.041 A 
ATOM      4  C3  UNL d   1      -0.125  -5.901  -3.666  0.00  0.00    -0.075 A 
ATOM      5  S   UNL d   1       1.517  -5.853  -4.190  0.00  0.00     0.015 SA
ATOM      6  C4  UNL d   1       1.071  -5.901  -5.834  0.00  0.00     0.022 A 
ATOM      7  C5  UNL d   1      -0.293  -5.952  -5.998  0.00  0.00     0.026 A 
ATOM      8  C6  UNL d   1      -1.005  -5.952  -4.751  0.00  0.00    -0.082 A 
ATOM      9  C7  UNL d   1      -2.394  -5.996  -4.483  0.00  0.00     0.045 A 
ENDROOT
TORSDOF 0
ENDMDL
