MODEL 1
REMARK minimizedAffinity 8.56834507
REMARK minimizedRMSD -1
REMARK  0 active torsions:
REMARK  status: ('A' for Active; 'I' for Inactive)
ROOT
ATOM      1  C   UNL d   1       0.249  -5.996  -5.953  0.00  0.00    -0.002 A 
ATOM      2  C1  UNL d   1       1.296  -5.989  -5.043  0.00  0.00     0.010 A 
ATOM      3  C2  UNL d   1       1.044  -5.971  -3.670  0.00  0.00     0.041 A 
ATOM      4  C3  UNL d   1      -0.292  -5.962  -3.222  0.00  0.00    -0.075 A 
ATOM      5  S   UNL d   1      -0.840  -5.941  -1.588  0.00  0.00     0.015 SA
ATOM      6  C4  UNL d   1      -2.478  -5.941  -2.059  0.00  0.00     0.022 A 
ATOM      7  C5  UNL d   1      -2.621  -5.956  -3.427  0.00  0.00     0.026 A 
ATOM      8  C6  UNL d   1      -1.363  -5.969  -4.119  0.00  0.00    -0.082 A 
ATOM      9  C7  UNL d   1      -1.075  -5.986  -5.505  0.00  0.00     0.045 A 
ENDROOT
TORSDOF 0
ENDMDL
