MODEL 1
REMARK minimizedAffinity 2.33645439
REMARK minimizedRMSD -1
REMARK  0 active torsions:
REMARK  status: ('A' for Active; 'I' for Inactive)
ROOT
ATOM      1  C   UNL d   1      -3.694  -5.994  -2.913  0.00  0.00    -0.002 A 
ATOM      2  C1  UNL d   1      -2.990  -5.997  -1.717  0.00  0.00     0.010 A 
ATOM      3  C2  UNL d   1      -1.594  -6.000  -1.714  0.00  0.00     0.041 A 
ATOM      4  C3  UNL d   1      -0.910  -5.998  -2.946  0.00  0.00    -0.075 A 
ATOM      5  S   UNL d   1       0.797  -6.000  -3.186  0.00  0.00     0.015 SA
ATOM      6  C4  UNL d   1       0.633  -5.996  -4.883  0.00  0.00     0.022 A 
ATOM      7  C5  UNL d   1      -0.685  -5.994  -5.273  0.00  0.00     0.026 A 
ATOM      8  C6  UNL d   1      -1.596  -5.995  -4.163  0.00  0.00    -0.082 A 
ATOM      9  C7  UNL d   1      -3.012  -5.993  -4.133  0.00  0.00     0.045 A 
ENDROOT
TORSDOF 0
ENDMDL
