MODEL 1
REMARK minimizedAffinity -0.705095708
REMARK minimizedRMSD -1
REMARK  0 active torsions:
REMARK  status: ('A' for Active; 'I' for Inactive)
ROOT
ATOM      1  C   UNL d   1      -2.703  -5.999  -3.016  0.00  0.00    -0.002 A 
ATOM      2  C1  UNL d   1      -2.630  -5.998  -4.401  0.00  0.00     0.010 A 
ATOM      3  C2  UNL d   1      -1.391  -5.996  -5.047  0.00  0.00     0.041 A 
ATOM      4  C3  UNL d   1      -0.217  -5.997  -4.268  0.00  0.00    -0.075 A 
ATOM      5  S   UNL d   1       1.409  -5.995  -4.840  0.00  0.00     0.015 SA
ATOM      6  C4  UNL d   1       2.044  -5.997  -3.259  0.00  0.00     0.022 A 
ATOM      7  C5  UNL d   1       1.054  -5.998  -2.305  0.00  0.00     0.026 A 
ATOM      8  C6  UNL d   1      -0.266  -5.999  -2.871  0.00  0.00    -0.082 A 
ATOM      9  C7  UNL d   1      -1.536  -6.000  -2.247  0.00  0.00     0.045 A 
ENDROOT
TORSDOF 0
ENDMDL
