MODEL 1
REMARK minimizedAffinity 6.8225832
REMARK minimizedRMSD -1
REMARK  0 active torsions:
REMARK  status: ('A' for Active; 'I' for Inactive)
ROOT
ATOM      1  C   UNL d   1      -2.585  -5.992  -2.551  0.00  0.00    -0.002 A 
ATOM      2  C1  UNL d   1      -1.616  -5.997  -1.558  0.00  0.00     0.010 A 
ATOM      3  C2  UNL d   1      -0.259  -6.000  -1.889  0.00  0.00     0.041 A 
ATOM      4  C3  UNL d   1       0.110  -5.996  -3.249  0.00  0.00    -0.075 A 
ATOM      5  S   UNL d   1       1.710  -5.998  -3.891  0.00  0.00     0.015 SA
ATOM      6  C4  UNL d   1       1.144  -5.991  -5.499  0.00  0.00     0.022 A 
ATOM      7  C5  UNL d   1      -0.229  -5.988  -5.563  0.00  0.00     0.026 A 
ATOM      8  C6  UNL d   1      -0.848  -5.990  -4.267  0.00  0.00    -0.082 A 
ATOM      9  C7  UNL d   1      -2.215  -5.988  -3.898  0.00  0.00     0.045 A 
ENDROOT
TORSDOF 0
ENDMDL
