MODEL 1
REMARK minimizedAffinity 11.6865387
REMARK minimizedRMSD -1
REMARK  0 active torsions:
REMARK  status: ('A' for Active; 'I' for Inactive)
ROOT
ATOM      1  C   UNL d   1       2.588  -5.971  -5.505  0.00  0.00    -0.002 A 
ATOM      2  C1  UNL d   1       2.887  -5.978  -4.150  0.00  0.00     0.010 A 
ATOM      3  C2  UNL d   1       1.866  -5.982  -3.197  0.00  0.00     0.041 A 
ATOM      4  C3  UNL d   1       0.527  -5.980  -3.633  0.00  0.00    -0.075 A 
ATOM      5  S   UNL d   1      -0.887  -5.984  -2.647  0.00  0.00     0.015 SA
ATOM      6  C4  UNL d   1      -1.922  -5.977  -4.001  0.00  0.00     0.022 A 
ATOM      7  C5  UNL d   1      -1.223  -5.972  -5.185  0.00  0.00     0.026 A 
ATOM      8  C6  UNL d   1       0.200  -5.973  -4.992  0.00  0.00    -0.082 A 
ATOM      9  C7  UNL d   1       1.258  -5.969  -5.934  0.00  0.00     0.045 A 
ENDROOT
TORSDOF 0
ENDMDL
