MODEL 1
REMARK minimizedAffinity 2.01300907
REMARK minimizedRMSD -1
REMARK  0 active torsions:
REMARK  status: ('A' for Active; 'I' for Inactive)
ROOT
ATOM      1  C   UNL d   1       1.853  -5.994  -5.595  0.00  0.00    -0.002 A 
ATOM      2  C1  UNL d   1       2.277  -5.997  -4.274  0.00  0.00     0.010 A 
ATOM      3  C2  UNL d   1       1.350  -5.998  -3.230  0.00  0.00     0.041 A 
ATOM      4  C3  UNL d   1      -0.024  -5.998  -3.539  0.00  0.00    -0.075 A 
ATOM      5  S   UNL d   1      -1.340  -6.000  -2.425  0.00  0.00     0.015 SA
ATOM      6  C4  UNL d   1      -2.497  -5.998  -3.677  0.00  0.00     0.022 A 
ATOM      7  C5  UNL d   1      -1.911  -5.996  -4.921  0.00  0.00     0.026 A 
ATOM      8  C6  UNL d   1      -0.477  -5.996  -4.862  0.00  0.00    -0.082 A 
ATOM      9  C7  UNL d   1       0.488  -5.994  -5.898  0.00  0.00     0.045 A 
ENDROOT
TORSDOF 0
ENDMDL
