MODEL 1
REMARK minimizedAffinity 4.67934942
REMARK minimizedRMSD -1
REMARK  0 active torsions:
REMARK  status: ('A' for Active; 'I' for Inactive)
ROOT
ATOM      1  C   UNL d   1       0.423  -3.000   1.325  0.00  0.00    -0.002 A 
ATOM      2  C1  UNL d   1       0.479  -2.017   2.303  0.00  0.00     0.010 A 
ATOM      3  C2  UNL d   1       0.456  -0.666   1.954  0.00  0.00     0.041 A 
ATOM      4  C3  UNL d   1       0.375  -0.314   0.592  0.00  0.00    -0.075 A 
ATOM      5  S   UNL d   1       0.332   1.277  -0.070  0.00  0.00     0.015 SA
ATOM      6  C4  UNL d   1       0.238   0.690  -1.667  0.00  0.00     0.022 A 
ATOM      7  C5  UNL d   1       0.238  -0.684  -1.713  0.00  0.00     0.026 A 
ATOM      8  C6  UNL d   1       0.316  -1.286  -0.411  0.00  0.00    -0.082 A 
ATOM      9  C7  UNL d   1       0.341  -2.648  -0.025  0.00  0.00     0.045 A 
ENDROOT
TORSDOF 0
ENDMDL
