MODEL 1
REMARK minimizedAffinity -2.40392637
REMARK minimizedRMSD -1
REMARK  0 active torsions:
REMARK  status: ('A' for Active; 'I' for Inactive)
ROOT
ATOM      1  C   UNL d   1      -1.347  -1.297  -1.910  0.00  0.00     0.078 C 
ATOM      2  C1  UNL d   1      -1.934  -0.156  -2.687  0.00  0.00    -0.077 A 
ATOM      3  C2  UNL d   1      -1.988  -0.189  -4.086  0.00  0.00    -0.001 A 
ATOM      4  C3  UNL d   1      -2.529   0.884  -4.796  0.00  0.00     0.003 A 
ATOM      5  C4  UNL d   1      -3.019   1.998  -4.116  0.00  0.00    -0.005 A 
ATOM      6  C5  UNL d   1      -2.968   2.040  -2.724  0.00  0.00     0.003 A 
ATOM      7  C6  UNL d   1      -2.427   0.968  -2.012  0.00  0.00    -0.001 A 
ENDROOT
TORSDOF 0
ENDMDL
