MODEL 1
REMARK minimizedAffinity -0.886936247
REMARK minimizedRMSD -1
REMARK  0 active torsions:
REMARK  status: ('A' for Active; 'I' for Inactive)
ROOT
ATOM      1  C   UNL d   1      -0.064   2.658  -0.933  0.00  0.00     0.078 C 
ATOM      2  C1  UNL d   1      -0.338   1.310  -1.530  0.00  0.00    -0.077 A 
ATOM      3  C2  UNL d   1      -0.843   0.264  -0.747  0.00  0.00    -0.001 A 
ATOM      4  C3  UNL d   1      -1.085  -0.988  -1.314  0.00  0.00     0.003 A 
ATOM      5  C4  UNL d   1      -0.824  -1.207  -2.665  0.00  0.00    -0.005 A 
ATOM      6  C5  UNL d   1      -0.319  -0.173  -3.451  0.00  0.00     0.003 A 
ATOM      7  C6  UNL d   1      -0.077   1.080  -2.886  0.00  0.00    -0.001 A 
ENDROOT
TORSDOF 0
ENDMDL
