MODEL 1
REMARK minimizedAffinity 3.34814715
REMARK minimizedRMSD -1
REMARK  0 active torsions:
REMARK  status: ('A' for Active; 'I' for Inactive)
ROOT
ATOM      1  C   UNL d   1       1.167   0.307  -1.557  0.00  0.00     0.078 C 
ATOM      2  C1  UNL d   1       0.621   1.439  -0.740  0.00  0.00    -0.077 A 
ATOM      3  C2  UNL d   1       1.097   1.691   0.553  0.00  0.00    -0.001 A 
ATOM      4  C3  UNL d   1       0.571   2.743   1.305  0.00  0.00     0.003 A 
ATOM      5  C4  UNL d   1      -0.433   3.550   0.775  0.00  0.00    -0.005 A 
ATOM      6  C5  UNL d   1      -0.915   3.305  -0.509  0.00  0.00     0.003 A 
ATOM      7  C6  UNL d   1      -0.391   2.254  -1.264  0.00  0.00    -0.001 A 
ENDROOT
TORSDOF 0
ENDMDL
