MODEL 1
REMARK minimizedAffinity 5.90967226
REMARK minimizedRMSD -1
REMARK  0 active torsions:
REMARK  status: ('A' for Active; 'I' for Inactive)
ROOT
ATOM      1  C   UNL d   1       2.529  -3.013   0.268  0.00  0.00     0.078 C 
ATOM      2  C1  UNL d   1       1.360  -3.722  -0.348  0.00  0.00    -0.077 A 
ATOM      3  C2  UNL d   1       0.308  -3.006  -0.933  0.00  0.00    -0.001 A 
ATOM      4  C3  UNL d   1      -0.778  -3.679  -1.494  0.00  0.00     0.003 A 
ATOM      5  C4  UNL d   1      -0.824  -5.072  -1.475  0.00  0.00    -0.005 A 
ATOM      6  C5  UNL d   1       0.217  -5.793  -0.894  0.00  0.00     0.003 A 
ATOM      7  C6  UNL d   1       1.304  -5.121  -0.332  0.00  0.00    -0.001 A 
ENDROOT
TORSDOF 0
ENDMDL
