MODEL 1
REMARK minimizedAffinity 3.67836022
REMARK minimizedRMSD -1
REMARK  0 active torsions:
REMARK  status: ('A' for Active; 'I' for Inactive)
ROOT
ATOM      1  C   UNL d   1       1.188   5.264  -1.853  0.00  0.00     0.078 C 
ATOM      2  C1  UNL d   1       0.824   4.375  -0.702  0.00  0.00    -0.077 A 
ATOM      3  C2  UNL d   1       1.771   4.025   0.267  0.00  0.00    -0.001 A 
ATOM      4  C3  UNL d   1       1.420   3.188   1.328  0.00  0.00     0.003 A 
ATOM      5  C4  UNL d   1       0.121   2.694   1.429  0.00  0.00    -0.005 A 
ATOM      6  C5  UNL d   1      -0.828   3.036   0.468  0.00  0.00     0.003 A 
ATOM      7  C6  UNL d   1      -0.479   3.872  -0.593  0.00  0.00    -0.001 A 
ENDROOT
TORSDOF 0
ENDMDL
