MODEL 1
REMARK minimizedAffinity -3.80546689
REMARK minimizedRMSD -1
REMARK  0 active torsions:
REMARK  status: ('A' for Active; 'I' for Inactive)
ROOT
ATOM      1  C   UNL d   1      -5.999   2.686  -3.430  0.00  0.00     0.078 C 
ATOM      2  C1  UNL d   1      -5.184   1.810  -4.333  0.00  0.00    -0.077 A 
ATOM      3  C2  UNL d   1      -5.777   0.764  -5.051  0.00  0.00    -0.001 A 
ATOM      4  C3  UNL d   1      -5.004  -0.050  -5.881  0.00  0.00     0.003 A 
ATOM      5  C4  UNL d   1      -3.634   0.173  -6.000  0.00  0.00    -0.005 A 
ATOM      6  C5  UNL d   1      -3.034   1.210  -5.288  0.00  0.00     0.003 A 
ATOM      7  C6  UNL d   1      -3.805   2.025  -4.458  0.00  0.00    -0.001 A 
ENDROOT
TORSDOF 0
ENDMDL
