MODEL 1
REMARK minimizedAffinity 3.4621985
REMARK minimizedRMSD -1
REMARK  0 active torsions:
REMARK  status: ('A' for Active; 'I' for Inactive)
ROOT
ATOM      1  C   UNL d   1      -4.659   4.121  -5.996  0.00  0.00     0.078 C 
ATOM      2  C1  UNL d   1      -4.750   3.727  -4.552  0.00  0.00    -0.077 A 
ATOM      3  C2  UNL d   1      -3.715   3.016  -3.932  0.00  0.00    -0.001 A 
ATOM      4  C3  UNL d   1      -3.818   2.647  -2.590  0.00  0.00     0.003 A 
ATOM      5  C4  UNL d   1      -4.954   2.983  -1.857  0.00  0.00    -0.005 A 
ATOM      6  C5  UNL d   1      -5.990   3.689  -2.466  0.00  0.00     0.003 A 
ATOM      7  C6  UNL d   1      -5.889   4.058  -3.808  0.00  0.00    -0.001 A 
ENDROOT
TORSDOF 0
ENDMDL
