MODEL 1
REMARK minimizedAffinity 2.84276462
REMARK minimizedRMSD -1
REMARK  0 active torsions:
REMARK  status: ('A' for Active; 'I' for Inactive)
ROOT
ATOM      1  C   UNL d   1       2.815   1.931   1.140  0.00  0.00     0.023 A 
ATOM      2  C1  UNL d   1       1.610   1.778   1.827  0.00  0.00     0.003 A 
ATOM      3  C2  UNL d   1       0.683   0.822   1.406  0.00  0.00     0.048 A 
ATOM      4  C3  UNL d   1       0.967   0.022   0.300  0.00  0.00     0.023 A 
ATOM      5  C4  UNL d   1       2.172   0.172  -0.389  0.00  0.00     0.048 A 
ATOM      6  C5  UNL d   1       3.095   1.130   0.034  0.00  0.00     0.003 A 
ATOM      7  I   UNL d   1      -0.411  -1.402  -0.327  0.00  0.00    -0.146 I 
ENDROOT
TORSDOF 0
ENDMDL
