MODEL 1
REMARK minimizedAffinity 6.42302895
REMARK minimizedRMSD -1
REMARK  0 active torsions:
REMARK  status: ('A' for Active; 'I' for Inactive)
ROOT
ATOM      1  C   UNL d   1       6.000   2.953   3.256  0.00  0.00     0.023 A 
ATOM      2  C1  UNL d   1       5.519   2.774   1.959  0.00  0.00     0.003 A 
ATOM      3  C2  UNL d   1       4.177   2.450   1.748  0.00  0.00     0.048 A 
ATOM      4  C3  UNL d   1       3.321   2.306   2.840  0.00  0.00     0.023 A 
ATOM      5  C4  UNL d   1       3.798   2.484   4.140  0.00  0.00     0.048 A 
ATOM      6  C5  UNL d   1       5.140   2.808   4.345  0.00  0.00     0.003 A 
ATOM      7  I   UNL d   1       1.324   1.823   2.529  0.00  0.00    -0.146 I 
ENDROOT
TORSDOF 0
ENDMDL
