MODEL 1
REMARK minimizedAffinity 1.9392488
REMARK minimizedRMSD -1
REMARK  0 active torsions:
REMARK  status: ('A' for Active; 'I' for Inactive)
ROOT
ATOM      1  C   UNL d   1       2.543   1.681   2.668  0.00  0.00     0.023 A 
ATOM      2  C1  UNL d   1       3.004   1.539   1.360  0.00  0.00     0.003 A 
ATOM      3  C2  UNL d   1       2.327   0.707   0.466  0.00  0.00     0.048 A 
ATOM      4  C3  UNL d   1       1.189   0.021   0.887  0.00  0.00     0.023 A 
ATOM      5  C4  UNL d   1       0.723   0.161   2.195  0.00  0.00     0.048 A 
ATOM      6  C5  UNL d   1       1.404   0.993   3.086  0.00  0.00     0.003 A 
ATOM      7  I   UNL d   1       0.179  -1.218  -0.442  0.00  0.00    -0.146 I 
ENDROOT
TORSDOF 0
ENDMDL
