MODEL 1
REMARK minimizedAffinity 2.19559503
REMARK minimizedRMSD -1
REMARK  0 active torsions:
REMARK  status: ('A' for Active; 'I' for Inactive)
ROOT
ATOM      1  C   UNL d   1      -0.956  -0.781  -0.542  0.00  0.00     0.023 A 
ATOM      2  C1  UNL d   1      -2.102  -1.123  -1.261  0.00  0.00     0.003 A 
ATOM      3  C2  UNL d   1      -2.146  -2.321  -1.977  0.00  0.00     0.048 A 
ATOM      4  C3  UNL d   1      -1.042  -3.173  -1.968  0.00  0.00     0.023 A 
ATOM      5  C4  UNL d   1       0.105  -2.835  -1.249  0.00  0.00     0.048 A 
ATOM      6  C5  UNL d   1       0.146  -1.636  -0.536  0.00  0.00     0.003 A 
ATOM      7  I   UNL d   1      -1.106  -4.957  -3.033  0.00  0.00    -0.146 I 
ENDROOT
TORSDOF 0
ENDMDL
