MODEL 1
REMARK minimizedAffinity 2.90557885
REMARK minimizedRMSD -1
REMARK  0 active torsions:
REMARK  status: ('A' for Active; 'I' for Inactive)
ROOT
ATOM      1  C   UNL d   1       0.850  -1.183  -1.211  0.00  0.00     0.023 A 
ATOM      2  C1  UNL d   1      -0.370  -1.096  -0.540  0.00  0.00     0.003 A 
ATOM      3  C2  UNL d   1      -0.408  -0.677   0.791  0.00  0.00     0.048 A 
ATOM      4  C3  UNL d   1       0.778  -0.345   1.446  0.00  0.00     0.023 A 
ATOM      5  C4  UNL d   1       2.001  -0.430   0.778  0.00  0.00     0.048 A 
ATOM      6  C5  UNL d   1       2.034  -0.851  -0.553  0.00  0.00     0.003 A 
ATOM      7  I   UNL d   1       0.725   0.279   3.427  0.00  0.00    -0.146 I 
ENDROOT
TORSDOF 0
ENDMDL
