MODEL 1
REMARK minimizedAffinity 4.85440302
REMARK minimizedRMSD -1
REMARK  0 active torsions:
REMARK  status: ('A' for Active; 'I' for Inactive)
ROOT
ATOM      1  N1  IND d   1       5.036  -1.949   6.000  0.00  0.00    -0.196 N 
ATOM      2  C2  IND d   1       5.785  -3.092   6.000  0.00  0.00     0.054 A 
ATOM      3  C3  IND d   1       5.276  -3.988   5.124  0.00  0.00    -0.031 A 
ATOM      4  C4  IND d   1       3.282  -3.748   3.514  0.00  0.00     0.051 A 
ATOM      5  C5  IND d   1       2.266  -2.899   3.176  0.00  0.00    -0.031 A 
ATOM      6  C6  IND d   1       2.120  -1.664   3.773  0.00  0.00     0.015 A 
ATOM      7  C7  IND d   1       2.995  -1.225   4.726  0.00  0.00    -0.016 A 
ATOM      8  C8  IND d   1       4.024  -2.087   5.076  0.00  0.00    -0.047 A 
ATOM      9  C9  IND d   1       4.153  -3.360   4.504  0.00  0.00    -0.096 A 
ATOM     10  HN1 IND d   1       5.174  -1.259   6.494  0.00  0.00     0.298 HD
ENDROOT
TORSDOF 0
ENDMDL
