MODEL 1
REMARK minimizedAffinity 2.01941538
REMARK minimizedRMSD -1
REMARK  0 active torsions:
REMARK  status: ('A' for Active; 'I' for Inactive)
ROOT
ATOM      1  N1  IND d   1      -1.894  -2.433  -0.451  0.00  0.00    -0.196 N 
ATOM      2  C2  IND d   1      -1.171  -2.615   0.695  0.00  0.00     0.054 A 
ATOM      3  C3  IND d   1       0.150  -2.667   0.415  0.00  0.00    -0.031 A 
ATOM      4  C4  IND d   1       1.356  -2.375  -1.841  0.00  0.00     0.051 A 
ATOM      5  C5  IND d   1       1.118  -2.224  -3.178  0.00  0.00    -0.031 A 
ATOM      6  C6  IND d   1      -0.162  -2.130  -3.685  0.00  0.00     0.015 A 
ATOM      7  C7  IND d   1      -1.256  -2.173  -2.868  0.00  0.00    -0.016 A 
ATOM      8  C8  IND d   1      -1.018  -2.333  -1.510  0.00  0.00    -0.047 A 
ATOM      9  C9  IND d   1       0.277  -2.471  -0.995  0.00  0.00    -0.096 A 
ATOM     10  HN1 IND d   1      -2.751  -2.388  -0.502  0.00  0.00     0.298 HD
ENDROOT
TORSDOF 0
ENDMDL
