MODEL 1
REMARK minimizedAffinity -0.275426656
REMARK minimizedRMSD -1
REMARK  0 active torsions:
REMARK  status: ('A' for Active; 'I' for Inactive)
ROOT
ATOM      1  N1  IND d   1      -2.828  -2.407  -2.059  0.00  0.00    -0.196 N 
ATOM      2  C2  IND d   1      -2.986  -2.514  -0.705  0.00  0.00     0.054 A 
ATOM      3  C3  IND d   1      -1.784  -2.651  -0.101  0.00  0.00    -0.031 A 
ATOM      4  C4  IND d   1       0.576  -2.625  -1.128  0.00  0.00     0.051 A 
ATOM      5  C5  IND d   1       1.228  -2.589  -2.329  0.00  0.00    -0.031 A 
ATOM      6  C6  IND d   1       0.547  -2.485  -3.525  0.00  0.00     0.015 A 
ATOM      7  C7  IND d   1      -0.816  -2.403  -3.564  0.00  0.00    -0.016 A 
ATOM      8  C8  IND d   1      -1.481  -2.446  -2.348  0.00  0.00    -0.047 A 
ATOM      9  C9  IND d   1      -0.798  -2.594  -1.133  0.00  0.00    -0.096 A 
ATOM     10  HN1 IND d   1      -3.462  -2.329  -2.634  0.00  0.00     0.298 HD
ENDROOT
TORSDOF 0
ENDMDL
