MODEL 1
REMARK minimizedAffinity -0.823584557
REMARK minimizedRMSD -1
REMARK  0 active torsions:
REMARK  status: ('A' for Active; 'I' for Inactive)
ROOT
ATOM      1  N1  IND d   1      -2.952  -1.941  -1.988  0.00  0.00    -0.196 N 
ATOM      2  C2  IND d   1      -3.415  -2.251  -0.740  0.00  0.00     0.054 A 
ATOM      3  C3  IND d   1      -2.395  -2.649   0.054  0.00  0.00    -0.031 A 
ATOM      4  C4  IND d   1       0.125  -2.767  -0.456  0.00  0.00     0.051 A 
ATOM      5  C5  IND d   1       1.027  -2.617  -1.473  0.00  0.00    -0.031 A 
ATOM      6  C6  IND d   1       0.640  -2.223  -2.738  0.00  0.00     0.015 A 
ATOM      7  C7  IND d   1      -0.666  -1.953  -3.032  0.00  0.00    -0.016 A 
ATOM      8  C8  IND d   1      -1.585  -2.111  -2.004  0.00  0.00    -0.047 A 
ATOM      9  C9  IND d   1      -1.205  -2.551  -0.729  0.00  0.00    -0.096 A 
ATOM     10  HN1 IND d   1      -3.434  -1.683  -2.652  0.00  0.00     0.298 HD
ENDROOT
TORSDOF 0
ENDMDL
