MODEL 1
REMARK minimizedAffinity 5.14448071
REMARK minimizedRMSD -1
REMARK  0 active torsions:
REMARK  status: ('A' for Active; 'I' for Inactive)
ROOT
ATOM      1  N1  IND d   1       3.827   3.334  -4.430  0.00  0.00    -0.196 N 
ATOM      2  C2  IND d   1       4.976   2.651  -4.715  0.00  0.00     0.054 A 
ATOM      3  C3  IND d   1       6.000   3.119  -3.967  0.00  0.00    -0.031 A 
ATOM      4  C4  IND d   1       5.994   4.931  -2.138  0.00  0.00     0.051 A 
ATOM      5  C5  IND d   1       5.187   5.863  -1.548  0.00  0.00    -0.031 A 
ATOM      6  C6  IND d   1       3.858   6.000  -1.893  0.00  0.00     0.015 A 
ATOM      7  C7  IND d   1       3.281   5.199  -2.837  0.00  0.00    -0.016 A 
ATOM      8  C8  IND d   1       4.099   4.257  -3.444  0.00  0.00    -0.047 A 
ATOM      9  C9  IND d   1       5.459   4.142  -3.129  0.00  0.00    -0.096 A 
ATOM     10  HN1 IND d   1       3.063   3.208  -4.803  0.00  0.00     0.298 HD
ENDROOT
TORSDOF 0
ENDMDL
