MODEL 1
REMARK minimizedAffinity -0.464584142
REMARK minimizedRMSD -1
REMARK  0 active torsions:
REMARK  status: ('A' for Active; 'I' for Inactive)
ROOT
ATOM      1  N1  IND d   1       5.952  -4.909   6.000  0.00  0.00    -0.196 N 
ATOM      2  C2  IND d   1       4.941  -5.829   5.965  0.00  0.00     0.054 A 
ATOM      3  C3  IND d   1       3.742  -5.208   5.900  0.00  0.00    -0.031 A 
ATOM      4  C4  IND d   1       3.209  -2.694   5.738  0.00  0.00     0.051 A 
ATOM      5  C5  IND d   1       3.802  -1.463   5.771  0.00  0.00    -0.031 A 
ATOM      6  C6  IND d   1       5.169  -1.315   5.881  0.00  0.00     0.015 A 
ATOM      7  C7  IND d   1       6.000  -2.398   5.952  0.00  0.00    -0.016 A 
ATOM      8  C8  IND d   1       5.401  -3.649   5.926  0.00  0.00    -0.047 A 
ATOM      9  C9  IND d   1       4.010  -3.805   5.857  0.00  0.00    -0.096 A 
ATOM     10  HN1 IND d   1       6.791  -5.088   6.058  0.00  0.00     0.298 HD
ENDROOT
TORSDOF 0
ENDMDL
