MODEL 1
REMARK minimizedAffinity 10.2170982
REMARK minimizedRMSD -1
REMARK  0 active torsions:
REMARK  status: ('A' for Active; 'I' for Inactive)
ROOT
ATOM      1  N1  IND d   1       5.850   1.951  -3.318  0.00  0.00    -0.196 N 
ATOM      2  C2  IND d   1       5.744   1.844  -4.676  0.00  0.00     0.054 A 
ATOM      3  C3  IND d   1       5.698   3.071  -5.243  0.00  0.00    -0.031 A 
ATOM      4  C4  IND d   1       5.882   5.390  -4.139  0.00  0.00     0.051 A 
ATOM      5  C5  IND d   1       5.955   5.999  -2.918  0.00  0.00    -0.031 A 
ATOM      6  C6  IND d   1       6.000   5.275  -1.744  0.00  0.00     0.015 A 
ATOM      7  C7  IND d   1       5.985   3.909  -1.748  0.00  0.00    -0.016 A 
ATOM      8  C8  IND d   1       5.905   3.287  -2.986  0.00  0.00    -0.047 A 
ATOM      9  C9  IND d   1       5.816   4.017  -4.179  0.00  0.00    -0.096 A 
ATOM     10  HN1 IND d   1       5.878   1.295  -2.763  0.00  0.00     0.298 HD
ENDROOT
TORSDOF 0
ENDMDL
