MODEL 1
REMARK minimizedAffinity 2.8809123
REMARK minimizedRMSD -1
REMARK  0 active torsions:
REMARK  status: ('A' for Active; 'I' for Inactive)
ROOT
ATOM      1  N1  IND d   1       3.909   5.035  -5.434  0.00  0.00    -0.196 N 
ATOM      2  C2  IND d   1       5.009   4.451  -5.998  0.00  0.00     0.054 A 
ATOM      3  C3  IND d   1       6.000   4.333  -5.086  0.00  0.00    -0.031 A 
ATOM      4  C4  IND d   1       5.999   4.939  -2.584  0.00  0.00     0.051 A 
ATOM      5  C5  IND d   1       5.234   5.534  -1.620  0.00  0.00    -0.031 A 
ATOM      6  C6  IND d   1       3.962   6.000  -1.882  0.00  0.00     0.015 A 
ATOM      7  C7  IND d   1       3.401   5.877  -3.122  0.00  0.00    -0.016 A 
ATOM      8  C8  IND d   1       4.177   5.280  -4.105  0.00  0.00    -0.047 A 
ATOM      9  C9  IND d   1       5.484   4.844  -3.855  0.00  0.00    -0.096 A 
ATOM     10  HN1 IND d   1       3.174   5.218  -5.841  0.00  0.00     0.298 HD
ENDROOT
TORSDOF 0
ENDMDL
