MODEL 1
REMARK minimizedAffinity 10.477355
REMARK minimizedRMSD -1
REMARK  0 active torsions:
REMARK  status: ('A' for Active; 'I' for Inactive)
ROOT
ATOM      1  N1  IND d   1       5.999   4.428  -2.367  0.00  0.00    -0.196 N 
ATOM      2  C2  IND d   1       5.282   5.248  -1.541  0.00  0.00     0.054 A 
ATOM      3  C3  IND d   1       4.411   5.993  -2.257  0.00  0.00    -0.031 A 
ATOM      4  C4  IND d   1       3.921   5.959  -4.784  0.00  0.00     0.051 A 
ATOM      5  C5  IND d   1       4.349   5.402  -5.956  0.00  0.00    -0.031 A 
ATOM      6  C6  IND d   1       5.367   4.471  -5.993  0.00  0.00     0.015 A 
ATOM      7  C7  IND d   1       5.990   4.052  -4.852  0.00  0.00    -0.016 A 
ATOM      8  C8  IND d   1       5.564   4.621  -3.660  0.00  0.00    -0.047 A 
ATOM      9  C9  IND d   1       4.560   5.597  -3.621  0.00  0.00    -0.096 A 
ATOM     10  HN1 IND d   1       6.617   3.884  -2.121  0.00  0.00     0.298 HD
ENDROOT
TORSDOF 0
ENDMDL
