MODEL 1
REMARK minimizedAffinity 10.2627792
REMARK minimizedRMSD -1
REMARK  0 active torsions:
REMARK  status: ('A' for Active; 'I' for Inactive)
ROOT
ATOM      1  N1  IND d   1       4.389   5.641  -5.215  0.00  0.00    -0.196 N 
ATOM      2  C2  IND d   1       3.058   5.947  -5.279  0.00  0.00     0.054 A 
ATOM      3  C3  IND d   1       2.527   5.999  -4.037  0.00  0.00    -0.031 A 
ATOM      4  C4  IND d   1       3.678   5.717  -1.752  0.00  0.00     0.051 A 
ATOM      5  C5  IND d   1       4.877   5.390  -1.183  0.00  0.00    -0.031 A 
ATOM      6  C6  IND d   1       5.998   5.127  -1.945  0.00  0.00     0.015 A 
ATOM      7  C7  IND d   1       5.964   5.193  -3.309  0.00  0.00    -0.016 A 
ATOM      8  C8  IND d   1       4.746   5.518  -3.890  0.00  0.00    -0.047 A 
ATOM      9  C9  IND d   1       3.595   5.744  -3.124  0.00  0.00    -0.096 A 
ATOM     10  HN1 IND d   1       4.914   5.542  -5.888  0.00  0.00     0.298 HD
ENDROOT
TORSDOF 0
ENDMDL
