MODEL 1
REMARK minimizedAffinity -1.15202641
REMARK minimizedRMSD -1
REMARK  0 active torsions:
REMARK  status: ('A' for Active; 'I' for Inactive)
ROOT
ATOM      1  N1  IND d   1       5.638   2.722  -4.739  0.00  0.00    -0.196 N 
ATOM      2  C2  IND d   1       5.517   3.423  -5.906  0.00  0.00     0.054 A 
ATOM      3  C3  IND d   1       5.542   4.752  -5.661  0.00  0.00    -0.031 A 
ATOM      4  C4  IND d   1       5.875   5.999  -3.433  0.00  0.00     0.051 A 
ATOM      5  C5  IND d   1       5.992   5.788  -2.088  0.00  0.00    -0.031 A 
ATOM      6  C6  IND d   1       6.000   4.519  -1.547  0.00  0.00     0.015 A 
ATOM      7  C7  IND d   1       5.902   3.407  -2.336  0.00  0.00    -0.016 A 
ATOM      8  C8  IND d   1       5.776   3.618  -3.702  0.00  0.00    -0.047 A 
ATOM      9  C9  IND d   1       5.725   4.905  -4.253  0.00  0.00    -0.096 A 
ATOM     10  HN1 IND d   1       5.629   1.865  -4.665  0.00  0.00     0.298 HD
ENDROOT
TORSDOF 0
ENDMDL
