MODEL 1
REMARK minimizedAffinity 1.74700522
REMARK minimizedRMSD -1
REMARK  0 active torsions:
REMARK  status: ('A' for Active; 'I' for Inactive)
ROOT
ATOM      1  N1  IND d   1       5.160   3.965  -5.408  0.00  0.00    -0.196 N 
ATOM      2  C2  IND d   1       4.464   5.004  -5.962  0.00  0.00     0.054 A 
ATOM      3  C3  IND d   1       4.177   5.932  -5.022  0.00  0.00    -0.031 A 
ATOM      4  C4  IND d   1       4.838   6.000  -2.535  0.00  0.00     0.051 A 
ATOM      5  C5  IND d   1       5.444   5.257  -1.560  0.00  0.00    -0.031 A 
ATOM      6  C6  IND d   1       6.000   4.022  -1.825  0.00  0.00     0.015 A 
ATOM      7  C7  IND d   1       5.980   3.486  -3.081  0.00  0.00    -0.016 A 
ATOM      8  C8  IND d   1       5.359   4.235  -4.072  0.00  0.00    -0.047 A 
ATOM      9  C9  IND d   1       4.756   5.469  -3.800  0.00  0.00    -0.096 A 
ATOM     10  HN1 IND d   1       5.427   3.262  -5.824  0.00  0.00     0.298 HD
ENDROOT
TORSDOF 0
ENDMDL
