MODEL 1
REMARK minimizedAffinity 6.28923464
REMARK minimizedRMSD -1
REMARK  0 active torsions:
REMARK  status: ('A' for Active; 'I' for Inactive)
ROOT
ATOM      1  N1  IND d   1      -1.622  -1.997  -1.837  0.00  0.00    -0.196 N 
ATOM      2  C2  IND d   1      -0.277  -1.766  -1.767  0.00  0.00     0.054 A 
ATOM      3  C3  IND d   1       0.180  -2.017  -0.520  0.00  0.00    -0.031 A 
ATOM      4  C4  IND d   1      -1.086  -2.913   1.535  0.00  0.00     0.051 A 
ATOM      5  C5  IND d   1      -2.340  -3.240   1.970  0.00  0.00    -0.031 A 
ATOM      6  C6  IND d   1      -3.441  -3.170   1.140  0.00  0.00     0.015 A 
ATOM      7  C7  IND d   1      -3.326  -2.780  -0.164  0.00  0.00    -0.016 A 
ATOM      8  C8  IND d   1      -2.055  -2.441  -0.607  0.00  0.00    -0.047 A 
ATOM      9  C9  IND d   1      -0.941  -2.469   0.242  0.00  0.00    -0.096 A 
ATOM     10  HN1 IND d   1      -2.115  -1.884  -2.532  0.00  0.00     0.298 HD
ENDROOT
TORSDOF 0
ENDMDL
