MODEL 1
REMARK minimizedAffinity 6.97698498
REMARK minimizedRMSD -1
REMARK  0 active torsions:
REMARK  status: ('A' for Active; 'I' for Inactive)
ROOT
ATOM      1  N1  IND d   1      -1.203  -3.812   0.492  0.00  0.00    -0.196 N 
ATOM      2  C2  IND d   1      -1.239  -2.565   1.052  0.00  0.00     0.054 A 
ATOM      3  C3  IND d   1      -0.801  -1.640   0.168  0.00  0.00    -0.031 A 
ATOM      4  C4  IND d   1      -0.075  -1.936  -2.284  0.00  0.00     0.051 A 
ATOM      5  C5  IND d   1       0.160  -2.894  -3.229  0.00  0.00    -0.031 A 
ATOM      6  C6  IND d   1      -0.054  -4.234  -2.979  0.00  0.00     0.015 A 
ATOM      7  C7  IND d   1      -0.524  -4.667  -1.771  0.00  0.00    -0.016 A 
ATOM      8  C8  IND d   1      -0.757  -3.697  -0.806  0.00  0.00    -0.047 A 
ATOM      9  C9  IND d   1      -0.501  -2.340  -1.041  0.00  0.00    -0.096 A 
ATOM     10  HN1 IND d   1      -1.422  -4.545   0.885  0.00  0.00     0.298 HD
ENDROOT
TORSDOF 0
ENDMDL
