MODEL 1
REMARK minimizedAffinity 4.68931389
REMARK minimizedRMSD -1
REMARK  0 active torsions:
REMARK  status: ('A' for Active; 'I' for Inactive)
ROOT
ATOM      1  N1  IND d   1      -0.207  -1.651  -1.000  0.00  0.00    -0.196 N 
ATOM      2  C2  IND d   1      -0.464  -2.250   0.202  0.00  0.00     0.054 A 
ATOM      3  C3  IND d   1      -0.511  -3.593   0.057  0.00  0.00    -0.031 A 
ATOM      4  C4  IND d   1      -0.095  -5.029  -2.039  0.00  0.00     0.051 A 
ATOM      5  C5  IND d   1       0.138  -4.932  -3.382  0.00  0.00    -0.031 A 
ATOM      6  C6  IND d   1       0.273  -3.712  -4.012  0.00  0.00     0.015 A 
ATOM      7  C7  IND d   1       0.192  -2.538  -3.317  0.00  0.00    -0.016 A 
ATOM      8  C8  IND d   1      -0.052  -2.632  -1.955  0.00  0.00    -0.047 A 
ATOM      9  C9  IND d   1      -0.233  -3.867  -1.317  0.00  0.00    -0.096 A 
ATOM     10  HN1 IND d   1      -0.152  -0.804  -1.137  0.00  0.00     0.298 HD
ENDROOT
TORSDOF 0
ENDMDL
