MODEL 1
REMARK minimizedAffinity 5.14350176
REMARK minimizedRMSD -1
REMARK  0 active torsions:
REMARK  status: ('A' for Active; 'I' for Inactive)
ROOT
ATOM      1  N1  IND d   1      -2.556  -2.517  -1.800  0.00  0.00    -0.196 N 
ATOM      2  C2  IND d   1      -2.934  -2.329  -0.500  0.00  0.00     0.054 A 
ATOM      3  C3  IND d   1      -1.869  -1.971   0.252  0.00  0.00    -0.031 A 
ATOM      4  C4  IND d   1       0.566  -1.536  -0.462  0.00  0.00     0.051 A 
ATOM      5  C5  IND d   1       1.402  -1.614  -1.540  0.00  0.00    -0.031 A 
ATOM      6  C6  IND d   1       0.953  -2.002  -2.786  0.00  0.00     0.015 A 
ATOM      7  C7  IND d   1      -0.359  -2.317  -3.003  0.00  0.00    -0.016 A 
ATOM      8  C8  IND d   1      -1.210  -2.246  -1.909  0.00  0.00    -0.047 A 
ATOM      9  C9  IND d   1      -0.751  -1.894  -0.633  0.00  0.00    -0.096 A 
ATOM     10  HN1 IND d   1      -3.072  -2.764  -2.442  0.00  0.00     0.298 HD
ENDROOT
TORSDOF 0
ENDMDL
