MODEL 1
REMARK minimizedAffinity 9.39614105
REMARK minimizedRMSD -1
REMARK  0 active torsions:
REMARK  status: ('A' for Active; 'I' for Inactive)
ROOT
ATOM      1  N1  IND d   1       0.862  -1.450  -2.079  0.00  0.00    -0.196 N 
ATOM      2  C2  IND d   1       0.862  -2.064  -3.301  0.00  0.00     0.054 A 
ATOM      3  C3  IND d   1      -0.050  -3.061  -3.326  0.00  0.00    -0.031 A 
ATOM      4  C4  IND d   1      -1.722  -3.795  -1.511  0.00  0.00     0.051 A 
ATOM      5  C5  IND d   1      -2.075  -3.558  -0.212  0.00  0.00    -0.031 A 
ATOM      6  C6  IND d   1      -1.456  -2.584   0.545  0.00  0.00     0.015 A 
ATOM      7  C7  IND d   1      -0.465  -1.800   0.026  0.00  0.00    -0.016 A 
ATOM      8  C8  IND d   1      -0.099  -2.043  -1.291  0.00  0.00    -0.047 A 
ATOM      9  C9  IND d   1      -0.694  -3.059  -2.051  0.00  0.00    -0.096 A 
ATOM     10  HN1 IND d   1       1.376  -0.802  -1.843  0.00  0.00     0.298 HD
ENDROOT
TORSDOF 0
ENDMDL
