MODEL 1
REMARK minimizedAffinity 0.0317114852
REMARK minimizedRMSD -1
REMARK  0 active torsions:
REMARK  status: ('A' for Active; 'I' for Inactive)
ROOT
ATOM      1  N1  IND d   1      -0.947  -1.286  -0.384  0.00  0.00    -0.196 N 
ATOM      2  C2  IND d   1      -1.478  -2.072   0.600  0.00  0.00     0.054 A 
ATOM      3  C3  IND d   1      -1.336  -3.379   0.286  0.00  0.00    -0.031 A 
ATOM      4  C4  IND d   1      -0.173  -4.456  -1.743  0.00  0.00     0.051 A 
ATOM      5  C5  IND d   1       0.431  -4.146  -2.929  0.00  0.00    -0.031 A 
ATOM      6  C6  IND d   1       0.613  -2.839  -3.334  0.00  0.00     0.015 A 
ATOM      7  C7  IND d   1       0.206  -1.790  -2.559  0.00  0.00    -0.016 A 
ATOM      8  C8  IND d   1      -0.415  -2.102  -1.358  0.00  0.00    -0.047 A 
ATOM      9  C9  IND d   1      -0.640  -3.426  -0.961  0.00  0.00    -0.096 A 
ATOM     10  HN1 IND d   1      -0.945  -0.426  -0.393  0.00  0.00     0.298 HD
ENDROOT
TORSDOF 0
ENDMDL
