MODEL 1
REMARK minimizedAffinity 4.48379803
REMARK minimizedRMSD -1
REMARK  0 active torsions:
REMARK  status: ('A' for Active; 'I' for Inactive)
ROOT
ATOM      1  C   UNL d   1      -0.718   0.011   0.347  0.00  0.00     0.023 A 
ATOM      2  C1  UNL d   1       0.459   0.686   0.672  0.00  0.00     0.003 A 
ATOM      3  C2  UNL d   1       0.436   1.717   1.614  0.00  0.00     0.048 A 
ATOM      4  C3  UNL d   1      -0.767   2.067   2.227  0.00  0.00     0.023 A 
ATOM      5  C4  UNL d   1      -1.946   1.393   1.906  0.00  0.00     0.048 A 
ATOM      6  C5  UNL d   1      -1.919   0.364   0.963  0.00  0.00     0.003 A 
ATOM      7  I   UNL d   1      -0.803   3.600   3.630  0.00  0.00    -0.146 I 
ENDROOT
TORSDOF 0
ENDMDL
