MODEL 1
REMARK minimizedAffinity 4.59406328
REMARK minimizedRMSD -1
REMARK  0 active torsions:
REMARK  status: ('A' for Active; 'I' for Inactive)
ROOT
ATOM      1  C   UNL d   1      -1.680  -0.050   1.112  0.00  0.00     0.023 A 
ATOM      2  C1  UNL d   1      -1.437   0.814   2.179  0.00  0.00     0.003 A 
ATOM      3  C2  UNL d   1      -0.259   1.563   2.219  0.00  0.00     0.048 A 
ATOM      4  C3  UNL d   1       0.671   1.443   1.188  0.00  0.00     0.023 A 
ATOM      5  C4  UNL d   1       0.432   0.580   0.117  0.00  0.00     0.048 A 
ATOM      6  C5  UNL d   1      -0.747  -0.167   0.082  0.00  0.00     0.003 A 
ATOM      7  I   UNL d   1       2.425   2.556   1.245  0.00  0.00    -0.146 I 
ENDROOT
TORSDOF 0
ENDMDL
