MODEL 1
REMARK minimizedAffinity 3.52143812
REMARK minimizedRMSD -1
REMARK  0 active torsions:
REMARK  status: ('A' for Active; 'I' for Inactive)
ROOT
ATOM      1  C   UNL d   1      -0.052   1.516   1.132  0.00  0.00     0.023 A 
ATOM      2  C1  UNL d   1      -0.580   0.842   2.234  0.00  0.00     0.003 A 
ATOM      3  C2  UNL d   1      -1.466  -0.220   2.045  0.00  0.00     0.048 A 
ATOM      4  C3  UNL d   1      -1.819  -0.604   0.752  0.00  0.00     0.023 A 
ATOM      5  C4  UNL d   1      -1.293   0.066  -0.353  0.00  0.00     0.048 A 
ATOM      6  C5  UNL d   1      -0.408   1.128  -0.159  0.00  0.00     0.003 A 
ATOM      7  I   UNL d   1      -3.138  -2.185   0.469  0.00  0.00    -0.146 I 
ENDROOT
TORSDOF 0
ENDMDL
