MODEL 1
REMARK minimizedAffinity 6.17568779
REMARK minimizedRMSD -1
REMARK  0 active torsions:
REMARK  status: ('A' for Active; 'I' for Inactive)
ROOT
ATOM      1  C   UNL d   1      -5.346  -5.983   0.401  0.00  0.00     0.023 A 
ATOM      2  C1  UNL d   1      -6.000  -4.794   0.724  0.00  0.00     0.003 A 
ATOM      3  C2  UNL d   1      -5.267  -3.619   0.902  0.00  0.00     0.048 A 
ATOM      4  C3  UNL d   1      -3.881  -3.639   0.755  0.00  0.00     0.023 A 
ATOM      5  C4  UNL d   1      -3.222  -4.827   0.432  0.00  0.00     0.048 A 
ATOM      6  C5  UNL d   1      -3.958  -6.000   0.255  0.00  0.00     0.003 A 
ATOM      7  I   UNL d   1      -2.788  -1.891   1.020  0.00  0.00    -0.146 I 
ENDROOT
TORSDOF 0
ENDMDL
