MODEL 1
REMARK minimizedAffinity 6.59149313
REMARK minimizedRMSD -1
REMARK  0 active torsions:
REMARK  status: ('A' for Active; 'I' for Inactive)
ROOT
ATOM      1  C   UNL d   1      -1.823   0.443   1.508  0.00  0.00     0.023 A 
ATOM      2  C1  UNL d   1      -1.458   1.162   2.646  0.00  0.00     0.003 A 
ATOM      3  C2  UNL d   1      -0.155   1.647   2.779  0.00  0.00     0.048 A 
ATOM      4  C3  UNL d   1       0.777   1.410   1.770  0.00  0.00     0.023 A 
ATOM      5  C4  UNL d   1       0.417   0.692   0.629  0.00  0.00     0.048 A 
ATOM      6  C5  UNL d   1      -0.887   0.208   0.500  0.00  0.00     0.003 A 
ATOM      7  I   UNL d   1       2.717   2.131   1.966  0.00  0.00    -0.146 I 
ENDROOT
TORSDOF 0
ENDMDL
