MODEL 1
REMARK minimizedAffinity 0.224355817
REMARK minimizedRMSD -1
REMARK  0 active torsions:
REMARK  status: ('A' for Active; 'I' for Inactive)
ROOT
ATOM      1  C   UNL d   1      -4.909  -5.994   2.234  0.00  0.00     0.023 A 
ATOM      2  C1  UNL d   1      -4.498  -5.994   3.567  0.00  0.00     0.003 A 
ATOM      3  C2  UNL d   1      -3.137  -5.994   3.880  0.00  0.00     0.048 A 
ATOM      4  C3  UNL d   1      -2.192  -5.993   2.854  0.00  0.00     0.023 A 
ATOM      5  C4  UNL d   1      -2.598  -5.992   1.519  0.00  0.00     0.048 A 
ATOM      6  C5  UNL d   1      -3.960  -5.993   1.211  0.00  0.00     0.003 A 
ATOM      7  I   UNL d   1      -0.166  -5.994   3.317  0.00  0.00    -0.146 I 
ENDROOT
TORSDOF 0
ENDMDL
