MODEL 1
REMARK minimizedAffinity 4.06731701
REMARK minimizedRMSD -1
REMARK  0 active torsions:
REMARK  status: ('A' for Active; 'I' for Inactive)
ROOT
ATOM      1  C   UNL d   1      -0.635  -5.940   2.841  0.00  0.00     0.023 A 
ATOM      2  C1  UNL d   1       0.677  -5.914   2.368  0.00  0.00     0.003 A 
ATOM      3  C2  UNL d   1       1.746  -5.928   3.267  0.00  0.00     0.048 A 
ATOM      4  C3  UNL d   1       1.495  -5.971   4.638  0.00  0.00     0.023 A 
ATOM      5  C4  UNL d   1       0.183  -5.999   5.116  0.00  0.00     0.048 A 
ATOM      6  C5  UNL d   1      -0.881  -5.983   4.213  0.00  0.00     0.003 A 
ATOM      7  I   UNL d   1       3.083  -5.993   5.979  0.00  0.00    -0.146 I 
ENDROOT
TORSDOF 0
ENDMDL
