MODEL 1
REMARK minimizedAffinity 7.43837261
REMARK minimizedRMSD -1
REMARK  0 active torsions:
REMARK  status: ('A' for Active; 'I' for Inactive)
ROOT
ATOM      1  C   UNL d   1      -1.590  -1.697   3.039  0.00  0.00     0.023 A 
ATOM      2  C1  UNL d   1      -1.301  -0.362   3.325  0.00  0.00     0.003 A 
ATOM      3  C2  UNL d   1      -0.616   0.420   2.393  0.00  0.00     0.048 A 
ATOM      4  C3  UNL d   1      -0.224  -0.138   1.177  0.00  0.00     0.023 A 
ATOM      5  C4  UNL d   1      -0.511  -1.472   0.886  0.00  0.00     0.048 A 
ATOM      6  C5  UNL d   1      -1.195  -2.251   1.821  0.00  0.00     0.003 A 
ATOM      7  I   UNL d   1       0.796   1.025  -0.212  0.00  0.00    -0.146 I 
ENDROOT
TORSDOF 0
ENDMDL
