MODEL 1
REMARK minimizedAffinity 4.80656385
REMARK minimizedRMSD -1
REMARK  0 active torsions:
REMARK  status: ('A' for Active; 'I' for Inactive)
ROOT
ATOM      1  C   UNL d   1       3.078  -5.967   3.934  0.00  0.00     0.023 A 
ATOM      2  C1  UNL d   1       2.069  -5.956   4.898  0.00  0.00     0.003 A 
ATOM      3  C2  UNL d   1       0.728  -5.964   4.508  0.00  0.00     0.048 A 
ATOM      4  C3  UNL d   1       0.403  -5.985   3.152  0.00  0.00     0.023 A 
ATOM      5  C4  UNL d   1       1.409  -5.997   2.184  0.00  0.00     0.048 A 
ATOM      6  C5  UNL d   1       2.748  -5.987   2.579  0.00  0.00     0.003 A 
ATOM      7  I   UNL d   1      -1.592  -5.997   2.569  0.00  0.00    -0.146 I 
ENDROOT
TORSDOF 0
ENDMDL
