MODEL 1
REMARK minimizedAffinity 9.38562202
REMARK minimizedRMSD -1
REMARK  0 active torsions:
REMARK  status: ('A' for Active; 'I' for Inactive)
ROOT
ATOM      1  C   UNL d   1      -1.841  -2.368   2.114  0.00  0.00     0.023 A 
ATOM      2  C1  UNL d   1      -0.912  -1.721   1.299  0.00  0.00     0.003 A 
ATOM      3  C2  UNL d   1      -1.220  -1.453  -0.036  0.00  0.00     0.048 A 
ATOM      4  C3  UNL d   1      -2.460  -1.833  -0.549  0.00  0.00     0.023 A 
ATOM      5  C4  UNL d   1      -3.393  -2.479   0.263  0.00  0.00     0.048 A 
ATOM      6  C5  UNL d   1      -3.080  -2.746   1.597  0.00  0.00     0.003 A 
ATOM      7  I   UNL d   1      -2.922  -1.434  -2.536  0.00  0.00    -0.146 I 
ENDROOT
TORSDOF 0
ENDMDL
