MODEL 1
REMARK minimizedAffinity 9.94300938
REMARK minimizedRMSD -1
REMARK  0 active torsions:
REMARK  status: ('A' for Active; 'I' for Inactive)
ROOT
ATOM      1  C   UNL d   1       1.404  -6.000   3.648  0.00  0.00     0.023 A 
ATOM      2  C1  UNL d   1       0.157  -5.993   4.273  0.00  0.00     0.003 A 
ATOM      3  C2  UNL d   1      -1.010  -5.966   3.507  0.00  0.00     0.048 A 
ATOM      4  C3  UNL d   1      -0.923  -5.948   2.116  0.00  0.00     0.023 A 
ATOM      5  C4  UNL d   1       0.323  -5.956   1.485  0.00  0.00     0.048 A 
ATOM      6  C5  UNL d   1       1.487  -5.982   2.256  0.00  0.00     0.003 A 
ATOM      7  I   UNL d   1      -2.658  -5.908   0.973  0.00  0.00    -0.146 I 
ENDROOT
TORSDOF 0
ENDMDL
