MODEL 1
REMARK minimizedAffinity 4.09714222
REMARK minimizedRMSD -1
REMARK  0 active torsions:
REMARK  status: ('A' for Active; 'I' for Inactive)
ROOT
ATOM      1  C   UNL d   1       1.586  -5.993   4.101  0.00  0.00     0.023 A 
ATOM      2  C1  UNL d   1       0.391  -5.991   4.821  0.00  0.00     0.003 A 
ATOM      3  C2  UNL d   1      -0.831  -5.993   4.146  0.00  0.00     0.048 A 
ATOM      4  C3  UNL d   1      -0.852  -5.997   2.752  0.00  0.00     0.023 A 
ATOM      5  C4  UNL d   1       0.341  -5.999   2.028  0.00  0.00     0.048 A 
ATOM      6  C5  UNL d   1       1.561  -5.997   2.706  0.00  0.00     0.003 A 
ATOM      7  I   UNL d   1      -2.670  -6.000   1.746  0.00  0.00    -0.146 I 
ENDROOT
TORSDOF 0
ENDMDL
