MODEL 1
REMARK minimizedAffinity 10.6153984
REMARK minimizedRMSD -1
REMARK  0 active torsions:
REMARK  status: ('A' for Active; 'I' for Inactive)
ROOT
ATOM      1  C   UNL d   1       0.213   1.601   1.604  0.00  0.00     0.023 A 
ATOM      2  C1  UNL d   1       0.391   1.503   0.224  0.00  0.00     0.003 A 
ATOM      3  C2  UNL d   1      -0.359   0.586  -0.514  0.00  0.00     0.048 A 
ATOM      4  C3  UNL d   1      -1.287  -0.229   0.133  0.00  0.00     0.023 A 
ATOM      5  C4  UNL d   1      -1.469  -0.134   1.514  0.00  0.00     0.048 A 
ATOM      6  C5  UNL d   1      -0.715   0.784   2.248  0.00  0.00     0.003 A 
ATOM      7  I   UNL d   1      -2.406  -1.595  -0.964  0.00  0.00    -0.146 I 
ENDROOT
TORSDOF 0
ENDMDL
