MODEL 1
REMARK minimizedAffinity 9.66065979
REMARK minimizedRMSD -1
REMARK  0 active torsions:
REMARK  status: ('A' for Active; 'I' for Inactive)
ROOT
ATOM      1  C   UNL d   1       0.468  -5.997   4.071  0.00  0.00     0.023 A 
ATOM      2  C1  UNL d   1      -0.838  -5.991   4.564  0.00  0.00     0.003 A 
ATOM      3  C2  UNL d   1      -1.919  -5.983   3.680  0.00  0.00     0.048 A 
ATOM      4  C3  UNL d   1      -1.688  -5.981   2.305  0.00  0.00     0.023 A 
ATOM      5  C4  UNL d   1      -0.383  -5.988   1.807  0.00  0.00     0.048 A 
ATOM      6  C5  UNL d   1       0.694  -5.996   2.695  0.00  0.00     0.003 A 
ATOM      7  I   UNL d   1      -3.295  -5.969   0.988  0.00  0.00    -0.146 I 
ENDROOT
TORSDOF 0
ENDMDL
