MODEL 1
REMARK minimizedAffinity 0.876892924
REMARK minimizedRMSD -1
REMARK  0 active torsions:
REMARK  status: ('A' for Active; 'I' for Inactive)
ROOT
ATOM      1  C   UNL d   1       1.710  -5.998   3.633  0.00  0.00     0.023 A 
ATOM      2  C1  UNL d   1       1.861  -5.997   2.246  0.00  0.00     0.003 A 
ATOM      3  C2  UNL d   1       0.735  -5.998   1.421  0.00  0.00     0.048 A 
ATOM      4  C3  UNL d   1      -0.539  -5.999   1.988  0.00  0.00     0.023 A 
ATOM      5  C4  UNL d   1      -0.694  -5.999   3.375  0.00  0.00     0.048 A 
ATOM      6  C5  UNL d   1       0.434  -5.999   4.197  0.00  0.00     0.003 A 
ATOM      7  I   UNL d   1      -2.216  -6.000   0.761  0.00  0.00    -0.146 I 
ENDROOT
TORSDOF 0
ENDMDL
