MODEL 1
REMARK minimizedAffinity 5.6818223
REMARK minimizedRMSD -1
REMARK  0 active torsions:
REMARK  status: ('A' for Active; 'I' for Inactive)
ROOT
ATOM      1  C   UNL d   1       1.013  -5.999   1.134  0.00  0.00     0.023 A 
ATOM      2  C1  UNL d   1      -0.211  -5.999   1.803  0.00  0.00     0.003 A 
ATOM      3  C2  UNL d   1      -0.246  -5.999   3.199  0.00  0.00     0.048 A 
ATOM      4  C3  UNL d   1       0.948  -5.998   3.920  0.00  0.00     0.023 A 
ATOM      5  C4  UNL d   1       2.175  -5.997   3.255  0.00  0.00     0.048 A 
ATOM      6  C5  UNL d   1       2.205  -5.999   1.859  0.00  0.00     0.003 A 
ATOM      7  I   UNL d   1       0.899  -5.997   5.998  0.00  0.00    -0.146 I 
ENDROOT
TORSDOF 0
ENDMDL
