MODEL 1
REMARK minimizedAffinity 0.708469987
REMARK minimizedRMSD -1
REMARK  1 active torsions:
REMARK  status: ('A' for Active; 'I' for Inactive)
REMARK    1  A    between atoms: C1_2  and  C2_3 
ROOT
ATOM      1  C2  UNL d   1      -2.926   1.024  -4.610  0.00  0.00    -0.073 A 
ATOM      2  C3  UNL d   1      -3.586   1.542  -3.490  0.00  0.00    -0.002 A 
ATOM      3  C4  UNL d   1      -2.998   2.554  -2.730  0.00  0.00     0.004 A 
ATOM      4  C5  UNL d   1      -1.748   3.062  -3.085  0.00  0.00    -0.004 A 
ATOM      5  C6  UNL d   1      -1.078   2.566  -4.207  0.00  0.00    -0.075 A 
ATOM      6  C7  UNL d   1       0.268   3.100  -4.601  0.00  0.00     0.076 C 
ATOM      7  C8  UNL d   1      -1.674   1.548  -4.964  0.00  0.00     0.001 A 
ENDROOT
BRANCH   1   8
ATOM      8  C1  UNL d   1      -3.560  -0.064  -5.438  0.00  0.00     0.053 C 
ATOM      9  C   UNL d   1      -5.050  -0.191  -5.165  0.00  0.00     0.018 C 
ENDBRANCH   1   8
TORSDOF 1
ENDMDL
