MODEL 1
REMARK minimizedAffinity -0.471791327
REMARK minimizedRMSD -1
REMARK  1 active torsions:
REMARK  status: ('A' for Active; 'I' for Inactive)
REMARK    1  A    between atoms: C1_2  and  C2_3 
ROOT
ATOM      1  C2  UNL d   1       2.910  -4.341   1.276  0.00  0.00    -0.073 A 
ATOM      2  C3  UNL d   1       3.545  -4.345   2.523  0.00  0.00    -0.002 A 
ATOM      3  C4  UNL d   1       4.823  -4.889   2.662  0.00  0.00     0.004 A 
ATOM      4  C5  UNL d   1       5.480  -5.427   1.557  0.00  0.00    -0.004 A 
ATOM      5  C6  UNL d   1       4.867  -5.422   0.300  0.00  0.00    -0.075 A 
ATOM      6  C7  UNL d   1       5.560  -6.000  -0.899  0.00  0.00     0.076 C 
ATOM      7  C8  UNL d   1       3.583  -4.877   0.169  0.00  0.00     0.001 A 
ENDROOT
BRANCH   1   8
ATOM      8  C1  UNL d   1       1.533  -3.749   1.120  0.00  0.00     0.053 C 
ATOM      9  C   UNL d   1       1.509  -2.266   1.455  0.00  0.00     0.018 C 
ENDBRANCH   1   8
TORSDOF 1
ENDMDL
