MODEL 1
REMARK minimizedAffinity -0.796482384
REMARK minimizedRMSD -1
REMARK  1 active torsions:
REMARK  status: ('A' for Active; 'I' for Inactive)
REMARK    1  A    between atoms: C1_2  and  C2_3 
ROOT
ATOM      1  C2  UNL d   1       0.453  -1.453   1.710  0.00  0.00    -0.073 A 
ATOM      2  C3  UNL d   1       0.946  -1.238   0.419  0.00  0.00    -0.002 A 
ATOM      3  C4  UNL d   1       0.110  -0.739  -0.581  0.00  0.00     0.004 A 
ATOM      4  C5  UNL d   1      -1.224  -0.443  -0.298  0.00  0.00    -0.004 A 
ATOM      5  C6  UNL d   1      -1.732  -0.640   0.990  0.00  0.00    -0.075 A 
ATOM      6  C7  UNL d   1      -3.165  -0.330   1.310  0.00  0.00     0.076 C 
ATOM      7  C8  UNL d   1      -0.887  -1.145   1.988  0.00  0.00     0.001 A 
ENDROOT
BRANCH   1   8
ATOM      8  C1  UNL d   1       1.354  -1.986   2.795  0.00  0.00     0.053 C 
ATOM      9  C   UNL d   1       2.194  -3.158   2.312  0.00  0.00     0.018 C 
ENDBRANCH   1   8
TORSDOF 1
ENDMDL
