MODEL 1
REMARK minimizedAffinity -3.02714372
REMARK minimizedRMSD -1
REMARK  1 active torsions:
REMARK  status: ('A' for Active; 'I' for Inactive)
REMARK    1  A    between atoms: C1_2  and  C2_3 
ROOT
ATOM      1  C2  UNL d   1      -0.197  -2.845   2.669  0.00  0.00    -0.073 A 
ATOM      2  C3  UNL d   1      -1.068  -3.898   2.968  0.00  0.00    -0.002 A 
ATOM      3  C4  UNL d   1      -0.715  -5.214   2.664  0.00  0.00     0.004 A 
ATOM      4  C5  UNL d   1       0.515  -5.490   2.066  0.00  0.00    -0.004 A 
ATOM      5  C6  UNL d   1       1.405  -4.452   1.771  0.00  0.00    -0.075 A 
ATOM      6  C7  UNL d   1       2.730  -4.732   1.126  0.00  0.00     0.076 C 
ATOM      7  C8  UNL d   1       1.041  -3.133   2.076  0.00  0.00     0.001 A 
ENDROOT
BRANCH   1   8
ATOM      8  C1  UNL d   1      -0.572  -1.424   3.001  0.00  0.00     0.053 C 
ATOM      9  C   UNL d   1      -1.139  -0.688   1.797  0.00  0.00     0.018 C 
ENDBRANCH   1   8
TORSDOF 1
ENDMDL
