MODEL 1
REMARK minimizedAffinity 6.5575428
REMARK minimizedRMSD -1
REMARK  1 active torsions:
REMARK  status: ('A' for Active; 'I' for Inactive)
REMARK    1  A    between atoms: N_2  and  C1_3 
ROOT
ATOM      1  C1  UNL d   1       4.081   5.226   3.913  0.00  0.00     0.143 A 
ATOM      2  C2  UNL d   1       3.643   4.401   2.872  0.00  0.00    -0.057 A 
ATOM      3  C3  UNL d   1       4.351   4.315   1.667  0.00  0.00     0.033 A 
ATOM      4  C4  UNL d   1       5.498   5.077   1.471  0.00  0.00    -0.042 A 
ATOM      5  C5  UNL d   1       5.938   5.923   2.483  0.00  0.00     0.033 A 
ATOM      6  C6  UNL d   1       5.230   6.000   3.686  0.00  0.00    -0.057 A 
ENDROOT
BRANCH   1   7
ATOM      7  N   UNL d   1       3.368   5.429   5.097  0.00  0.00    -0.732 N 
ATOM      8  C   UNL d   1       2.595   4.356   5.686  0.00  0.00     0.284 C 
ATOM      9  H3  UNL d   1       3.886   5.987   5.772  0.00  0.00     0.395 HD
ENDBRANCH   1   7
TORSDOF 1
ENDMDL
