MODEL 1
REMARK minimizedAffinity 7.66034794
REMARK minimizedRMSD -1
REMARK  1 active torsions:
REMARK  status: ('A' for Active; 'I' for Inactive)
REMARK    1  A    between atoms: N_2  and  C1_3 
ROOT
ATOM      1  C1  UNL d   1       5.246   3.673   2.834  0.00  0.00     0.143 A 
ATOM      2  C2  UNL d   1       5.996   4.842   2.998  0.00  0.00    -0.057 A 
ATOM      3  C3  UNL d   1       5.707   6.000   2.266  0.00  0.00     0.033 A 
ATOM      4  C4  UNL d   1       4.677   6.000   1.331  0.00  0.00    -0.042 A 
ATOM      5  C5  UNL d   1       3.934   4.841   1.133  0.00  0.00     0.033 A 
ATOM      6  C6  UNL d   1       4.223   3.690   1.872  0.00  0.00    -0.057 A 
ENDROOT
BRANCH   1   7
ATOM      7  N   UNL d   1       5.546   2.461   3.460  0.00  0.00    -0.732 N 
ATOM      8  C   UNL d   1       4.510   1.480   3.704  0.00  0.00     0.284 C 
ATOM      9  H3  UNL d   1       6.426   2.065   3.138  0.00  0.00     0.395 HD
ENDBRANCH   1   7
TORSDOF 1
ENDMDL
