MODEL 1
REMARK minimizedAffinity 12.6899395
REMARK minimizedRMSD -1
REMARK  1 active torsions:
REMARK  status: ('A' for Active; 'I' for Inactive)
REMARK    1  A    between atoms: N_2  and  C1_3 
ROOT
ATOM      1  C1  UNL d   1      -1.097  -0.945   2.723  0.00  0.00     0.143 A 
ATOM      2  C2  UNL d   1      -0.698  -1.955   3.606  0.00  0.00    -0.057 A 
ATOM      3  C3  UNL d   1       0.645  -2.114   3.967  0.00  0.00     0.033 A 
ATOM      4  C4  UNL d   1       1.620  -1.282   3.427  0.00  0.00    -0.042 A 
ATOM      5  C5  UNL d   1       1.250  -0.288   2.528  0.00  0.00     0.033 A 
ATOM      6  C6  UNL d   1      -0.094  -0.130   2.177  0.00  0.00    -0.057 A 
ENDROOT
BRANCH   1   7
ATOM      7  N   UNL d   1      -2.403  -0.798   2.248  0.00  0.00    -0.732 N 
ATOM      8  C   UNL d   1      -3.434  -1.742   2.622  0.00  0.00     0.284 C 
ATOM      9  H3  UNL d   1      -2.709   0.172   2.247  0.00  0.00     0.395 HD
ENDBRANCH   1   7
TORSDOF 1
ENDMDL
