MODEL 1
REMARK minimizedAffinity 12.7437019
REMARK minimizedRMSD -1
REMARK  1 active torsions:
REMARK  status: ('A' for Active; 'I' for Inactive)
REMARK    1  A    between atoms: N_2  and  C1_3 
ROOT
ATOM      1  C1  UNL d   1       5.085   3.730   2.450  0.00  0.00     0.143 A 
ATOM      2  C2  UNL d   1       5.998   2.845   1.866  0.00  0.00    -0.057 A 
ATOM      3  C3  UNL d   1       5.996   1.482   2.186  0.00  0.00     0.033 A 
ATOM      4  C4  UNL d   1       5.095   0.983   3.121  0.00  0.00    -0.042 A 
ATOM      5  C5  UNL d   1       4.194   1.848   3.733  0.00  0.00     0.033 A 
ATOM      6  C6  UNL d   1       4.197   3.207   3.403  0.00  0.00    -0.057 A 
ENDROOT
BRANCH   1   7
ATOM      7  N   UNL d   1       5.102   5.112   2.246  0.00  0.00    -0.732 N 
ATOM      8  C   UNL d   1       5.630   5.999   3.260  0.00  0.00     0.284 C 
ATOM      9  H3  UNL d   1       5.367   5.361   1.296  0.00  0.00     0.395 HD
ENDBRANCH   1   7
TORSDOF 1
ENDMDL
