MODEL 1
REMARK minimizedAffinity 13.9603443
REMARK minimizedRMSD -1
REMARK  1 active torsions:
REMARK  status: ('A' for Active; 'I' for Inactive)
REMARK    1  A    between atoms: N_2  and  C1_3 
ROOT
ATOM      1  C1  UNL d   1      -0.808  -0.217   2.582  0.00  0.00     0.143 A 
ATOM      2  C2  UNL d   1      -0.424  -0.881   3.751  0.00  0.00    -0.057 A 
ATOM      3  C3  UNL d   1       0.926  -1.094   4.055  0.00  0.00     0.033 A 
ATOM      4  C4  UNL d   1       1.918  -0.671   3.177  0.00  0.00    -0.042 A 
ATOM      5  C5  UNL d   1       1.559  -0.031   1.996  0.00  0.00     0.033 A 
ATOM      6  C6  UNL d   1       0.209   0.185   1.701  0.00  0.00    -0.057 A 
ENDROOT
BRANCH   1   7
ATOM      7  N   UNL d   1      -2.136  -0.061   2.176  0.00  0.00    -0.732 N 
ATOM      8  C   UNL d   1      -3.135  -1.045   2.532  0.00  0.00     0.284 C 
ATOM      9  H3  UNL d   1      -2.455   0.902   2.251  0.00  0.00     0.395 HD
ENDBRANCH   1   7
TORSDOF 1
ENDMDL
