MODEL 1
REMARK minimizedAffinity 3.77622151
REMARK minimizedRMSD -1
REMARK  1 active torsions:
REMARK  status: ('A' for Active; 'I' for Inactive)
REMARK    1  A    between atoms: N_2  and  C1_3 
ROOT
ATOM      1  C1  UNL d   1       0.239  -2.495  -5.667  0.00  0.00     0.143 A 
ATOM      2  C2  UNL d   1      -1.013  -3.111  -5.759  0.00  0.00    -0.057 A 
ATOM      3  C3  UNL d   1      -1.130  -4.499  -5.910  0.00  0.00     0.033 A 
ATOM      4  C4  UNL d   1       0.008  -5.293  -6.000  0.00  0.00    -0.042 A 
ATOM      5  C5  UNL d   1       1.263  -4.698  -5.936  0.00  0.00     0.033 A 
ATOM      6  C6  UNL d   1       1.373  -3.313  -5.778  0.00  0.00    -0.057 A 
ENDROOT
BRANCH   1   7
ATOM      7  N   UNL d   1       0.422  -1.111  -5.615  0.00  0.00    -0.732 N 
ATOM      8  C   UNL d   1       1.133  -0.502  -4.511  0.00  0.00     0.284 C 
ATOM      9  H3  UNL d   1       0.649  -0.715  -6.524  0.00  0.00     0.395 HD
ENDBRANCH   1   7
TORSDOF 1
ENDMDL
