MODEL 1
REMARK minimizedAffinity 6.98836136
REMARK minimizedRMSD -1
REMARK  1 active torsions:
REMARK  status: ('A' for Active; 'I' for Inactive)
REMARK    1  A    between atoms: N_2  and  C1_3 
ROOT
ATOM      1  C1  UNL d   1       1.161  -0.970   3.090  0.00  0.00     0.143 A 
ATOM      2  C2  UNL d   1       2.017   0.130   3.209  0.00  0.00    -0.057 A 
ATOM      3  C3  UNL d   1       2.784   0.331   4.363  0.00  0.00     0.033 A 
ATOM      4  C4  UNL d   1       2.685  -0.551   5.434  0.00  0.00    -0.042 A 
ATOM      5  C5  UNL d   1       1.822  -1.638   5.347  0.00  0.00     0.033 A 
ATOM      6  C6  UNL d   1       1.064  -1.837   4.189  0.00  0.00    -0.057 A 
ENDROOT
BRANCH   1   7
ATOM      7  N   UNL d   1       0.300  -1.171   2.008  0.00  0.00    -0.732 N 
ATOM      8  C   UNL d   1       0.825  -1.464   0.692  0.00  0.00     0.284 C 
ATOM      9  H3  UNL d   1      -0.519  -1.720   2.261  0.00  0.00     0.395 HD
ENDBRANCH   1   7
TORSDOF 1
ENDMDL
