MODEL 1
REMARK minimizedAffinity 8.6126442
REMARK minimizedRMSD -1
REMARK  1 active torsions:
REMARK  status: ('A' for Active; 'I' for Inactive)
REMARK    1  A    between atoms: N_2  and  C1_3 
ROOT
ATOM      1  C1  UNL d   1       0.275   0.887   3.336  0.00  0.00     0.143 A 
ATOM      2  C2  UNL d   1       1.450   0.373   3.895  0.00  0.00    -0.057 A 
ATOM      3  C3  UNL d   1       1.871  -0.935   3.627  0.00  0.00     0.033 A 
ATOM      4  C4  UNL d   1       1.104  -1.766   2.816  0.00  0.00    -0.042 A 
ATOM      5  C5  UNL d   1      -0.081  -1.285   2.270  0.00  0.00     0.033 A 
ATOM      6  C6  UNL d   1      -0.491   0.025   2.536  0.00  0.00    -0.057 A 
ENDROOT
BRANCH   1   7
ATOM      7  N   UNL d   1      -0.247   2.146   3.643  0.00  0.00    -0.732 N 
ATOM      8  C   UNL d   1      -0.315   2.601   5.015  0.00  0.00     0.284 C 
ATOM      9  H3  UNL d   1       0.050   2.861   2.982  0.00  0.00     0.395 HD
ENDBRANCH   1   7
TORSDOF 1
ENDMDL
