MODEL 1
REMARK minimizedAffinity 14.1220875
REMARK minimizedRMSD -1
REMARK  1 active torsions:
REMARK  status: ('A' for Active; 'I' for Inactive)
REMARK    1  A    between atoms: N_2  and  C1_3 
ROOT
ATOM      1  C1  UNL d   1       2.520   0.192  -4.545  0.00  0.00     0.143 A 
ATOM      2  C2  UNL d   1       1.133   0.374  -4.540  0.00  0.00    -0.057 A 
ATOM      3  C3  UNL d   1       0.258  -0.717  -4.470  0.00  0.00     0.033 A 
ATOM      4  C4  UNL d   1       0.756  -2.015  -4.432  0.00  0.00    -0.042 A 
ATOM      5  C5  UNL d   1       2.131  -2.221  -4.461  0.00  0.00     0.033 A 
ATOM      6  C6  UNL d   1       3.000  -1.127  -4.525  0.00  0.00    -0.057 A 
ENDROOT
BRANCH   1   7
ATOM      7  N   UNL d   1       3.440   1.230  -4.714  0.00  0.00    -0.732 N 
ATOM      8  C   UNL d   1       4.717   0.987  -5.349  0.00  0.00     0.284 C 
ATOM      9  H3  UNL d   1       2.995   2.101  -4.994  0.00  0.00     0.395 HD
ENDBRANCH   1   7
TORSDOF 1
ENDMDL
