MODEL 1
REMARK minimizedAffinity -3.00827527
REMARK minimizedRMSD -1
REMARK  3 active torsions:
REMARK  status: ('A' for Active; 'I' for Inactive)
REMARK    1  A    between atoms: C3'_2  and  C2'_3 
REMARK    2  A    between atoms: C2'_3  and  C1'_4 
REMARK    3  A    between atoms: C1'_4  and  C1_5 
ROOT
ATOM      1  C1  N4B d   1       0.451  -1.800  -1.353  0.00  0.00    -0.075 A 
ATOM      2  C2  N4B d   1      -0.643  -1.915  -2.238  0.00  0.00     0.002 A 
ATOM      3  C3  N4B d   1      -1.113  -3.157  -2.590  0.00  0.00     0.002 A 
ATOM      4  C4  N4B d   1      -0.496  -4.292  -2.086  0.00  0.00    -0.004 A 
ATOM      5  C5  N4B d   1       0.544  -4.171  -1.212  0.00  0.00     0.002 A 
ATOM      6  C6  N4B d   1       1.024  -2.930  -0.846  0.00  0.00     0.002 A 
ENDROOT
BRANCH   1   7
ATOM      7  C1' N4B d   1       1.054  -0.466  -1.006  0.00  0.00     0.057 C 
BRANCH   7   8
ATOM      8  C2' N4B d   1       0.090   0.302  -0.108  0.00  0.00     0.009 C 
BRANCH   8   9
ATOM      9  C3' N4B d   1       0.433   0.141   1.363  0.00  0.00     0.004 C 
ATOM     10  C4' N4B d   1       0.223   1.401   2.150  0.00  0.00     0.003 C 
ENDBRANCH   8   9
ENDBRANCH   7   8
ENDBRANCH   1   7
TORSDOF 3
ENDMDL
