MODEL 1
REMARK minimizedAffinity -4.8468132
REMARK minimizedRMSD -1
REMARK  3 active torsions:
REMARK  status: ('A' for Active; 'I' for Inactive)
REMARK    1  A    between atoms: C3'_2  and  C2'_3 
REMARK    2  A    between atoms: C2'_3  and  C1'_4 
REMARK    3  A    between atoms: C1'_4  and  C1_5 
ROOT
ATOM      1  C1  N4B d   1       0.023   0.919   0.216  0.00  0.00    -0.075 A 
ATOM      2  C2  N4B d   1      -0.275   1.780   1.294  0.00  0.00     0.002 A 
ATOM      3  C3  N4B d   1      -0.670   3.073   1.052  0.00  0.00     0.002 A 
ATOM      4  C4  N4B d   1      -0.757   3.530  -0.255  0.00  0.00    -0.004 A 
ATOM      5  C5  N4B d   1      -0.493   2.684  -1.292  0.00  0.00     0.002 A 
ATOM      6  C6  N4B d   1      -0.098   1.381  -1.063  0.00  0.00     0.002 A 
ENDROOT
BRANCH   1   7
ATOM      7  C1' N4B d   1       0.542  -0.476   0.433  0.00  0.00     0.057 C 
BRANCH   7   8
ATOM      8  C2' N4B d   1       0.227  -1.325  -0.795  0.00  0.00     0.009 C 
BRANCH   8   9
ATOM      9  C3' N4B d   1       0.736  -2.749  -0.648  0.00  0.00     0.004 C 
ATOM     10  C4' N4B d   1      -0.294  -3.775  -1.013  0.00  0.00     0.003 C 
ENDBRANCH   8   9
ENDBRANCH   7   8
ENDBRANCH   1   7
TORSDOF 3
ENDMDL
