MODEL 1
REMARK minimizedAffinity -3.93738484
REMARK minimizedRMSD -1
REMARK  3 active torsions:
REMARK  status: ('A' for Active; 'I' for Inactive)
REMARK    1  A    between atoms: C3'_2  and  C2'_3 
REMARK    2  A    between atoms: C2'_3  and  C1'_4 
REMARK    3  A    between atoms: C1'_4  and  C1_5 
ROOT
ATOM      1  C1  N4B d   1       0.212   0.581   0.267  0.00  0.00    -0.075 A 
ATOM      2  C2  N4B d   1       0.162   1.202  -1.001  0.00  0.00     0.002 A 
ATOM      3  C3  N4B d   1       0.218   2.570  -1.098  0.00  0.00     0.002 A 
ATOM      4  C4  N4B d   1       0.304   3.337   0.055  0.00  0.00    -0.004 A 
ATOM      5  C5  N4B d   1       0.378   2.728   1.274  0.00  0.00     0.002 A 
ATOM      6  C6  N4B d   1       0.327   1.354   1.386  0.00  0.00     0.002 A 
ENDROOT
BRANCH   1   7
ATOM      7  C1' N4B d   1       0.068  -0.908   0.428  0.00  0.00     0.057 C 
BRANCH   7   8
ATOM      8  C2' N4B d   1       0.053  -1.562  -0.950  0.00  0.00     0.009 C 
BRANCH   8   9
ATOM      9  C3' N4B d   1       0.167  -3.074  -0.862  0.00  0.00     0.004 C 
ATOM     10  C4' N4B d   1      -0.952  -3.783  -1.567  0.00  0.00     0.003 C 
ENDBRANCH   8   9
ENDBRANCH   7   8
ENDBRANCH   1   7
TORSDOF 3
ENDMDL
