MODEL 1
REMARK minimizedAffinity 0.485913515
REMARK minimizedRMSD -1
REMARK  3 active torsions:
REMARK  status: ('A' for Active; 'I' for Inactive)
REMARK    1  A    between atoms: C3'_2  and  C2'_3 
REMARK    2  A    between atoms: C2'_3  and  C1'_4 
REMARK    3  A    between atoms: C1'_4  and  C1_5 
ROOT
ATOM      1  C1  N4B d   1       0.698  -0.395   0.190  0.00  0.00    -0.075 A 
ATOM      2  C2  N4B d   1       0.248   0.501  -0.805  0.00  0.00     0.002 A 
ATOM      3  C3  N4B d   1      -0.096   1.786  -0.466  0.00  0.00     0.002 A 
ATOM      4  C4  N4B d   1      -0.017   2.191   0.858  0.00  0.00    -0.004 A 
ATOM      5  C5  N4B d   1       0.443   1.327   1.809  0.00  0.00     0.002 A 
ATOM      6  C6  N4B d   1       0.796   0.034   1.482  0.00  0.00     0.002 A 
ENDROOT
BRANCH   1   7
ATOM      7  C1' N4B d   1       1.004  -1.836  -0.118  0.00  0.00     0.057 C 
BRANCH   7   8
ATOM      8  C2' N4B d   1      -0.189  -2.458  -0.837  0.00  0.00     0.009 C 
BRANCH   8   9
ATOM      9  C3' N4B d   1      -0.133  -3.976  -0.823  0.00  0.00     0.004 C 
ATOM     10  C4' N4B d   1      -1.309  -4.607  -1.506  0.00  0.00     0.003 C 
ENDBRANCH   8   9
ENDBRANCH   7   8
ENDBRANCH   1   7
TORSDOF 3
ENDMDL
