MODEL 1
REMARK minimizedAffinity 1.55746675
REMARK minimizedRMSD -1
REMARK  3 active torsions:
REMARK  status: ('A' for Active; 'I' for Inactive)
REMARK    1  A    between atoms: C3'_2  and  C2'_3 
REMARK    2  A    between atoms: C2'_3  and  C1'_4 
REMARK    3  A    between atoms: C1'_4  and  C1_5 
ROOT
ATOM      1  C1  N4B d   1       0.325  -0.067   0.389  0.00  0.00    -0.075 A 
ATOM      2  C2  N4B d   1       0.155  -0.928   1.496  0.00  0.00     0.002 A 
ATOM      3  C3  N4B d   1      -0.128  -0.406   2.734  0.00  0.00     0.002 A 
ATOM      4  C4  N4B d   1      -0.225   0.968   2.893  0.00  0.00    -0.004 A 
ATOM      5  C5  N4B d   1      -0.084   1.791   1.814  0.00  0.00     0.002 A 
ATOM      6  C6  N4B d   1       0.196   1.280   0.563  0.00  0.00     0.002 A 
ENDROOT
BRANCH   1   7
ATOM      7  C1' N4B d   1       0.720  -0.586  -0.967  0.00  0.00     0.057 C 
BRANCH   7   8
ATOM      8  C2' N4B d   1       0.121  -1.975  -1.165  0.00  0.00     0.009 C 
BRANCH   8   9
ATOM      9  C3' N4B d   1       1.171  -3.067  -1.061  0.00  0.00     0.004 C 
ATOM     10  C4' N4B d   1       0.616  -4.359  -0.539  0.00  0.00     0.003 C 
ENDBRANCH   8   9
ENDBRANCH   7   8
ENDBRANCH   1   7
TORSDOF 3
ENDMDL
