MODEL 1
REMARK minimizedAffinity -2.01354527
REMARK minimizedRMSD -1
REMARK  3 active torsions:
REMARK  status: ('A' for Active; 'I' for Inactive)
REMARK    1  A    between atoms: C3'_2  and  C2'_3 
REMARK    2  A    between atoms: C2'_3  and  C1'_4 
REMARK    3  A    between atoms: C1'_4  and  C1_5 
ROOT
ATOM      1  C1  N4B d   1       0.111  -0.022   0.054  0.00  0.00    -0.075 A 
ATOM      2  C2  N4B d   1      -0.228   1.340  -0.102  0.00  0.00     0.002 A 
ATOM      3  C3  N4B d   1      -0.368   2.144   1.003  0.00  0.00     0.002 A 
ATOM      4  C4  N4B d   1      -0.193   1.605   2.269  0.00  0.00    -0.004 A 
ATOM      5  C5  N4B d   1       0.160   0.295   2.410  0.00  0.00     0.002 A 
ATOM      6  C6  N4B d   1       0.308  -0.523   1.308  0.00  0.00     0.002 A 
ENDROOT
BRANCH   1   7
ATOM      7  C1' N4B d   1       0.191  -0.960  -1.119  0.00  0.00     0.057 C 
BRANCH   7   8
ATOM      8  C2' N4B d   1       0.247  -2.397  -0.609  0.00  0.00     0.009 C 
BRANCH   8   9
ATOM      9  C3' N4B d   1       0.215  -3.405  -1.745  0.00  0.00     0.004 C 
ATOM     10  C4' N4B d   1      -1.168  -3.902  -2.042  0.00  0.00     0.003 C 
ENDBRANCH   8   9
ENDBRANCH   7   8
ENDBRANCH   1   7
TORSDOF 3
ENDMDL
