MODEL 1
REMARK minimizedAffinity 0.00833232794
REMARK minimizedRMSD -1
REMARK  0 active torsions:
REMARK  status: ('A' for Active; 'I' for Inactive)
ROOT
ATOM      1  C   UNL d   1       0.945   1.816   0.761  0.00  0.00     0.023 A 
ATOM      2  C1  UNL d   1      -0.118   2.386   0.060  0.00  0.00     0.003 A 
ATOM      3  C2  UNL d   1      -0.515   1.850  -1.166  0.00  0.00     0.048 A 
ATOM      4  C3  UNL d   1       0.155   0.743  -1.686  0.00  0.00     0.023 A 
ATOM      5  C4  UNL d   1       1.218   0.168  -0.987  0.00  0.00     0.048 A 
ATOM      6  C5  UNL d   1       1.612   0.708   0.238  0.00  0.00     0.003 A 
ATOM      7  I   UNL d   1      -0.435  -0.058  -3.511  0.00  0.00    -0.146 I 
ENDROOT
TORSDOF 0
ENDMDL
