MODEL 1
REMARK minimizedAffinity 4.5856204
REMARK minimizedRMSD -1
REMARK  0 active torsions:
REMARK  status: ('A' for Active; 'I' for Inactive)
ROOT
ATOM      1  C   UNL d   1      -0.869   0.802  -4.198  0.00  0.00     0.023 A 
ATOM      2  C1  UNL d   1      -1.582   1.388  -3.152  0.00  0.00     0.003 A 
ATOM      3  C2  UNL d   1      -2.280   2.579  -3.361  0.00  0.00     0.048 A 
ATOM      4  C3  UNL d   1      -2.262   3.178  -4.621  0.00  0.00     0.023 A 
ATOM      5  C4  UNL d   1      -1.552   2.595  -5.671  0.00  0.00     0.048 A 
ATOM      6  C5  UNL d   1      -0.854   1.405  -5.456  0.00  0.00     0.003 A 
ATOM      7  I   UNL d   1      -3.301   4.950  -4.936  0.00  0.00    -0.146 I 
ENDROOT
TORSDOF 0
ENDMDL
