MODEL 1
REMARK minimizedAffinity 8.90872765
REMARK minimizedRMSD -1
REMARK  0 active torsions:
REMARK  status: ('A' for Active; 'I' for Inactive)
ROOT
ATOM      1  C   UNL d   1       1.223   3.128   0.004  0.00  0.00     0.023 A 
ATOM      2  C1  UNL d   1       2.011   2.636   1.045  0.00  0.00     0.003 A 
ATOM      3  C2  UNL d   1       3.089   3.386   1.521  0.00  0.00     0.048 A 
ATOM      4  C3  UNL d   1       3.372   4.628   0.953  0.00  0.00     0.023 A 
ATOM      5  C4  UNL d   1       2.585   5.125  -0.087  0.00  0.00     0.048 A 
ATOM      6  C5  UNL d   1       1.510   4.371  -0.561  0.00  0.00     0.003 A 
ATOM      7  I   UNL d   1       4.974   5.746   1.661  0.00  0.00    -0.146 I 
ENDROOT
TORSDOF 0
ENDMDL
