MODEL 1
REMARK minimizedAffinity 11.3573017
REMARK minimizedRMSD -1
REMARK  0 active torsions:
REMARK  status: ('A' for Active; 'I' for Inactive)
ROOT
ATOM      1  C   UNL d   1       1.606   4.551  -0.721  0.00  0.00     0.023 A 
ATOM      2  C1  UNL d   1       1.513   3.382   0.033  0.00  0.00     0.003 A 
ATOM      3  C2  UNL d   1       0.262   2.889   0.409  0.00  0.00     0.048 A 
ATOM      4  C3  UNL d   1      -0.893   3.571   0.026  0.00  0.00     0.023 A 
ATOM      5  C4  UNL d   1      -0.805   4.741  -0.729  0.00  0.00     0.048 A 
ATOM      6  C5  UNL d   1       0.449   5.230  -1.102  0.00  0.00     0.003 A 
ATOM      7  I   UNL d   1      -2.757   2.840   0.584  0.00  0.00    -0.146 I 
ENDROOT
TORSDOF 0
ENDMDL
