MODEL 1
REMARK minimizedAffinity 12.3108168
REMARK minimizedRMSD -1
REMARK  0 active torsions:
REMARK  status: ('A' for Active; 'I' for Inactive)
ROOT
ATOM      1  C   UNL d   1      -4.448   5.005  -5.302  0.00  0.00     0.023 A 
ATOM      2  C1  UNL d   1      -4.795   3.778  -5.867  0.00  0.00     0.003 A 
ATOM      3  C2  UNL d   1      -3.846   2.759  -5.964  0.00  0.00     0.048 A 
ATOM      4  C3  UNL d   1      -2.551   2.973  -5.492  0.00  0.00     0.023 A 
ATOM      5  C4  UNL d   1      -2.199   4.198  -4.925  0.00  0.00     0.048 A 
ATOM      6  C5  UNL d   1      -3.151   5.215  -4.831  0.00  0.00     0.003 A 
ATOM      7  I   UNL d   1      -1.136   1.457  -5.635  0.00  0.00    -0.146 I 
ENDROOT
TORSDOF 0
ENDMDL
