MODEL 1
REMARK minimizedAffinity 0.364896834
REMARK minimizedRMSD -1
REMARK  0 active torsions:
REMARK  status: ('A' for Active; 'I' for Inactive)
ROOT
ATOM      1  C   UNL d   1      -5.988   4.061   1.240  0.00  0.00     0.023 A 
ATOM      2  C1  UNL d   1      -5.770   2.782   0.727  0.00  0.00     0.003 A 
ATOM      3  C2  UNL d   1      -4.478   2.375   0.387  0.00  0.00     0.048 A 
ATOM      4  C3  UNL d   1      -3.409   3.253   0.562  0.00  0.00     0.023 A 
ATOM      5  C4  UNL d   1      -3.622   4.533   1.075  0.00  0.00     0.048 A 
ATOM      6  C5  UNL d   1      -4.916   4.935   1.413  0.00  0.00     0.003 A 
ATOM      7  I   UNL d   1      -1.485   2.650   0.056  0.00  0.00    -0.146 I 
ENDROOT
TORSDOF 0
ENDMDL
