MODEL 1
REMARK minimizedAffinity -0.915189147
REMARK minimizedRMSD -1
REMARK  0 active torsions:
REMARK  status: ('A' for Active; 'I' for Inactive)
ROOT
ATOM      1  C   UNL d   1      -4.668   1.747  -3.558  0.00  0.00     0.023 A 
ATOM      2  C1  UNL d   1      -5.807   1.922  -4.344  0.00  0.00     0.003 A 
ATOM      3  C2  UNL d   1      -5.997   3.115  -5.045  0.00  0.00     0.048 A 
ATOM      4  C3  UNL d   1      -5.043   4.128  -4.956  0.00  0.00     0.023 A 
ATOM      5  C4  UNL d   1      -3.901   3.957  -4.172  0.00  0.00     0.048 A 
ATOM      6  C5  UNL d   1      -3.716   2.763  -3.473  0.00  0.00     0.003 A 
ATOM      7  I   UNL d   1      -5.323   5.904  -5.999  0.00  0.00    -0.146 I 
ENDROOT
TORSDOF 0
ENDMDL
