MODEL 1
REMARK minimizedAffinity -4.73229218
REMARK minimizedRMSD -1
REMARK  0 active torsions:
REMARK  status: ('A' for Active; 'I' for Inactive)
ROOT
ATOM      1  C1  DEN d   1      -0.585  -0.132  -0.145  0.00  0.00     0.130 A 
ATOM      2  C2  DEN d   1       0.455   0.134  -1.135  0.00  0.00    -0.031 A 
ATOM      3  C3  DEN d   1       1.620  -0.715  -0.813  0.00  0.00     0.027 A 
ATOM      4  C4  DEN d   1       1.911  -2.408   1.110  0.00  0.00     0.027 A 
ATOM      5  C5  DEN d   1       1.307  -2.969   2.213  0.00  0.00    -0.003 A 
ATOM      6  C6  DEN d   1       0.052  -2.603   2.624  0.00  0.00     0.001 A 
ATOM      7  C7  DEN d   1      -0.656  -1.680   1.900  0.00  0.00     0.017 A 
ATOM      8  C8  DEN d   1      -0.050  -1.104   0.791  0.00  0.00    -0.094 A 
ATOM      9  C9  DEN d   1       1.214  -1.498   0.385  0.00  0.00    -0.072 A 
ENDROOT
TORSDOF 0
ENDMDL
