MODEL 1
REMARK minimizedAffinity -4.64309835
REMARK minimizedRMSD -1
REMARK  0 active torsions:
REMARK  status: ('A' for Active; 'I' for Inactive)
ROOT
ATOM      1  C1  DEN d   1      -1.697  -0.271  -0.389  0.00  0.00     0.130 A 
ATOM      2  C2  DEN d   1      -1.650   1.169  -0.633  0.00  0.00    -0.031 A 
ATOM      3  C3  DEN d   1      -0.256   1.618  -0.449  0.00  0.00     0.027 A 
ATOM      4  C4  DEN d   1       1.826   0.231   0.180  0.00  0.00     0.027 A 
ATOM      5  C5  DEN d   1       2.281  -1.029   0.498  0.00  0.00    -0.003 A 
ATOM      6  C6  DEN d   1       1.443  -2.110   0.575  0.00  0.00     0.001 A 
ATOM      7  C7  DEN d   1       0.113  -1.959   0.287  0.00  0.00     0.017 A 
ATOM      8  C8  DEN d   1      -0.355  -0.690  -0.027  0.00  0.00    -0.094 A 
ATOM      9  C9  DEN d   1       0.510   0.388  -0.112  0.00  0.00    -0.072 A 
ENDROOT
TORSDOF 0
ENDMDL
