MODEL 1
REMARK minimizedAffinity -1.84422839
REMARK minimizedRMSD -1
REMARK  0 active torsions:
REMARK  status: ('A' for Active; 'I' for Inactive)
ROOT
ATOM      1  C1  DEN d   1       1.936   0.329  -0.162  0.00  0.00     0.130 A 
ATOM      2  C2  DEN d   1       0.682   0.859  -0.690  0.00  0.00    -0.031 A 
ATOM      3  C3  DEN d   1      -0.384  -0.122  -0.404  0.00  0.00     0.027 A 
ATOM      4  C4  DEN d   1      -0.216  -2.395   0.803  0.00  0.00     0.027 A 
ATOM      5  C5  DEN d   1       0.643  -3.278   1.420  0.00  0.00    -0.003 A 
ATOM      6  C6  DEN d   1       1.987  -3.038   1.521  0.00  0.00     0.001 A 
ATOM      7  C7  DEN d   1       2.506  -1.866   1.038  0.00  0.00     0.017 A 
ATOM      8  C8  DEN d   1       1.648  -0.974   0.408  0.00  0.00    -0.094 A 
ATOM      9  C9  DEN d   1       0.289  -1.229   0.327  0.00  0.00    -0.072 A 
ENDROOT
TORSDOF 0
ENDMDL
