MODEL 1
REMARK minimizedAffinity -4.3466568
REMARK minimizedRMSD -1
REMARK  0 active torsions:
REMARK  status: ('A' for Active; 'I' for Inactive)
ROOT
ATOM      1  C1  DEN d   1       1.570   0.762  -0.542  0.00  0.00     0.130 A 
ATOM      2  C2  DEN d   1       3.017   0.579  -0.617  0.00  0.00    -0.031 A 
ATOM      3  C3  DEN d   1       3.346  -0.717   0.010  0.00  0.00     0.027 A 
ATOM      4  C4  DEN d   1       1.763  -2.450   1.079  0.00  0.00     0.027 A 
ATOM      5  C5  DEN d   1       0.450  -2.731   1.388  0.00  0.00    -0.003 A 
ATOM      6  C6  DEN d   1      -0.569  -1.860   1.109  0.00  0.00     0.001 A 
ATOM      7  C7  DEN d   1      -0.297  -0.684   0.461  0.00  0.00     0.017 A 
ATOM      8  C8  DEN d   1       1.025  -0.390   0.152  0.00  0.00    -0.094 A 
ATOM      9  C9  DEN d   1       2.039  -1.290   0.432  0.00  0.00    -0.072 A 
ENDROOT
TORSDOF 0
ENDMDL
