MODEL 1
REMARK minimizedAffinity -4.16816044
REMARK minimizedRMSD -1
REMARK  0 active torsions:
REMARK  status: ('A' for Active; 'I' for Inactive)
ROOT
ATOM      1  C1  DEN d   1       0.739   0.697  -0.490  0.00  0.00     0.130 A 
ATOM      2  C2  DEN d   1       2.174   0.626  -0.747  0.00  0.00    -0.031 A 
ATOM      3  C3  DEN d   1       2.656  -0.691  -0.283  0.00  0.00     0.027 A 
ATOM      4  C4  DEN d   1       1.325  -2.617   0.798  0.00  0.00     0.027 A 
ATOM      5  C5  DEN d   1       0.079  -3.017   1.229  0.00  0.00    -0.003 A 
ATOM      6  C6  DEN d   1      -1.018  -2.201   1.150  0.00  0.00     0.001 A 
ATOM      7  C7  DEN d   1      -0.900  -0.959   0.585  0.00  0.00     0.017 A 
ATOM      8  C8  DEN d   1       0.354  -0.546   0.154  0.00  0.00    -0.094 A 
ATOM      9  C9  DEN d   1       1.448  -1.390   0.233  0.00  0.00    -0.072 A 
ENDROOT
TORSDOF 0
ENDMDL
