MODEL 1
REMARK minimizedAffinity -4.28337526
REMARK minimizedRMSD -1
REMARK  0 active torsions:
REMARK  status: ('A' for Active; 'I' for Inactive)
ROOT
ATOM      1  C1  DEN d   1      -1.258   0.247   0.162  0.00  0.00     0.130 A 
ATOM      2  C2  DEN d   1      -0.999   1.471  -0.591  0.00  0.00    -0.031 A 
ATOM      3  C3  DEN d   1       0.452   1.547  -0.853  0.00  0.00     0.027 A 
ATOM      4  C4  DEN d   1       2.313  -0.105  -0.175  0.00  0.00     0.027 A 
ATOM      5  C5  DEN d   1       2.582  -1.284   0.484  0.00  0.00    -0.003 A 
ATOM      6  C6  DEN d   1       1.603  -2.012   1.107  0.00  0.00     0.001 A 
ATOM      7  C7  DEN d   1       0.301  -1.591   1.044  0.00  0.00     0.017 A 
ATOM      8  C8  DEN d   1       0.023  -0.399   0.387  0.00  0.00    -0.094 A 
ATOM      9  C9  DEN d   1       1.025   0.316  -0.246  0.00  0.00    -0.072 A 
ENDROOT
TORSDOF 0
ENDMDL
