MODEL 1
REMARK minimizedAffinity -0.0964694023
REMARK minimizedRMSD -1
REMARK  0 active torsions:
REMARK  status: ('A' for Active; 'I' for Inactive)
ROOT
ATOM      1  C1  DEN d   1       3.456  -0.164   0.807  0.00  0.00     0.130 A 
ATOM      2  C2  DEN d   1       3.421  -1.355   1.651  0.00  0.00    -0.031 A 
ATOM      3  C3  DEN d   1       2.046  -1.893   1.624  0.00  0.00     0.027 A 
ATOM      4  C4  DEN d   1      -0.020  -1.005   0.359  0.00  0.00     0.027 A 
ATOM      5  C5  DEN d   1      -0.483  -0.014  -0.478  0.00  0.00    -0.003 A 
ATOM      6  C6  DEN d   1       0.319   1.007  -0.915  0.00  0.00     0.001 A 
ATOM      7  C7  DEN d   1       1.640   1.035  -0.552  0.00  0.00     0.017 A 
ATOM      8  C8  DEN d   1       2.112   0.044   0.298  0.00  0.00    -0.094 A 
ATOM      9  C9  DEN d   1       1.289  -0.987   0.719  0.00  0.00    -0.072 A 
ENDROOT
TORSDOF 0
ENDMDL
