MODEL 1
REMARK minimizedAffinity -4.12182093
REMARK minimizedRMSD -1
REMARK  0 active torsions:
REMARK  status: ('A' for Active; 'I' for Inactive)
ROOT
ATOM      1  C1  DEN d   1      -1.204  -0.708  -0.366  0.00  0.00     0.130 A 
ATOM      2  C2  DEN d   1      -1.109   0.739  -0.540  0.00  0.00    -0.031 A 
ATOM      3  C3  DEN d   1       0.281   1.144  -0.247  0.00  0.00     0.027 A 
ATOM      4  C4  DEN d   1       2.285  -0.322   0.451  0.00  0.00     0.027 A 
ATOM      5  C5  DEN d   1       2.690  -1.606   0.740  0.00  0.00    -0.003 A 
ATOM      6  C6  DEN d   1       1.824  -2.668   0.714  0.00  0.00     0.001 A 
ATOM      7  C7  DEN d   1       0.519  -2.470   0.348  0.00  0.00     0.017 A 
ATOM      8  C8  DEN d   1       0.102  -1.177   0.062  0.00  0.00    -0.094 A 
ATOM      9  C9  DEN d   1       0.995  -0.119   0.082  0.00  0.00    -0.072 A 
ENDROOT
TORSDOF 0
ENDMDL
