MODEL 1
REMARK minimizedAffinity -5.25912237
REMARK minimizedRMSD -1
REMARK  0 active torsions:
REMARK  status: ('A' for Active; 'I' for Inactive)
ROOT
ATOM      1  C1  DEN d   1       1.250   1.036   0.187  0.00  0.00     0.130 A 
ATOM      2  C2  DEN d   1      -0.026   1.748   0.206  0.00  0.00    -0.031 A 
ATOM      3  C3  DEN d   1      -1.062   0.815   0.690  0.00  0.00     0.027 A 
ATOM      4  C4  DEN d   1      -0.817  -1.649   1.415  0.00  0.00     0.027 A 
ATOM      5  C5  DEN d   1       0.069  -2.693   1.561  0.00  0.00    -0.003 A 
ATOM      6  C6  DEN d   1       1.393  -2.578   1.230  0.00  0.00     0.001 A 
ATOM      7  C7  DEN d   1       1.879  -1.380   0.778  0.00  0.00     0.017 A 
ATOM      8  C8  DEN d   1       0.990  -0.325   0.621  0.00  0.00    -0.094 A 
ATOM      9  C9  DEN d   1      -0.343  -0.456   0.973  0.00  0.00    -0.072 A 
ENDROOT
TORSDOF 0
ENDMDL
