MODEL 1
REMARK minimizedAffinity -3.97474718
REMARK minimizedRMSD -1
REMARK  0 active torsions:
REMARK  status: ('A' for Active; 'I' for Inactive)
ROOT
ATOM      1  C1  DEN d   1       0.107   1.477  -0.819  0.00  0.00     0.130 A 
ATOM      2  C2  DEN d   1      -1.285   1.035  -0.821  0.00  0.00    -0.031 A 
ATOM      3  C3  DEN d   1      -1.336  -0.312  -0.219  0.00  0.00     0.027 A 
ATOM      4  C4  DEN d   1       0.592  -1.746   0.717  0.00  0.00     0.027 A 
ATOM      5  C5  DEN d   1       1.953  -1.799   0.926  0.00  0.00    -0.003 A 
ATOM      6  C6  DEN d   1       2.791  -0.786   0.541  0.00  0.00     0.001 A 
ATOM      7  C7  DEN d   1       2.271   0.343  -0.034  0.00  0.00     0.017 A 
ATOM      8  C8  DEN d   1       0.901   0.401  -0.255  0.00  0.00    -0.094 A 
ATOM      9  C9  DEN d   1       0.069  -0.628   0.153  0.00  0.00    -0.072 A 
ENDROOT
TORSDOF 0
ENDMDL
