MODEL 1
REMARK minimizedAffinity -2.78342867
REMARK minimizedRMSD -1
REMARK  0 active torsions:
REMARK  status: ('A' for Active; 'I' for Inactive)
ROOT
ATOM      1  C1  DEN d   1      -1.663   0.085   0.055  0.00  0.00     0.130 A 
ATOM      2  C2  DEN d   1      -1.121   1.179  -0.746  0.00  0.00    -0.031 A 
ATOM      3  C3  DEN d   1       0.331   0.956  -0.900  0.00  0.00     0.027 A 
ATOM      4  C4  DEN d   1       1.783  -0.969   0.014  0.00  0.00     0.027 A 
ATOM      5  C5  DEN d   1       1.772  -2.127   0.760  0.00  0.00    -0.003 A 
ATOM      6  C6  DEN d   1       0.631  -2.606   1.347  0.00  0.00     0.001 A 
ATOM      7  C7  DEN d   1      -0.556  -1.949   1.160  0.00  0.00     0.017 A 
ATOM      8  C8  DEN d   1      -0.552  -0.777   0.415  0.00  0.00    -0.094 A 
ATOM      9  C9  DEN d   1       0.610  -0.315  -0.180  0.00  0.00    -0.072 A 
ENDROOT
TORSDOF 0
ENDMDL
