MODEL 1
REMARK minimizedAffinity -3.08014393
REMARK minimizedRMSD -1
REMARK  0 active torsions:
REMARK  status: ('A' for Active; 'I' for Inactive)
ROOT
ATOM      1  C1  DEN d   1      -1.361  -0.279  -0.296  0.00  0.00     0.130 A 
ATOM      2  C2  DEN d   1      -1.027   1.094  -0.664  0.00  0.00    -0.031 A 
ATOM      3  C3  DEN d   1       0.422   1.284  -0.455  0.00  0.00     0.027 A 
ATOM      4  C4  DEN d   1       2.174  -0.409   0.394  0.00  0.00     0.027 A 
ATOM      5  C5  DEN d   1       2.364  -1.697   0.844  0.00  0.00    -0.003 A 
ATOM      6  C6  DEN d   1       1.330  -2.585   0.976  0.00  0.00     0.001 A 
ATOM      7  C7  DEN d   1       0.063  -2.210   0.613  0.00  0.00     0.017 A 
ATOM      8  C8  DEN d   1      -0.138  -0.911   0.165  0.00  0.00    -0.094 A 
ATOM      9  C9  DEN d   1       0.923  -0.032   0.026  0.00  0.00    -0.072 A 
ENDROOT
TORSDOF 0
ENDMDL
