MODEL 1
REMARK minimizedAffinity -4.34096766
REMARK minimizedRMSD -1
REMARK  0 active torsions:
REMARK  status: ('A' for Active; 'I' for Inactive)
ROOT
ATOM      1  C1  DEN d   1       2.289  -1.765   0.760  0.00  0.00     0.130 A 
ATOM      2  C2  DEN d   1       3.167  -0.729   0.223  0.00  0.00    -0.031 A 
ATOM      3  C3  DEN d   1       2.325   0.405  -0.206  0.00  0.00     0.027 A 
ATOM      4  C4  DEN d   1      -0.239   0.659  -0.086  0.00  0.00     0.027 A 
ATOM      5  C5  DEN d   1      -1.413   0.038   0.281  0.00  0.00    -0.003 A 
ATOM      6  C6  DEN d   1      -1.437  -1.230   0.798  0.00  0.00     0.001 A 
ATOM      7  C7  DEN d   1      -0.261  -1.902   1.004  0.00  0.00     0.017 A 
ATOM      8  C8  DEN d   1       0.926  -1.285   0.630  0.00  0.00    -0.094 A 
ATOM      9  C9  DEN d   1       0.930   0.002   0.120  0.00  0.00    -0.072 A 
ENDROOT
TORSDOF 0
ENDMDL
