MODEL 1
REMARK minimizedAffinity -2.72327805
REMARK minimizedRMSD -1
REMARK  0 active torsions:
REMARK  status: ('A' for Active; 'I' for Inactive)
ROOT
ATOM      1  C1  DEN d   1      -0.076   3.306  -2.564  0.00  0.00     0.130 A 
ATOM      2  C2  DEN d   1      -0.071   3.794  -3.941  0.00  0.00    -0.031 A 
ATOM      3  C3  DEN d   1      -1.159   3.113  -4.670  0.00  0.00     0.027 A 
ATOM      4  C4  DEN d   1      -2.845   1.363  -3.805  0.00  0.00     0.027 A 
ATOM      5  C5  DEN d   1      -3.236   0.626  -2.709  0.00  0.00    -0.003 A 
ATOM      6  C6  DEN d   1      -2.585   0.706  -1.506  0.00  0.00     0.001 A 
ATOM      7  C7  DEN d   1      -1.535   1.574  -1.359  0.00  0.00     0.017 A 
ATOM      8  C8  DEN d   1      -1.131   2.314  -2.462  0.00  0.00    -0.094 A 
ATOM      9  C9  DEN d   1      -1.810   2.229  -3.666  0.00  0.00    -0.072 A 
ENDROOT
TORSDOF 0
ENDMDL
