MODEL 1
REMARK minimizedAffinity -1.10407889
REMARK minimizedRMSD -1
REMARK  0 active torsions:
REMARK  status: ('A' for Active; 'I' for Inactive)
ROOT
ATOM      1  C1  DEN d   1       0.331  -0.355  -0.383  0.00  0.00     0.130 A 
ATOM      2  C2  DEN d   1      -0.869   0.477  -0.349  0.00  0.00    -0.031 A 
ATOM      3  C3  DEN d   1      -1.648   0.105   0.849  0.00  0.00     0.027 A 
ATOM      4  C4  DEN d   1      -1.112  -1.664   2.649  0.00  0.00     0.027 A 
ATOM      5  C5  DEN d   1      -0.210  -2.628   3.041  0.00  0.00    -0.003 A 
ATOM      6  C6  DEN d   1       0.908  -2.924   2.308  0.00  0.00     0.001 A 
ATOM      7  C7  DEN d   1       1.178  -2.216   1.167  0.00  0.00     0.017 A 
ATOM      8  C8  DEN d   1       0.270  -1.247   0.760  0.00  0.00    -0.094 A 
ATOM      9  C9  DEN d   1      -0.849  -0.955   1.522  0.00  0.00    -0.072 A 
ENDROOT
TORSDOF 0
ENDMDL
