MODEL 1
REMARK minimizedAffinity -1.7778765
REMARK minimizedRMSD -1
REMARK  0 active torsions:
REMARK  status: ('A' for Active; 'I' for Inactive)
ROOT
ATOM      1  C1  BNZ d   1      -2.762  -2.550  -2.161  0.00  0.00     0.000 A 
ATOM      2  C2  BNZ d   1      -2.007  -2.454  -1.022  0.00  0.00     0.000 A 
ATOM      3  C3  BNZ d   1      -0.936  -1.607  -0.963  0.00  0.00     0.000 A 
ATOM      4  C4  BNZ d   1      -0.597  -0.888  -2.052  0.00  0.00     0.000 A 
ATOM      5  C5  BNZ d   1      -1.343  -0.981  -3.210  0.00  0.00     0.000 A 
ATOM      6  C6  BNZ d   1      -2.444  -1.805  -3.254  0.00  0.00     0.000 A 
ENDROOT
TORSDOF 0
ENDMDL
