MODEL 1
REMARK minimizedAffinity -4.20627642
REMARK minimizedRMSD -1
REMARK  0 active torsions:
REMARK  status: ('A' for Active; 'I' for Inactive)
ROOT
ATOM      1  C1  BNZ d   1      -0.931   0.875   0.826  0.00  0.00     0.000 A 
ATOM      2  C2  BNZ d   1      -0.393  -0.031  -0.049  0.00  0.00     0.000 A 
ATOM      3  C3  BNZ d   1       0.951  -0.276  -0.064  0.00  0.00     0.000 A 
ATOM      4  C4  BNZ d   1       1.760   0.412   0.767  0.00  0.00     0.000 A 
ATOM      5  C5  BNZ d   1       1.234   1.335   1.649  0.00  0.00     0.000 A 
ATOM      6  C6  BNZ d   1      -0.124   1.551   1.688  0.00  0.00     0.000 A 
ENDROOT
TORSDOF 0
ENDMDL
