MODEL 1
REMARK minimizedAffinity -3.40432715
REMARK minimizedRMSD -1
REMARK  0 active torsions:
REMARK  status: ('A' for Active; 'I' for Inactive)
ROOT
ATOM      1  C1  BNZ d   1      -0.128   0.999   1.600  0.00  0.00     0.000 A 
ATOM      2  C2  BNZ d   1      -0.373  -0.311   1.285  0.00  0.00     0.000 A 
ATOM      3  C3  BNZ d   1      -0.687  -0.677   0.006  0.00  0.00     0.000 A 
ATOM      4  C4  BNZ d   1      -0.797   0.271  -0.947  0.00  0.00     0.000 A 
ATOM      5  C5  BNZ d   1      -0.563   1.598  -0.643  0.00  0.00     0.000 A 
ATOM      6  C6  BNZ d   1      -0.208   1.957   0.637  0.00  0.00     0.000 A 
ENDROOT
TORSDOF 0
ENDMDL
