MODEL 1
REMARK minimizedAffinity -3.19123244
REMARK minimizedRMSD -1
REMARK  0 active torsions:
REMARK  status: ('A' for Active; 'I' for Inactive)
ROOT
ATOM      1  C1  BNZ d   1      -2.733  -1.755  -1.970  0.00  0.00     0.000 A 
ATOM      2  C2  BNZ d   1      -2.189  -1.844  -0.716  0.00  0.00     0.000 A 
ATOM      3  C3  BNZ d   1      -0.904  -1.443  -0.481  0.00  0.00     0.000 A 
ATOM      4  C4  BNZ d   1      -0.151  -0.992  -1.505  0.00  0.00     0.000 A 
ATOM      5  C5  BNZ d   1      -0.682  -0.905  -2.777  0.00  0.00     0.000 A 
ATOM      6  C6  BNZ d   1      -1.989  -1.273  -3.003  0.00  0.00     0.000 A 
ENDROOT
TORSDOF 0
ENDMDL
