MODEL 1
REMARK minimizedAffinity -0.254419833
REMARK minimizedRMSD -1
REMARK  0 active torsions:
REMARK  status: ('A' for Active; 'I' for Inactive)
ROOT
ATOM      1  C1  BNZ d   1       0.758   0.079  -1.680  0.00  0.00     0.000 A 
ATOM      2  C2  BNZ d   1      -0.541   0.439  -1.439  0.00  0.00     0.000 A 
ATOM      3  C3  BNZ d   1      -0.994   0.611  -0.161  0.00  0.00     0.000 A 
ATOM      4  C4  BNZ d   1      -0.160   0.384   0.874  0.00  0.00     0.000 A 
ATOM      5  C5  BNZ d   1       1.150   0.011   0.647  0.00  0.00     0.000 A 
ATOM      6  C6  BNZ d   1       1.614  -0.123  -0.641  0.00  0.00     0.000 A 
ENDROOT
TORSDOF 0
ENDMDL
