MODEL 1
REMARK minimizedAffinity -3.36455345
REMARK minimizedRMSD -1
REMARK  0 active torsions:
REMARK  status: ('A' for Active; 'I' for Inactive)
ROOT
ATOM      1  C1  BNZ d   1      -0.371  -1.795  -1.466  0.00  0.00     0.000 A 
ATOM      2  C2  BNZ d   1      -0.070  -1.487  -2.766  0.00  0.00     0.000 A 
ATOM      3  C3  BNZ d   1      -1.044  -1.470  -3.725  0.00  0.00     0.000 A 
ATOM      4  C4  BNZ d   1      -2.308  -1.799  -3.392  0.00  0.00     0.000 A 
ATOM      5  C5  BNZ d   1      -2.626  -2.121  -2.088  0.00  0.00     0.000 A 
ATOM      6  C6  BNZ d   1      -1.651  -2.099  -1.117  0.00  0.00     0.000 A 
ENDROOT
TORSDOF 0
ENDMDL
