MODEL 1
REMARK minimizedAffinity -0.915780485
REMARK minimizedRMSD -1
REMARK  0 active torsions:
REMARK  status: ('A' for Active; 'I' for Inactive)
ROOT
ATOM      1  C1  BNZ d   1      -0.585   0.408  -0.444  0.00  0.00     0.000 A 
ATOM      2  C2  BNZ d   1      -1.222   1.366   0.298  0.00  0.00     0.000 A 
ATOM      3  C3  BNZ d   1      -1.406   1.202   1.643  0.00  0.00     0.000 A 
ATOM      4  C4  BNZ d   1      -0.988   0.065   2.235  0.00  0.00     0.000 A 
ATOM      5  C5  BNZ d   1      -0.352  -0.914   1.498  0.00  0.00     0.000 A 
ATOM      6  C6  BNZ d   1      -0.134  -0.729   0.152  0.00  0.00     0.000 A 
ENDROOT
TORSDOF 0
ENDMDL
