MODEL 1
REMARK minimizedAffinity -2.43417144
REMARK minimizedRMSD -1
REMARK  0 active torsions:
REMARK  status: ('A' for Active; 'I' for Inactive)
ROOT
ATOM      1  C1  BNZ d   1      -0.185   2.126   2.080  0.00  0.00     0.000 A 
ATOM      2  C2  BNZ d   1      -1.119   1.576   1.243  0.00  0.00     0.000 A 
ATOM      3  C3  BNZ d   1      -0.764   0.625   0.327  0.00  0.00     0.000 A 
ATOM      4  C4  BNZ d   1       0.528   0.255   0.223  0.00  0.00     0.000 A 
ATOM      5  C5  BNZ d   1       1.483   0.806   1.054  0.00  0.00     0.000 A 
ATOM      6  C6  BNZ d   1       1.116   1.735   2.001  0.00  0.00     0.000 A 
ENDROOT
TORSDOF 0
ENDMDL
