MODEL 1
REMARK minimizedAffinity -1.78057408
REMARK minimizedRMSD -1
REMARK  0 active torsions:
REMARK  status: ('A' for Active; 'I' for Inactive)
ROOT
ATOM      1  C1  BNZ d   1      -1.028  -0.393   0.388  0.00  0.00     0.000 A 
ATOM      2  C2  BNZ d   1      -1.238   0.513   1.392  0.00  0.00     0.000 A 
ATOM      3  C3  BNZ d   1      -0.246   1.370   1.781  0.00  0.00     0.000 A 
ATOM      4  C4  BNZ d   1       0.965   1.291   1.193  0.00  0.00     0.000 A 
ATOM      5  C5  BNZ d   1       1.195   0.376   0.185  0.00  0.00     0.000 A 
ATOM      6  C6  BNZ d   1       0.182  -0.458  -0.230  0.00  0.00     0.000 A 
ENDROOT
TORSDOF 0
ENDMDL
