MODEL 1
REMARK minimizedAffinity -1.25803399
REMARK minimizedRMSD -1
REMARK  0 active torsions:
REMARK  status: ('A' for Active; 'I' for Inactive)
ROOT
ATOM      1  C1  BNZ d   1      -2.772  -1.842  -1.935  0.00  0.00     0.000 A 
ATOM      2  C2  BNZ d   1      -2.071  -1.680  -0.770  0.00  0.00     0.000 A 
ATOM      3  C3  BNZ d   1      -0.958  -0.888  -0.727  0.00  0.00     0.000 A 
ATOM      4  C4  BNZ d   1      -0.524  -0.292  -1.857  0.00  0.00     0.000 A 
ATOM      5  C5  BNZ d   1      -1.215  -0.453  -3.041  0.00  0.00     0.000 A 
ATOM      6  C6  BNZ d   1      -2.358  -1.219  -3.072  0.00  0.00     0.000 A 
ENDROOT
TORSDOF 0
ENDMDL
