MODEL 1
REMARK minimizedAffinity -1.67621529
REMARK minimizedRMSD -1
REMARK  0 active torsions:
REMARK  status: ('A' for Active; 'I' for Inactive)
ROOT
ATOM      1  C1  BNZ d   1      -1.183   0.344   1.784  0.00  0.00     0.000 A 
ATOM      2  C2  BNZ d   1      -1.449  -0.800   1.080  0.00  0.00     0.000 A 
ATOM      3  C3  BNZ d   1      -0.737  -1.111  -0.045  0.00  0.00     0.000 A 
ATOM      4  C4  BNZ d   1       0.211  -0.260  -0.486  0.00  0.00     0.000 A 
ATOM      5  C5  BNZ d   1       0.485   0.902   0.208  0.00  0.00     0.000 A 
ATOM      6  C6  BNZ d   1      -0.207   1.193   1.361  0.00  0.00     0.000 A 
ENDROOT
TORSDOF 0
ENDMDL
