MODEL 1
REMARK minimizedAffinity -3.56343675
REMARK minimizedRMSD -1
REMARK  0 active torsions:
REMARK  status: ('A' for Active; 'I' for Inactive)
ROOT
ATOM      1  C1  BNZ d   1      -1.281  -1.247  -0.669  0.00  0.00     0.000 A 
ATOM      2  C2  BNZ d   1      -2.619  -1.513  -0.541  0.00  0.00     0.000 A 
ATOM      3  C3  BNZ d   1      -3.365  -1.886  -1.623  0.00  0.00     0.000 A 
ATOM      4  C4  BNZ d   1      -2.784  -1.954  -2.838  0.00  0.00     0.000 A 
ATOM      5  C5  BNZ d   1      -1.438  -1.681  -2.985  0.00  0.00     0.000 A 
ATOM      6  C6  BNZ d   1      -0.682  -1.343  -1.887  0.00  0.00     0.000 A 
ENDROOT
TORSDOF 0
ENDMDL
