MODEL 1
REMARK minimizedAffinity -1.56233692
REMARK minimizedRMSD -1
REMARK  0 active torsions:
REMARK  status: ('A' for Active; 'I' for Inactive)
ROOT
ATOM      1  C1  BNZ d   1      -0.527   1.334   2.292  0.00  0.00     0.000 A 
ATOM      2  C2  BNZ d   1       0.600   1.014   1.583  0.00  0.00     0.000 A 
ATOM      3  C3  BNZ d   1       0.580   0.013   0.653  0.00  0.00     0.000 A 
ATOM      4  C4  BNZ d   1      -0.552  -0.694   0.462  0.00  0.00     0.000 A 
ATOM      5  C5  BNZ d   1      -1.694  -0.390   1.177  0.00  0.00     0.000 A 
ATOM      6  C6  BNZ d   1      -1.682   0.644   2.084  0.00  0.00     0.000 A 
ENDROOT
TORSDOF 0
ENDMDL
