MODEL 1
REMARK minimizedAffinity -3.45918941
REMARK minimizedRMSD -1
REMARK  0 active torsions:
REMARK  status: ('A' for Active; 'I' for Inactive)
ROOT
ATOM      1  C1  BNZ d   1       1.666   1.429   1.724  0.00  0.00     0.000 A 
ATOM      2  C2  BNZ d   1       2.285   0.649   0.785  0.00  0.00     0.000 A 
ATOM      3  C3  BNZ d   1       1.558  -0.155  -0.047  0.00  0.00     0.000 A 
ATOM      4  C4  BNZ d   1       0.217  -0.208   0.088  0.00  0.00     0.000 A 
ATOM      5  C5  BNZ d   1      -0.422   0.565   1.036  0.00  0.00     0.000 A 
ATOM      6  C6  BNZ d   1       0.311   1.403   1.846  0.00  0.00     0.000 A 
ENDROOT
TORSDOF 0
ENDMDL
