MODEL 1
REMARK minimizedAffinity -2.3945353
REMARK minimizedRMSD -1
REMARK  0 active torsions:
REMARK  status: ('A' for Active; 'I' for Inactive)
ROOT
ATOM      1  C1  BNZ d   1      -0.244  -1.341  -0.689  0.00  0.00     0.000 A 
ATOM      2  C2  BNZ d   1      -1.605  -1.191  -0.680  0.00  0.00     0.000 A 
ATOM      3  C3  BNZ d   1      -2.360  -1.593  -1.746  0.00  0.00     0.000 A 
ATOM      4  C4  BNZ d   1      -1.752  -2.107  -2.834  0.00  0.00     0.000 A 
ATOM      5  C5  BNZ d   1      -0.379  -2.256  -2.863  0.00  0.00     0.000 A 
ATOM      6  C6  BNZ d   1       0.375  -1.886  -1.772  0.00  0.00     0.000 A 
ENDROOT
TORSDOF 0
ENDMDL
