MODEL 1
REMARK minimizedAffinity -3.97912312
REMARK minimizedRMSD -1
REMARK  0 active torsions:
REMARK  status: ('A' for Active; 'I' for Inactive)
ROOT
ATOM      1  C1  BNZ d   1      -0.958   0.617  -0.158  0.00  0.00     0.000 A 
ATOM      2  C2  BNZ d   1      -1.544   0.818  -1.379  0.00  0.00     0.000 A 
ATOM      3  C3  BNZ d   1      -1.870  -0.240  -2.181  0.00  0.00     0.000 A 
ATOM      4  C4  BNZ d   1      -1.574  -1.493  -1.778  0.00  0.00     0.000 A 
ATOM      5  C5  BNZ d   1      -0.975  -1.711  -0.554  0.00  0.00     0.000 A 
ATOM      6  C6  BNZ d   1      -0.684  -0.646   0.268  0.00  0.00     0.000 A 
ENDROOT
TORSDOF 0
ENDMDL
