MODEL 1
REMARK minimizedAffinity -1.04761159
REMARK minimizedRMSD -1
REMARK  0 active torsions:
REMARK  status: ('A' for Active; 'I' for Inactive)
ROOT
ATOM      1  C1  BNZ d   1      -1.113  -1.707  -3.426  0.00  0.00     0.000 A 
ATOM      2  C2  BNZ d   1      -0.159  -1.686  -2.443  0.00  0.00     0.000 A 
ATOM      3  C3  BNZ d   1      -0.508  -1.806  -1.127  0.00  0.00     0.000 A 
ATOM      4  C4  BNZ d   1      -1.810  -1.908  -0.792  0.00  0.00     0.000 A 
ATOM      5  C5  BNZ d   1      -2.784  -1.921  -1.771  0.00  0.00     0.000 A 
ATOM      6  C6  BNZ d   1      -2.427  -1.839  -3.097  0.00  0.00     0.000 A 
ENDROOT
TORSDOF 0
ENDMDL
