MODEL 1
REMARK minimizedAffinity 0.569746852
REMARK minimizedRMSD -1
REMARK  0 active torsions:
REMARK  status: ('A' for Active; 'I' for Inactive)
ROOT
ATOM      1  C1  BNZ d   1      -0.124  -1.575  -2.751  0.00  0.00     0.000 A 
ATOM      2  C2  BNZ d   1      -1.383  -1.754  -3.260  0.00  0.00     0.000 A 
ATOM      3  C3  BNZ d   1      -2.469  -1.825  -2.433  0.00  0.00     0.000 A 
ATOM      4  C4  BNZ d   1      -2.291  -1.757  -1.098  0.00  0.00     0.000 A 
ATOM      5  C5  BNZ d   1      -1.028  -1.586  -0.569  0.00  0.00     0.000 A 
ATOM      6  C6  BNZ d   1       0.059  -1.476  -1.406  0.00  0.00     0.000 A 
ENDROOT
TORSDOF 0
ENDMDL
