MODEL 1
REMARK minimizedAffinity -0.861473441
REMARK minimizedRMSD -1
REMARK  0 active torsions:
REMARK  status: ('A' for Active; 'I' for Inactive)
ROOT
ATOM      1  C   UNL d   1      -0.992  -0.346  -1.038  0.00  0.00    -0.002 A 
ATOM      2  C1  UNL d   1      -1.195   0.776  -0.246  0.00  0.00     0.010 A 
ATOM      3  C2  UNL d   1      -0.312   1.082   0.791  0.00  0.00     0.041 A 
ATOM      4  C3  UNL d   1       0.790   0.235   1.021  0.00  0.00    -0.075 A 
ATOM      5  S   UNL d   1       2.002   0.413   2.234  0.00  0.00     0.015 SA
ATOM      6  C4  UNL d   1       2.819  -0.996   1.730  0.00  0.00     0.022 A 
ATOM      7  C5  UNL d   1       2.195  -1.599   0.663  0.00  0.00     0.026 A 
ATOM      8  C6  UNL d   1       1.016  -0.900   0.237  0.00  0.00    -0.082 A 
ATOM      9  C7  UNL d   1       0.103  -1.184  -0.807  0.00  0.00     0.045 A 
ENDROOT
TORSDOF 0
ENDMDL
