MODEL 1
REMARK minimizedAffinity 15.1876335
REMARK minimizedRMSD -1
REMARK  0 active torsions:
REMARK  status: ('A' for Active; 'I' for Inactive)
ROOT
ATOM      1  C   UNL d   1       3.033  -1.119  -2.460  0.00  0.00    -0.002 A 
ATOM      2  C1  UNL d   1       2.337   0.005  -2.880  0.00  0.00     0.010 A 
ATOM      3  C2  UNL d   1       2.798   0.766  -3.955  0.00  0.00     0.041 A 
ATOM      4  C3  UNL d   1       3.982   0.374  -4.610  0.00  0.00    -0.075 A 
ATOM      5  S   UNL d   1       4.736   1.152  -5.951  0.00  0.00     0.015 SA
ATOM      6  C4  UNL d   1       6.000   0.010  -6.000  0.00  0.00     0.022 A 
ATOM      7  C5  UNL d   1       5.866  -0.949  -5.023  0.00  0.00     0.026 A 
ATOM      8  C6  UNL d   1       4.701  -0.755  -4.207  0.00  0.00    -0.082 A 
ATOM      9  C7  UNL d   1       4.208  -1.506  -3.112  0.00  0.00     0.045 A 
ENDROOT
TORSDOF 0
ENDMDL
