MODEL 1
REMARK minimizedAffinity 6.14587307
REMARK minimizedRMSD -1
REMARK  0 active torsions:
REMARK  status: ('A' for Active; 'I' for Inactive)
ROOT
ATOM      1  C   UNL d   1       2.902   0.250   3.900  0.00  0.00    -0.002 A 
ATOM      2  C1  UNL d   1       2.094  -0.877   3.842  0.00  0.00     0.010 A 
ATOM      3  C2  UNL d   1       1.193  -1.051   2.790  0.00  0.00     0.041 A 
ATOM      4  C3  UNL d   1       1.118  -0.065   1.787  0.00  0.00    -0.075 A 
ATOM      5  S   UNL d   1       0.089  -0.066   0.404  0.00  0.00     0.015 SA
ATOM      6  C4  UNL d   1       0.698   1.429  -0.143  0.00  0.00     0.022 A 
ATOM      7  C5  UNL d   1       1.663   1.931   0.697  0.00  0.00     0.026 A 
ATOM      8  C6  UNL d   1       1.922   1.078   1.823  0.00  0.00    -0.082 A 
ATOM      9  C7  UNL d   1       2.825   1.226   2.903  0.00  0.00     0.045 A 
ENDROOT
TORSDOF 0
ENDMDL
