MODEL 1
REMARK minimizedAffinity 0.0932774097
REMARK minimizedRMSD -1
REMARK  0 active torsions:
REMARK  status: ('A' for Active; 'I' for Inactive)
ROOT
ATOM      1  C   UNL d   1       2.295  -1.871  -1.498  0.00  0.00    -0.002 A 
ATOM      2  C1  UNL d   1       2.900  -0.631  -1.641  0.00  0.00     0.010 A 
ATOM      3  C2  UNL d   1       2.295   0.518  -1.127  0.00  0.00     0.041 A 
ATOM      4  C3  UNL d   1       1.061   0.397  -0.458  0.00  0.00    -0.075 A 
ATOM      5  S   UNL d   1       0.136   1.666   0.254  0.00  0.00     0.015 SA
ATOM      6  C4  UNL d   1      -1.083   0.591   0.766  0.00  0.00     0.022 A 
ATOM      7  C5  UNL d   1      -0.808  -0.708   0.410  0.00  0.00     0.026 A 
ATOM      8  C6  UNL d   1       0.433  -0.842  -0.301  0.00  0.00    -0.082 A 
ATOM      9  C7  UNL d   1       1.071  -1.987  -0.834  0.00  0.00     0.045 A 
ENDROOT
TORSDOF 0
ENDMDL
