MODEL 1
REMARK minimizedAffinity -0.206954107
REMARK minimizedRMSD -1
REMARK  0 active torsions:
REMARK  status: ('A' for Active; 'I' for Inactive)
ROOT
ATOM      1  C   UNL d   1      -2.109   0.889   3.695  0.00  0.00    -0.002 A 
ATOM      2  C1  UNL d   1      -1.501   2.074   3.304  0.00  0.00     0.010 A 
ATOM      3  C2  UNL d   1      -0.836   2.160   2.080  0.00  0.00     0.041 A 
ATOM      4  C3  UNL d   1      -0.793   1.025   1.246  0.00  0.00    -0.075 A 
ATOM      5  S   UNL d   1      -0.036   0.897  -0.298  0.00  0.00     0.015 SA
ATOM      6  C4  UNL d   1      -0.503  -0.733  -0.475  0.00  0.00     0.022 A 
ATOM      7  C5  UNL d   1      -1.219  -1.184   0.608  0.00  0.00     0.026 A 
ATOM      8  C6  UNL d   1      -1.399  -0.179   1.618  0.00  0.00    -0.082 A 
ATOM      9  C7  UNL d   1      -2.065  -0.234   2.866  0.00  0.00     0.045 A 
ENDROOT
TORSDOF 0
ENDMDL
