MODEL 1
REMARK minimizedAffinity -1.49692321
REMARK minimizedRMSD -1
REMARK  0 active torsions:
REMARK  status: ('A' for Active; 'I' for Inactive)
ROOT
ATOM      1  C   UNL d   1      -1.908   1.183   3.963  0.00  0.00    -0.002 A 
ATOM      2  C1  UNL d   1      -2.952   0.543   3.311  0.00  0.00     0.010 A 
ATOM      3  C2  UNL d   1      -2.781   0.036   2.021  0.00  0.00     0.041 A 
ATOM      4  C3  UNL d   1      -1.528   0.183   1.392  0.00  0.00    -0.075 A 
ATOM      5  S   UNL d   1      -1.087  -0.360  -0.183  0.00  0.00     0.015 SA
ATOM      6  C4  UNL d   1       0.500   0.244  -0.028  0.00  0.00     0.022 A 
ATOM      7  C5  UNL d   1       0.704   0.848   1.190  0.00  0.00     0.026 A 
ATOM      8  C6  UNL d   1      -0.461   0.823   2.029  0.00  0.00    -0.082 A 
ATOM      9  C7  UNL d   1      -0.667   1.327   3.336  0.00  0.00     0.045 A 
ENDROOT
TORSDOF 0
ENDMDL
