MODEL 1
REMARK minimizedAffinity -5.60126114
REMARK minimizedRMSD -1
REMARK  0 active torsions:
REMARK  status: ('A' for Active; 'I' for Inactive)
ROOT
ATOM      1  C   UNL d   1       2.688  -0.166  -0.192  0.00  0.00    -0.002 A 
ATOM      2  C1  UNL d   1       2.320   0.274  -1.456  0.00  0.00     0.010 A 
ATOM      3  C2  UNL d   1       1.002   0.654  -1.720  0.00  0.00     0.041 A 
ATOM      4  C3  UNL d   1       0.052   0.585  -0.683  0.00  0.00    -0.075 A 
ATOM      5  S   UNL d   1      -1.619   1.000  -0.774  0.00  0.00     0.015 SA
ATOM      6  C4  UNL d   1      -1.884   0.604   0.862  0.00  0.00     0.022 A 
ATOM      7  C5  UNL d   1      -0.736   0.164   1.478  0.00  0.00     0.026 A 
ATOM      8  C6  UNL d   1       0.399   0.146   0.598  0.00  0.00    -0.082 A 
ATOM      9  C7  UNL d   1       1.742  -0.232   0.834  0.00  0.00     0.045 A 
ENDROOT
TORSDOF 0
ENDMDL
