MODEL 1
REMARK minimizedAffinity -3.37556863
REMARK minimizedRMSD -1
REMARK  0 active torsions:
REMARK  status: ('A' for Active; 'I' for Inactive)
ROOT
ATOM      1  C   UNL d   1       2.874  -1.045  -1.824  0.00  0.00    -0.002 A 
ATOM      2  C1  UNL d   1       2.785   0.279  -2.230  0.00  0.00     0.010 A 
ATOM      3  C2  UNL d   1       1.692   1.064  -1.857  0.00  0.00     0.041 A 
ATOM      4  C3  UNL d   1       0.682   0.491  -1.060  0.00  0.00    -0.075 A 
ATOM      5  S   UNL d   1      -0.748   1.262  -0.481  0.00  0.00     0.015 SA
ATOM      6  C4  UNL d   1      -1.274  -0.148   0.319  0.00  0.00     0.022 A 
ATOM      7  C5  UNL d   1      -0.392  -1.191   0.159  0.00  0.00     0.026 A 
ATOM      8  C6  UNL d   1       0.750  -0.840  -0.638  0.00  0.00    -0.082 A 
ATOM      9  C7  UNL d   1       1.870  -1.610  -1.034  0.00  0.00     0.045 A 
ENDROOT
TORSDOF 0
ENDMDL
