MODEL 1
REMARK minimizedAffinity -0.619938195
REMARK minimizedRMSD -1
REMARK  0 active torsions:
REMARK  status: ('A' for Active; 'I' for Inactive)
ROOT
ATOM      1  C   UNL d   1       1.455  -2.037  -1.015  0.00  0.00    -0.002 A 
ATOM      2  C1  UNL d   1       1.789  -0.816  -1.582  0.00  0.00     0.010 A 
ATOM      3  C2  UNL d   1       1.123   0.351  -1.199  0.00  0.00     0.041 A 
ATOM      4  C3  UNL d   1       0.108   0.268  -0.226  0.00  0.00    -0.075 A 
ATOM      5  S   UNL d   1      -0.842   1.564   0.398  0.00  0.00     0.015 SA
ATOM      6  C4  UNL d   1      -1.713   0.526   1.433  0.00  0.00     0.022 A 
ATOM      7  C5  UNL d   1      -1.303  -0.781   1.317  0.00  0.00     0.026 A 
ATOM      8  C6  UNL d   1      -0.246  -0.951   0.360  0.00  0.00    -0.082 A 
ATOM      9  C7  UNL d   1       0.447  -2.116  -0.050  0.00  0.00     0.045 A 
ENDROOT
TORSDOF 0
ENDMDL
