MODEL 1
REMARK minimizedAffinity -1.4472903
REMARK minimizedRMSD -1
REMARK  0 active torsions:
REMARK  status: ('A' for Active; 'I' for Inactive)
ROOT
ATOM      1  C   UNL d   1      -0.124  -1.175  -0.625  0.00  0.00    -0.002 A 
ATOM      2  C1  UNL d   1       0.761  -0.171  -0.260  0.00  0.00     0.010 A 
ATOM      3  C2  UNL d   1       0.427   0.739   0.745  0.00  0.00     0.041 A 
ATOM      4  C3  UNL d   1      -0.822   0.621   1.385  0.00  0.00    -0.075 A 
ATOM      5  S   UNL d   1      -1.445   1.622   2.643  0.00  0.00     0.015 SA
ATOM      6  C4  UNL d   1      -2.901   0.739   2.726  0.00  0.00     0.022 A 
ATOM      7  C5  UNL d   1      -2.928  -0.297   1.823  0.00  0.00     0.026 A 
ATOM      8  C6  UNL d   1      -1.730  -0.383   1.035  0.00  0.00    -0.082 A 
ATOM      9  C7  UNL d   1      -1.363  -1.290   0.012  0.00  0.00     0.045 A 
ENDROOT
TORSDOF 0
ENDMDL
