MODEL 1
REMARK minimizedAffinity -0.932582378
REMARK minimizedRMSD -1
REMARK  0 active torsions:
REMARK  status: ('A' for Active; 'I' for Inactive)
ROOT
ATOM      1  C   UNL d   1       1.166   1.184  -1.948  0.00  0.00    -0.002 A 
ATOM      2  C1  UNL d   1       2.085   0.265  -1.461  0.00  0.00     0.010 A 
ATOM      3  C2  UNL d   1       1.889  -0.346  -0.222  0.00  0.00     0.041 A 
ATOM      4  C3  UNL d   1       0.742  -0.018   0.527  0.00  0.00    -0.075 A 
ATOM      5  S   UNL d   1       0.294  -0.642   2.070  0.00  0.00     0.015 SA
ATOM      6  C4  UNL d   1      -1.129   0.295   2.119  0.00  0.00     0.022 A 
ATOM      7  C5  UNL d   1      -1.274   1.071   0.994  0.00  0.00     0.026 A 
ATOM      8  C6  UNL d   1      -0.199   0.903   0.057  0.00  0.00    -0.082 A 
ATOM      9  C7  UNL d   1       0.029   1.507  -1.203  0.00  0.00     0.045 A 
ENDROOT
TORSDOF 0
ENDMDL
