MODEL 1
REMARK minimizedAffinity 0.492815733
REMARK minimizedRMSD -1
REMARK  1 active torsions:
REMARK  status: ('A' for Active; 'I' for Inactive)
REMARK    1  A    between atoms: C1_2  and  C2_3 
ROOT
ATOM      1  C2  UNL d   1      -3.257  -0.872  -3.498  0.00  0.00    -0.073 A 
ATOM      2  C3  UNL d   1      -2.299  -0.954  -4.515  0.00  0.00    -0.002 A 
ATOM      3  C4  UNL d   1      -2.542  -0.373  -5.761  0.00  0.00     0.004 A 
ATOM      4  C5  UNL d   1      -3.740   0.300  -6.000  0.00  0.00    -0.004 A 
ATOM      5  C6  UNL d   1      -4.705   0.403  -4.992  0.00  0.00    -0.075 A 
ATOM      6  C7  UNL d   1      -6.000   1.121  -5.234  0.00  0.00     0.076 C 
ATOM      7  C8  UNL d   1      -4.455  -0.185  -3.745  0.00  0.00     0.001 A 
ENDROOT
BRANCH   1   8
ATOM      8  C1  UNL d   1      -2.997  -1.492  -2.150  0.00  0.00     0.053 C 
ATOM      9  C   UNL d   1      -2.626  -0.450  -1.106  0.00  0.00     0.018 C 
ENDBRANCH   1   8
TORSDOF 1
ENDMDL
