MODEL 1
REMARK minimizedAffinity 8.88541698
REMARK minimizedRMSD -1
REMARK  1 active torsions:
REMARK  status: ('A' for Active; 'I' for Inactive)
REMARK    1  A    between atoms: C1_2  and  C2_3 
ROOT
ATOM      1  C2  UNL d   1       4.348   2.494  -5.299  0.00  0.00    -0.073 A 
ATOM      2  C3  UNL d   1       2.974   2.681  -5.490  0.00  0.00    -0.002 A 
ATOM      3  C4  UNL d   1       2.475   3.937  -5.835  0.00  0.00     0.004 A 
ATOM      4  C5  UNL d   1       3.343   5.017  -5.999  0.00  0.00    -0.004 A 
ATOM      5  C6  UNL d   1       4.720   4.847  -5.824  0.00  0.00    -0.075 A 
ATOM      6  C7  UNL d   1       5.667   5.999  -5.995  0.00  0.00     0.076 C 
ATOM      7  C8  UNL d   1       5.214   3.583  -5.475  0.00  0.00     0.001 A 
ENDROOT
BRANCH   1   8
ATOM      8  C1  UNL d   1       4.892   1.138  -4.932  0.00  0.00     0.053 C 
ATOM      9  C   UNL d   1       5.980   1.227  -3.874  0.00  0.00     0.018 C 
ENDBRANCH   1   8
TORSDOF 1
ENDMDL
