MODEL 1
REMARK minimizedAffinity 12.5931778
REMARK minimizedRMSD -1
REMARK  1 active torsions:
REMARK  status: ('A' for Active; 'I' for Inactive)
REMARK    1  A    between atoms: C1_2  and  C2_3 
ROOT
ATOM      1  C2  UNL d   1       4.679   3.557  -5.562  0.00  0.00    -0.073 A 
ATOM      2  C3  UNL d   1       5.327   4.771  -5.816  0.00  0.00    -0.002 A 
ATOM      3  C4  UNL d   1       4.648   5.980  -5.657  0.00  0.00     0.004 A 
ATOM      4  C5  UNL d   1       3.319   5.988  -5.236  0.00  0.00    -0.004 A 
ATOM      5  C6  UNL d   1       2.657   4.786  -4.965  0.00  0.00    -0.075 A 
ATOM      6  C7  UNL d   1       1.226   4.777  -4.513  0.00  0.00     0.076 C 
ATOM      7  C8  UNL d   1       3.345   3.576  -5.130  0.00  0.00     0.001 A 
ENDROOT
BRANCH   1   8
ATOM      8  C1  UNL d   1       5.410   2.250  -5.726  0.00  0.00     0.053 C 
ATOM      9  C   UNL d   1       5.913   1.707  -4.398  0.00  0.00     0.018 C 
ENDBRANCH   1   8
TORSDOF 1
ENDMDL
