MODEL 1
REMARK minimizedAffinity 8.07447338
REMARK minimizedRMSD -1
REMARK  1 active torsions:
REMARK  status: ('A' for Active; 'I' for Inactive)
REMARK    1  A    between atoms: C1_2  and  C2_3 
ROOT
ATOM      1  C2  UNL d   1       3.697   3.465  -4.899  0.00  0.00    -0.073 A 
ATOM      2  C3  UNL d   1       4.749   4.206  -5.449  0.00  0.00    -0.002 A 
ATOM      3  C4  UNL d   1       4.510   5.466  -6.000  0.00  0.00     0.004 A 
ATOM      4  C5  UNL d   1       3.222   6.000  -6.000  0.00  0.00    -0.004 A 
ATOM      5  C6  UNL d   1       2.160   5.279  -5.444  0.00  0.00    -0.075 A 
ATOM      6  C7  UNL d   1       0.767   5.838  -5.439  0.00  0.00     0.076 C 
ATOM      7  C8  UNL d   1       2.407   4.013  -4.896  0.00  0.00     0.001 A 
ENDROOT
BRANCH   1   8
ATOM      8  C1  UNL d   1       3.951   2.107  -4.298  0.00  0.00     0.053 C 
ATOM      9  C   UNL d   1       5.415   1.707  -4.390  0.00  0.00     0.018 C 
ENDBRANCH   1   8
TORSDOF 1
ENDMDL
