MODEL 1
REMARK minimizedAffinity 8.30309105
REMARK minimizedRMSD -1
REMARK  1 active torsions:
REMARK  status: ('A' for Active; 'I' for Inactive)
REMARK    1  A    between atoms: C1_2  and  C2_3 
ROOT
ATOM      1  C2  UNL d   1      -4.573   1.902  -4.023  0.00  0.00    -0.073 A 
ATOM      2  C3  UNL d   1      -3.841   3.088  -3.892  0.00  0.00    -0.002 A 
ATOM      3  C4  UNL d   1      -2.713   3.133  -3.072  0.00  0.00     0.004 A 
ATOM      4  C5  UNL d   1      -2.300   1.993  -2.383  0.00  0.00    -0.004 A 
ATOM      5  C6  UNL d   1      -3.011   0.795  -2.511  0.00  0.00    -0.075 A 
ATOM      6  C7  UNL d   1      -2.581  -0.439  -1.774  0.00  0.00     0.076 C 
ATOM      7  C8  UNL d   1      -4.145   0.759  -3.333  0.00  0.00     0.001 A 
ENDROOT
BRANCH   1   8
ATOM      8  C1  UNL d   1      -5.789   1.847  -4.912  0.00  0.00     0.053 C 
ATOM      9  C   UNL d   1      -6.000   3.148  -5.670  0.00  0.00     0.018 C 
ENDBRANCH   1   8
TORSDOF 1
ENDMDL
