MODEL 1
REMARK minimizedAffinity 5.8741231
REMARK minimizedRMSD -1
REMARK  1 active torsions:
REMARK  status: ('A' for Active; 'I' for Inactive)
REMARK    1  A    between atoms: C1_2  and  C2_3 
ROOT
ATOM      1  C2  UNL d   1       3.968   3.298  -5.257  0.00  0.00    -0.073 A 
ATOM      2  C3  UNL d   1       5.034   4.121  -5.639  0.00  0.00    -0.002 A 
ATOM      3  C4  UNL d   1       4.812   5.465  -5.945  0.00  0.00     0.004 A 
ATOM      4  C5  UNL d   1       3.526   6.000  -5.865  0.00  0.00    -0.004 A 
ATOM      5  C6  UNL d   1       2.451   5.196  -5.473  0.00  0.00    -0.075 A 
ATOM      6  C7  UNL d   1       1.061   5.756  -5.385  0.00  0.00     0.076 C 
ATOM      7  C8  UNL d   1       2.681   3.847  -5.170  0.00  0.00     0.001 A 
ENDROOT
BRANCH   1   8
ATOM      8  C1  UNL d   1       4.204   1.849  -4.919  0.00  0.00     0.053 C 
ATOM      9  C   UNL d   1       5.554   1.359  -5.420  0.00  0.00     0.018 C 
ENDBRANCH   1   8
TORSDOF 1
ENDMDL
