MODEL 1
REMARK minimizedAffinity 5.19372368
REMARK minimizedRMSD -1
REMARK  1 active torsions:
REMARK  status: ('A' for Active; 'I' for Inactive)
REMARK    1  A    between atoms: C1_2  and  C2_3 
ROOT
ATOM      1  C2  UNL d   1       0.640  -0.886   2.441  0.00  0.00    -0.073 A 
ATOM      2  C3  UNL d   1       1.664  -0.038   2.878  0.00  0.00    -0.002 A 
ATOM      3  C4  UNL d   1       1.362   1.129   3.580  0.00  0.00     0.004 A 
ATOM      4  C5  UNL d   1       0.035   1.457   3.859  0.00  0.00    -0.004 A 
ATOM      5  C6  UNL d   1      -1.002   0.617   3.441  0.00  0.00    -0.075 A 
ATOM      6  C7  UNL d   1      -2.435   0.956   3.731  0.00  0.00     0.076 C 
ATOM      7  C8  UNL d   1      -0.691  -0.553   2.734  0.00  0.00     0.001 A 
ENDROOT
BRANCH   1   8
ATOM      8  C1  UNL d   1       0.962  -2.151   1.688  0.00  0.00     0.053 C 
ATOM      9  C   UNL d   1       1.782  -1.877   0.438  0.00  0.00     0.018 C 
ENDBRANCH   1   8
TORSDOF 1
ENDMDL
