MODEL 1
REMARK minimizedAffinity -1.44852662
REMARK minimizedRMSD -1
REMARK  0 active torsions:
REMARK  status: ('A' for Active; 'I' for Inactive)
ROOT
ATOM      1  N1  IND d   1      -0.456  -0.272  -0.918  0.00  0.00    -0.196 N 
ATOM      2  C2  IND d   1       0.344  -1.219  -0.343  0.00  0.00     0.054 A 
ATOM      3  C3  IND d   1       0.849  -0.762   0.825  0.00  0.00    -0.031 A 
ATOM      4  C4  IND d   1       0.414   1.469   2.033  0.00  0.00     0.051 A 
ATOM      5  C5  IND d   1      -0.217   2.671   1.880  0.00  0.00    -0.031 A 
ATOM      6  C6  IND d   1      -0.978   2.959   0.766  0.00  0.00     0.015 A 
ATOM      7  C7  IND d   1      -1.146   2.047  -0.237  0.00  0.00    -0.016 A 
ATOM      8  C8  IND d   1      -0.501   0.827  -0.089  0.00  0.00    -0.047 A 
ATOM      9  C9  IND d   1       0.308   0.545   1.020  0.00  0.00    -0.096 A 
ATOM     10  HN1 IND d   1      -0.863  -0.349  -1.672  0.00  0.00     0.298 HD
ENDROOT
TORSDOF 0
ENDMDL
