MODEL 1
REMARK minimizedAffinity -3.35300446
REMARK minimizedRMSD -1
REMARK  0 active torsions:
REMARK  status: ('A' for Active; 'I' for Inactive)
ROOT
ATOM      1  N1  IND d   1      -0.014   1.069  -1.829  0.00  0.00    -0.196 N 
ATOM      2  C2  IND d   1       0.578  -0.154  -1.981  0.00  0.00     0.054 A 
ATOM      3  C3  IND d   1       0.599  -0.816  -0.802  0.00  0.00    -0.031 A 
ATOM      4  C4  IND d   1      -0.373  -0.124   1.479  0.00  0.00     0.051 A 
ATOM      5  C5  IND d   1      -0.976   0.921   2.121  0.00  0.00    -0.031 A 
ATOM      6  C6  IND d   1      -1.298   2.092   1.465  0.00  0.00     0.015 A 
ATOM      7  C7  IND d   1      -1.038   2.257   0.134  0.00  0.00    -0.016 A 
ATOM      8  C8  IND d   1      -0.420   1.200  -0.519  0.00  0.00    -0.047 A 
ATOM      9  C9  IND d   1      -0.052   0.026   0.151  0.00  0.00    -0.096 A 
ATOM     10  HN1 IND d   1      -0.116   1.657  -2.448  0.00  0.00     0.298 HD
ENDROOT
TORSDOF 0
ENDMDL
