MODEL 1
REMARK minimizedAffinity -2.47819018
REMARK minimizedRMSD -1
REMARK  0 active torsions:
REMARK  status: ('A' for Active; 'I' for Inactive)
ROOT
ATOM      1  N1  IND d   1      -0.277   1.907   0.588  0.00  0.00    -0.196 N 
ATOM      2  C2  IND d   1       0.100   1.175   1.680  0.00  0.00     0.054 A 
ATOM      3  C3  IND d   1       0.790   0.078   1.294  0.00  0.00    -0.031 A 
ATOM      4  C4  IND d   1       1.503  -0.660  -1.067  0.00  0.00     0.051 A 
ATOM      5  C5  IND d   1       1.361  -0.334  -2.386  0.00  0.00    -0.031 A 
ATOM      6  C6  IND d   1       0.653   0.779  -2.790  0.00  0.00     0.015 A 
ATOM      7  C7  IND d   1       0.068   1.619  -1.884  0.00  0.00    -0.016 A 
ATOM      8  C8  IND d   1       0.205   1.287  -0.543  0.00  0.00    -0.047 A 
ATOM      9  C9  IND d   1       0.886   0.135  -0.130  0.00  0.00    -0.096 A 
ATOM     10  HN1 IND d   1      -0.738   2.633   0.606  0.00  0.00     0.298 HD
ENDROOT
TORSDOF 0
ENDMDL
