MODEL 1
REMARK minimizedAffinity -6.70844221
REMARK minimizedRMSD -1
REMARK  0 active torsions:
REMARK  status: ('A' for Active; 'I' for Inactive)
ROOT
ATOM      1  N1  IND d   1       0.332   0.098  -0.981  0.00  0.00    -0.196 N 
ATOM      2  C2  IND d   1       0.548  -0.804   0.023  0.00  0.00     0.054 A 
ATOM      3  C3  IND d   1       0.188  -0.276   1.215  0.00  0.00    -0.031 A 
ATOM      4  C4  IND d   1      -0.872   2.011   1.737  0.00  0.00     0.051 A 
ATOM      5  C5  IND d   1      -1.226   3.194   1.150  0.00  0.00    -0.031 A 
ATOM      6  C6  IND d   1      -1.079   3.408  -0.205  0.00  0.00     0.015 A 
ATOM      7  C7  IND d   1      -0.580   2.439  -1.029  0.00  0.00    -0.016 A 
ATOM      8  C8  IND d   1      -0.212   1.240  -0.436  0.00  0.00    -0.047 A 
ATOM      9  C9  IND d   1      -0.320   1.032   0.946  0.00  0.00    -0.096 A 
ATOM     10  HN1 IND d   1       0.508  -0.026  -1.814  0.00  0.00     0.298 HD
ENDROOT
TORSDOF 0
ENDMDL
