MODEL 1
REMARK minimizedAffinity -4.04507351
REMARK minimizedRMSD -1
REMARK  0 active torsions:
REMARK  status: ('A' for Active; 'I' for Inactive)
ROOT
ATOM      1  N1  IND d   1       1.209  -0.574   0.659  0.00  0.00    -0.196 N 
ATOM      2  C2  IND d   1       0.864  -1.003  -0.592  0.00  0.00     0.054 A 
ATOM      3  C3  IND d   1      -0.220  -0.330  -1.038  0.00  0.00    -0.031 A 
ATOM      4  C4  IND d   1      -1.528   1.587   0.078  0.00  0.00     0.051 A 
ATOM      5  C5  IND d   1      -1.611   2.301   1.240  0.00  0.00    -0.031 A 
ATOM      6  C6  IND d   1      -0.738   2.090   2.289  0.00  0.00     0.015 A 
ATOM      7  C7  IND d   1       0.261   1.162   2.209  0.00  0.00    -0.016 A 
ATOM      8  C8  IND d   1       0.344   0.430   1.032  0.00  0.00    -0.047 A 
ATOM      9  C9  IND d   1      -0.565   0.610  -0.019  0.00  0.00    -0.096 A 
ATOM     10  HN1 IND d   1       1.858  -0.880   1.133  0.00  0.00     0.298 HD
ENDROOT
TORSDOF 0
ENDMDL
