MODEL 1
REMARK minimizedAffinity 0.005334015
REMARK minimizedRMSD -1
REMARK  0 active torsions:
REMARK  status: ('A' for Active; 'I' for Inactive)
ROOT
ATOM      1  N1  IND d   1      -2.181   2.014   1.350  0.00  0.00    -0.196 N 
ATOM      2  C2  IND d   1      -1.513   2.419   2.472  0.00  0.00     0.054 A 
ATOM      3  C3  IND d   1      -0.283   1.861   2.514  0.00  0.00    -0.031 A 
ATOM      4  C4  IND d   1       0.881   0.335   0.798  0.00  0.00     0.051 A 
ATOM      5  C5  IND d   1       0.658  -0.339  -0.370  0.00  0.00    -0.031 A 
ATOM      6  C6  IND d   1      -0.547  -0.260  -1.039  0.00  0.00     0.015 A 
ATOM      7  C7  IND d   1      -1.573   0.509  -0.569  0.00  0.00    -0.016 A 
ATOM      8  C8  IND d   1      -1.353   1.190   0.620  0.00  0.00    -0.047 A 
ATOM      9  C9  IND d   1      -0.148   1.079   1.326  0.00  0.00    -0.096 A 
ATOM     10  HN1 IND d   1      -2.984   2.236   1.136  0.00  0.00     0.298 HD
ENDROOT
TORSDOF 0
ENDMDL
