MODEL 1
REMARK minimizedAffinity -0.615901709
REMARK minimizedRMSD -1
REMARK  0 active torsions:
REMARK  status: ('A' for Active; 'I' for Inactive)
ROOT
ATOM      1  N1  IND d   1      -0.143   1.907  -1.400  0.00  0.00    -0.196 N 
ATOM      2  C2  IND d   1       0.104   0.717  -2.026  0.00  0.00     0.054 A 
ATOM      3  C3  IND d   1       0.439  -0.229  -1.121  0.00  0.00    -0.031 A 
ATOM      4  C4  IND d   1       0.545  -0.073   1.447  0.00  0.00     0.051 A 
ATOM      5  C5  IND d   1       0.438   0.819   2.477  0.00  0.00    -0.031 A 
ATOM      6  C6  IND d   1       0.122   2.145   2.263  0.00  0.00     0.015 A 
ATOM      7  C7  IND d   1      -0.110   2.629   1.006  0.00  0.00    -0.016 A 
ATOM      8  C8  IND d   1       0.005   1.728  -0.043  0.00  0.00    -0.047 A 
ATOM      9  C9  IND d   1       0.367   0.390   0.164  0.00  0.00    -0.096 A 
ATOM     10  HN1 IND d   1      -0.356   2.644  -1.789  0.00  0.00     0.298 HD
ENDROOT
TORSDOF 0
ENDMDL
