MODEL 1
REMARK minimizedAffinity -4.31993961
REMARK minimizedRMSD -1
REMARK  0 active torsions:
REMARK  status: ('A' for Active; 'I' for Inactive)
ROOT
ATOM      1  N1  IND d   1      -0.028   1.011   2.174  0.00  0.00    -0.196 N 
ATOM      2  C2  IND d   1      -0.461   2.272   2.477  0.00  0.00     0.054 A 
ATOM      3  C3  IND d   1      -0.628   2.996   1.348  0.00  0.00    -0.031 A 
ATOM      4  C4  IND d   1      -0.350   2.282  -1.109  0.00  0.00     0.051 A 
ATOM      5  C5  IND d   1       0.065   1.237  -1.887  0.00  0.00    -0.031 A 
ATOM      6  C6  IND d   1       0.475   0.038  -1.340  0.00  0.00     0.015 A 
ATOM      7  C7  IND d   1       0.475  -0.165   0.011  0.00  0.00    -0.016 A 
ATOM      8  C8  IND d   1       0.062   0.896   0.804  0.00  0.00    -0.047 A 
ATOM      9  C9  IND d   1      -0.315   2.129   0.257  0.00  0.00    -0.096 A 
ATOM     10  HN1 IND d   1       0.157   0.394   2.743  0.00  0.00     0.298 HD
ENDROOT
TORSDOF 0
ENDMDL
