MODEL 1
REMARK minimizedAffinity -3.51264429
REMARK minimizedRMSD -1
REMARK  0 active torsions:
REMARK  status: ('A' for Active; 'I' for Inactive)
ROOT
ATOM      1  N1  IND d   1       1.118   0.443  -2.177  0.00  0.00    -0.196 N 
ATOM      2  C2  IND d   1       0.602   1.480  -2.902  0.00  0.00     0.054 A 
ATOM      3  C3  IND d   1      -0.263   2.196  -2.148  0.00  0.00    -0.031 A 
ATOM      4  C4  IND d   1      -0.903   1.905   0.329  0.00  0.00     0.051 A 
ATOM      5  C5  IND d   1      -0.718   1.075   1.399  0.00  0.00    -0.031 A 
ATOM      6  C6  IND d   1       0.108  -0.029   1.331  0.00  0.00     0.015 A 
ATOM      7  C7  IND d   1       0.791  -0.338   0.189  0.00  0.00    -0.016 A 
ATOM      8  C8  IND d   1       0.600   0.498  -0.902  0.00  0.00    -0.047 A 
ATOM      9  C9  IND d   1      -0.270   1.595  -0.852  0.00  0.00    -0.096 A 
ATOM     10  HN1 IND d   1       1.674  -0.145  -2.468  0.00  0.00     0.298 HD
ENDROOT
TORSDOF 0
ENDMDL
