MODEL 1
REMARK minimizedAffinity -1.78725541
REMARK minimizedRMSD -1
REMARK  0 active torsions:
REMARK  status: ('A' for Active; 'I' for Inactive)
ROOT
ATOM      1  N1  IND d   1       0.273  -0.236  -0.965  0.00  0.00    -0.196 N 
ATOM      2  C2  IND d   1       1.151  -0.737  -0.045  0.00  0.00     0.054 A 
ATOM      3  C3  IND d   1       1.109  -0.005   1.091  0.00  0.00    -0.031 A 
ATOM      4  C4  IND d   1      -0.399   1.992   1.696  0.00  0.00     0.051 A 
ATOM      5  C5  IND d   1      -1.335   2.834   1.165  0.00  0.00    -0.031 A 
ATOM      6  C6  IND d   1      -1.795   2.691  -0.128  0.00  0.00     0.015 A 
ATOM      7  C7  IND d   1      -1.342   1.689  -0.939  0.00  0.00    -0.016 A 
ATOM      8  C8  IND d   1      -0.385   0.836  -0.406  0.00  0.00    -0.047 A 
ATOM      9  C9  IND d   1       0.116   1.003   0.892  0.00  0.00    -0.096 A 
ATOM     10  HN1 IND d   1       0.152  -0.541  -1.761  0.00  0.00     0.298 HD
ENDROOT
TORSDOF 0
ENDMDL
