MODEL 1
REMARK minimizedAffinity 9.89610004
REMARK minimizedRMSD -1
REMARK  0 active torsions:
REMARK  status: ('A' for Active; 'I' for Inactive)
ROOT
ATOM      1  C   UNL d   1       0.091   2.044   1.330  0.00  0.00     0.124 A 
ATOM      2  C1  UNL d   1       0.812   0.898   1.024  0.00  0.00     0.062 A 
ATOM      3  C2  UNL d   1       0.880   0.443  -0.289  0.00  0.00     0.162 A 
ATOM      4  C3  UNL d   1       0.225   1.135  -1.308  0.00  0.00    -0.034 A 
ATOM      5  C4  UNL d   1      -0.499   2.286  -0.993  0.00  0.00     0.162 A 
ATOM      6  C5  UNL d   1      -0.564   2.737   0.321  0.00  0.00     0.062 A 
ATOM      7  F   UNL d   1      -1.261   3.844   0.614  0.00  0.00    -0.097 F 
ATOM      8  F1  UNL d   1      -1.139   2.976  -1.949  0.00  0.00    -0.096 F 
ATOM      9  I   UNL d   1       0.325   0.458  -3.274  0.00  0.00    -0.060 I 
ATOM     10  F2  UNL d   1       1.583  -0.668  -0.555  0.00  0.00    -0.096 F 
ATOM     11  F3  UNL d   1       1.444   0.226   1.997  0.00  0.00    -0.097 F 
ATOM     12  F4  UNL d   1       0.026   2.479   2.595  0.00  0.00    -0.092 F 
ENDROOT
TORSDOF 0
ENDMDL
