MODEL 1
REMARK minimizedAffinity 20.5538979
REMARK minimizedRMSD -1
REMARK  0 active torsions:
REMARK  status: ('A' for Active; 'I' for Inactive)
ROOT
ATOM      1  C   UNL d   1      -0.305   3.585  -0.750  0.00  0.00     0.124 A 
ATOM      2  C1  UNL d   1      -0.512   3.102  -2.035  0.00  0.00     0.062 A 
ATOM      3  C2  UNL d   1      -1.656   2.366  -2.330  0.00  0.00     0.162 A 
ATOM      4  C3  UNL d   1      -2.604   2.110  -1.339  0.00  0.00    -0.034 A 
ATOM      5  C4  UNL d   1      -2.388   2.598  -0.049  0.00  0.00     0.162 A 
ATOM      6  C5  UNL d   1      -1.243   3.333   0.241  0.00  0.00     0.062 A 
ATOM      7  F   UNL d   1      -1.045   3.798   1.483  0.00  0.00    -0.097 F 
ATOM      8  F1  UNL d   1      -3.279   2.370   0.928  0.00  0.00    -0.096 F 
ATOM      9  I   UNL d   1      -4.316   1.010  -1.777  0.00  0.00    -0.060 I 
ATOM     10  F2  UNL d   1      -1.830   1.912  -3.580  0.00  0.00    -0.096 F 
ATOM     11  F3  UNL d   1       0.393   3.344  -2.994  0.00  0.00    -0.097 F 
ATOM     12  F4  UNL d   1       0.797   4.292  -0.468  0.00  0.00    -0.092 F 
ENDROOT
TORSDOF 0
ENDMDL
