MODEL 1
REMARK minimizedAffinity 9.59280014
REMARK minimizedRMSD -1
REMARK  0 active torsions:
REMARK  status: ('A' for Active; 'I' for Inactive)
ROOT
ATOM      1  C   UNL d   1       0.877   3.378  -1.069  0.00  0.00     0.124 A 
ATOM      2  C1  UNL d   1       0.137   2.495  -0.295  0.00  0.00     0.062 A 
ATOM      3  C2  UNL d   1      -1.129   2.091  -0.710  0.00  0.00     0.162 A 
ATOM      4  C3  UNL d   1      -1.663   2.570  -1.906  0.00  0.00    -0.034 A 
ATOM      5  C4  UNL d   1      -0.913   3.459  -2.679  0.00  0.00     0.162 A 
ATOM      6  C5  UNL d   1       0.351   3.859  -2.260  0.00  0.00     0.062 A 
ATOM      7  F   UNL d   1       1.065   4.712  -3.009  0.00  0.00    -0.097 F 
ATOM      8  F1  UNL d   1      -1.397   3.938  -3.834  0.00  0.00    -0.096 F 
ATOM      9  I   UNL d   1      -3.556   1.969  -2.530  0.00  0.00    -0.060 I 
ATOM     10  F2  UNL d   1      -1.821   1.237   0.059  0.00  0.00    -0.096 F 
ATOM     11  F3  UNL d   1       0.642   2.030   0.857  0.00  0.00    -0.097 F 
ATOM     12  F4  UNL d   1       2.094   3.765  -0.667  0.00  0.00    -0.092 F 
ENDROOT
TORSDOF 0
ENDMDL
