MODEL 1
REMARK minimizedAffinity 22.8850784
REMARK minimizedRMSD -1
REMARK  0 active torsions:
REMARK  status: ('A' for Active; 'I' for Inactive)
ROOT
ATOM      1  C   UNL d   1      -2.022   2.444  -2.566  0.00  0.00     0.124 A 
ATOM      2  C1  UNL d   1      -2.447   3.091  -1.414  0.00  0.00     0.062 A 
ATOM      3  C2  UNL d   1      -1.659   3.069  -0.267  0.00  0.00     0.162 A 
ATOM      4  C3  UNL d   1      -0.435   2.399  -0.267  0.00  0.00    -0.034 A 
ATOM      5  C4  UNL d   1      -0.015   1.750  -1.430  0.00  0.00     0.162 A 
ATOM      6  C5  UNL d   1      -0.806   1.775  -2.573  0.00  0.00     0.062 A 
ATOM      7  F   UNL d   1      -0.394   1.150  -3.685  0.00  0.00    -0.097 F 
ATOM      8  F1  UNL d   1       1.156   1.096  -1.464  0.00  0.00    -0.096 F 
ATOM      9  I   UNL d   1       0.747   2.363   1.445  0.00  0.00    -0.060 I 
ATOM     10  F2  UNL d   1      -2.094   3.702   0.832  0.00  0.00    -0.096 F 
ATOM     11  F3  UNL d   1      -3.622   3.738  -1.405  0.00  0.00    -0.097 F 
ATOM     12  F4  UNL d   1      -2.783   2.466  -3.668  0.00  0.00    -0.092 F 
ENDROOT
TORSDOF 0
ENDMDL
