MODEL 1
REMARK minimizedAffinity 34.1407318
REMARK minimizedRMSD -1
REMARK  0 active torsions:
REMARK  status: ('A' for Active; 'I' for Inactive)
ROOT
ATOM      1  C   UNL d   1       1.360   2.864   2.736  0.00  0.00     0.124 A 
ATOM      2  C1  UNL d   1       2.540   2.148   2.882  0.00  0.00     0.062 A 
ATOM      3  C2  UNL d   1       2.798   1.049   2.069  0.00  0.00     0.162 A 
ATOM      4  C3  UNL d   1       1.873   0.658   1.100  0.00  0.00    -0.034 A 
ATOM      5  C4  UNL d   1       0.688   1.382   0.960  0.00  0.00     0.162 A 
ATOM      6  C5  UNL d   1       0.435   2.480   1.775  0.00  0.00     0.062 A 
ATOM      7  F   UNL d   1      -0.706   3.170   1.632  0.00  0.00    -0.097 F 
ATOM      8  F1  UNL d   1      -0.223   1.033   0.038  0.00  0.00    -0.096 F 
ATOM      9  I   UNL d   1       2.254  -0.986  -0.118  0.00  0.00    -0.060 I 
ATOM     10  F2  UNL d   1       3.946   0.376   2.233  0.00  0.00    -0.096 F 
ATOM     11  F3  UNL d   1       3.435   2.517   3.811  0.00  0.00    -0.097 F 
ATOM     12  F4  UNL d   1       1.114   3.921   3.521  0.00  0.00    -0.092 F 
ENDROOT
TORSDOF 0
ENDMDL
