MODEL 1
REMARK minimizedAffinity 23.3670006
REMARK minimizedRMSD -1
REMARK  0 active torsions:
REMARK  status: ('A' for Active; 'I' for Inactive)
ROOT
ATOM      1  C   UNL d   1      -1.217   4.859  -4.319  0.00  0.00     0.124 A 
ATOM      2  C1  UNL d   1      -2.557   4.938  -3.967  0.00  0.00     0.062 A 
ATOM      3  C2  UNL d   1      -3.145   3.925  -3.215  0.00  0.00     0.162 A 
ATOM      4  C3  UNL d   1      -2.392   2.823  -2.808  0.00  0.00    -0.034 A 
ATOM      5  C4  UNL d   1      -1.044   2.750  -3.167  0.00  0.00     0.162 A 
ATOM      6  C5  UNL d   1      -0.462   3.765  -3.918  0.00  0.00     0.062 A 
ATOM      7  F   UNL d   1       0.833   3.687  -4.257  0.00  0.00    -0.097 F 
ATOM      8  F1  UNL d   1      -0.292   1.705  -2.792  0.00  0.00    -0.096 F 
ATOM      9  I   UNL d   1      -3.267   1.306  -1.684  0.00  0.00    -0.060 I 
ATOM     10  F2  UNL d   1      -4.442   4.028  -2.889  0.00  0.00    -0.096 F 
ATOM     11  F3  UNL d   1      -3.289   5.993  -4.353  0.00  0.00    -0.097 F 
ATOM     12  F4  UNL d   1      -0.654   5.834  -5.043  0.00  0.00    -0.092 F 
ENDROOT
TORSDOF 0
ENDMDL
