MODEL 1
REMARK minimizedAffinity 13.9696732
REMARK minimizedRMSD -1
REMARK  0 active torsions:
REMARK  status: ('A' for Active; 'I' for Inactive)
ROOT
ATOM      1  C   UNL d   1      -1.536  -0.398  -1.483  0.00  0.00     0.124 A 
ATOM      2  C1  UNL d   1      -0.660   0.641  -1.768  0.00  0.00     0.062 A 
ATOM      3  C2  UNL d   1      -1.148   1.923  -2.003  0.00  0.00     0.162 A 
ATOM      4  C3  UNL d   1      -2.519   2.175  -1.952  0.00  0.00    -0.034 A 
ATOM      5  C4  UNL d   1      -3.394   1.125  -1.666  0.00  0.00     0.162 A 
ATOM      6  C5  UNL d   1      -2.901  -0.155  -1.433  0.00  0.00     0.062 A 
ATOM      7  F   UNL d   1      -3.748  -1.158  -1.158  0.00  0.00    -0.097 F 
ATOM      8  F1  UNL d   1      -4.718   1.331  -1.610  0.00  0.00    -0.096 F 
ATOM      9  I   UNL d   1      -3.253   4.091  -2.302  0.00  0.00    -0.060 I 
ATOM     10  F2  UNL d   1      -0.279   2.908  -2.275  0.00  0.00    -0.096 F 
ATOM     11  F3  UNL d   1       0.659   0.409  -1.818  0.00  0.00    -0.097 F 
ATOM     12  F4  UNL d   1      -1.063  -1.631  -1.259  0.00  0.00    -0.092 F 
ENDROOT
TORSDOF 0
ENDMDL
