MODEL 1
REMARK minimizedAffinity 15.1755905
REMARK minimizedRMSD -1
REMARK  0 active torsions:
REMARK  status: ('A' for Active; 'I' for Inactive)
ROOT
ATOM      1  C   UNL d   1      -0.647   2.904   1.160  0.00  0.00     0.124 A 
ATOM      2  C1  UNL d   1       0.095   2.657   0.013  0.00  0.00     0.062 A 
ATOM      3  C2  UNL d   1       0.034   3.537  -1.064  0.00  0.00     0.162 A 
ATOM      4  C3  UNL d   1      -0.772   4.673  -0.999  0.00  0.00    -0.034 A 
ATOM      5  C4  UNL d   1      -1.516   4.915   0.157  0.00  0.00     0.162 A 
ATOM      6  C5  UNL d   1      -1.452   4.033   1.231  0.00  0.00     0.062 A 
ATOM      7  F   UNL d   1      -2.169   4.273   2.337  0.00  0.00    -0.097 F 
ATOM      8  F1  UNL d   1      -2.301   5.998   0.253  0.00  0.00    -0.096 F 
ATOM      9  I   UNL d   1      -0.866   5.991  -2.607  0.00  0.00    -0.060 I 
ATOM     10  F2  UNL d   1       0.762   3.273  -2.159  0.00  0.00    -0.096 F 
ATOM     11  F3  UNL d   1       0.873   1.567  -0.058  0.00  0.00    -0.097 F 
ATOM     12  F4  UNL d   1      -0.587   2.056   2.194  0.00  0.00    -0.092 F 
ENDROOT
TORSDOF 0
ENDMDL
