MODEL 1
REMARK minimizedAffinity 7.08690977
REMARK minimizedRMSD -1
REMARK  1 active torsions:
REMARK  status: ('A' for Active; 'I' for Inactive)
REMARK    1  A    between atoms: C1_2  and  C2_3 
ROOT
ATOM      1  C2  UNL d   1       0.174   3.155  -0.060  0.00  0.00    -0.073 A 
ATOM      2  C3  UNL d   1       1.311   3.941   0.155  0.00  0.00    -0.002 A 
ATOM      3  C4  UNL d   1       1.906   3.989   1.417  0.00  0.00     0.004 A 
ATOM      4  C5  UNL d   1       1.375   3.248   2.472  0.00  0.00    -0.004 A 
ATOM      5  C6  UNL d   1       0.246   2.447   2.273  0.00  0.00    -0.075 A 
ATOM      6  C7  UNL d   1      -0.339   1.646   3.399  0.00  0.00     0.076 C 
ATOM      7  C8  UNL d   1      -0.348   2.406   1.004  0.00  0.00     0.001 A 
ENDROOT
BRANCH   1   8
ATOM      8  C1  UNL d   1      -0.468   3.095  -1.422  0.00  0.00     0.053 C 
ATOM      9  C   UNL d   1      -1.365   4.294  -1.683  0.00  0.00     0.018 C 
ENDBRANCH   1   8
TORSDOF 1
ENDMDL
