MODEL 1
REMARK minimizedAffinity 6.0428915
REMARK minimizedRMSD -1
REMARK  1 active torsions:
REMARK  status: ('A' for Active; 'I' for Inactive)
REMARK    1  A    between atoms: C1_2  and  C2_3 
ROOT
ATOM      1  C2  UNL d   1       0.380   3.578   0.514  0.00  0.00    -0.073 A 
ATOM      2  C3  UNL d   1      -0.632   4.235   1.224  0.00  0.00    -0.002 A 
ATOM      3  C4  UNL d   1      -1.045   3.756   2.468  0.00  0.00     0.004 A 
ATOM      4  C5  UNL d   1      -0.447   2.622   3.017  0.00  0.00    -0.004 A 
ATOM      5  C6  UNL d   1       0.574   1.959   2.329  0.00  0.00    -0.075 A 
ATOM      6  C7  UNL d   1       1.225   0.737   2.905  0.00  0.00     0.076 C 
ATOM      7  C8  UNL d   1       0.981   2.444   1.079  0.00  0.00     0.001 A 
ENDROOT
BRANCH   1   8
ATOM      8  C1  UNL d   1       0.833   4.095  -0.827  0.00  0.00     0.053 C 
ATOM      9  C   UNL d   1       1.763   5.291  -0.692  0.00  0.00     0.018 C 
ENDBRANCH   1   8
TORSDOF 1
ENDMDL
