MODEL 1
REMARK minimizedAffinity 4.16137457
REMARK minimizedRMSD -1
REMARK  1 active torsions:
REMARK  status: ('A' for Active; 'I' for Inactive)
REMARK    1  A    between atoms: C1_2  and  C2_3 
ROOT
ATOM      1  C2  UNL d   1      -3.711   2.989  -2.577  0.00  0.00    -0.073 A 
ATOM      2  C3  UNL d   1      -4.860   2.858  -1.789  0.00  0.00    -0.002 A 
ATOM      3  C4  UNL d   1      -5.997   2.230  -2.299  0.00  0.00     0.004 A 
ATOM      4  C5  UNL d   1      -5.994   1.721  -3.597  0.00  0.00    -0.004 A 
ATOM      5  C6  UNL d   1      -4.852   1.831  -4.396  0.00  0.00    -0.075 A 
ATOM      6  C7  UNL d   1      -4.834   1.290  -5.796  0.00  0.00     0.076 C 
ATOM      7  C8  UNL d   1      -3.715   2.465  -3.878  0.00  0.00     0.001 A 
ENDROOT
BRANCH   1   8
ATOM      8  C1  UNL d   1      -2.479   3.660  -2.028  0.00  0.00     0.053 C 
ATOM      9  C   UNL d   1      -2.266   5.040  -2.630  0.00  0.00     0.018 C 
ENDBRANCH   1   8
TORSDOF 1
ENDMDL
