MODEL 1
REMARK minimizedAffinity 9.00319481
REMARK minimizedRMSD -1
REMARK  1 active torsions:
REMARK  status: ('A' for Active; 'I' for Inactive)
REMARK    1  A    between atoms: C1_2  and  C2_3 
ROOT
ATOM      1  C2  UNL d   1      -5.594   4.364  -2.254  0.00  0.00    -0.073 A 
ATOM      2  C3  UNL d   1      -6.000   3.114  -1.773  0.00  0.00    -0.002 A 
ATOM      3  C4  UNL d   1      -5.617   1.946  -2.434  0.00  0.00     0.004 A 
ATOM      4  C5  UNL d   1      -4.821   2.016  -3.577  0.00  0.00    -0.004 A 
ATOM      5  C6  UNL d   1      -4.396   3.255  -4.066  0.00  0.00    -0.075 A 
ATOM      6  C7  UNL d   1      -3.541   3.348  -5.296  0.00  0.00     0.076 C 
ATOM      7  C8  UNL d   1      -4.786   4.424  -3.398  0.00  0.00     0.001 A 
ENDROOT
BRANCH   1   8
ATOM      8  C1  UNL d   1      -6.000   5.627  -1.539  0.00  0.00     0.053 C 
ATOM      9  C   UNL d   1      -5.488   5.662  -0.108  0.00  0.00     0.018 C 
ENDBRANCH   1   8
TORSDOF 1
ENDMDL
