MODEL 1
REMARK minimizedAffinity -1.75664556
REMARK minimizedRMSD -1
REMARK  1 active torsions:
REMARK  status: ('A' for Active; 'I' for Inactive)
REMARK    1  A    between atoms: C1_2  and  C2_3 
ROOT
ATOM      1  C2  UNL d   1      -0.165   2.267   1.902  0.00  0.00    -0.073 A 
ATOM      2  C3  UNL d   1       0.289   1.712   0.701  0.00  0.00    -0.002 A 
ATOM      3  C4  UNL d   1       0.221   2.445  -0.485  0.00  0.00     0.004 A 
ATOM      4  C5  UNL d   1      -0.295   3.741  -0.481  0.00  0.00    -0.004 A 
ATOM      5  C6  UNL d   1      -0.743   4.317   0.712  0.00  0.00    -0.075 A 
ATOM      6  C7  UNL d   1      -1.304   5.709   0.733  0.00  0.00     0.076 C 
ATOM      7  C8  UNL d   1      -0.674   3.574   1.898  0.00  0.00     0.001 A 
ENDROOT
BRANCH   1   8
ATOM      8  C1  UNL d   1      -0.088   1.482   3.186  0.00  0.00     0.053 C 
ATOM      9  C   UNL d   1       0.987   0.408   3.133  0.00  0.00     0.018 C 
ENDBRANCH   1   8
TORSDOF 1
ENDMDL
