MODEL 1
REMARK minimizedAffinity 0.132012337
REMARK minimizedRMSD -1
REMARK  0 active torsions:
REMARK  status: ('A' for Active; 'I' for Inactive)
ROOT
ATOM      1  C2' OXE d   1       2.623   5.968  -0.198  0.00  0.00     0.078 C 
ATOM      2  C1' OXE d   1       5.341   5.925  -0.899  0.00  0.00     0.078 C 
ATOM      3  C1  OXE d   1       4.993   5.928   0.569  0.00  0.00    -0.078 A 
ATOM      4  C2  OXE d   1       3.662   5.996   0.903  0.00  0.00    -0.078 A 
ATOM      5  C3  OXE d   1       3.283   5.946   2.241  0.00  0.00     0.003 A 
ATOM      6  C4  OXE d   1       4.251   5.982   3.253  0.00  0.00    -0.002 A 
ATOM      7  C5  OXE d   1       5.612   5.953   2.935  0.00  0.00    -0.002 A 
ATOM      8  C6  OXE d   1       5.999   5.883   1.601  0.00  0.00     0.003 A 
ENDROOT
TORSDOF 0
ENDMDL
