MODEL 1
REMARK minimizedAffinity 17.3281288
REMARK minimizedRMSD -1
REMARK  0 active torsions:
REMARK  status: ('A' for Active; 'I' for Inactive)
ROOT
ATOM      1  C2' OXE d   1       3.709   3.426   0.578  0.00  0.00     0.078 C 
ATOM      2  C1' OXE d   1       5.907   5.044  -0.079  0.00  0.00     0.078 C 
ATOM      3  C1  OXE d   1       5.390   5.100   1.337  0.00  0.00    -0.078 A 
ATOM      4  C2  OXE d   1       4.285   4.340   1.638  0.00  0.00    -0.078 A 
ATOM      5  C3  OXE d   1       3.801   4.313   2.942  0.00  0.00     0.003 A 
ATOM      6  C4  OXE d   1       4.334   5.169   3.914  0.00  0.00    -0.002 A 
ATOM      7  C5  OXE d   1       5.434   5.981   3.619  0.00  0.00    -0.002 A 
ATOM      8  C6  OXE d   1       6.000   5.927   2.350  0.00  0.00     0.003 A 
ENDROOT
TORSDOF 0
ENDMDL
