MODEL 1
REMARK minimizedAffinity 12.7867451
REMARK minimizedRMSD -1
REMARK  0 active torsions:
REMARK  status: ('A' for Active; 'I' for Inactive)
ROOT
ATOM      1  C2' OXE d   1       1.911  -2.533  -1.089  0.00  0.00     0.078 C 
ATOM      2  C1' OXE d   1      -0.842  -2.852  -0.645  0.00  0.00     0.078 C 
ATOM      3  C1  OXE d   1       0.104  -3.698   0.169  0.00  0.00    -0.078 A 
ATOM      4  C2  OXE d   1       1.448  -3.570  -0.088  0.00  0.00    -0.078 A 
ATOM      5  C3  OXE d   1       2.367  -4.287   0.672  0.00  0.00     0.003 A 
ATOM      6  C4  OXE d   1       1.930  -5.251   1.589  0.00  0.00    -0.002 A 
ATOM      7  C5  OXE d   1       0.564  -5.426   1.838  0.00  0.00    -0.002 A 
ATOM      8  C6  OXE d   1      -0.358  -4.630   1.168  0.00  0.00     0.003 A 
ENDROOT
TORSDOF 0
ENDMDL
