MODEL 1
REMARK minimizedAffinity 0.377273917
REMARK minimizedRMSD -1
REMARK  0 active torsions:
REMARK  status: ('A' for Active; 'I' for Inactive)
ROOT
ATOM      1  C2' OXE d   1       3.199   5.797   3.150  0.00  0.00     0.078 C 
ATOM      2  C1' OXE d   1       5.999   5.604   3.118  0.00  0.00     0.078 C 
ATOM      3  C1  OXE d   1       5.289   5.757   1.796  0.00  0.00    -0.078 A 
ATOM      4  C2  OXE d   1       3.916   5.804   1.817  0.00  0.00    -0.078 A 
ATOM      5  C3  OXE d   1       3.214   5.999   0.631  0.00  0.00     0.003 A 
ATOM      6  C4  OXE d   1       3.885   5.995  -0.598  0.00  0.00    -0.002 A 
ATOM      7  C5  OXE d   1       5.280   5.908  -0.645  0.00  0.00    -0.002 A 
ATOM      8  C6  OXE d   1       5.999   5.832   0.543  0.00  0.00     0.003 A 
ENDROOT
TORSDOF 0
ENDMDL
