MODEL 1
REMARK minimizedAffinity -0.75263679
REMARK minimizedRMSD -1
REMARK  0 active torsions:
REMARK  status: ('A' for Active; 'I' for Inactive)
ROOT
ATOM      1  C2' OXE d   1       3.204   5.998   0.402  0.00  0.00     0.078 C 
ATOM      2  C1' OXE d   1       5.861   5.102   0.269  0.00  0.00     0.078 C 
ATOM      3  C1  OXE d   1       5.264   5.335   1.635  0.00  0.00    -0.078 A 
ATOM      4  C2  OXE d   1       3.979   5.819   1.689  0.00  0.00    -0.078 A 
ATOM      5  C3  OXE d   1       3.362   6.000   2.924  0.00  0.00     0.003 A 
ATOM      6  C4  OXE d   1       4.090   5.841   4.110  0.00  0.00    -0.002 A 
ATOM      7  C5  OXE d   1       5.412   5.388   4.076  0.00  0.00    -0.002 A 
ATOM      8  C6  OXE d   1       6.000   5.090   2.851  0.00  0.00     0.003 A 
ENDROOT
TORSDOF 0
ENDMDL
