MODEL 1
REMARK minimizedAffinity 4.93959904
REMARK minimizedRMSD -1
REMARK  0 active torsions:
REMARK  status: ('A' for Active; 'I' for Inactive)
ROOT
ATOM      1  C2' OXE d   1      -3.448  -1.653   0.473  0.00  0.00     0.078 C 
ATOM      2  C1' OXE d   1      -1.769   0.434  -0.368  0.00  0.00     0.078 C 
ATOM      3  C1  OXE d   1      -2.116   0.358   1.097  0.00  0.00    -0.078 A 
ATOM      4  C2  OXE d   1      -2.976  -0.639   1.493  0.00  0.00    -0.078 A 
ATOM      5  C3  OXE d   1      -3.285  -0.788   2.842  0.00  0.00     0.003 A 
ATOM      6  C4  OXE d   1      -2.853   0.160   3.777  0.00  0.00    -0.002 A 
ATOM      7  C5  OXE d   1      -2.009   1.206   3.389  0.00  0.00    -0.002 A 
ATOM      8  C6  OXE d   1      -1.598   1.294   2.063  0.00  0.00     0.003 A 
ENDROOT
TORSDOF 0
ENDMDL
