MODEL 1
REMARK minimizedAffinity 19.4887352
REMARK minimizedRMSD -1
REMARK  0 active torsions:
REMARK  status: ('A' for Active; 'I' for Inactive)
ROOT
ATOM      1  C2' OXE d   1      -5.339  -0.370   5.226  0.00  0.00     0.078 C 
ATOM      2  C1' OXE d   1      -5.998  -0.430   2.498  0.00  0.00     0.078 C 
ATOM      3  C1  OXE d   1      -4.607   0.014   2.875  0.00  0.00    -0.078 A 
ATOM      4  C2  OXE d   1      -4.308   0.085   4.215  0.00  0.00    -0.078 A 
ATOM      5  C3  OXE d   1      -3.022   0.436   4.616  0.00  0.00     0.003 A 
ATOM      6  C4  OXE d   1      -2.078   0.865   3.675  0.00  0.00    -0.002 A 
ATOM      7  C5  OXE d   1      -2.375   0.839   2.309  0.00  0.00    -0.002 A 
ATOM      8  C6  OXE d   1      -3.618   0.376   1.890  0.00  0.00     0.003 A 
ENDROOT
TORSDOF 0
ENDMDL
