MODEL 1
REMARK minimizedAffinity 11.0140276
REMARK minimizedRMSD -1
REMARK  0 active torsions:
REMARK  status: ('A' for Active; 'I' for Inactive)
ROOT
ATOM      1  C2' OXE d   1       2.876   2.245  -3.328  0.00  0.00     0.078 C 
ATOM      2  C1' OXE d   1       1.056   0.882  -4.973  0.00  0.00     0.078 C 
ATOM      3  C1  OXE d   1       1.573   0.165  -3.751  0.00  0.00    -0.078 A 
ATOM      4  C2  OXE d   1       2.499   0.822  -2.977  0.00  0.00    -0.078 A 
ATOM      5  C3  OXE d   1       2.968   0.228  -1.809  0.00  0.00     0.003 A 
ATOM      6  C4  OXE d   1       2.622  -1.093  -1.497  0.00  0.00    -0.002 A 
ATOM      7  C5  OXE d   1       1.711  -1.795  -2.294  0.00  0.00    -0.002 A 
ATOM      8  C6  OXE d   1       1.146  -1.167  -3.398  0.00  0.00     0.003 A 
ENDROOT
TORSDOF 0
ENDMDL
