MODEL 1
REMARK minimizedAffinity 8.43207932
REMARK minimizedRMSD -1
REMARK  0 active torsions:
REMARK  status: ('A' for Active; 'I' for Inactive)
ROOT
ATOM      1  C2' OXE d   1      -3.471   5.079   3.305  0.00  0.00     0.078 C 
ATOM      2  C1' OXE d   1      -1.412   4.174   4.984  0.00  0.00     0.078 C 
ATOM      3  C1  OXE d   1      -2.063   3.171   4.065  0.00  0.00    -0.078 A 
ATOM      4  C2  OXE d   1      -3.101   3.612   3.280  0.00  0.00    -0.078 A 
ATOM      5  C3  OXE d   1      -3.700   2.741   2.375  0.00  0.00     0.003 A 
ATOM      6  C4  OXE d   1      -3.358   1.383   2.366  0.00  0.00    -0.002 A 
ATOM      7  C5  OXE d   1      -2.330   0.904   3.186  0.00  0.00    -0.002 A 
ATOM      8  C6  OXE d   1      -1.645   1.792   4.008  0.00  0.00     0.003 A 
ENDROOT
TORSDOF 0
ENDMDL
