MODEL 1
REMARK minimizedAffinity 6.62744045
REMARK minimizedRMSD -1
REMARK  0 active torsions:
REMARK  status: ('A' for Active; 'I' for Inactive)
ROOT
ATOM      1  C2' OXE d   1      -1.138  -1.106  -1.145  0.00  0.00     0.078 C 
ATOM      2  C1' OXE d   1      -1.424   1.410  -2.358  0.00  0.00     0.078 C 
ATOM      3  C1  OXE d   1      -0.034   0.833  -2.253  0.00  0.00    -0.078 A 
ATOM      4  C2  OXE d   1       0.102  -0.377  -1.617  0.00  0.00    -0.078 A 
ATOM      5  C3  OXE d   1       1.355  -0.979  -1.542  0.00  0.00     0.003 A 
ATOM      6  C4  OXE d   1       2.498  -0.294  -1.971  0.00  0.00    -0.002 A 
ATOM      7  C5  OXE d   1       2.386   0.957  -2.587  0.00  0.00    -0.002 A 
ATOM      8  C6  OXE d   1       1.125   1.514  -2.773  0.00  0.00     0.003 A 
ENDROOT
TORSDOF 0
ENDMDL
