MODEL 1
REMARK minimizedAffinity 7.7134161
REMARK minimizedRMSD -1
REMARK  0 active torsions:
REMARK  status: ('A' for Active; 'I' for Inactive)
ROOT
ATOM      1  C2' OXE d   1      -0.845  -2.278  -0.981  0.00  0.00     0.078 C 
ATOM      2  C1' OXE d   1       1.926  -2.724  -1.022  0.00  0.00     0.078 C 
ATOM      3  C1  OXE d   1       1.421  -1.394  -1.523  0.00  0.00    -0.078 A 
ATOM      4  C2  OXE d   1       0.060  -1.202  -1.542  0.00  0.00    -0.078 A 
ATOM      5  C3  OXE d   1      -0.457   0.027  -1.943  0.00  0.00     0.003 A 
ATOM      6  C4  OXE d   1       0.386   1.012  -2.470  0.00  0.00    -0.002 A 
ATOM      7  C5  OXE d   1       1.772   0.822  -2.496  0.00  0.00    -0.002 A 
ATOM      8  C6  OXE d   1       2.307  -0.357  -1.988  0.00  0.00     0.003 A 
ENDROOT
TORSDOF 0
ENDMDL
