MODEL 1
REMARK minimizedAffinity -1.90893674
REMARK minimizedRMSD -1
REMARK  0 active torsions:
REMARK  status: ('A' for Active; 'I' for Inactive)
ROOT
ATOM      1  C2' OXE d   1       3.769  -4.982   3.661  0.00  0.00     0.078 C 
ATOM      2  C1' OXE d   1       5.289  -5.418   5.981  0.00  0.00     0.078 C 
ATOM      3  C1  OXE d   1       5.280  -4.028   5.396  0.00  0.00    -0.078 A 
ATOM      4  C2  OXE d   1       4.572  -3.834   4.234  0.00  0.00    -0.078 A 
ATOM      5  C3  OXE d   1       4.486  -2.559   3.683  0.00  0.00     0.003 A 
ATOM      6  C4  OXE d   1       5.239  -1.505   4.214  0.00  0.00    -0.002 A 
ATOM      7  C5  OXE d   1       5.999  -1.690   5.374  0.00  0.00    -0.002 A 
ATOM      8  C6  OXE d   1       5.997  -2.932   6.000  0.00  0.00     0.003 A 
ENDROOT
TORSDOF 0
ENDMDL
