MODEL 1
REMARK minimizedAffinity 6.87472057
REMARK minimizedRMSD -1
REMARK  0 active torsions:
REMARK  status: ('A' for Active; 'I' for Inactive)
ROOT
ATOM      1  C2' OXE d   1       1.926  -0.012  -2.120  0.00  0.00     0.078 C 
ATOM      2  C1' OXE d   1       3.801  -1.515  -0.669  0.00  0.00     0.078 C 
ATOM      3  C1  OXE d   1       4.275  -0.819  -1.921  0.00  0.00    -0.078 A 
ATOM      4  C2  OXE d   1       3.340  -0.124  -2.649  0.00  0.00    -0.078 A 
ATOM      5  C3  OXE d   1       3.734   0.583  -3.782  0.00  0.00     0.003 A 
ATOM      6  C4  OXE d   1       5.041   0.466  -4.271  0.00  0.00    -0.002 A 
ATOM      7  C5  OXE d   1       6.000  -0.270  -3.565  0.00  0.00    -0.002 A 
ATOM      8  C6  OXE d   1       5.644  -0.882  -2.368  0.00  0.00     0.003 A 
ENDROOT
TORSDOF 0
ENDMDL
