MODEL 1
REMARK minimizedAffinity 10.4317961
REMARK minimizedRMSD -1
REMARK  0 active torsions:
REMARK  status: ('A' for Active; 'I' for Inactive)
ROOT
ATOM      1  C2' OXE d   1       2.225  -3.186  -0.373  0.00  0.00     0.078 C 
ATOM      2  C1' OXE d   1      -0.577  -3.116  -0.217  0.00  0.00     0.078 C 
ATOM      3  C1  OXE d   1       0.150  -4.131   0.630  0.00  0.00    -0.078 A 
ATOM      4  C2  OXE d   1       1.518  -4.189   0.513  0.00  0.00    -0.078 A 
ATOM      5  C3  OXE d   1       2.242  -5.069   1.313  0.00  0.00     0.003 A 
ATOM      6  C4  OXE d   1       1.579  -6.000   2.122  0.00  0.00    -0.002 A 
ATOM      7  C5  OXE d   1       0.184  -5.984   2.226  0.00  0.00    -0.002 A 
ATOM      8  C6  OXE d   1      -0.541  -5.030   1.521  0.00  0.00     0.003 A 
ENDROOT
TORSDOF 0
ENDMDL
