MODEL 1
REMARK minimizedAffinity 9.49507809
REMARK minimizedRMSD -1
REMARK  0 active torsions:
REMARK  status: ('A' for Active; 'I' for Inactive)
ROOT
ATOM      1  C2' OXE d   1       0.731  -4.583   0.941  0.00  0.00     0.078 C 
ATOM      2  C1' OXE d   1       2.729  -3.449  -0.673  0.00  0.00     0.078 C 
ATOM      3  C1  OXE d   1       1.296  -3.300  -1.119  0.00  0.00    -0.078 A 
ATOM      4  C2  OXE d   1       0.328  -3.899  -0.348  0.00  0.00    -0.078 A 
ATOM      5  C3  OXE d   1      -1.014  -3.746  -0.684  0.00  0.00     0.003 A 
ATOM      6  C4  OXE d   1      -1.377  -3.121  -1.883  0.00  0.00    -0.002 A 
ATOM      7  C5  OXE d   1      -0.405  -2.539  -2.703  0.00  0.00    -0.002 A 
ATOM      8  C6  OXE d   1       0.930  -2.583  -2.315  0.00  0.00     0.003 A 
ENDROOT
TORSDOF 0
ENDMDL
