MODEL 1
REMARK minimizedAffinity 7.62588501
REMARK minimizedRMSD -1
REMARK  0 active torsions:
REMARK  status: ('A' for Active; 'I' for Inactive)
ROOT
ATOM      1  C2' OXE d   1       0.739  -0.238  -2.675  0.00  0.00     0.078 C 
ATOM      2  C1' OXE d   1      -0.231  -2.869  -2.807  0.00  0.00     0.078 C 
ATOM      3  C1  OXE d   1       0.956  -2.601  -1.916  0.00  0.00    -0.078 A 
ATOM      4  C2  OXE d   1       1.453  -1.320  -1.894  0.00  0.00    -0.078 A 
ATOM      5  C3  OXE d   1       2.513  -1.006  -1.047  0.00  0.00     0.003 A 
ATOM      6  C4  OXE d   1       3.174  -2.015  -0.336  0.00  0.00    -0.002 A 
ATOM      7  C5  OXE d   1       2.709  -3.333  -0.375  0.00  0.00    -0.002 A 
ATOM      8  C6  OXE d   1       1.577  -3.635  -1.126  0.00  0.00     0.003 A 
ENDROOT
TORSDOF 0
ENDMDL
