MODEL 1
REMARK minimizedAffinity -0.577138662
REMARK minimizedRMSD -1
REMARK  0 active torsions:
REMARK  status: ('A' for Active; 'I' for Inactive)
ROOT
ATOM      1  C2' OXE d   1       0.234   1.370  -2.612  0.00  0.00     0.078 C 
ATOM      2  C1' OXE d   1       2.745   2.386  -1.876  0.00  0.00     0.078 C 
ATOM      3  C1  OXE d   1       2.528   0.898  -1.764  0.00  0.00    -0.078 A 
ATOM      4  C2  OXE d   1       1.281   0.415  -2.082  0.00  0.00    -0.078 A 
ATOM      5  C3  OXE d   1       1.043  -0.956  -2.048  0.00  0.00     0.003 A 
ATOM      6  C4  OXE d   1       2.014  -1.832  -1.547  0.00  0.00    -0.002 A 
ATOM      7  C5  OXE d   1       3.278  -1.356  -1.180  0.00  0.00    -0.002 A 
ATOM      8  C6  OXE d   1       3.564  -0.003  -1.323  0.00  0.00     0.003 A 
ENDROOT
TORSDOF 0
ENDMDL
