MODEL 1
REMARK minimizedAffinity 11.3472271
REMARK minimizedRMSD -1
REMARK  0 active torsions:
REMARK  status: ('A' for Active; 'I' for Inactive)
ROOT
ATOM      1  C2' OXE d   1       0.774  -1.545  -2.239  0.00  0.00     0.078 C 
ATOM      2  C1' OXE d   1      -1.426  -0.885  -0.625  0.00  0.00     0.078 C 
ATOM      3  C1  OXE d   1      -0.830   0.204  -1.482  0.00  0.00    -0.078 A 
ATOM      4  C2  OXE d   1       0.276  -0.116  -2.233  0.00  0.00    -0.078 A 
ATOM      5  C3  OXE d   1       0.831   0.837  -3.082  0.00  0.00     0.003 A 
ATOM      6  C4  OXE d   1       0.370   2.159  -3.063  0.00  0.00    -0.002 A 
ATOM      7  C5  OXE d   1      -0.730   2.515  -2.275  0.00  0.00    -0.002 A 
ATOM      8  C6  OXE d   1      -1.366   1.542  -1.513  0.00  0.00     0.003 A 
ENDROOT
TORSDOF 0
ENDMDL
