MODEL 1
REMARK minimizedAffinity 11.7842693
REMARK minimizedRMSD -1
REMARK  0 active torsions:
REMARK  status: ('A' for Active; 'I' for Inactive)
ROOT
ATOM      1  C2' OXE d   1       0.665  -2.300  -2.181  0.00  0.00     0.078 C 
ATOM      2  C1' OXE d   1      -1.859  -2.790  -1.054  0.00  0.00     0.078 C 
ATOM      3  C1  OXE d   1      -0.657  -3.407  -0.383  0.00  0.00    -0.078 A 
ATOM      4  C2  OXE d   1       0.569  -3.200  -0.968  0.00  0.00    -0.078 A 
ATOM      5  C3  OXE d   1       1.716  -3.701  -0.359  0.00  0.00     0.003 A 
ATOM      6  C4  OXE d   1       1.618  -4.541   0.757  0.00  0.00    -0.002 A 
ATOM      7  C5  OXE d   1       0.374  -4.796   1.345  0.00  0.00    -0.002 A 
ATOM      8  C6  OXE d   1      -0.766  -4.204   0.814  0.00  0.00     0.003 A 
ENDROOT
TORSDOF 0
ENDMDL
