MODEL 1
REMARK minimizedAffinity 4.93748188
REMARK minimizedRMSD -1
REMARK  0 active torsions:
REMARK  status: ('A' for Active; 'I' for Inactive)
ROOT
ATOM      1  C1  DEN d   1       1.490  -0.251   0.635  0.00  0.00     0.130 A 
ATOM      2  C2  DEN d   1       2.566  -0.422   1.608  0.00  0.00    -0.031 A 
ATOM      3  C3  DEN d   1       1.974  -0.357   2.959  0.00  0.00     0.027 A 
ATOM      4  C4  DEN d   1      -0.491  -0.015   3.637  0.00  0.00     0.027 A 
ATOM      5  C5  DEN d   1      -1.768   0.189   3.162  0.00  0.00    -0.003 A 
ATOM      6  C6  DEN d   1      -2.041   0.293   1.824  0.00  0.00     0.001 A 
ATOM      7  C7  DEN d   1      -1.030   0.149   0.911  0.00  0.00     0.017 A 
ATOM      8  C8  DEN d   1       0.261  -0.049   1.383  0.00  0.00    -0.094 A 
ATOM      9  C9  DEN d   1       0.515  -0.164   2.739  0.00  0.00    -0.072 A 
ENDROOT
TORSDOF 0
ENDMDL
