MODEL 1
REMARK minimizedAffinity 16.0362816
REMARK minimizedRMSD -1
REMARK  0 active torsions:
REMARK  status: ('A' for Active; 'I' for Inactive)
ROOT
ATOM      1  C1  DEN d   1      -4.185   0.134  -0.699  0.00  0.00     0.130 A 
ATOM      2  C2  DEN d   1      -4.639   1.522  -0.720  0.00  0.00    -0.031 A 
ATOM      3  C3  DEN d   1      -3.893   2.262   0.318  0.00  0.00     0.027 A 
ATOM      4  C4  DEN d   1      -2.086   1.398   1.944  0.00  0.00     0.027 A 
ATOM      5  C5  DEN d   1      -1.376   0.288   2.346  0.00  0.00    -0.003 A 
ATOM      6  C6  DEN d   1      -1.575  -0.947   1.790  0.00  0.00     0.001 A 
ATOM      7  C7  DEN d   1      -2.475  -1.094   0.768  0.00  0.00     0.017 A 
ATOM      8  C8  DEN d   1      -3.200   0.018   0.361  0.00  0.00    -0.094 A 
ATOM      9  C9  DEN d   1      -2.976   1.261   0.928  0.00  0.00    -0.072 A 
ENDROOT
TORSDOF 0
ENDMDL
