MODEL 1
REMARK minimizedAffinity 4.34808445
REMARK minimizedRMSD -1
REMARK  0 active torsions:
REMARK  status: ('A' for Active; 'I' for Inactive)
ROOT
ATOM      1  C1  DEN d   1      -0.474   1.011   1.655  0.00  0.00     0.130 A 
ATOM      2  C2  DEN d   1      -0.754   1.177   3.078  0.00  0.00    -0.031 A 
ATOM      3  C3  DEN d   1       0.421   0.697   3.833  0.00  0.00     0.027 A 
ATOM      4  C4  DEN d   1       2.637  -0.276   2.939  0.00  0.00     0.027 A 
ATOM      5  C5  DEN d   1       3.333  -0.623   1.803  0.00  0.00    -0.003 A 
ATOM      6  C6  DEN d   1       2.800  -0.482   0.549  0.00  0.00     0.001 A 
ATOM      7  C7  DEN d   1       1.551   0.061   0.399  0.00  0.00     0.017 A 
ATOM      8  C8  DEN d   1       0.840   0.406   1.541  0.00  0.00    -0.094 A 
ATOM      9  C9  DEN d   1       1.401   0.267   2.799  0.00  0.00    -0.072 A 
ENDROOT
TORSDOF 0
ENDMDL
