MODEL 1
REMARK minimizedAffinity 6.76884842
REMARK minimizedRMSD -1
REMARK  0 active torsions:
REMARK  status: ('A' for Active; 'I' for Inactive)
ROOT
ATOM      1  C1  DEN d   1      -0.844   0.440   3.115  0.00  0.00     0.130 A 
ATOM      2  C2  DEN d   1      -2.000   0.264   2.241  0.00  0.00    -0.031 A 
ATOM      3  C3  DEN d   1      -1.521  -0.282   0.955  0.00  0.00     0.027 A 
ATOM      4  C4  DEN d   1       0.886  -0.873   0.239  0.00  0.00     0.027 A 
ATOM      5  C5  DEN d   1       2.204  -0.885   0.638  0.00  0.00    -0.003 A 
ATOM      6  C6  DEN d   1       2.600  -0.428   1.867  0.00  0.00     0.001 A 
ATOM      7  C7  DEN d   1       1.662   0.018   2.759  0.00  0.00     0.017 A 
ATOM      8  C8  DEN d   1       0.331   0.040   2.362  0.00  0.00    -0.094 A 
ATOM      9  C9  DEN d   1      -0.050  -0.437   1.120  0.00  0.00    -0.072 A 
ENDROOT
TORSDOF 0
ENDMDL
