MODEL 1
REMARK minimizedAffinity 5.64446163
REMARK minimizedRMSD -1
REMARK  0 active torsions:
REMARK  status: ('A' for Active; 'I' for Inactive)
ROOT
ATOM      1  C   UNL d   1       2.003  -2.076  -0.389  0.00  0.00     0.020 A 
ATOM      2  C1  UNL d   1       3.078  -2.960  -0.301  0.00  0.00     0.020 A 
ATOM      3  C2  UNL d   1       3.786  -3.080   0.897  0.00  0.00     0.034 A 
ATOM      4  C3  UNL d   1       3.420  -2.315   2.011  0.00  0.00     0.017 A 
ATOM      5  C4  UNL d   1       2.340  -1.429   1.921  0.00  0.00     0.017 A 
ATOM      6  C5  UNL d   1       1.635  -1.313   0.719  0.00  0.00     0.034 A 
ATOM      7 Cl   UNL d   1       1.829  -0.452   3.252  0.00  0.00    -0.070 Cl
ATOM      8 Cl1  UNL d   1       4.339  -2.515   3.460  0.00  0.00    -0.070 Cl
ENDROOT
TORSDOF 0
ENDMDL
