MODEL 1
REMARK minimizedAffinity 4.63608313
REMARK minimizedRMSD -1
REMARK  0 active torsions:
REMARK  status: ('A' for Active; 'I' for Inactive)
ROOT
ATOM      1  C   UNL d   1       2.286  -1.941   2.811  0.00  0.00     0.020 A 
ATOM      2  C1  UNL d   1       3.113  -1.608   1.739  0.00  0.00     0.020 A 
ATOM      3  C2  UNL d   1       2.553  -1.227   0.518  0.00  0.00     0.034 A 
ATOM      4  C3  UNL d   1       1.162  -1.178   0.366  0.00  0.00     0.017 A 
ATOM      5  C4  UNL d   1       0.334  -1.512   1.443  0.00  0.00     0.017 A 
ATOM      6  C5  UNL d   1       0.900  -1.893   2.664  0.00  0.00     0.034 A 
ATOM      7 Cl   UNL d   1      -1.391  -1.475   1.332  0.00  0.00    -0.070 Cl
ATOM      8 Cl1  UNL d   1       0.539  -0.697  -1.172  0.00  0.00    -0.070 Cl
ENDROOT
TORSDOF 0
ENDMDL
