MODEL 1
REMARK minimizedAffinity -0.482426852
REMARK minimizedRMSD -1
REMARK  0 active torsions:
REMARK  status: ('A' for Active; 'I' for Inactive)
ROOT
ATOM      1  C   UNL d   1      -0.278   0.531   0.791  0.00  0.00     0.020 A 
ATOM      2  C1  UNL d   1      -1.475   0.500   1.505  0.00  0.00     0.020 A 
ATOM      3  C2  UNL d   1      -1.848  -0.658   2.191  0.00  0.00     0.034 A 
ATOM      4  C3  UNL d   1      -1.025  -1.789   2.164  0.00  0.00     0.017 A 
ATOM      5  C4  UNL d   1       0.176  -1.756   1.446  0.00  0.00     0.017 A 
ATOM      6  C5  UNL d   1       0.546  -0.595   0.761  0.00  0.00     0.034 A 
ATOM      7 Cl   UNL d   1       1.245  -3.112   1.365  0.00  0.00    -0.070 Cl
ATOM      8 Cl1  UNL d   1      -1.548  -3.186   3.035  0.00  0.00    -0.070 Cl
ENDROOT
TORSDOF 0
ENDMDL
