MODEL 1
REMARK minimizedAffinity 2.49076581
REMARK minimizedRMSD -1
REMARK  0 active torsions:
REMARK  status: ('A' for Active; 'I' for Inactive)
ROOT
ATOM      1  C   UNL d   1      -3.111   0.134   1.524  0.00  0.00     0.020 A 
ATOM      2  C1  UNL d   1      -2.826  -0.324   0.239  0.00  0.00     0.020 A 
ATOM      3  C2  UNL d   1      -1.558  -0.831  -0.056  0.00  0.00     0.034 A 
ATOM      4  C3  UNL d   1      -0.572  -0.881   0.935  0.00  0.00     0.017 A 
ATOM      5  C4  UNL d   1      -0.860  -0.420   2.225  0.00  0.00     0.017 A 
ATOM      6  C5  UNL d   1      -2.130   0.086   2.515  0.00  0.00     0.034 A 
ATOM      7 Cl   UNL d   1       0.306  -0.449   3.501  0.00  0.00    -0.070 Cl
ATOM      8 Cl1  UNL d   1       0.973  -1.520   0.501  0.00  0.00    -0.070 Cl
ENDROOT
TORSDOF 0
ENDMDL
