MODEL 1
REMARK minimizedAffinity 1.62833452
REMARK minimizedRMSD -1
REMARK  0 active torsions:
REMARK  status: ('A' for Active; 'I' for Inactive)
ROOT
ATOM      1  C   UNL d   1       1.542  -2.406   0.711  0.00  0.00     0.020 A 
ATOM      2  C1  UNL d   1       2.226  -1.576  -0.176  0.00  0.00     0.020 A 
ATOM      3  C2  UNL d   1       3.602  -1.384  -0.032  0.00  0.00     0.034 A 
ATOM      4  C3  UNL d   1       4.298  -2.024   1.000  0.00  0.00     0.017 A 
ATOM      5  C4  UNL d   1       3.610  -2.857   1.890  0.00  0.00     0.017 A 
ATOM      6  C5  UNL d   1       2.232  -3.046   1.741  0.00  0.00     0.034 A 
ATOM      7 Cl   UNL d   1       4.400  -3.680   3.188  0.00  0.00    -0.070 Cl
ATOM      8 Cl1  UNL d   1       5.998  -1.741   1.118  0.00  0.00    -0.070 Cl
ENDROOT
TORSDOF 0
ENDMDL
