MODEL 1
REMARK minimizedAffinity -1.82697451
REMARK minimizedRMSD -1
REMARK  0 active torsions:
REMARK  status: ('A' for Active; 'I' for Inactive)
ROOT
ATOM      1  C   UNL d   1      -1.151   0.008   1.771  0.00  0.00     0.020 A 
ATOM      2  C1  UNL d   1      -0.752  -0.765   2.861  0.00  0.00     0.020 A 
ATOM      3  C2  UNL d   1       0.228  -1.747   2.698  0.00  0.00     0.034 A 
ATOM      4  C3  UNL d   1       0.812  -1.957   1.444  0.00  0.00     0.017 A 
ATOM      5  C4  UNL d   1       0.411  -1.180   0.351  0.00  0.00     0.017 A 
ATOM      6  C5  UNL d   1      -0.570  -0.199   0.520  0.00  0.00     0.034 A 
ATOM      7 Cl   UNL d   1       1.087  -1.381  -1.227  0.00  0.00    -0.070 Cl
ATOM      8 Cl1  UNL d   1       2.019  -3.187   1.316  0.00  0.00    -0.070 Cl
ENDROOT
TORSDOF 0
ENDMDL
