MODEL 1
REMARK minimizedAffinity 3.77465367
REMARK minimizedRMSD -1
REMARK  0 active torsions:
REMARK  status: ('A' for Active; 'I' for Inactive)
ROOT
ATOM      1  C   UNL d   1       5.999  -5.996  -0.015  0.00  0.00     0.020 A 
ATOM      2  C1  UNL d   1       5.190  -5.701  -1.112  0.00  0.00     0.020 A 
ATOM      3  C2  UNL d   1       3.966  -5.054  -0.923  0.00  0.00     0.034 A 
ATOM      4  C3  UNL d   1       3.548  -4.701   0.365  0.00  0.00     0.017 A 
ATOM      5  C4  UNL d   1       4.361  -4.997   1.465  0.00  0.00     0.017 A 
ATOM      6  C5  UNL d   1       5.585  -5.645   1.270  0.00  0.00     0.034 A 
ATOM      7 Cl   UNL d   1       3.913  -4.592   3.084  0.00  0.00    -0.070 Cl
ATOM      8 Cl1  UNL d   1       2.024  -3.903   0.524  0.00  0.00    -0.070 Cl
ENDROOT
TORSDOF 0
ENDMDL
