MODEL 1
REMARK minimizedAffinity 11.983943
REMARK minimizedRMSD -1
REMARK  0 active torsions:
REMARK  status: ('A' for Active; 'I' for Inactive)
ROOT
ATOM      1  C   UNL d   1      -5.999   2.550  -3.750  0.00  0.00     0.020 A 
ATOM      2  C1  UNL d   1      -4.988   3.147  -2.997  0.00  0.00     0.020 A 
ATOM      3  C2  UNL d   1      -3.661   2.742  -3.165  0.00  0.00     0.034 A 
ATOM      4  C3  UNL d   1      -3.343   1.739  -4.087  0.00  0.00     0.017 A 
ATOM      5  C4  UNL d   1      -4.358   1.141  -4.842  0.00  0.00     0.017 A 
ATOM      6  C5  UNL d   1      -5.685   1.550  -4.670  0.00  0.00     0.034 A 
ATOM      7 Cl   UNL d   1      -4.043  -0.104  -5.999  0.00  0.00    -0.070 Cl
ATOM      8 Cl1  UNL d   1      -1.682   1.288  -4.243  0.00  0.00    -0.070 Cl
ENDROOT
TORSDOF 0
ENDMDL
