MODEL 1
REMARK minimizedAffinity 10.3807163
REMARK minimizedRMSD -1
REMARK  0 active torsions:
REMARK  status: ('A' for Active; 'I' for Inactive)
ROOT
ATOM      1  C   UNL d   1       4.188  -5.002   0.818  0.00  0.00     0.020 A 
ATOM      2  C1  UNL d   1       3.093  -4.520   0.102  0.00  0.00     0.020 A 
ATOM      3  C2  UNL d   1       2.273  -3.537   0.658  0.00  0.00     0.034 A 
ATOM      4  C3  UNL d   1       2.546  -3.032   1.935  0.00  0.00     0.017 A 
ATOM      5  C4  UNL d   1       3.645  -3.516   2.653  0.00  0.00     0.017 A 
ATOM      6  C5  UNL d   1       4.463  -4.501   2.091  0.00  0.00     0.034 A 
ATOM      7 Cl   UNL d   1       4.046  -2.942   4.233  0.00  0.00    -0.070 Cl
ATOM      8 Cl1  UNL d   1       1.489  -1.817   2.561  0.00  0.00    -0.070 Cl
ENDROOT
TORSDOF 0
ENDMDL
