MODEL 1
REMARK minimizedAffinity 3.74319673
REMARK minimizedRMSD -1
REMARK  0 active torsions:
REMARK  status: ('A' for Active; 'I' for Inactive)
ROOT
ATOM      1  C   UNL d   1       0.000   1.263   1.726  0.00  0.00     0.020 A 
ATOM      2  C1  UNL d   1      -0.606   2.337   1.075  0.00  0.00     0.020 A 
ATOM      3  C2  UNL d   1      -1.549   2.104   0.072  0.00  0.00     0.034 A 
ATOM      4  C3  UNL d   1      -1.889   0.794  -0.283  0.00  0.00     0.017 A 
ATOM      5  C4  UNL d   1      -1.281  -0.284   0.371  0.00  0.00     0.017 A 
ATOM      6  C5  UNL d   1      -0.337  -0.044   1.374  0.00  0.00     0.034 A 
ATOM      7 Cl   UNL d   1      -1.649  -1.928  -0.013  0.00  0.00    -0.070 Cl
ATOM      8 Cl1  UNL d   1      -3.064   0.579  -1.532  0.00  0.00    -0.070 Cl
ENDROOT
TORSDOF 0
ENDMDL
