MODEL 1
REMARK minimizedAffinity -1.41516221
REMARK minimizedRMSD -1
REMARK  0 active torsions:
REMARK  status: ('A' for Active; 'I' for Inactive)
ROOT
ATOM      1  C   UNL d   1       1.695   3.510   1.143  0.00  0.00     0.020 A 
ATOM      2  C1  UNL d   1       0.321   3.572   0.913  0.00  0.00     0.020 A 
ATOM      3  C2  UNL d   1      -0.352   2.461   0.400  0.00  0.00     0.034 A 
ATOM      4  C3  UNL d   1       0.348   1.283   0.115  0.00  0.00     0.017 A 
ATOM      5  C4  UNL d   1       1.727   1.222   0.346  0.00  0.00     0.017 A 
ATOM      6  C5  UNL d   1       2.396   2.337   0.860  0.00  0.00     0.034 A 
ATOM      7 Cl   UNL d   1       2.660  -0.196   0.019  0.00  0.00    -0.070 Cl
ATOM      8 Cl1  UNL d   1      -0.548  -0.052  -0.517  0.00  0.00    -0.070 Cl
ENDROOT
TORSDOF 0
ENDMDL
