MODEL 1
REMARK minimizedAffinity -4.51164818
REMARK minimizedRMSD -1
REMARK  0 active torsions:
REMARK  status: ('A' for Active; 'I' for Inactive)
ROOT
ATOM      1  C   UNL d   1      -0.862   1.428   0.457  0.00  0.00     0.020 A 
ATOM      2  C1  UNL d   1      -1.589   1.225  -0.715  0.00  0.00     0.020 A 
ATOM      3  C2  UNL d   1      -1.464   0.023  -1.415  0.00  0.00     0.034 A 
ATOM      4  C3  UNL d   1      -0.610  -0.980  -0.943  0.00  0.00     0.017 A 
ATOM      5  C4  UNL d   1       0.120  -0.775   0.234  0.00  0.00     0.017 A 
ATOM      6  C5  UNL d   1      -0.009   0.430   0.931  0.00  0.00     0.034 A 
ATOM      7 Cl   UNL d   1       1.193  -1.967   0.878  0.00  0.00    -0.070 Cl
ATOM      8 Cl1  UNL d   1      -0.504  -2.441  -1.859  0.00  0.00    -0.070 Cl
ENDROOT
TORSDOF 0
ENDMDL
