MODEL 1
REMARK minimizedAffinity -3.51909733
REMARK minimizedRMSD -1
REMARK  0 active torsions:
REMARK  status: ('A' for Active; 'I' for Inactive)
ROOT
ATOM      1  C   UNL d   1      -1.713   0.979   0.104  0.00  0.00     0.020 A 
ATOM      2  C1  UNL d   1      -0.970  -0.200   0.112  0.00  0.00     0.020 A 
ATOM      3  C2  UNL d   1       0.425  -0.147   0.128  0.00  0.00     0.034 A 
ATOM      4  C3  UNL d   1       1.082   1.089   0.135  0.00  0.00     0.017 A 
ATOM      5  C4  UNL d   1       0.335   2.273   0.127  0.00  0.00     0.017 A 
ATOM      6  C5  UNL d   1      -1.062   2.213   0.112  0.00  0.00     0.034 A 
ATOM      7 Cl   UNL d   1       1.074   3.835   0.136  0.00  0.00    -0.070 Cl
ATOM      8 Cl1  UNL d   1       2.810   1.081   0.155  0.00  0.00    -0.070 Cl
ENDROOT
TORSDOF 0
ENDMDL
