MODEL 1
REMARK minimizedAffinity -2.48069644
REMARK minimizedRMSD -1
REMARK  0 active torsions:
REMARK  status: ('A' for Active; 'I' for Inactive)
ROOT
ATOM      1  C   UNL d   1      -0.690   0.683   0.075  0.00  0.00     0.020 A 
ATOM      2  C1  UNL d   1       0.190   1.103  -0.922  0.00  0.00     0.020 A 
ATOM      3  C2  UNL d   1       0.861   2.321  -0.792  0.00  0.00     0.034 A 
ATOM      4  C3  UNL d   1       0.654   3.122   0.336  0.00  0.00     0.017 A 
ATOM      5  C4  UNL d   1      -0.230   2.700   1.336  0.00  0.00     0.017 A 
ATOM      6  C5  UNL d   1      -0.899   1.479   1.201  0.00  0.00     0.034 A 
ATOM      7 Cl   UNL d   1      -0.537   3.634   2.757  0.00  0.00    -0.070 Cl
ATOM      8 Cl1  UNL d   1       1.517   4.616   0.430  0.00  0.00    -0.070 Cl
ENDROOT
TORSDOF 0
ENDMDL
