MODEL 1
REMARK minimizedAffinity -4.80819702
REMARK minimizedRMSD -1
REMARK  0 active torsions:
REMARK  status: ('A' for Active; 'I' for Inactive)
ROOT
ATOM      1  C   UNL d   1      -1.030   2.548   0.180  0.00  0.00     0.020 A 
ATOM      2  C1  UNL d   1       0.126   3.316   0.307  0.00  0.00     0.020 A 
ATOM      3  C2  UNL d   1       1.374   2.693   0.375  0.00  0.00     0.034 A 
ATOM      4  C3  UNL d   1       1.468   1.298   0.316  0.00  0.00     0.017 A 
ATOM      5  C4  UNL d   1       0.307   0.528   0.188  0.00  0.00     0.017 A 
ATOM      6  C5  UNL d   1      -0.940   1.157   0.121  0.00  0.00     0.034 A 
ATOM      7 Cl   UNL d   1       0.343  -1.199   0.108  0.00  0.00    -0.070 Cl
ATOM      8 Cl1  UNL d   1       3.044   0.594   0.405  0.00  0.00    -0.070 Cl
ENDROOT
TORSDOF 0
ENDMDL
