MODEL 1
REMARK minimizedAffinity 0.529664874
REMARK minimizedRMSD -1
REMARK  0 active torsions:
REMARK  status: ('A' for Active; 'I' for Inactive)
ROOT
ATOM      1  C   UNL d   1      -0.185  -0.902  -0.253  0.00  0.00     0.020 A 
ATOM      2  C1  UNL d   1       1.194  -1.090  -0.165  0.00  0.00     0.020 A 
ATOM      3  C2  UNL d   1       1.994  -0.118   0.439  0.00  0.00     0.034 A 
ATOM      4  C3  UNL d   1       1.416   1.047   0.958  0.00  0.00     0.017 A 
ATOM      5  C4  UNL d   1       0.032   1.235   0.869  0.00  0.00     0.017 A 
ATOM      6  C5  UNL d   1      -0.764   0.258   0.263  0.00  0.00     0.034 A 
ATOM      7 Cl   UNL d   1      -0.754   2.645   1.485  0.00  0.00    -0.070 Cl
ATOM      8 Cl1  UNL d   1       2.465   2.207   1.692  0.00  0.00    -0.070 Cl
ENDROOT
TORSDOF 0
ENDMDL
