MODEL 1
REMARK minimizedAffinity -4.64761543
REMARK minimizedRMSD -1
REMARK  0 active torsions:
REMARK  status: ('A' for Active; 'I' for Inactive)
ROOT
ATOM      1  C   UNL d   1       0.933   3.211   0.386  0.00  0.00     0.020 A 
ATOM      2  C1  UNL d   1       2.052   2.409   0.163  0.00  0.00     0.020 A 
ATOM      3  C2  UNL d   1       1.910   1.023   0.069  0.00  0.00     0.034 A 
ATOM      4  C3  UNL d   1       0.647   0.435   0.199  0.00  0.00     0.017 A 
ATOM      5  C4  UNL d   1      -0.476   1.240   0.423  0.00  0.00     0.017 A 
ATOM      6  C5  UNL d   1      -0.328   2.628   0.516  0.00  0.00     0.034 A 
ATOM      7 Cl   UNL d   1      -2.067   0.587   0.594  0.00  0.00    -0.070 Cl
ATOM      8 Cl1  UNL d   1       0.545  -1.285   0.072  0.00  0.00    -0.070 Cl
ENDROOT
TORSDOF 0
ENDMDL
