MODEL 1
REMARK minimizedAffinity -1.57491744
REMARK minimizedRMSD -1
REMARK  0 active torsions:
REMARK  status: ('A' for Active; 'I' for Inactive)
ROOT
ATOM      1  C   UNL d   1      -0.193  -1.554  -3.066  0.00  0.00     0.020 A 
ATOM      2  C1  UNL d   1      -0.838  -2.774  -3.259  0.00  0.00     0.020 A 
ATOM      3  C2  UNL d   1      -1.364  -3.467  -2.167  0.00  0.00     0.034 A 
ATOM      4  C3  UNL d   1      -1.245  -2.940  -0.876  0.00  0.00     0.017 A 
ATOM      5  C4  UNL d   1      -0.597  -1.715  -0.682  0.00  0.00     0.017 A 
ATOM      6  C5  UNL d   1      -0.072  -1.025  -1.780  0.00  0.00     0.034 A 
ATOM      7 Cl   UNL d   1      -0.411  -1.001   0.881  0.00  0.00    -0.070 Cl
ATOM      8 Cl1  UNL d   1      -1.919  -3.851   0.429  0.00  0.00    -0.070 Cl
ENDROOT
TORSDOF 0
ENDMDL
