MODEL 1
REMARK minimizedAffinity 1.01401937
REMARK minimizedRMSD -1
REMARK  0 active torsions:
REMARK  status: ('A' for Active; 'I' for Inactive)
ROOT
ATOM      1  C   UNL d   1      -1.673  -3.856  -0.712  0.00  0.00     0.020 A 
ATOM      2  C1  UNL d   1      -1.075  -4.158  -1.934  0.00  0.00     0.020 A 
ATOM      3  C2  UNL d   1      -0.092  -3.316  -2.458  0.00  0.00     0.034 A 
ATOM      4  C3  UNL d   1       0.296  -2.167  -1.758  0.00  0.00     0.017 A 
ATOM      5  C4  UNL d   1      -0.305  -1.865  -0.531  0.00  0.00     0.017 A 
ATOM      6  C5  UNL d   1      -1.289  -2.712  -0.012  0.00  0.00     0.034 A 
ATOM      7 Cl   UNL d   1       0.121  -0.465   0.390  0.00  0.00    -0.070 Cl
ATOM      8 Cl1  UNL d   1       1.518  -1.171  -2.465  0.00  0.00    -0.070 Cl
ENDROOT
TORSDOF 0
ENDMDL
