MODEL 1
REMARK minimizedAffinity -5.49190807
REMARK minimizedRMSD -1
REMARK  0 active torsions:
REMARK  status: ('A' for Active; 'I' for Inactive)
ROOT
ATOM      1  C   UNL d   1      -0.118   2.809  -0.011  0.00  0.00     0.020 A 
ATOM      2  C1  UNL d   1       1.224   3.027   0.297  0.00  0.00     0.020 A 
ATOM      3  C2  UNL d   1       2.072   1.942   0.529  0.00  0.00     0.034 A 
ATOM      4  C3  UNL d   1       1.579   0.634   0.453  0.00  0.00     0.017 A 
ATOM      5  C4  UNL d   1       0.232   0.416   0.143  0.00  0.00     0.017 A 
ATOM      6  C5  UNL d   1      -0.613   1.506  -0.088  0.00  0.00     0.034 A 
ATOM      7 Cl   UNL d   1      -0.449  -1.168   0.031  0.00  0.00    -0.070 Cl
ATOM      8 Cl1  UNL d   1       2.684  -0.660   0.751  0.00  0.00    -0.070 Cl
ENDROOT
TORSDOF 0
ENDMDL
