MODEL 1
REMARK minimizedAffinity -0.929585993
REMARK minimizedRMSD -1
REMARK  0 active torsions:
REMARK  status: ('A' for Active; 'I' for Inactive)
ROOT
ATOM      1  C   UNL d   1      -0.681  -1.967  -0.364  0.00  0.00     0.020 A 
ATOM      2  C1  UNL d   1      -1.788  -1.232   0.059  0.00  0.00     0.020 A 
ATOM      3  C2  UNL d   1      -1.613   0.035   0.620  0.00  0.00     0.034 A 
ATOM      4  C3  UNL d   1      -0.327   0.570   0.761  0.00  0.00     0.017 A 
ATOM      5  C4  UNL d   1       0.783  -0.168   0.337  0.00  0.00     0.017 A 
ATOM      6  C5  UNL d   1       0.602  -1.436  -0.225  0.00  0.00     0.034 A 
ATOM      7 Cl   UNL d   1       2.400   0.426   0.478  0.00  0.00    -0.070 Cl
ATOM      8 Cl1  UNL d   1      -0.184   2.142   1.464  0.00  0.00    -0.070 Cl
ENDROOT
TORSDOF 0
ENDMDL
