MODEL 1
REMARK minimizedAffinity -3.12733793
REMARK minimizedRMSD -1
REMARK  0 active torsions:
REMARK  status: ('A' for Active; 'I' for Inactive)
ROOT
ATOM      1  C   UNL d   1      -0.289  -1.145  -0.595  0.00  0.00     0.020 A 
ATOM      2  C1  UNL d   1      -1.498  -0.472  -0.427  0.00  0.00     0.020 A 
ATOM      3  C2  UNL d   1      -1.527   0.757   0.234  0.00  0.00     0.034 A 
ATOM      4  C3  UNL d   1      -0.345   1.317   0.731  0.00  0.00     0.017 A 
ATOM      5  C4  UNL d   1       0.869   0.641   0.562  0.00  0.00     0.017 A 
ATOM      6  C5  UNL d   1       0.892  -0.590  -0.101  0.00  0.00     0.034 A 
ATOM      7 Cl   UNL d   1       2.369   1.269   1.147  0.00  0.00    -0.070 Cl
ATOM      8 Cl1  UNL d   1      -0.455   2.841   1.538  0.00  0.00    -0.070 Cl
ENDROOT
TORSDOF 0
ENDMDL
