MODEL 1
REMARK minimizedAffinity -3.70269275
REMARK minimizedRMSD -1
REMARK  0 active torsions:
REMARK  status: ('A' for Active; 'I' for Inactive)
ROOT
ATOM      1  C   UNL d   1       1.849   1.898  -0.635  0.00  0.00     0.020 A 
ATOM      2  C1  UNL d   1       2.002   3.100   0.055  0.00  0.00     0.020 A 
ATOM      3  C2  UNL d   1       1.110   3.438   1.075  0.00  0.00     0.034 A 
ATOM      4  C3  UNL d   1       0.061   2.573   1.408  0.00  0.00     0.017 A 
ATOM      5  C4  UNL d   1      -0.092   1.367   0.714  0.00  0.00     0.017 A 
ATOM      6  C5  UNL d   1       0.804   1.034  -0.306  0.00  0.00     0.034 A 
ATOM      7 Cl   UNL d   1      -1.362   0.249   1.068  0.00  0.00    -0.070 Cl
ATOM      8 Cl1  UNL d   1      -1.005   3.054   2.680  0.00  0.00    -0.070 Cl
ENDROOT
TORSDOF 0
ENDMDL
