MODEL 1
REMARK minimizedAffinity -5.97129726
REMARK minimizedRMSD -1
REMARK  0 active torsions:
REMARK  status: ('A' for Active; 'I' for Inactive)
ROOT
ATOM      1  C   UNL d   1       3.031   1.595   0.670  0.00  0.00     0.020 A 
ATOM      2  C1  UNL d   1       2.844   0.372   0.028  0.00  0.00     0.020 A 
ATOM      3  C2  UNL d   1       1.578   0.016  -0.442  0.00  0.00     0.034 A 
ATOM      4  C3  UNL d   1       0.494   0.885  -0.271  0.00  0.00     0.017 A 
ATOM      5  C4  UNL d   1       0.683   2.112   0.373  0.00  0.00     0.017 A 
ATOM      6  C5  UNL d   1       1.952   2.464   0.842  0.00  0.00     0.034 A 
ATOM      7 Cl   UNL d   1      -0.607   3.237   0.621  0.00  0.00    -0.070 Cl
ATOM      8 Cl1  UNL d   1      -1.043   0.380  -0.878  0.00  0.00    -0.070 Cl
ENDROOT
TORSDOF 0
ENDMDL
