MODEL 1
REMARK minimizedAffinity -2.73907471
REMARK minimizedRMSD -1
REMARK  0 active torsions:
REMARK  status: ('A' for Active; 'I' for Inactive)
ROOT
ATOM      1  C   UNL d   1      -0.348  -0.124   0.126  0.00  0.00     0.020 A 
ATOM      2  C1  UNL d   1      -1.116   1.033   0.253  0.00  0.00     0.020 A 
ATOM      3  C2  UNL d   1      -0.491   2.272   0.408  0.00  0.00     0.034 A 
ATOM      4  C3  UNL d   1       0.906   2.357   0.437  0.00  0.00     0.017 A 
ATOM      5  C4  UNL d   1       1.675   1.195   0.310  0.00  0.00     0.017 A 
ATOM      6  C5  UNL d   1       1.044  -0.043   0.155  0.00  0.00     0.034 A 
ATOM      7 Cl   UNL d   1       3.403   1.220   0.336  0.00  0.00    -0.070 Cl
ATOM      8 Cl1  UNL d   1       1.612   3.922   0.631  0.00  0.00    -0.070 Cl
ENDROOT
TORSDOF 0
ENDMDL
