MODEL 1
REMARK minimizedAffinity 1.4073019
REMARK minimizedRMSD -1
REMARK  0 active torsions:
REMARK  status: ('A' for Active; 'I' for Inactive)
ROOT
ATOM      1  C   UNL d   1      -2.668   1.260   0.450  0.00  0.00     0.020 A 
ATOM      2  C1  UNL d   1      -1.625   1.994   1.014  0.00  0.00     0.020 A 
ATOM      3  C2  UNL d   1      -0.341   1.448   1.078  0.00  0.00     0.034 A 
ATOM      4  C3  UNL d   1      -0.097   0.164   0.576  0.00  0.00     0.017 A 
ATOM      5  C4  UNL d   1      -1.145  -0.572   0.010  0.00  0.00     0.017 A 
ATOM      6  C5  UNL d   1      -2.428  -0.020  -0.051  0.00  0.00     0.034 A 
ATOM      7 Cl   UNL d   1      -0.921  -2.162  -0.630  0.00  0.00    -0.070 Cl
ATOM      8 Cl1  UNL d   1       1.514  -0.449   0.688  0.00  0.00    -0.070 Cl
ENDROOT
TORSDOF 0
ENDMDL
