MODEL 1
REMARK minimizedAffinity -5.64154816
REMARK minimizedRMSD -1
REMARK  0 active torsions:
REMARK  status: ('A' for Active; 'I' for Inactive)
ROOT
ATOM      1  C   UNL d   1       2.163   2.588   0.357  0.00  0.00     0.020 A 
ATOM      2  C1  UNL d   1       1.031   3.401   0.339  0.00  0.00     0.020 A 
ATOM      3  C2  UNL d   1      -0.241   2.829   0.392  0.00  0.00     0.034 A 
ATOM      4  C3  UNL d   1      -0.385   1.438   0.464  0.00  0.00     0.017 A 
ATOM      5  C4  UNL d   1       0.752   0.622   0.482  0.00  0.00     0.017 A 
ATOM      6  C5  UNL d   1       2.024   1.201   0.428  0.00  0.00     0.034 A 
ATOM      7 Cl   UNL d   1       0.655  -1.101   0.569  0.00  0.00    -0.070 Cl
ATOM      8 Cl1  UNL d   1      -1.989   0.798   0.527  0.00  0.00    -0.070 Cl
ENDROOT
TORSDOF 0
ENDMDL
