MODEL 1
REMARK minimizedAffinity 6.32775164
REMARK minimizedRMSD -1
REMARK  0 active torsions:
REMARK  status: ('A' for Active; 'I' for Inactive)
ROOT
ATOM      1  C   UNL d   1       2.209   2.080   0.650  0.00  0.00     0.020 A 
ATOM      2  C1  UNL d   1       3.288   2.302   1.505  0.00  0.00     0.020 A 
ATOM      3  C2  UNL d   1       4.094   1.234   1.903  0.00  0.00     0.034 A 
ATOM      4  C3  UNL d   1       3.822  -0.061   1.447  0.00  0.00     0.017 A 
ATOM      5  C4  UNL d   1       2.739  -0.283   0.589  0.00  0.00     0.017 A 
ATOM      6  C5  UNL d   1       1.935   0.791   0.193  0.00  0.00     0.034 A 
ATOM      7 Cl   UNL d   1       2.341  -1.852  -0.015  0.00  0.00    -0.070 Cl
ATOM      8 Cl1  UNL d   1       4.861  -1.335   1.979  0.00  0.00    -0.070 Cl
ENDROOT
TORSDOF 0
ENDMDL
