MODEL 1
REMARK minimizedAffinity 3.60489917
REMARK minimizedRMSD -1
REMARK  0 active torsions:
REMARK  status: ('A' for Active; 'I' for Inactive)
ROOT
ATOM      1  C   UNL d   1       1.897  -1.388   0.184  0.00  0.00     0.020 A 
ATOM      2  C1  UNL d   1       3.122  -1.740  -0.380  0.00  0.00     0.020 A 
ATOM      3  C2  UNL d   1       4.093  -0.762  -0.605  0.00  0.00     0.034 A 
ATOM      4  C3  UNL d   1       3.841   0.572  -0.266  0.00  0.00     0.017 A 
ATOM      5  C4  UNL d   1       2.610   0.924   0.300  0.00  0.00     0.017 A 
ATOM      6  C5  UNL d   1       1.641  -0.059   0.524  0.00  0.00     0.034 A 
ATOM      7 Cl   UNL d   1       2.225   2.549   0.745  0.00  0.00    -0.070 Cl
ATOM      8 Cl1  UNL d   1       5.087   1.729  -0.572  0.00  0.00    -0.070 Cl
ENDROOT
TORSDOF 0
ENDMDL
