MODEL 1
REMARK minimizedAffinity 7.93469524
REMARK minimizedRMSD -1
REMARK  0 active torsions:
REMARK  status: ('A' for Active; 'I' for Inactive)
ROOT
ATOM      1  C   UNL d   1       3.072  -1.481   0.003  0.00  0.00     0.020 A 
ATOM      2  C1  UNL d   1       2.692  -1.875  -1.279  0.00  0.00     0.020 A 
ATOM      3  C2  UNL d   1       1.550  -1.329  -1.869  0.00  0.00     0.034 A 
ATOM      4  C3  UNL d   1       0.783  -0.385  -1.175  0.00  0.00     0.017 A 
ATOM      5  C4  UNL d   1       1.165   0.010   0.112  0.00  0.00     0.017 A 
ATOM      6  C5  UNL d   1       2.310  -0.540   0.697  0.00  0.00     0.034 A 
ATOM      7 Cl   UNL d   1       0.270   1.169   1.029  0.00  0.00    -0.070 Cl
ATOM      8 Cl1  UNL d   1      -0.617   0.249  -1.965  0.00  0.00    -0.070 Cl
ENDROOT
TORSDOF 0
ENDMDL
