MODEL 1
REMARK minimizedAffinity 4.34568024
REMARK minimizedRMSD -1
REMARK  0 active torsions:
REMARK  status: ('A' for Active; 'I' for Inactive)
ROOT
ATOM      1  C   UNL d   1       4.088   0.108  -0.462  0.00  0.00     0.020 A 
ATOM      2  C1  UNL d   1       3.116  -0.707   0.118  0.00  0.00     0.020 A 
ATOM      3  C2  UNL d   1       2.016  -0.134   0.759  0.00  0.00     0.034 A 
ATOM      4  C3  UNL d   1       1.885   1.259   0.822  0.00  0.00     0.017 A 
ATOM      5  C4  UNL d   1       2.861   2.075   0.240  0.00  0.00     0.017 A 
ATOM      6  C5  UNL d   1       3.960   1.496  -0.401  0.00  0.00     0.034 A 
ATOM      7 Cl   UNL d   1       2.768   3.801   0.277  0.00  0.00    -0.070 Cl
ATOM      8 Cl1  UNL d   1       0.499   1.899   1.631  0.00  0.00    -0.070 Cl
ENDROOT
TORSDOF 0
ENDMDL
