MODEL 1
REMARK minimizedAffinity 3.96689129
REMARK minimizedRMSD -1
REMARK  0 active torsions:
REMARK  status: ('A' for Active; 'I' for Inactive)
ROOT
ATOM      1  C   UNL d   1       1.837   2.197  -0.079  0.00  0.00     0.020 A 
ATOM      2  C1  UNL d   1       0.874   1.277  -0.492  0.00  0.00     0.020 A 
ATOM      3  C2  UNL d   1       1.159  -0.090  -0.467  0.00  0.00     0.034 A 
ATOM      4  C3  UNL d   1       2.409  -0.541  -0.027  0.00  0.00     0.017 A 
ATOM      5  C4  UNL d   1       3.375   0.384   0.387  0.00  0.00     0.017 A 
ATOM      6  C5  UNL d   1       3.084   1.752   0.360  0.00  0.00     0.034 A 
ATOM      7 Cl   UNL d   1       4.940  -0.096   0.943  0.00  0.00    -0.070 Cl
ATOM      8 Cl1  UNL d   1       2.693  -2.245  -0.022  0.00  0.00    -0.070 Cl
ENDROOT
TORSDOF 0
ENDMDL
