MODEL 1
REMARK minimizedAffinity 6.17541885
REMARK minimizedRMSD -1
REMARK  0 active torsions:
REMARK  status: ('A' for Active; 'I' for Inactive)
ROOT
ATOM      1  C   UNL d   1       1.967  -1.898  -0.300  0.00  0.00     0.020 A 
ATOM      2  C1  UNL d   1       3.233  -1.591   0.197  0.00  0.00     0.020 A 
ATOM      3  C2  UNL d   1       3.605  -0.258   0.386  0.00  0.00     0.034 A 
ATOM      4  C3  UNL d   1       2.710   0.773   0.077  0.00  0.00     0.017 A 
ATOM      5  C4  UNL d   1       1.439   0.464  -0.422  0.00  0.00     0.017 A 
ATOM      6  C5  UNL d   1       1.072  -0.872  -0.609  0.00  0.00     0.034 A 
ATOM      7 Cl   UNL d   1       0.281   1.682  -0.825  0.00  0.00    -0.070 Cl
ATOM      8 Cl1  UNL d   1       3.237   2.398   0.336  0.00  0.00    -0.070 Cl
ENDROOT
TORSDOF 0
ENDMDL
