MODEL 1
REMARK minimizedAffinity 7.22980165
REMARK minimizedRMSD -1
REMARK  0 active torsions:
REMARK  status: ('A' for Active; 'I' for Inactive)
ROOT
ATOM      1  C   UNL d   1       1.045  -2.779   0.076  0.00  0.00     0.020 A 
ATOM      2  C1  UNL d   1       1.265  -1.962   1.184  0.00  0.00     0.020 A 
ATOM      3  C2  UNL d   1       2.199  -0.926   1.113  0.00  0.00     0.034 A 
ATOM      4  C3  UNL d   1       2.916  -0.704  -0.069  0.00  0.00     0.017 A 
ATOM      5  C4  UNL d   1       2.694  -1.525  -1.180  0.00  0.00     0.017 A 
ATOM      6  C5  UNL d   1       1.758  -2.561  -1.104  0.00  0.00     0.034 A 
ATOM      7 Cl   UNL d   1       3.541  -1.313  -2.672  0.00  0.00    -0.070 Cl
ATOM      8 Cl1  UNL d   1       4.054   0.595  -0.086  0.00  0.00    -0.070 Cl
ENDROOT
TORSDOF 0
ENDMDL
