MODEL 1
REMARK minimizedAffinity 2.88877249
REMARK minimizedRMSD -1
REMARK  0 active torsions:
REMARK  status: ('A' for Active; 'I' for Inactive)
ROOT
ATOM      1  C   UNL d   1       3.165   0.719   0.353  0.00  0.00     0.020 A 
ATOM      2  C1  UNL d   1       3.818  -0.396   0.878  0.00  0.00     0.020 A 
ATOM      3  C2  UNL d   1       3.337  -1.679   0.607  0.00  0.00     0.034 A 
ATOM      4  C3  UNL d   1       2.200  -1.850  -0.191  0.00  0.00     0.017 A 
ATOM      5  C4  UNL d   1       1.546  -0.731  -0.717  0.00  0.00     0.017 A 
ATOM      6  C5  UNL d   1       2.032   0.551  -0.443  0.00  0.00     0.034 A 
ATOM      7 Cl   UNL d   1       0.137  -0.863  -1.710  0.00  0.00    -0.070 Cl
ATOM      8 Cl1  UNL d   1       1.661  -3.465  -0.485  0.00  0.00    -0.070 Cl
ENDROOT
TORSDOF 0
ENDMDL
