MODEL 1
REMARK minimizedAffinity 4.78067541
REMARK minimizedRMSD -1
REMARK  0 active torsions:
REMARK  status: ('A' for Active; 'I' for Inactive)
ROOT
ATOM      1  C   UNL d   1       0.317  -2.506  -0.550  0.00  0.00     0.020 A 
ATOM      2  C1  UNL d   1       1.578  -2.994  -0.888  0.00  0.00     0.020 A 
ATOM      3  C2  UNL d   1       2.623  -2.106  -1.150  0.00  0.00     0.034 A 
ATOM      4  C3  UNL d   1       2.409  -0.725  -1.075  0.00  0.00     0.017 A 
ATOM      5  C4  UNL d   1       1.142  -0.236  -0.735  0.00  0.00     0.017 A 
ATOM      6  C5  UNL d   1       0.099  -1.130  -0.474  0.00  0.00     0.034 A 
ATOM      7 Cl   UNL d   1       0.801   1.455  -0.622  0.00  0.00    -0.070 Cl
ATOM      8 Cl1  UNL d   1       3.747   0.316  -1.411  0.00  0.00    -0.070 Cl
ENDROOT
TORSDOF 0
ENDMDL
