MODEL 1
REMARK minimizedAffinity 2.49964404
REMARK minimizedRMSD -1
REMARK  0 active torsions:
REMARK  status: ('A' for Active; 'I' for Inactive)
ROOT
ATOM      1  C   UNL d   1       1.172  -2.823  -0.432  0.00  0.00     0.020 A 
ATOM      2  C1  UNL d   1      -0.073  -2.968  -1.044  0.00  0.00     0.020 A 
ATOM      3  C2  UNL d   1      -0.794  -1.838  -1.434  0.00  0.00     0.034 A 
ATOM      4  C3  UNL d   1      -0.272  -0.558  -1.214  0.00  0.00     0.017 A 
ATOM      5  C4  UNL d   1       0.978  -0.414  -0.600  0.00  0.00     0.017 A 
ATOM      6  C5  UNL d   1       1.696  -1.549  -0.211  0.00  0.00     0.034 A 
ATOM      7 Cl   UNL d   1       1.687   1.132  -0.294  0.00  0.00    -0.070 Cl
ATOM      8 Cl1  UNL d   1      -1.218   0.794  -1.722  0.00  0.00    -0.070 Cl
ENDROOT
TORSDOF 0
ENDMDL
