MODEL 1
REMARK minimizedAffinity -5.34424973
REMARK minimizedRMSD -1
REMARK  0 active torsions:
REMARK  status: ('A' for Active; 'I' for Inactive)
ROOT
ATOM      1  O1  BZF d   1       0.952   0.836  -0.504  0.00  0.00    -0.204 OA
ATOM      2  C2  BZF d   1      -0.121   0.982  -1.362  0.00  0.00     0.174 A 
ATOM      3  C3  BZF d   1      -1.223   0.395  -0.853  0.00  0.00    -0.012 A 
ATOM      4  C3A BZF d   1      -0.837  -0.072   0.443  0.00  0.00    -0.107 A 
ATOM      5  C4  BZF d   1      -1.501  -0.725   1.442  0.00  0.00     0.055 A 
ATOM      6  C5  BZF d   1      -0.816  -1.103   2.553  0.00  0.00    -0.016 A 
ATOM      7  C6  BZF d   1       0.533  -0.849   2.696  0.00  0.00     0.022 A 
ATOM      8  C7  BZF d   1       1.233  -0.200   1.734  0.00  0.00     0.029 A 
ATOM      9  C7A BZF d   1       0.536   0.212   0.624  0.00  0.00     0.058 A 
ENDROOT
TORSDOF 0
ENDMDL
