MODEL 1
REMARK minimizedAffinity -5.18333244
REMARK minimizedRMSD -1
REMARK  0 active torsions:
REMARK  status: ('A' for Active; 'I' for Inactive)
ROOT
ATOM      1  O1  BZF d   1       1.693  -0.562   2.342  0.00  0.00    -0.204 OA
ATOM      2  C2  BZF d   1       0.998  -0.913   3.483  0.00  0.00     0.174 A 
ATOM      3  C3  BZF d   1      -0.332  -0.873   3.265  0.00  0.00    -0.012 A 
ATOM      4  C3A BZF d   1      -0.476  -0.563   1.875  0.00  0.00    -0.107 A 
ATOM      5  C4  BZF d   1      -1.557  -0.402   1.056  0.00  0.00     0.055 A 
ATOM      6  C5  BZF d   1      -1.357  -0.030  -0.235  0.00  0.00    -0.016 A 
ATOM      7  C6  BZF d   1      -0.093   0.195  -0.739  0.00  0.00     0.022 A 
ATOM      8  C7  BZF d   1       1.010   0.044   0.034  0.00  0.00     0.029 A 
ATOM      9  C7A BZF d   1       0.814  -0.365   1.330  0.00  0.00     0.058 A 
ENDROOT
TORSDOF 0
ENDMDL
