MODEL 1
REMARK minimizedAffinity -3.57476735
REMARK minimizedRMSD -1
REMARK  0 active torsions:
REMARK  status: ('A' for Active; 'I' for Inactive)
ROOT
ATOM      1  O1  BZF d   1      -1.799  -0.430   2.402  0.00  0.00    -0.204 OA
ATOM      2  C2  BZF d   1      -2.367  -0.130   1.179  0.00  0.00     0.174 A 
ATOM      3  C3  BZF d   1      -1.415   0.037   0.238  0.00  0.00    -0.012 A 
ATOM      4  C3A BZF d   1      -0.180  -0.262   0.894  0.00  0.00    -0.107 A 
ATOM      5  C4  BZF d   1       1.122  -0.288   0.480  0.00  0.00     0.055 A 
ATOM      6  C5  BZF d   1       2.099  -0.548   1.388  0.00  0.00    -0.016 A 
ATOM      7  C6  BZF d   1       1.811  -0.781   2.717  0.00  0.00     0.022 A 
ATOM      8  C7  BZF d   1       0.535  -0.770   3.174  0.00  0.00     0.029 A 
ATOM      9  C7A BZF d   1      -0.457  -0.540   2.253  0.00  0.00     0.058 A 
ENDROOT
TORSDOF 0
ENDMDL
