MODEL 1
REMARK minimizedAffinity -4.37777281
REMARK minimizedRMSD -1
REMARK  0 active torsions:
REMARK  status: ('A' for Active; 'I' for Inactive)
ROOT
ATOM      1  O1  BZF d   1       1.170   0.677  -0.861  0.00  0.00    -0.204 OA
ATOM      2  C2  BZF d   1       0.007   0.640  -1.605  0.00  0.00     0.174 A 
ATOM      3  C3  BZF d   1      -1.000   0.096  -0.892  0.00  0.00    -0.012 A 
ATOM      4  C3A BZF d   1      -0.454  -0.144   0.408  0.00  0.00    -0.107 A 
ATOM      5  C4  BZF d   1      -0.970  -0.657   1.564  0.00  0.00     0.055 A 
ATOM      6  C5  BZF d   1      -0.152  -0.826   2.635  0.00  0.00    -0.016 A 
ATOM      7  C6  BZF d   1       1.187  -0.497   2.585  0.00  0.00     0.022 A 
ATOM      8  C7  BZF d   1       1.744   0.020   1.463  0.00  0.00     0.029 A 
ATOM      9  C7A BZF d   1       0.912   0.223   0.389  0.00  0.00     0.058 A 
ENDROOT
TORSDOF 0
ENDMDL
