MODEL 1
REMARK minimizedAffinity -2.69243407
REMARK minimizedRMSD -1
REMARK  0 active torsions:
REMARK  status: ('A' for Active; 'I' for Inactive)
ROOT
ATOM      1  O1  BZF d   1      -1.247   0.131  -0.144  0.00  0.00    -0.204 OA
ATOM      2  C2  BZF d   1      -0.969   0.166  -1.497  0.00  0.00     0.174 A 
ATOM      3  C3  BZF d   1       0.349  -0.013  -1.719  0.00  0.00    -0.012 A 
ATOM      4  C3A BZF d   1       0.918  -0.262  -0.430  0.00  0.00    -0.107 A 
ATOM      5  C4  BZF d   1       2.186  -0.529   0.001  0.00  0.00     0.055 A 
ATOM      6  C5  BZF d   1       2.418  -0.650   1.335  0.00  0.00    -0.016 A 
ATOM      7  C6  BZF d   1       1.409  -0.505   2.264  0.00  0.00     0.022 A 
ATOM      8  C7  BZF d   1       0.134  -0.245   1.884  0.00  0.00     0.029 A 
ATOM      9  C7A BZF d   1      -0.110  -0.154   0.535  0.00  0.00     0.058 A 
ENDROOT
TORSDOF 0
ENDMDL
