MODEL 1
REMARK minimizedAffinity -5.68266964
REMARK minimizedRMSD -1
REMARK  0 active torsions:
REMARK  status: ('A' for Active; 'I' for Inactive)
ROOT
ATOM      1  O1  BZF d   1       1.158  -0.058  -0.359  0.00  0.00    -0.204 OA
ATOM      2  C2  BZF d   1       0.040   0.146  -1.144  0.00  0.00     0.174 A 
ATOM      3  C3  BZF d   1      -1.087  -0.075  -0.437  0.00  0.00    -0.012 A 
ATOM      4  C3A BZF d   1      -0.648  -0.348   0.897  0.00  0.00    -0.107 A 
ATOM      5  C4  BZF d   1      -1.303  -0.630   2.062  0.00  0.00     0.055 A 
ATOM      6  C5  BZF d   1      -0.577  -0.920   3.173  0.00  0.00    -0.016 A 
ATOM      7  C6  BZF d   1       0.802  -0.943   3.155  0.00  0.00     0.022 A 
ATOM      8  C7  BZF d   1       1.496  -0.666   2.024  0.00  0.00     0.029 A 
ATOM      9  C7A BZF d   1       0.766  -0.340   0.907  0.00  0.00     0.058 A 
ENDROOT
TORSDOF 0
ENDMDL
