MODEL 1
REMARK minimizedAffinity -2.60131717
REMARK minimizedRMSD -1
REMARK  0 active torsions:
REMARK  status: ('A' for Active; 'I' for Inactive)
ROOT
ATOM      1  O1  BZF d   1       1.008  -0.051  -1.238  0.00  0.00    -0.204 OA
ATOM      2  C2  BZF d   1       0.160  -0.540  -0.263  0.00  0.00     0.174 A 
ATOM      3  C3  BZF d   1      -1.090  -0.065  -0.433  0.00  0.00    -0.012 A 
ATOM      4  C3A BZF d   1      -1.040   0.701  -1.641  0.00  0.00    -0.107 A 
ATOM      5  C4  BZF d   1      -1.972   1.410  -2.343  0.00  0.00     0.055 A 
ATOM      6  C5  BZF d   1      -1.583   2.105  -3.443  0.00  0.00    -0.016 A 
ATOM      7  C6  BZF d   1      -0.270   2.118  -3.867  0.00  0.00     0.022 A 
ATOM      8  C7  BZF d   1       0.690   1.427  -3.206  0.00  0.00     0.029 A 
ATOM      9  C7A BZF d   1       0.293   0.697  -2.112  0.00  0.00     0.058 A 
ENDROOT
TORSDOF 0
ENDMDL
