MODEL 1
REMARK minimizedAffinity -5.80601215
REMARK minimizedRMSD -1
REMARK  0 active torsions:
REMARK  status: ('A' for Active; 'I' for Inactive)
ROOT
ATOM      1  O1  BZF d   1      -1.233  -1.090   0.342  0.00  0.00    -0.204 OA
ATOM      2  C2  BZF d   1      -0.746  -0.804  -0.919  0.00  0.00     0.174 A 
ATOM      3  C3  BZF d   1       0.522  -0.350  -0.851  0.00  0.00    -0.012 A 
ATOM      4  C3A BZF d   1       0.880  -0.439   0.532  0.00  0.00    -0.107 A 
ATOM      5  C4  BZF d   1       2.018  -0.147   1.227  0.00  0.00     0.055 A 
ATOM      6  C5  BZF d   1       2.017  -0.277   2.580  0.00  0.00    -0.016 A 
ATOM      7  C6  BZF d   1       0.896  -0.690   3.269  0.00  0.00     0.022 A 
ATOM      8  C7  BZF d   1      -0.255  -0.995   2.622  0.00  0.00     0.029 A 
ATOM      9  C7A BZF d   1      -0.247  -0.897   1.252  0.00  0.00     0.058 A 
ENDROOT
TORSDOF 0
ENDMDL
