MODEL 1
REMARK minimizedAffinity 3.12709689
REMARK minimizedRMSD -1
REMARK  0 active torsions:
REMARK  status: ('A' for Active; 'I' for Inactive)
ROOT
ATOM      1  C4' PXY d   1      -4.707   2.608   5.998  0.00  0.00     0.077 C 
ATOM      2  C1' PXY d   1      -1.202  -0.609   2.715  0.00  0.00     0.077 C 
ATOM      3  C1  PXY d   1      -2.121   0.225   3.585  0.00  0.00    -0.082 A 
ATOM      4  C2  PXY d   1      -2.875   1.161   3.031  0.00  0.00     0.003 A 
ATOM      5  C3  PXY d   1      -3.689   1.946   3.807  0.00  0.00     0.003 A 
ATOM      6  C4  PXY d   1      -3.771   1.736   5.158  0.00  0.00    -0.082 A 
ATOM      7  C5  PXY d   1      -3.013   0.776   5.729  0.00  0.00     0.003 A 
ATOM      8  C6  PXY d   1      -2.163   0.017   4.929  0.00  0.00     0.003 A 
ENDROOT
TORSDOF 0
ENDMDL
