MODEL 1
REMARK minimizedAffinity 7.87972784
REMARK minimizedRMSD -1
REMARK  0 active torsions:
REMARK  status: ('A' for Active; 'I' for Inactive)
ROOT
ATOM      1  C4' PXY d   1      -4.870   2.698   6.000  0.00  0.00     0.077 C 
ATOM      2  C1' PXY d   1      -1.296  -0.367   2.646  0.00  0.00     0.077 C 
ATOM      3  C1  PXY d   1      -2.231   0.429   3.536  0.00  0.00    -0.082 A 
ATOM      4  C2  PXY d   1      -3.192   1.156   2.990  0.00  0.00     0.003 A 
ATOM      5  C3  PXY d   1      -4.026   1.907   3.778  0.00  0.00     0.003 A 
ATOM      6  C4  PXY d   1      -3.909   1.871   5.141  0.00  0.00    -0.082 A 
ATOM      7  C5  PXY d   1      -2.938   1.123   5.706  0.00  0.00     0.003 A 
ATOM      8  C6  PXY d   1      -2.076   0.400   4.887  0.00  0.00     0.003 A 
ENDROOT
TORSDOF 0
ENDMDL
