MODEL 1
REMARK minimizedAffinity 6.95804358
REMARK minimizedRMSD -1
REMARK  0 active torsions:
REMARK  status: ('A' for Active; 'I' for Inactive)
ROOT
ATOM      1  C4' PXY d   1       0.991  -3.255   2.174  0.00  0.00     0.077 C 
ATOM      2  C1' PXY d   1      -3.786  -0.091   1.412  0.00  0.00     0.077 C 
ATOM      3  C1  PXY d   1      -2.541  -0.931   1.613  0.00  0.00    -0.082 A 
ATOM      4  C2  PXY d   1      -1.435  -0.364   2.068  0.00  0.00     0.003 A 
ATOM      5  C3  PXY d   1      -0.291  -1.103   2.226  0.00  0.00     0.003 A 
ATOM      6  C4  PXY d   1      -0.293  -2.447   1.965  0.00  0.00    -0.082 A 
ATOM      7  C5  PXY d   1      -1.419  -3.035   1.510  0.00  0.00     0.003 A 
ATOM      8  C6  PXY d   1      -2.559  -2.259   1.318  0.00  0.00     0.003 A 
ENDROOT
TORSDOF 0
ENDMDL
