MODEL 1
REMARK minimizedAffinity 4.30353022
REMARK minimizedRMSD -1
REMARK  0 active torsions:
REMARK  status: ('A' for Active; 'I' for Inactive)
ROOT
ATOM      1  C4' PXY d   1      -3.423   2.155   4.569  0.00  0.00     0.077 C 
ATOM      2  C1' PXY d   1      -0.493  -2.010   1.834  0.00  0.00     0.077 C 
ATOM      3  C1  PXY d   1      -1.260  -0.924   2.562  0.00  0.00    -0.082 A 
ATOM      4  C2  PXY d   1      -2.093  -0.148   1.889  0.00  0.00     0.003 A 
ATOM      5  C3  PXY d   1      -2.771   0.860   2.526  0.00  0.00     0.003 A 
ATOM      6  C4  PXY d   1      -2.634   1.040   3.876  0.00  0.00    -0.082 A 
ATOM      7  C5  PXY d   1      -1.794   0.245   4.572  0.00  0.00     0.003 A 
ATOM      8  C6  PXY d   1      -1.085  -0.745   3.899  0.00  0.00     0.003 A 
ENDROOT
TORSDOF 0
ENDMDL
