MODEL 1
REMARK minimizedAffinity 9.61448383
REMARK minimizedRMSD -1
REMARK  0 active torsions:
REMARK  status: ('A' for Active; 'I' for Inactive)
ROOT
ATOM      1  C4' PXY d   1      -0.822  -0.869   2.204  0.00  0.00     0.077 C 
ATOM      2  C1' PXY d   1      -4.598   2.354   5.165  0.00  0.00     0.077 C 
ATOM      3  C1  PXY d   1      -3.599   1.510   4.398  0.00  0.00    -0.082 A 
ATOM      4  C2  PXY d   1      -3.743   1.351   3.092  0.00  0.00     0.003 A 
ATOM      5  C3  PXY d   1      -2.867   0.566   2.388  0.00  0.00     0.003 A 
ATOM      6  C4  PXY d   1      -1.801  -0.019   3.018  0.00  0.00    -0.082 A 
ATOM      7  C5  PXY d   1      -1.641   0.147   4.348  0.00  0.00     0.003 A 
ATOM      8  C6  PXY d   1      -2.565   0.915   5.051  0.00  0.00     0.003 A 
ENDROOT
TORSDOF 0
ENDMDL
