MODEL 1
REMARK minimizedAffinity 8.43127251
REMARK minimizedRMSD -1
REMARK  0 active torsions:
REMARK  status: ('A' for Active; 'I' for Inactive)
ROOT
ATOM      1  C4' PXY d   1      -5.968  -0.734  -3.018  0.00  0.00     0.077 C 
ATOM      2  C1' PXY d   1      -5.598   2.031   2.044  0.00  0.00     0.077 C 
ATOM      3  C1  PXY d   1      -5.688   1.296   0.722  0.00  0.00    -0.082 A 
ATOM      4  C2  PXY d   1      -5.884   1.979  -0.395  0.00  0.00     0.003 A 
ATOM      5  C3  PXY d   1      -6.000   1.327  -1.595  0.00  0.00     0.003 A 
ATOM      6  C4  PXY d   1      -5.861  -0.033  -1.662  0.00  0.00    -0.082 A 
ATOM      7  C5  PXY d   1      -5.650  -0.736  -0.529  0.00  0.00     0.003 A 
ATOM      8  C6  PXY d   1      -5.576  -0.060   0.685  0.00  0.00     0.003 A 
ENDROOT
TORSDOF 0
ENDMDL
