MODEL 1
REMARK minimizedAffinity 12.2664232
REMARK minimizedRMSD -1
REMARK  0 active torsions:
REMARK  status: ('A' for Active; 'I' for Inactive)
ROOT
ATOM      1  C4' PXY d   1       1.346  -3.422   1.141  0.00  0.00     0.077 C 
ATOM      2  C1' PXY d   1       5.999  -5.924  -1.205  0.00  0.00     0.077 C 
ATOM      3  C1  PXY d   1       4.786  -5.257  -0.586  0.00  0.00    -0.082 A 
ATOM      4  C2  PXY d   1       3.770  -5.999  -0.176  0.00  0.00     0.003 A 
ATOM      5  C3  PXY d   1       2.652  -5.411   0.357  0.00  0.00     0.003 A 
ATOM      6  C4  PXY d   1       2.595  -4.052   0.519  0.00  0.00    -0.082 A 
ATOM      7  C5  PXY d   1       3.631  -3.289   0.112  0.00  0.00     0.003 A 
ATOM      8  C6  PXY d   1       4.740  -3.903  -0.463  0.00  0.00     0.003 A 
ENDROOT
TORSDOF 0
ENDMDL
