MODEL 1
REMARK minimizedAffinity 8.77519512
REMARK minimizedRMSD -1
REMARK  0 active torsions:
REMARK  status: ('A' for Active; 'I' for Inactive)
ROOT
ATOM      1  C4' PXY d   1      -4.133   2.821   5.717  0.00  0.00     0.077 C 
ATOM      2  C1' PXY d   1      -0.904  -0.549   2.305  0.00  0.00     0.077 C 
ATOM      3  C1  PXY d   1      -1.747   0.328   3.210  0.00  0.00    -0.082 A 
ATOM      4  C2  PXY d   1      -2.806   0.950   2.718  0.00  0.00     0.003 A 
ATOM      5  C3  PXY d   1      -3.561   1.772   3.514  0.00  0.00     0.003 A 
ATOM      6  C4  PXY d   1      -3.259   1.918   4.842  0.00  0.00    -0.082 A 
ATOM      7  C5  PXY d   1      -2.186   1.279   5.354  0.00  0.00     0.003 A 
ATOM      8  C6  PXY d   1      -1.409   0.481   4.519  0.00  0.00     0.003 A 
ENDROOT
TORSDOF 0
ENDMDL
