MODEL 1
REMARK minimizedAffinity 12.1574135
REMARK minimizedRMSD -1
REMARK  0 active torsions:
REMARK  status: ('A' for Active; 'I' for Inactive)
ROOT
ATOM      1  C4' PXY d   1      -3.539   2.638   4.910  0.00  0.00     0.077 C 
ATOM      2  C1' PXY d   1      -0.355  -1.204   1.992  0.00  0.00     0.077 C 
ATOM      3  C1  PXY d   1      -1.188  -0.204   2.768  0.00  0.00    -0.082 A 
ATOM      4  C2  PXY d   1      -2.094   0.524   2.135  0.00  0.00     0.003 A 
ATOM      5  C3  PXY d   1      -2.834   1.456   2.816  0.00  0.00     0.003 A 
ATOM      6  C4  PXY d   1      -2.682   1.608   4.168  0.00  0.00    -0.082 A 
ATOM      7  C5  PXY d   1      -1.767   0.862   4.823  0.00  0.00     0.003 A 
ATOM      8  C6  PXY d   1      -0.997  -0.049   4.107  0.00  0.00     0.003 A 
ENDROOT
TORSDOF 0
ENDMDL
