MODEL 1
REMARK minimizedAffinity 9.50273514
REMARK minimizedRMSD -1
REMARK  0 active torsions:
REMARK  status: ('A' for Active; 'I' for Inactive)
ROOT
ATOM      1  C4' PXY d   1      -4.590   2.869   5.980  0.00  0.00     0.077 C 
ATOM      2  C1' PXY d   1      -1.301  -0.482   2.608  0.00  0.00     0.077 C 
ATOM      3  C1  PXY d   1      -2.161   0.389   3.503  0.00  0.00    -0.082 A 
ATOM      4  C2  PXY d   1      -3.150   1.093   2.976  0.00  0.00     0.003 A 
ATOM      5  C3  PXY d   1      -3.916   1.911   3.765  0.00  0.00     0.003 A 
ATOM      6  C4  PXY d   1      -3.703   1.968   5.116  0.00  0.00    -0.082 A 
ATOM      7  C5  PXY d   1      -2.703   1.245   5.663  0.00  0.00     0.003 A 
ATOM      8  C6  PXY d   1      -1.910   0.453   4.839  0.00  0.00     0.003 A 
ENDROOT
TORSDOF 0
ENDMDL
