MODEL 1
REMARK minimizedAffinity 12.5882874
REMARK minimizedRMSD -1
REMARK  0 active torsions:
REMARK  status: ('A' for Active; 'I' for Inactive)
ROOT
ATOM      1  C4' PXY d   1      -5.349   2.206   4.780  0.00  0.00     0.077 C 
ATOM      2  C1' PXY d   1      -2.022  -0.923   1.236  0.00  0.00     0.077 C 
ATOM      3  C1  PXY d   1      -2.903  -0.100   2.156  0.00  0.00    -0.082 A 
ATOM      4  C2  PXY d   1      -2.376   0.473   3.225  0.00  0.00     0.003 A 
ATOM      5  C3  PXY d   1      -3.165   1.194   4.085  0.00  0.00     0.003 A 
ATOM      6  C4  PXY d   1      -4.495   1.374   3.818  0.00  0.00    -0.082 A 
ATOM      7  C5  PXY d   1      -5.038   0.801   2.723  0.00  0.00     0.003 A 
ATOM      8  C6  PXY d   1      -4.229   0.039   1.885  0.00  0.00     0.003 A 
ENDROOT
TORSDOF 0
ENDMDL
