MODEL 1
REMARK minimizedAffinity 8.95798588
REMARK minimizedRMSD -1
REMARK  0 active torsions:
REMARK  status: ('A' for Active; 'I' for Inactive)
ROOT
ATOM      1  C4' PXY d   1      -0.559   0.272   4.510  0.00  0.00     0.077 C 
ATOM      2  C1' PXY d   1      -5.999   2.226   4.584  0.00  0.00     0.077 C 
ATOM      3  C1  PXY d   1      -4.570   1.719   4.577  0.00  0.00    -0.082 A 
ATOM      4  C2  PXY d   1      -3.967   1.482   3.424  0.00  0.00     0.003 A 
ATOM      5  C3  PXY d   1      -2.686   0.993   3.399  0.00  0.00     0.003 A 
ATOM      6  C4  PXY d   1      -1.997   0.794   4.566  0.00  0.00    -0.082 A 
ATOM      7  C5  PXY d   1      -2.603   1.043   5.746  0.00  0.00     0.003 A 
ATOM      8  C6  PXY d   1      -3.918   1.500   5.751  0.00  0.00     0.003 A 
ENDROOT
TORSDOF 0
ENDMDL
