MODEL 1
REMARK minimizedAffinity 3.89208698
REMARK minimizedRMSD -1
REMARK  0 active torsions:
REMARK  status: ('A' for Active; 'I' for Inactive)
ROOT
ATOM      1  C4' PXY d   1       1.350  -2.142   3.209  0.00  0.00     0.077 C 
ATOM      2  C1' PXY d   1      -2.506   1.980   4.456  0.00  0.00     0.077 C 
ATOM      3  C1  PXY d   1      -1.501   0.897   4.118  0.00  0.00    -0.082 A 
ATOM      4  C2  PXY d   1      -0.831   0.300   5.090  0.00  0.00     0.003 A 
ATOM      5  C3  PXY d   1       0.105  -0.660   4.800  0.00  0.00     0.003 A 
ATOM      6  C4  PXY d   1       0.318  -1.049   3.505  0.00  0.00    -0.082 A 
ATOM      7  C5  PXY d   1      -0.369  -0.452   2.508  0.00  0.00     0.003 A 
ATOM      8  C6  PXY d   1      -1.285   0.548   2.821  0.00  0.00     0.003 A 
ENDROOT
TORSDOF 0
ENDMDL
