MODEL 1
REMARK minimizedAffinity 10.0802479
REMARK minimizedRMSD -1
REMARK  0 active torsions:
REMARK  status: ('A' for Active; 'I' for Inactive)
ROOT
ATOM      1  C4' PXY d   1      -3.495  -5.234  -4.042  0.00  0.00     0.077 C 
ATOM      2  C1' PXY d   1       2.256  -5.612  -4.482  0.00  0.00     0.077 C 
ATOM      3  C1  PXY d   1       0.749  -5.512  -4.354  0.00  0.00    -0.082 A 
ATOM      4  C2  PXY d   1      -0.023  -6.000  -5.311  0.00  0.00     0.003 A 
ATOM      5  C3  PXY d   1      -1.387  -5.889  -5.227  0.00  0.00     0.003 A 
ATOM      6  C4  PXY d   1      -1.969  -5.321  -4.125  0.00  0.00    -0.082 A 
ATOM      7  C5  PXY d   1      -1.188  -4.831  -3.139  0.00  0.00     0.003 A 
ATOM      8  C6  PXY d   1       0.195  -4.916  -3.263  0.00  0.00     0.003 A 
ENDROOT
TORSDOF 0
ENDMDL
