MODEL 1
REMARK minimizedAffinity 13.8945522
REMARK minimizedRMSD -1
REMARK  0 active torsions:
REMARK  status: ('A' for Active; 'I' for Inactive)
ROOT
ATOM      1  C4' PXY d   1       5.919   4.544   1.414  0.00  0.00     0.077 C 
ATOM      2  C1' PXY d   1       5.999   4.969  -4.350  0.00  0.00     0.077 C 
ATOM      3  C1  PXY d   1       5.983   4.869  -2.838  0.00  0.00    -0.082 A 
ATOM      4  C2  PXY d   1       6.000   3.679  -2.260  0.00  0.00     0.003 A 
ATOM      5  C3  PXY d   1       5.954   3.570  -0.894  0.00  0.00     0.003 A 
ATOM      6  C4  PXY d   1       5.944   4.692  -0.110  0.00  0.00    -0.082 A 
ATOM      7  C5  PXY d   1       5.937   5.911  -0.691  0.00  0.00     0.003 A 
ATOM      8  C6  PXY d   1       5.943   5.999  -2.080  0.00  0.00     0.003 A 
ENDROOT
TORSDOF 0
ENDMDL
