MODEL 1
REMARK minimizedAffinity 18.1321926
REMARK minimizedRMSD -1
REMARK  0 active torsions:
REMARK  status: ('A' for Active; 'I' for Inactive)
ROOT
ATOM      1  C4' PXY d   1      -0.887  -0.476   2.476  0.00  0.00     0.077 C 
ATOM      2  C1' PXY d   1      -4.507   2.690   5.684  0.00  0.00     0.077 C 
ATOM      3  C1  PXY d   1      -3.549   1.859   4.852  0.00  0.00    -0.082 A 
ATOM      4  C2  PXY d   1      -3.640   1.883   3.533  0.00  0.00     0.003 A 
ATOM      5  C3  PXY d   1      -2.802   1.113   2.766  0.00  0.00     0.003 A 
ATOM      6  C4  PXY d   1      -1.827   0.353   3.355  0.00  0.00    -0.082 A 
ATOM      7  C5  PXY d   1      -1.721   0.333   4.701  0.00  0.00     0.003 A 
ATOM      8  C6  PXY d   1      -2.608   1.089   5.462  0.00  0.00     0.003 A 
ENDROOT
TORSDOF 0
ENDMDL
