MODEL 1
REMARK minimizedAffinity 7.03519869
REMARK minimizedRMSD -1
REMARK  0 active torsions:
REMARK  status: ('A' for Active; 'I' for Inactive)
ROOT
ATOM      1  C4' PXY d   1       0.793  -3.923   1.746  0.00  0.00     0.077 C 
ATOM      2  C1' PXY d   1      -0.797   0.750   4.754  0.00  0.00     0.077 C 
ATOM      3  C1  PXY d   1      -0.390  -0.475   3.958  0.00  0.00    -0.082 A 
ATOM      4  C2  PXY d   1       0.418  -1.370   4.501  0.00  0.00     0.003 A 
ATOM      5  C3  PXY d   1       0.821  -2.467   3.784  0.00  0.00     0.003 A 
ATOM      6  C4  PXY d   1       0.349  -2.677   2.516  0.00  0.00    -0.082 A 
ATOM      7  C5  PXY d   1      -0.485  -1.774   1.958  0.00  0.00     0.003 A 
ATOM      8  C6  PXY d   1      -0.849  -0.646   2.688  0.00  0.00     0.003 A 
ENDROOT
TORSDOF 0
ENDMDL
