MODEL 1
REMARK minimizedAffinity 3.74370074
REMARK minimizedRMSD -1
REMARK  0 active torsions:
REMARK  status: ('A' for Active; 'I' for Inactive)
ROOT
ATOM      1  C4' PXY d   1      -4.038  -5.999  -4.322  0.00  0.00     0.077 C 
ATOM      2  C1' PXY d   1       1.559  -5.267  -3.077  0.00  0.00     0.077 C 
ATOM      3  C1  PXY d   1       0.089  -5.461  -3.391  0.00  0.00    -0.082 A 
ATOM      4  C2  PXY d   1      -0.276  -5.850  -4.602  0.00  0.00     0.003 A 
ATOM      5  C3  PXY d   1      -1.603  -6.000  -4.912  0.00  0.00     0.003 A 
ATOM      6  C4  PXY d   1      -2.564  -5.800  -3.958  0.00  0.00    -0.082 A 
ATOM      7  C5  PXY d   1      -2.200  -5.413  -2.717  0.00  0.00     0.003 A 
ATOM      8  C6  PXY d   1      -0.850  -5.226  -2.434  0.00  0.00     0.003 A 
ENDROOT
TORSDOF 0
ENDMDL
