MODEL 1
REMARK minimizedAffinity 8.48192406
REMARK minimizedRMSD -1
REMARK  0 active torsions:
REMARK  status: ('A' for Active; 'I' for Inactive)
ROOT
ATOM      1  C4' PXY d   1      -2.343   1.349   3.916  0.00  0.00     0.077 C 
ATOM      2  C1' PXY d   1       2.253  -1.935   2.688  0.00  0.00     0.077 C 
ATOM      3  C1  PXY d   1       1.046  -1.071   2.997  0.00  0.00    -0.082 A 
ATOM      4  C2  PXY d   1       0.881  -0.592   4.220  0.00  0.00     0.003 A 
ATOM      5  C3  PXY d   1      -0.221   0.165   4.525  0.00  0.00     0.003 A 
ATOM      6  C4  PXY d   1      -1.135   0.479   3.556  0.00  0.00    -0.082 A 
ATOM      7  C5  PXY d   1      -0.968   0.004   2.303  0.00  0.00     0.003 A 
ATOM      8  C6  PXY d   1       0.136  -0.797   2.024  0.00  0.00     0.003 A 
ENDROOT
TORSDOF 0
ENDMDL
