MODEL 1
REMARK minimizedAffinity 13.4832697
REMARK minimizedRMSD -1
REMARK  0 active torsions:
REMARK  status: ('A' for Active; 'I' for Inactive)
ROOT
ATOM      1  C4' PXY d   1      -0.396  -1.135   1.196  0.00  0.00     0.077 C 
ATOM      2  C1' PXY d   1      -3.764   1.590   5.022  0.00  0.00     0.077 C 
ATOM      3  C1  PXY d   1      -2.891   0.868   4.015  0.00  0.00    -0.082 A 
ATOM      4  C2  PXY d   1      -1.578   0.851   4.181  0.00  0.00     0.003 A 
ATOM      5  C3  PXY d   1      -0.771   0.230   3.263  0.00  0.00     0.003 A 
ATOM      6  C4  PXY d   1      -1.317  -0.426   2.192  0.00  0.00    -0.082 A 
ATOM      7  C5  PXY d   1      -2.656  -0.422   2.022  0.00  0.00     0.003 A 
ATOM      8  C6  PXY d   1      -3.455   0.249   2.943  0.00  0.00     0.003 A 
ENDROOT
TORSDOF 0
ENDMDL
