MODEL 1
REMARK minimizedAffinity 13.7628593
REMARK minimizedRMSD -1
REMARK  0 active torsions:
REMARK  status: ('A' for Active; 'I' for Inactive)
ROOT
ATOM      1  C   UNL d   1      -0.066  -0.575   3.355  0.00  0.00     0.023 A 
ATOM      2  C1  UNL d   1      -0.354   0.691   2.845  0.00  0.00     0.003 A 
ATOM      3  C2  UNL d   1      -1.189   0.825   1.734  0.00  0.00     0.048 A 
ATOM      4  C3  UNL d   1      -1.735  -0.312   1.139  0.00  0.00     0.023 A 
ATOM      5  C4  UNL d   1      -1.451  -1.581   1.646  0.00  0.00     0.048 A 
ATOM      6  C5  UNL d   1      -0.614  -1.710   2.756  0.00  0.00     0.003 A 
ATOM      7  I   UNL d   1      -2.979  -0.116  -0.514  0.00  0.00    -0.146 I 
ENDROOT
TORSDOF 0
ENDMDL
