MODEL 1
REMARK minimizedAffinity 0.63080281
REMARK minimizedRMSD -1
REMARK  0 active torsions:
REMARK  status: ('A' for Active; 'I' for Inactive)
ROOT
ATOM      1  C   UNL d   1       2.439  -5.456   1.565  0.00  0.00     0.023 A 
ATOM      2  C1  UNL d   1       3.794  -5.223   1.331  0.00  0.00     0.003 A 
ATOM      3  C2  UNL d   1       4.719  -5.376   2.366  0.00  0.00     0.048 A 
ATOM      4  C3  UNL d   1       4.282  -5.763   3.632  0.00  0.00     0.023 A 
ATOM      5  C4  UNL d   1       2.927  -5.999   3.871  0.00  0.00     0.048 A 
ATOM      6  C5  UNL d   1       2.006  -5.844   2.833  0.00  0.00     0.003 A 
ATOM      7  I   UNL d   1       5.657  -5.992   5.174  0.00  0.00    -0.146 I 
ENDROOT
TORSDOF 0
ENDMDL
