MODEL 1
REMARK minimizedAffinity 10.1492357
REMARK minimizedRMSD -1
REMARK  0 active torsions:
REMARK  status: ('A' for Active; 'I' for Inactive)
ROOT
ATOM      1  C   UNL d   1      -6.000   1.214   1.105  0.00  0.00     0.023 A 
ATOM      2  C1  UNL d   1      -5.630  -0.130   1.156  0.00  0.00     0.003 A 
ATOM      3  C2  UNL d   1      -4.299  -0.481   1.390  0.00  0.00     0.048 A 
ATOM      4  C3  UNL d   1      -3.343   0.518   1.574  0.00  0.00     0.023 A 
ATOM      5  C4  UNL d   1      -3.709   1.864   1.525  0.00  0.00     0.048 A 
ATOM      6  C5  UNL d   1      -5.040   2.210   1.289  0.00  0.00     0.003 A 
ATOM      7  I   UNL d   1      -1.361  -0.002   1.923  0.00  0.00    -0.146 I 
ENDROOT
TORSDOF 0
ENDMDL
