MODEL 1
REMARK minimizedAffinity 5.72971153
REMARK minimizedRMSD -1
REMARK  0 active torsions:
REMARK  status: ('A' for Active; 'I' for Inactive)
ROOT
ATOM      1  C   UNL d   1       5.995  -5.917   4.755  0.00  0.00     0.023 A 
ATOM      2  C1  UNL d   1       5.992  -5.237   5.973  0.00  0.00     0.003 A 
ATOM      3  C2  UNL d   1       5.992  -3.841   5.995  0.00  0.00     0.048 A 
ATOM      4  C3  UNL d   1       5.995  -3.131   4.794  0.00  0.00     0.023 A 
ATOM      5  C4  UNL d   1       5.997  -3.807   3.573  0.00  0.00     0.048 A 
ATOM      6  C5  UNL d   1       5.998  -5.204   3.557  0.00  0.00     0.003 A 
ATOM      7  I   UNL d   1       5.995  -1.053   4.823  0.00  0.00    -0.146 I 
ENDROOT
TORSDOF 0
ENDMDL
