MODEL 1
REMARK minimizedAffinity 6.2476778
REMARK minimizedRMSD -1
REMARK  0 active torsions:
REMARK  status: ('A' for Active; 'I' for Inactive)
ROOT
ATOM      1  C   UNL d   1      -0.882  -0.746  -5.835  0.00  0.00     0.023 A 
ATOM      2  C1  UNL d   1      -2.083  -0.041  -5.763  0.00  0.00     0.003 A 
ATOM      3  C2  UNL d   1      -3.299  -0.725  -5.809  0.00  0.00     0.048 A 
ATOM      4  C3  UNL d   1      -3.307  -2.115  -5.925  0.00  0.00     0.023 A 
ATOM      5  C4  UNL d   1      -2.108  -2.825  -5.996  0.00  0.00     0.048 A 
ATOM      6  C5  UNL d   1      -0.894  -2.136  -5.951  0.00  0.00     0.003 A 
ATOM      7  I   UNL d   1      -5.117  -3.135  -5.993  0.00  0.00    -0.146 I 
ENDROOT
TORSDOF 0
ENDMDL
