MODEL 1
REMARK minimizedAffinity 3.48939919
REMARK minimizedRMSD -1
REMARK  0 active torsions:
REMARK  status: ('A' for Active; 'I' for Inactive)
ROOT
ATOM      1  C   UNL d   1      -4.354   1.741   2.181  0.00  0.00     0.023 A 
ATOM      2  C1  UNL d   1      -3.321   1.024   1.577  0.00  0.00     0.003 A 
ATOM      3  C2  UNL d   1      -3.597  -0.170   0.907  0.00  0.00     0.048 A 
ATOM      4  C3  UNL d   1      -4.909  -0.640   0.845  0.00  0.00     0.023 A 
ATOM      5  C4  UNL d   1      -5.945   0.075   1.447  0.00  0.00     0.048 A 
ATOM      6  C5  UNL d   1      -5.664   1.268   2.116  0.00  0.00     0.003 A 
ATOM      7  I   UNL d   1      -5.322  -2.417  -0.152  0.00  0.00    -0.146 I 
ENDROOT
TORSDOF 0
ENDMDL
