MODEL 1
REMARK minimizedAffinity 5.32738972
REMARK minimizedRMSD -1
REMARK  0 active torsions:
REMARK  status: ('A' for Active; 'I' for Inactive)
ROOT
ATOM      1  C   UNL d   1      -5.841  -3.087  -5.964  0.00  0.00     0.023 A 
ATOM      2  C1  UNL d   1      -4.922  -4.136  -5.990  0.00  0.00     0.003 A 
ATOM      3  C2  UNL d   1      -3.552  -3.866  -5.999  0.00  0.00     0.048 A 
ATOM      4  C3  UNL d   1      -3.108  -2.544  -5.982  0.00  0.00     0.023 A 
ATOM      5  C4  UNL d   1      -4.023  -1.491  -5.955  0.00  0.00     0.048 A 
ATOM      6  C5  UNL d   1      -5.392  -1.766  -5.947  0.00  0.00     0.003 A 
ATOM      7  I   UNL d   1      -1.069  -2.140  -5.996  0.00  0.00    -0.146 I 
ENDROOT
TORSDOF 0
ENDMDL
