MODEL 1
REMARK minimizedAffinity 13.9511137
REMARK minimizedRMSD -1
REMARK  0 active torsions:
REMARK  status: ('A' for Active; 'I' for Inactive)
ROOT
ATOM      1  C   UNL d   1      -5.272  -0.060   0.793  0.00  0.00     0.023 A 
ATOM      2  C1  UNL d   1      -4.345  -1.071   0.541  0.00  0.00     0.003 A 
ATOM      3  C2  UNL d   1      -2.985  -0.847   0.768  0.00  0.00     0.048 A 
ATOM      4  C3  UNL d   1      -2.560   0.391   1.248  0.00  0.00     0.023 A 
ATOM      5  C4  UNL d   1      -3.483   1.406   1.503  0.00  0.00     0.048 A 
ATOM      6  C5  UNL d   1      -4.841   1.177   1.273  0.00  0.00     0.003 A 
ATOM      7  I   UNL d   1      -0.537   0.727   1.587  0.00  0.00    -0.146 I 
ENDROOT
TORSDOF 0
ENDMDL
