MODEL 1
REMARK minimizedAffinity 5.1619854
REMARK minimizedRMSD -1
REMARK  0 active torsions:
REMARK  status: ('A' for Active; 'I' for Inactive)
ROOT
ATOM      1  C   UNL d   1      -1.694  -3.790  -5.983  0.00  0.00     0.023 A 
ATOM      2  C1  UNL d   1      -2.898  -4.494  -5.995  0.00  0.00     0.003 A 
ATOM      3  C2  UNL d   1      -4.112  -3.804  -6.000  0.00  0.00     0.048 A 
ATOM      4  C3  UNL d   1      -4.115  -2.410  -5.993  0.00  0.00     0.023 A 
ATOM      5  C4  UNL d   1      -2.912  -1.701  -5.981  0.00  0.00     0.048 A 
ATOM      6  C5  UNL d   1      -1.701  -2.395  -5.976  0.00  0.00     0.003 A 
ATOM      7  I   UNL d   1      -5.920  -1.381  -5.999  0.00  0.00    -0.146 I 
ENDROOT
TORSDOF 0
ENDMDL
