MODEL 1
REMARK minimizedAffinity -0.817912698
REMARK minimizedRMSD -1
REMARK  0 active torsions:
REMARK  status: ('A' for Active; 'I' for Inactive)
ROOT
ATOM      1  C   UNL d   1      -1.083  -1.673  -5.994  0.00  0.00     0.023 A 
ATOM      2  C1  UNL d   1      -1.519  -2.998  -5.996  0.00  0.00     0.003 A 
ATOM      3  C2  UNL d   1      -2.886  -3.285  -5.997  0.00  0.00     0.048 A 
ATOM      4  C3  UNL d   1      -3.811  -2.242  -5.997  0.00  0.00     0.023 A 
ATOM      5  C4  UNL d   1      -3.380  -0.914  -5.997  0.00  0.00     0.048 A 
ATOM      6  C5  UNL d   1      -2.013  -0.632  -5.995  0.00  0.00     0.003 A 
ATOM      7  I   UNL d   1      -5.846  -2.666  -5.999  0.00  0.00    -0.146 I 
ENDROOT
TORSDOF 0
ENDMDL
