MODEL 1
REMARK minimizedAffinity -1.4795922
REMARK minimizedRMSD -1
REMARK  0 active torsions:
REMARK  status: ('A' for Active; 'I' for Inactive)
ROOT
ATOM      1  C   UNL d   1      -1.244  -2.400  -5.977  0.00  0.00     0.023 A 
ATOM      2  C1  UNL d   1      -2.229  -3.388  -5.996  0.00  0.00     0.003 A 
ATOM      3  C2  UNL d   1      -3.579  -3.029  -5.999  0.00  0.00     0.048 A 
ATOM      4  C3  UNL d   1      -3.936  -1.681  -5.984  0.00  0.00     0.023 A 
ATOM      5  C4  UNL d   1      -2.954  -0.690  -5.965  0.00  0.00     0.048 A 
ATOM      6  C5  UNL d   1      -1.606  -1.053  -5.961  0.00  0.00     0.003 A 
ATOM      7  I   UNL d   1      -5.944  -1.145  -5.989  0.00  0.00    -0.146 I 
ENDROOT
TORSDOF 0
ENDMDL
