MODEL 1
REMARK minimizedAffinity 6.89263868
REMARK minimizedRMSD -1
REMARK  0 active torsions:
REMARK  status: ('A' for Active; 'I' for Inactive)
ROOT
ATOM      1  C   UNL d   1       2.148   0.106  -2.403  0.00  0.00     0.023 A 
ATOM      2  C1  UNL d   1       2.513   1.346  -1.878  0.00  0.00     0.003 A 
ATOM      3  C2  UNL d   1       3.186   2.273  -2.676  0.00  0.00     0.048 A 
ATOM      4  C3  UNL d   1       3.492   1.954  -3.999  0.00  0.00     0.023 A 
ATOM      5  C4  UNL d   1       3.128   0.715  -4.529  0.00  0.00     0.048 A 
ATOM      6  C5  UNL d   1       2.455  -0.209  -3.727  0.00  0.00     0.003 A 
ATOM      7  I   UNL d   1       4.494   3.332  -5.188  0.00  0.00    -0.146 I 
ENDROOT
TORSDOF 0
ENDMDL
