MODEL 1
REMARK minimizedAffinity 5.96621037
REMARK minimizedRMSD -1
REMARK  0 active torsions:
REMARK  status: ('A' for Active; 'I' for Inactive)
ROOT
ATOM      1  C   UNL d   1      -4.502  -0.079   6.000  0.00  0.00     0.023 A 
ATOM      2  C1  UNL d   1      -3.677  -0.951   5.288  0.00  0.00     0.003 A 
ATOM      3  C2  UNL d   1      -3.277  -0.632   3.989  0.00  0.00     0.048 A 
ATOM      4  C3  UNL d   1      -3.704   0.561   3.408  0.00  0.00     0.023 A 
ATOM      5  C4  UNL d   1      -4.528   1.437   4.116  0.00  0.00     0.048 A 
ATOM      6  C5  UNL d   1      -4.927   1.114   5.414  0.00  0.00     0.003 A 
ATOM      7  I   UNL d   1      -3.110   1.039   1.474  0.00  0.00    -0.146 I 
ENDROOT
TORSDOF 0
ENDMDL
