MODEL 1
REMARK minimizedAffinity 5.36394739
REMARK minimizedRMSD -1
REMARK  0 active torsions:
REMARK  status: ('A' for Active; 'I' for Inactive)
ROOT
ATOM      1  C   UNL d   1      -1.161  -1.878  -5.902  0.00  0.00     0.023 A 
ATOM      2  C1  UNL d   1      -1.997  -2.991  -5.987  0.00  0.00     0.003 A 
ATOM      3  C2  UNL d   1      -3.384  -2.825  -5.991  0.00  0.00     0.048 A 
ATOM      4  C3  UNL d   1      -3.927  -1.544  -5.910  0.00  0.00     0.023 A 
ATOM      5  C4  UNL d   1      -3.094  -0.427  -5.826  0.00  0.00     0.048 A 
ATOM      6  C5  UNL d   1      -1.709  -0.597  -5.822  0.00  0.00     0.003 A 
ATOM      7  I   UNL d   1      -5.991  -1.295  -5.915  0.00  0.00    -0.146 I 
ENDROOT
TORSDOF 0
ENDMDL
