MODEL 1
REMARK minimizedAffinity 1.27381921
REMARK minimizedRMSD -1
REMARK  0 active torsions:
REMARK  status: ('A' for Active; 'I' for Inactive)
ROOT
ATOM      1  C   UNL d   1      -5.042   1.902   3.184  0.00  0.00     0.023 A 
ATOM      2  C1  UNL d   1      -5.850   1.720   4.307  0.00  0.00     0.003 A 
ATOM      3  C2  UNL d   1      -5.711   0.571   5.088  0.00  0.00     0.048 A 
ATOM      4  C3  UNL d   1      -4.762  -0.391   4.742  0.00  0.00     0.023 A 
ATOM      5  C4  UNL d   1      -3.952  -0.212   3.620  0.00  0.00     0.048 A 
ATOM      6  C5  UNL d   1      -4.095   0.938   2.841  0.00  0.00     0.003 A 
ATOM      7  I   UNL d   1      -4.554  -2.101   5.904  0.00  0.00    -0.146 I 
ENDROOT
TORSDOF 0
ENDMDL
