MODEL 1
REMARK minimizedAffinity 3.34624124
REMARK minimizedRMSD -1
REMARK  0 active torsions:
REMARK  status: ('A' for Active; 'I' for Inactive)
ROOT
ATOM      1  C   UNL d   1      -2.264  -4.452  -5.955  0.00  0.00     0.023 A 
ATOM      2  C1  UNL d   1      -2.025  -3.078  -5.928  0.00  0.00     0.003 A 
ATOM      3  C2  UNL d   1      -3.096  -2.182  -5.920  0.00  0.00     0.048 A 
ATOM      4  C3  UNL d   1      -4.404  -2.667  -5.937  0.00  0.00     0.023 A 
ATOM      5  C4  UNL d   1      -4.647  -4.041  -5.963  0.00  0.00     0.048 A 
ATOM      6  C5  UNL d   1      -3.573  -4.933  -5.972  0.00  0.00     0.003 A 
ATOM      7  I   UNL d   1      -5.999  -1.335  -5.925  0.00  0.00    -0.146 I 
ENDROOT
TORSDOF 0
ENDMDL
