MODEL 1
REMARK minimizedAffinity 7.05953074
REMARK minimizedRMSD -1
REMARK  0 active torsions:
REMARK  status: ('A' for Active; 'I' for Inactive)
ROOT
ATOM      1  C   UNL d   1       0.783  -5.232   2.138  0.00  0.00     0.023 A 
ATOM      2  C1  UNL d   1       1.816  -4.902   1.260  0.00  0.00     0.003 A 
ATOM      3  C2  UNL d   1       3.144  -5.119   1.631  0.00  0.00     0.048 A 
ATOM      4  C3  UNL d   1       3.433  -5.667   2.881  0.00  0.00     0.023 A 
ATOM      5  C4  UNL d   1       2.402  -5.999   3.762  0.00  0.00     0.048 A 
ATOM      6  C5  UNL d   1       1.075  -5.780   3.387  0.00  0.00     0.003 A 
ATOM      7  I   UNL d   1       5.409  -5.991   3.436  0.00  0.00    -0.146 I 
ENDROOT
TORSDOF 0
ENDMDL
