MODEL 1
REMARK minimizedAffinity -3.86704683
REMARK minimizedRMSD -1
REMARK  1 active torsions:
REMARK  status: ('A' for Active; 'I' for Inactive)
REMARK    1  A    between atoms: C1_2  and  C2_3 
ROOT
ATOM      1  C2  UNL d   1      -0.441   1.383   0.317  0.00  0.00    -0.077 A 
ATOM      2  C3  UNL d   1      -1.532   2.258   0.208  0.00  0.00     0.002 A 
ATOM      3  C4  UNL d   1      -2.835   1.787   0.383  0.00  0.00     0.002 A 
ATOM      4  C5  UNL d   1      -3.059   0.442   0.671  0.00  0.00    -0.004 A 
ATOM      5  C6  UNL d   1      -1.981  -0.435   0.780  0.00  0.00     0.002 A 
ATOM      6  C7  UNL d   1      -0.678   0.033   0.605  0.00  0.00     0.002 A 
ENDROOT
BRANCH   1   7
ATOM      7  C1  UNL d   1       0.967   1.899   0.178  0.00  0.00     0.055 C 
ATOM      8  C   UNL d   1       1.857   1.390   1.303  0.00  0.00     0.019 C 
ENDBRANCH   1   7
TORSDOF 1
ENDMDL
