MODEL 1
REMARK minimizedAffinity -2.93361497
REMARK minimizedRMSD -1
REMARK  1 active torsions:
REMARK  status: ('A' for Active; 'I' for Inactive)
REMARK    1  A    between atoms: C1_2  and  C2_3 
ROOT
ATOM      1  C2  UNL d   1      -2.489   1.735   0.081  0.00  0.00    -0.077 A 
ATOM      2  C3  UNL d   1      -2.212   0.801   1.090  0.00  0.00     0.002 A 
ATOM      3  C4  UNL d   1      -0.893   0.471   1.404  0.00  0.00     0.002 A 
ATOM      4  C5  UNL d   1       0.160   1.071   0.717  0.00  0.00    -0.004 A 
ATOM      5  C6  UNL d   1      -0.104   1.999  -0.289  0.00  0.00     0.002 A 
ATOM      6  C7  UNL d   1      -1.423   2.330  -0.605  0.00  0.00     0.002 A 
ENDROOT
BRANCH   1   7
ATOM      7  C1  UNL d   1      -3.910   2.130  -0.225  0.00  0.00     0.055 C 
ATOM      8  C   UNL d   1      -4.892   1.418   0.693  0.00  0.00     0.019 C 
ENDBRANCH   1   7
TORSDOF 1
ENDMDL
