MODEL 1
REMARK minimizedAffinity -1.9460187
REMARK minimizedRMSD -1
REMARK  1 active torsions:
REMARK  status: ('A' for Active; 'I' for Inactive)
REMARK    1  A    between atoms: C1_2  and  C2_3 
ROOT
ATOM      1  C2  UNL d   1      -2.181   0.536   1.131  0.00  0.00    -0.077 A 
ATOM      2  C3  UNL d   1      -2.936   1.450   0.383  0.00  0.00     0.002 A 
ATOM      3  C4  UNL d   1      -2.302   2.440  -0.371  0.00  0.00     0.002 A 
ATOM      4  C5  UNL d   1      -0.911   2.521  -0.388  0.00  0.00    -0.004 A 
ATOM      5  C6  UNL d   1      -0.151   1.618   0.354  0.00  0.00     0.002 A 
ATOM      6  C7  UNL d   1      -0.783   0.629   1.110  0.00  0.00     0.002 A 
ENDROOT
BRANCH   1   7
ATOM      7  C1  UNL d   1      -2.861  -0.562   1.907  0.00  0.00     0.055 C 
ATOM      8  C   UNL d   1      -2.514  -0.491   3.387  0.00  0.00     0.019 C 
ENDBRANCH   1   7
TORSDOF 1
ENDMDL
