MODEL 1
REMARK minimizedAffinity 1.39256549
REMARK minimizedRMSD -1
REMARK  1 active torsions:
REMARK  status: ('A' for Active; 'I' for Inactive)
REMARK    1  A    between atoms: C1_2  and  C2_3 
ROOT
ATOM      1  C2  UNL d   1      -2.293   1.742  -0.098  0.00  0.00    -0.077 A 
ATOM      2  C3  UNL d   1      -2.297   0.430   0.396  0.00  0.00     0.002 A 
ATOM      3  C4  UNL d   1      -1.148  -0.109   0.979  0.00  0.00     0.002 A 
ATOM      4  C5  UNL d   1       0.010   0.658   1.077  0.00  0.00    -0.004 A 
ATOM      5  C6  UNL d   1       0.025   1.964   0.586  0.00  0.00     0.002 A 
ATOM      6  C7  UNL d   1      -1.122   2.503   0.003  0.00  0.00     0.002 A 
ENDROOT
BRANCH   1   7
ATOM      7  C1  UNL d   1      -3.546   2.342  -0.682  0.00  0.00     0.055 C 
ATOM      8  C   UNL d   1      -4.773   1.962   0.133  0.00  0.00     0.019 C 
ENDBRANCH   1   7
TORSDOF 1
ENDMDL
