MODEL 1
REMARK minimizedAffinity 0.125989422
REMARK minimizedRMSD -1
REMARK  1 active torsions:
REMARK  status: ('A' for Active; 'I' for Inactive)
REMARK    1  A    between atoms: C1_2  and  C2_3 
ROOT
ATOM      1  C2  UNL d   1       1.026   0.663  -0.376  0.00  0.00    -0.077 A 
ATOM      2  C3  UNL d   1       0.537   1.442  -1.434  0.00  0.00     0.002 A 
ATOM      3  C4  UNL d   1      -0.821   1.759  -1.509  0.00  0.00     0.002 A 
ATOM      4  C5  UNL d   1      -1.699   1.305  -0.527  0.00  0.00    -0.004 A 
ATOM      5  C6  UNL d   1      -1.223   0.528   0.528  0.00  0.00     0.002 A 
ATOM      6  C7  UNL d   1       0.133   0.209   0.604  0.00  0.00     0.002 A 
ENDROOT
BRANCH   1   7
ATOM      7  C1  UNL d   1       2.498   0.361  -0.267  0.00  0.00     0.055 C 
ATOM      8  C   UNL d   1       3.225   0.676  -1.565  0.00  0.00     0.019 C 
ENDBRANCH   1   7
TORSDOF 1
ENDMDL
