MODEL 1
REMARK minimizedAffinity -2.73893547
REMARK minimizedRMSD -1
REMARK  1 active torsions:
REMARK  status: ('A' for Active; 'I' for Inactive)
REMARK    1  A    between atoms: C1_2  and  C2_3 
ROOT
ATOM      1  C2  UNL d   1       1.013   1.674   0.782  0.00  0.00    -0.077 A 
ATOM      2  C3  UNL d   1       1.550   1.956  -0.482  0.00  0.00     0.002 A 
ATOM      3  C4  UNL d   1       2.886   1.664  -0.763  0.00  0.00     0.002 A 
ATOM      4  C5  UNL d   1       3.694   1.084   0.212  0.00  0.00    -0.004 A 
ATOM      5  C6  UNL d   1       3.170   0.801   1.473  0.00  0.00     0.002 A 
ATOM      6  C7  UNL d   1       1.836   1.093   1.756  0.00  0.00     0.002 A 
ENDROOT
BRANCH   1   7
ATOM      7  C1  UNL d   1      -0.440   1.943   1.072  0.00  0.00     0.055 C 
ATOM      8  C   UNL d   1      -1.257   2.008  -0.210  0.00  0.00     0.019 C 
ENDBRANCH   1   7
TORSDOF 1
ENDMDL
