MODEL 1
REMARK minimizedAffinity 1.55373824
REMARK minimizedRMSD -1
REMARK  1 active torsions:
REMARK  status: ('A' for Active; 'I' for Inactive)
REMARK    1  A    between atoms: C1_2  and  C2_3 
ROOT
ATOM      1  C2  UNL d   1      -1.574   1.447   0.864  0.00  0.00    -0.077 A 
ATOM      2  C3  UNL d   1      -2.146   0.287   1.404  0.00  0.00     0.002 A 
ATOM      3  C4  UNL d   1      -3.500   0.010   1.207  0.00  0.00     0.002 A 
ATOM      4  C5  UNL d   1      -4.292   0.886   0.468  0.00  0.00    -0.004 A 
ATOM      5  C6  UNL d   1      -3.733   2.045  -0.071  0.00  0.00     0.002 A 
ATOM      6  C7  UNL d   1      -2.379   2.323   0.126  0.00  0.00     0.002 A 
ENDROOT
BRANCH   1   7
ATOM      7  C1  UNL d   1      -0.102   1.723   1.034  0.00  0.00     0.055 C 
ATOM      8  C   UNL d   1       0.584   1.914  -0.311  0.00  0.00     0.019 C 
ENDBRANCH   1   7
TORSDOF 1
ENDMDL
