MODEL 1
REMARK minimizedAffinity -1.05381465
REMARK minimizedRMSD -1
REMARK  1 active torsions:
REMARK  status: ('A' for Active; 'I' for Inactive)
REMARK    1  A    between atoms: C1_2  and  C2_3 
ROOT
ATOM      1  C2  UNL d   1       0.004   1.497   0.872  0.00  0.00    -0.077 A 
ATOM      2  C3  UNL d   1      -0.612   2.660   0.391  0.00  0.00     0.002 A 
ATOM      3  C4  UNL d   1      -1.981   2.673   0.116  0.00  0.00     0.002 A 
ATOM      4  C5  UNL d   1      -2.745   1.527   0.322  0.00  0.00    -0.004 A 
ATOM      5  C6  UNL d   1      -2.142   0.364   0.798  0.00  0.00     0.002 A 
ATOM      6  C7  UNL d   1      -0.774   0.349   1.073  0.00  0.00     0.002 A 
ENDROOT
BRANCH   1   7
ATOM      7  C1  UNL d   1       1.470   1.495   1.217  0.00  0.00     0.055 C 
ATOM      8  C   UNL d   1       2.314   1.014   0.045  0.00  0.00     0.019 C 
ENDBRANCH   1   7
TORSDOF 1
ENDMDL
