MODEL 1
REMARK minimizedAffinity 6.8582778
REMARK minimizedRMSD -1
REMARK  1 active torsions:
REMARK  status: ('A' for Active; 'I' for Inactive)
REMARK    1  A    between atoms: C1_2  and  C2_3 
ROOT
ATOM      1  C2  UNL d   1      -2.200   1.007   0.995  0.00  0.00    -0.077 A 
ATOM      2  C3  UNL d   1      -2.392   1.817  -0.134  0.00  0.00     0.002 A 
ATOM      3  C4  UNL d   1      -1.378   2.672  -0.570  0.00  0.00     0.002 A 
ATOM      4  C5  UNL d   1      -0.165   2.724   0.114  0.00  0.00    -0.004 A 
ATOM      5  C6  UNL d   1       0.035   1.924   1.239  0.00  0.00     0.002 A 
ATOM      6  C7  UNL d   1      -0.978   1.069   1.677  0.00  0.00     0.002 A 
ENDROOT
BRANCH   1   7
ATOM      7  C1  UNL d   1      -3.273   0.048   1.438  0.00  0.00     0.055 C 
ATOM      8  C   UNL d   1      -2.954  -0.550   2.800  0.00  0.00     0.019 C 
ENDBRANCH   1   7
TORSDOF 1
ENDMDL
