MODEL 1
REMARK minimizedAffinity -0.338435262
REMARK minimizedRMSD -1
REMARK  1 active torsions:
REMARK  status: ('A' for Active; 'I' for Inactive)
REMARK    1  A    between atoms: C1_2  and  C2_3 
ROOT
ATOM      1  C2  UNL d   1      -0.723   0.974   0.284  0.00  0.00    -0.077 A 
ATOM      2  C3  UNL d   1      -1.520   2.028  -0.184  0.00  0.00     0.002 A 
ATOM      3  C4  UNL d   1      -2.906   1.988  -0.026  0.00  0.00     0.002 A 
ATOM      4  C5  UNL d   1      -3.507   0.900   0.603  0.00  0.00    -0.004 A 
ATOM      5  C6  UNL d   1      -2.723  -0.154   1.070  0.00  0.00     0.002 A 
ATOM      6  C7  UNL d   1      -1.337  -0.117   0.912  0.00  0.00     0.002 A 
ENDROOT
BRANCH   1   7
ATOM      7  C1  UNL d   1       0.777   1.037   0.158  0.00  0.00     0.055 C 
ATOM      8  C   UNL d   1       1.459   0.635   1.458  0.00  0.00     0.019 C 
ENDBRANCH   1   7
TORSDOF 1
ENDMDL
