MODEL 1
REMARK minimizedAffinity 3.45466566
REMARK minimizedRMSD -1
REMARK  1 active torsions:
REMARK  status: ('A' for Active; 'I' for Inactive)
REMARK    1  A    between atoms: C1_2  and  C2_3 
ROOT
ATOM      1  C2  UNL d   1      -0.034   1.405   0.395  0.00  0.00    -0.077 A 
ATOM      2  C3  UNL d   1       1.278   0.966   0.170  0.00  0.00     0.002 A 
ATOM      3  C4  UNL d   1       2.325   1.427   0.971  0.00  0.00     0.002 A 
ATOM      4  C5  UNL d   1       2.069   2.324   2.006  0.00  0.00    -0.004 A 
ATOM      5  C6  UNL d   1       0.768   2.768   2.237  0.00  0.00     0.002 A 
ATOM      6  C7  UNL d   1      -0.279   2.310   1.436  0.00  0.00     0.002 A 
ENDROOT
BRANCH   1   7
ATOM      7  C1  UNL d   1      -1.171   0.872  -0.437  0.00  0.00     0.055 C 
ATOM      8  C   UNL d   1      -1.926  -0.227   0.297  0.00  0.00     0.019 C 
ENDBRANCH   1   7
TORSDOF 1
ENDMDL
