MODEL 1
REMARK minimizedAffinity 2.96774983
REMARK minimizedRMSD -1
REMARK  1 active torsions:
REMARK  status: ('A' for Active; 'I' for Inactive)
REMARK    1  A    between atoms: C1_2  and  C2_3 
ROOT
ATOM      1  C2  UNL d   1       1.534   1.312  -0.006  0.00  0.00    -0.077 A 
ATOM      2  C3  UNL d   1       0.134   1.281  -0.069  0.00  0.00     0.002 A 
ATOM      3  C4  UNL d   1      -0.632   1.869   0.940  0.00  0.00     0.002 A 
ATOM      4  C5  UNL d   1      -0.007   2.495   2.016  0.00  0.00    -0.004 A 
ATOM      5  C6  UNL d   1       1.385   2.530   2.089  0.00  0.00     0.002 A 
ATOM      6  C7  UNL d   1       2.152   1.942   1.082  0.00  0.00     0.002 A 
ENDROOT
BRANCH   1   7
ATOM      7  C1  UNL d   1       2.362   0.722  -1.117  0.00  0.00     0.055 C 
ATOM      8  C   UNL d   1       2.075   1.407  -2.445  0.00  0.00     0.019 C 
ENDBRANCH   1   7
TORSDOF 1
ENDMDL
