MODEL 1
REMARK minimizedAffinity 6.48900318
REMARK minimizedRMSD -1
REMARK  1 active torsions:
REMARK  status: ('A' for Active; 'I' for Inactive)
REMARK    1  A    between atoms: C1_2  and  C2_3 
ROOT
ATOM      1  C2  UNL d   1       0.870   1.748   0.767  0.00  0.00    -0.077 A 
ATOM      2  C3  UNL d   1       1.873   2.243   1.612  0.00  0.00     0.002 A 
ATOM      3  C4  UNL d   1       1.540   3.004   2.734  0.00  0.00     0.002 A 
ATOM      4  C5  UNL d   1       0.204   3.274   3.023  0.00  0.00    -0.004 A 
ATOM      5  C6  UNL d   1      -0.801   2.788   2.187  0.00  0.00     0.002 A 
ATOM      6  C7  UNL d   1      -0.470   2.028   1.065  0.00  0.00     0.002 A 
ENDROOT
BRANCH   1   7
ATOM      7  C1  UNL d   1       1.225   0.885  -0.416  0.00  0.00     0.055 C 
ATOM      8  C   UNL d   1       1.507   1.728  -1.651  0.00  0.00     0.019 C 
ENDBRANCH   1   7
TORSDOF 1
ENDMDL
