MODEL 1
REMARK minimizedAffinity 3.61509895
REMARK minimizedRMSD -1
REMARK  0 active torsions:
REMARK  status: ('A' for Active; 'I' for Inactive)
ROOT
ATOM      1  O1  BZF d   1       4.719   1.186   0.718  0.00  0.00    -0.204 OA
ATOM      2  C2  BZF d   1       4.742   0.471  -0.464  0.00  0.00     0.174 A 
ATOM      3  C3  BZF d   1       3.494   0.307  -0.948  0.00  0.00    -0.012 A 
ATOM      4  C3A BZF d   1       2.646   1.040  -0.058  0.00  0.00    -0.107 A 
ATOM      5  C4  BZF d   1       1.300   1.269  -0.020  0.00  0.00     0.055 A 
ATOM      6  C5  BZF d   1       0.779   1.966   1.024  0.00  0.00    -0.016 A 
ATOM      7  C6  BZF d   1       1.572   2.443   2.047  0.00  0.00     0.022 A 
ATOM      8  C7  BZF d   1       2.913   2.245   2.050  0.00  0.00     0.029 A 
ATOM      9  C7A BZF d   1       3.447   1.570   0.980  0.00  0.00     0.058 A 
ENDROOT
TORSDOF 0
ENDMDL
