MODEL 1
REMARK minimizedAffinity 21.7009182
REMARK minimizedRMSD -1
REMARK  0 active torsions:
REMARK  status: ('A' for Active; 'I' for Inactive)
ROOT
ATOM      1  O1  BZF d   1      -4.160   4.081  -4.552  0.00  0.00    -0.204 OA
ATOM      2  C2  BZF d   1      -5.112   4.060  -3.551  0.00  0.00     0.174 A 
ATOM      3  C3  BZF d   1      -5.348   2.797  -3.141  0.00  0.00    -0.012 A 
ATOM      4  C3A BZF d   1      -4.422   1.986  -3.870  0.00  0.00    -0.107 A 
ATOM      5  C4  BZF d   1      -4.158   0.646  -3.886  0.00  0.00     0.055 A 
ATOM      6  C5  BZF d   1      -3.242   0.164  -4.766  0.00  0.00    -0.016 A 
ATOM      7  C6  BZF d   1      -2.574   0.991  -5.646  0.00  0.00     0.022 A 
ATOM      8  C7  BZF d   1      -2.798   2.328  -5.663  0.00  0.00     0.029 A 
ATOM      9  C7A BZF d   1      -3.700   2.822  -4.752  0.00  0.00     0.058 A 
ENDROOT
TORSDOF 0
ENDMDL
