MODEL 1
REMARK minimizedAffinity 8.49688244
REMARK minimizedRMSD -1
REMARK  0 active torsions:
REMARK  status: ('A' for Active; 'I' for Inactive)
ROOT
ATOM      1  O1  BZF d   1      -0.644  -3.338   3.608  0.00  0.00    -0.204 OA
ATOM      2  C2  BZF d   1      -0.249  -4.160   4.645  0.00  0.00     0.174 A 
ATOM      3  C3  BZF d   1       0.703  -3.565   5.392  0.00  0.00    -0.012 A 
ATOM      4  C3A BZF d   1       0.850  -2.253   4.839  0.00  0.00    -0.107 A 
ATOM      5  C4  BZF d   1       1.633  -1.181   5.159  0.00  0.00     0.055 A 
ATOM      6  C5  BZF d   1       1.589  -0.073   4.374  0.00  0.00    -0.016 A 
ATOM      7  C6  BZF d   1       0.778  -0.004   3.260  0.00  0.00     0.022 A 
ATOM      8  C7  BZF d   1      -0.020  -1.040   2.905  0.00  0.00     0.029 A 
ATOM      9  C7A BZF d   1      -0.002  -2.149   3.715  0.00  0.00     0.058 A 
ENDROOT
TORSDOF 0
ENDMDL
