MODEL 1
REMARK minimizedAffinity 4.83526707
REMARK minimizedRMSD -1
REMARK  0 active torsions:
REMARK  status: ('A' for Active; 'I' for Inactive)
ROOT
ATOM      1  O1  BZF d   1       4.579   0.455  -1.889  0.00  0.00    -0.204 OA
ATOM      2  C2  BZF d   1       4.177   1.050  -0.709  0.00  0.00     0.174 A 
ATOM      3  C3  BZF d   1       3.472   0.183   0.047  0.00  0.00    -0.012 A 
ATOM      4  C3A BZF d   1       3.510  -1.056  -0.666  0.00  0.00    -0.107 A 
ATOM      5  C4  BZF d   1       3.004  -2.299  -0.416  0.00  0.00     0.055 A 
ATOM      6  C5  BZF d   1       3.155  -3.275  -1.350  0.00  0.00    -0.016 A 
ATOM      7  C6  BZF d   1       3.803  -3.041  -2.545  0.00  0.00     0.022 A 
ATOM      8  C7  BZF d   1       4.327  -1.826  -2.836  0.00  0.00     0.029 A 
ATOM      9  C7A BZF d   1       4.204  -0.847  -1.880  0.00  0.00     0.058 A 
ENDROOT
TORSDOF 0
ENDMDL
