MODEL 1
REMARK minimizedAffinity 14.1337509
REMARK minimizedRMSD -1
REMARK  0 active torsions:
REMARK  status: ('A' for Active; 'I' for Inactive)
ROOT
ATOM      1  O1  BZF d   1      -0.147  -3.925   1.981  0.00  0.00    -0.204 OA
ATOM      2  C2  BZF d   1       0.392  -3.177   3.009  0.00  0.00     0.174 A 
ATOM      3  C3  BZF d   1       1.549  -2.600   2.624  0.00  0.00    -0.012 A 
ATOM      4  C3A BZF d   1       1.698  -2.940   1.242  0.00  0.00    -0.107 A 
ATOM      5  C4  BZF d   1       2.642  -2.647   0.300  0.00  0.00     0.055 A 
ATOM      6  C5  BZF d   1       2.530  -3.194  -0.939  0.00  0.00    -0.016 A 
ATOM      7  C6  BZF d   1       1.492  -4.041  -1.268  0.00  0.00     0.022 A 
ATOM      8  C7  BZF d   1       0.529  -4.357  -0.368  0.00  0.00     0.029 A 
ATOM      9  C7A BZF d   1       0.621  -3.780   0.875  0.00  0.00     0.058 A 
ENDROOT
TORSDOF 0
ENDMDL
