MODEL 1
REMARK minimizedAffinity 12.7553453
REMARK minimizedRMSD -1
REMARK  0 active torsions:
REMARK  status: ('A' for Active; 'I' for Inactive)
ROOT
ATOM      1  O1  BZF d   1       2.591  -0.030  -1.241  0.00  0.00    -0.204 OA
ATOM      2  C2  BZF d   1       3.692  -0.447  -0.517  0.00  0.00     0.174 A 
ATOM      3  C3  BZF d   1       3.506  -0.231   0.802  0.00  0.00    -0.012 A 
ATOM      4  C3A BZF d   1       2.172   0.272   0.917  0.00  0.00    -0.107 A 
ATOM      5  C4  BZF d   1       1.402   0.658   1.977  0.00  0.00     0.055 A 
ATOM      6  C5  BZF d   1       0.166   1.172   1.743  0.00  0.00    -0.016 A 
ATOM      7  C6  BZF d   1      -0.330   1.318   0.464  0.00  0.00     0.022 A 
ATOM      8  C7  BZF d   1       0.395   0.944  -0.619  0.00  0.00     0.029 A 
ATOM      9  C7A BZF d   1       1.632   0.395  -0.384  0.00  0.00     0.058 A 
ENDROOT
TORSDOF 0
ENDMDL
