MODEL 1
REMARK minimizedAffinity 13.2052641
REMARK minimizedRMSD -1
REMARK  0 active torsions:
REMARK  status: ('A' for Active; 'I' for Inactive)
ROOT
ATOM      1  O1  BZF d   1       4.297   0.293  -2.269  0.00  0.00    -0.204 OA
ATOM      2  C2  BZF d   1       4.280   1.040  -1.107  0.00  0.00     0.174 A 
ATOM      3  C3  BZF d   1       3.591   0.403  -0.138  0.00  0.00    -0.012 A 
ATOM      4  C3A BZF d   1       3.228  -0.860  -0.704  0.00  0.00    -0.107 A 
ATOM      5  C4  BZF d   1       2.545  -1.942  -0.225  0.00  0.00     0.055 A 
ATOM      6  C5  BZF d   1       2.298  -2.988  -1.057  0.00  0.00    -0.016 A 
ATOM      7  C6  BZF d   1       2.713  -2.983  -2.372  0.00  0.00     0.022 A 
ATOM      8  C7  BZF d   1       3.397  -1.935  -2.891  0.00  0.00     0.029 A 
ATOM      9  C7A BZF d   1       3.678  -0.891  -2.044  0.00  0.00     0.058 A 
ENDROOT
TORSDOF 0
ENDMDL
