MODEL 1
REMARK minimizedAffinity -2.08752179
REMARK minimizedRMSD -1
REMARK  0 active torsions:
REMARK  status: ('A' for Active; 'I' for Inactive)
ROOT
ATOM      1  O1  BZF d   1       5.974   3.756   4.144  0.00  0.00    -0.204 OA
ATOM      2  C2  BZF d   1       5.928   4.936   4.862  0.00  0.00     0.174 A 
ATOM      3  C3  BZF d   1       5.901   5.999   4.033  0.00  0.00    -0.012 A 
ATOM      4  C3A BZF d   1       5.838   5.447   2.715  0.00  0.00    -0.107 A 
ATOM      5  C4  BZF d   1       5.774   6.000   1.467  0.00  0.00     0.055 A 
ATOM      6  C5  BZF d   1       5.798   5.184   0.381  0.00  0.00    -0.016 A 
ATOM      7  C6  BZF d   1       5.892   3.813   0.505  0.00  0.00     0.022 A 
ATOM      8  C7  BZF d   1       5.954   3.218   1.721  0.00  0.00     0.029 A 
ATOM      9  C7A BZF d   1       5.896   4.038   2.822  0.00  0.00     0.058 A 
ENDROOT
TORSDOF 0
ENDMDL
