MODEL 1
REMARK minimizedAffinity 10.3838215
REMARK minimizedRMSD -1
REMARK  1 active torsions:
REMARK  status: ('A' for Active; 'I' for Inactive)
REMARK    1  A    between atoms: N_2  and  C1_3 
ROOT
ATOM      1  C1  UNL d   1      -0.377   2.041  -0.127  0.00  0.00     0.143 A 
ATOM      2  C2  UNL d   1      -0.932   2.600  -1.283  0.00  0.00    -0.057 A 
ATOM      3  C3  UNL d   1      -0.317   2.445  -2.532  0.00  0.00     0.033 A 
ATOM      4  C4  UNL d   1       0.883   1.751  -2.642  0.00  0.00    -0.042 A 
ATOM      5  C5  UNL d   1       1.466   1.208  -1.502  0.00  0.00     0.033 A 
ATOM      6  C6  UNL d   1       0.844   1.360  -0.259  0.00  0.00    -0.057 A 
ENDROOT
BRANCH   1   7
ATOM      7  N   UNL d   1      -0.887   2.243   1.157  0.00  0.00    -0.732 N 
ATOM      8  C   UNL d   1      -0.042   2.081   2.321  0.00  0.00     0.284 C 
ATOM      9  H3  UNL d   1      -1.511   3.046   1.205  0.00  0.00     0.395 HD
ENDBRANCH   1   7
TORSDOF 1
ENDMDL
