MODEL 1
REMARK minimizedAffinity 6.44411898
REMARK minimizedRMSD -1
REMARK  1 active torsions:
REMARK  status: ('A' for Active; 'I' for Inactive)
REMARK    1  A    between atoms: N_2  and  C1_3 
ROOT
ATOM      1  C1  UNL d   1      -2.962   3.563  -4.841  0.00  0.00     0.143 A 
ATOM      2  C2  UNL d   1      -3.583   4.807  -5.001  0.00  0.00    -0.057 A 
ATOM      3  C3  UNL d   1      -2.862   6.000  -4.878  0.00  0.00     0.033 A 
ATOM      4  C4  UNL d   1      -1.507   5.971  -4.562  0.00  0.00    -0.042 A 
ATOM      5  C5  UNL d   1      -0.875   4.747  -4.373  0.00  0.00     0.033 A 
ATOM      6  C6  UNL d   1      -1.600   3.559  -4.504  0.00  0.00    -0.057 A 
ENDROOT
BRANCH   1   7
ATOM      7  N   UNL d   1      -3.646   2.345  -4.854  0.00  0.00    -0.732 N 
ATOM      8  C   UNL d   1      -5.047   2.290  -5.210  0.00  0.00     0.284 C 
ATOM      9  H3  UNL d   1      -3.087   1.590  -5.245  0.00  0.00     0.395 HD
ENDBRANCH   1   7
TORSDOF 1
ENDMDL
