MODEL 1
REMARK minimizedAffinity 12.8636084
REMARK minimizedRMSD -1
REMARK  1 active torsions:
REMARK  status: ('A' for Active; 'I' for Inactive)
REMARK    1  A    between atoms: N_2  and  C1_3 
ROOT
ATOM      1  C1  UNL d   1       2.010  -4.030  -0.685  0.00  0.00     0.143 A 
ATOM      2  C2  UNL d   1       3.356  -4.214  -0.348  0.00  0.00    -0.057 A 
ATOM      3  C3  UNL d   1       4.140  -5.179  -0.990  0.00  0.00     0.033 A 
ATOM      4  C4  UNL d   1       3.583  -6.000  -1.965  0.00  0.00    -0.042 A 
ATOM      5  C5  UNL d   1       2.242  -5.852  -2.299  0.00  0.00     0.033 A 
ATOM      6  C6  UNL d   1       1.465  -4.882  -1.658  0.00  0.00    -0.057 A 
ENDROOT
BRANCH   1   7
ATOM      7  N   UNL d   1       1.153  -3.155  -0.014  0.00  0.00    -0.732 N 
ATOM      8  C   UNL d   1       1.672  -2.209   0.951  0.00  0.00     0.284 C 
ATOM      9  H3  UNL d   1       0.431  -2.775  -0.622  0.00  0.00     0.395 HD
ENDBRANCH   1   7
TORSDOF 1
ENDMDL
