MODEL 1
REMARK minimizedAffinity 7.29829168
REMARK minimizedRMSD -1
REMARK  1 active torsions:
REMARK  status: ('A' for Active; 'I' for Inactive)
REMARK    1  A    between atoms: N_2  and  C1_3 
ROOT
ATOM      1  C1  UNL d   1      -4.372  -3.735   5.240  0.00  0.00     0.143 A 
ATOM      2  C2  UNL d   1      -3.335  -4.244   4.451  0.00  0.00    -0.057 A 
ATOM      3  C3  UNL d   1      -2.066  -3.654   4.451  0.00  0.00     0.033 A 
ATOM      4  C4  UNL d   1      -1.818  -2.522   5.220  0.00  0.00    -0.042 A 
ATOM      5  C5  UNL d   1      -2.841  -1.984   5.993  0.00  0.00     0.033 A 
ATOM      6  C6  UNL d   1      -4.104  -2.582   5.995  0.00  0.00    -0.057 A 
ENDROOT
BRANCH   1   7
ATOM      7  N   UNL d   1      -5.683  -4.218   5.209  0.00  0.00    -0.732 N 
ATOM      8  C   UNL d   1      -5.955  -5.586   4.824  0.00  0.00     0.284 C 
ATOM      9  H3  UNL d   1      -6.236  -3.889   5.996  0.00  0.00     0.395 HD
ENDBRANCH   1   7
TORSDOF 1
ENDMDL
