MODEL 1
REMARK minimizedAffinity 2.93240047
REMARK minimizedRMSD -1
REMARK  1 active torsions:
REMARK  status: ('A' for Active; 'I' for Inactive)
REMARK    1  A    between atoms: N_2  and  C1_3 
ROOT
ATOM      1  C1  UNL d   1      -3.582   2.790  -5.419  0.00  0.00     0.143 A 
ATOM      2  C2  UNL d   1      -4.093   4.069  -5.661  0.00  0.00    -0.057 A 
ATOM      3  C3  UNL d   1      -3.308   5.213  -5.473  0.00  0.00     0.033 A 
ATOM      4  C4  UNL d   1      -2.002   5.099  -5.009  0.00  0.00    -0.042 A 
ATOM      5  C5  UNL d   1      -1.480   3.839  -4.738  0.00  0.00     0.033 A 
ATOM      6  C6  UNL d   1      -2.268   2.700  -4.934  0.00  0.00    -0.057 A 
ENDROOT
BRANCH   1   7
ATOM      7  N   UNL d   1      -4.343   1.621  -5.492  0.00  0.00    -0.732 N 
ATOM      8  C   UNL d   1      -5.703   1.657  -5.986  0.00  0.00     0.284 C 
ATOM      9  H3  UNL d   1      -3.802   0.825  -5.823  0.00  0.00     0.395 HD
ENDBRANCH   1   7
TORSDOF 1
ENDMDL
