MODEL 1
REMARK minimizedAffinity 6.72584629
REMARK minimizedRMSD -1
REMARK  1 active torsions:
REMARK  status: ('A' for Active; 'I' for Inactive)
REMARK    1  A    between atoms: N_2  and  C1_3 
ROOT
ATOM      1  C1  UNL d   1      -3.582  -3.306   4.959  0.00  0.00     0.143 A 
ATOM      2  C2  UNL d   1      -3.790  -4.576   4.410  0.00  0.00    -0.057 A 
ATOM      3  C3  UNL d   1      -4.992  -5.265   4.610  0.00  0.00     0.033 A 
ATOM      4  C4  UNL d   1      -6.000  -4.707   5.389  0.00  0.00    -0.042 A 
ATOM      5  C5  UNL d   1      -5.805  -3.457   5.966  0.00  0.00     0.033 A 
ATOM      6  C6  UNL d   1      -4.605  -2.770   5.757  0.00  0.00    -0.057 A 
ENDROOT
BRANCH   1   7
ATOM      7  N   UNL d   1      -2.372  -2.613   4.878  0.00  0.00    -0.732 N 
ATOM      8  C   UNL d   1      -2.102  -1.496   5.758  0.00  0.00     0.284 C 
ATOM      9  H3  UNL d   1      -1.577  -3.233   4.738  0.00  0.00     0.395 HD
ENDBRANCH   1   7
TORSDOF 1
ENDMDL
