MODEL 1
REMARK minimizedAffinity -1.39100528
REMARK minimizedRMSD -1
REMARK  1 active torsions:
REMARK  status: ('A' for Active; 'I' for Inactive)
REMARK    1  A    between atoms: N_2  and  C1_3 
ROOT
ATOM      1  C1  UNL d   1      -3.496   3.527  -5.632  0.00  0.00     0.143 A 
ATOM      2  C2  UNL d   1      -4.068   4.750  -6.000  0.00  0.00    -0.057 A 
ATOM      3  C3  UNL d   1      -3.370   5.954  -5.845  0.00  0.00     0.033 A 
ATOM      4  C4  UNL d   1      -2.095   5.959  -5.291  0.00  0.00    -0.042 A 
ATOM      5  C5  UNL d   1      -1.516   4.759  -4.895  0.00  0.00     0.033 A 
ATOM      6  C6  UNL d   1      -2.215   3.559  -5.058  0.00  0.00    -0.057 A 
ENDROOT
BRANCH   1   7
ATOM      7  N   UNL d   1      -4.176   2.307  -5.669  0.00  0.00    -0.732 N 
ATOM      8  C   UNL d   1      -5.599   2.264  -5.928  0.00  0.00     0.284 C 
ATOM      9  H3  UNL d   1      -3.644   1.581  -6.143  0.00  0.00     0.395 HD
ENDBRANCH   1   7
TORSDOF 1
ENDMDL
