MODEL 1
REMARK minimizedAffinity 0.196791679
REMARK minimizedRMSD -1
REMARK  1 active torsions:
REMARK  status: ('A' for Active; 'I' for Inactive)
REMARK    1  A    between atoms: N_2  and  C1_3 
ROOT
ATOM      1  C1  UNL d   1      -4.390   4.154  -5.337  0.00  0.00     0.143 A 
ATOM      2  C2  UNL d   1      -4.129   5.525  -5.244  0.00  0.00    -0.057 A 
ATOM      3  C3  UNL d   1      -2.910   6.000  -4.744  0.00  0.00     0.033 A 
ATOM      4  C4  UNL d   1      -1.939   5.108  -4.301  0.00  0.00    -0.042 A 
ATOM      5  C5  UNL d   1      -2.187   3.742  -4.361  0.00  0.00     0.033 A 
ATOM      6  C6  UNL d   1      -3.403   3.274  -4.867  0.00  0.00    -0.057 A 
ENDROOT
BRANCH   1   7
ATOM      7  N   UNL d   1      -5.620   3.622  -5.733  0.00  0.00    -0.732 N 
ATOM      8  C   UNL d   1      -6.000   2.279  -5.349  0.00  0.00     0.284 C 
ATOM      9  H3  UNL d   1      -6.375   4.301  -5.671  0.00  0.00     0.395 HD
ENDBRANCH   1   7
TORSDOF 1
ENDMDL
