MODEL 1
REMARK minimizedAffinity 10.3524208
REMARK minimizedRMSD -1
REMARK  1 active torsions:
REMARK  status: ('A' for Active; 'I' for Inactive)
REMARK    1  A    between atoms: N_2  and  C1_3 
ROOT
ATOM      1  C1  UNL d   1      -1.020  -3.768   5.115  0.00  0.00     0.143 A 
ATOM      2  C2  UNL d   1      -0.840  -2.621   5.896  0.00  0.00    -0.057 A 
ATOM      3  C3  UNL d   1      -1.842  -1.649   6.000  0.00  0.00     0.033 A 
ATOM      4  C4  UNL d   1      -3.035  -1.793   5.299  0.00  0.00    -0.042 A 
ATOM      5  C5  UNL d   1      -3.226  -2.912   4.497  0.00  0.00     0.033 A 
ATOM      6  C6  UNL d   1      -2.224  -3.883   4.402  0.00  0.00    -0.057 A 
ENDROOT
BRANCH   1   7
ATOM      7  N   UNL d   1      -0.024  -4.722   4.893  0.00  0.00    -0.732 N 
ATOM      8  C   UNL d   1       0.560  -5.449   6.000  0.00  0.00     0.284 C 
ATOM      9  H3  UNL d   1      -0.209  -5.293   4.072  0.00  0.00     0.395 HD
ENDBRANCH   1   7
TORSDOF 1
ENDMDL
