MODEL 1
REMARK minimizedAffinity 0.107978202
REMARK minimizedRMSD -1
REMARK  1 active torsions:
REMARK  status: ('A' for Active; 'I' for Inactive)
REMARK    1  A    between atoms: N_2  and  C1_3 
ROOT
ATOM      1  C1  UNL d   1      -3.135   3.165  -4.829  0.00  0.00     0.143 A 
ATOM      2  C2  UNL d   1      -3.754   4.419  -4.805  0.00  0.00    -0.057 A 
ATOM      3  C3  UNL d   1      -3.002   5.600  -4.812  0.00  0.00     0.033 A 
ATOM      4  C4  UNL d   1      -1.612   5.547  -4.812  0.00  0.00    -0.042 A 
ATOM      5  C5  UNL d   1      -0.975   4.311  -4.811  0.00  0.00     0.033 A 
ATOM      6  C6  UNL d   1      -1.732   3.135  -4.812  0.00  0.00    -0.057 A 
ENDROOT
BRANCH   1   7
ATOM      7  N   UNL d   1      -3.825   1.955  -4.725  0.00  0.00    -0.732 N 
ATOM      8  C   UNL d   1      -5.268   1.918  -4.826  0.00  0.00     0.284 C 
ATOM      9  H3  UNL d   1      -3.355   1.196  -5.214  0.00  0.00     0.395 HD
ENDBRANCH   1   7
TORSDOF 1
ENDMDL
