MODEL 1
REMARK minimizedAffinity 15.6929922
REMARK minimizedRMSD -1
REMARK  1 active torsions:
REMARK  status: ('A' for Active; 'I' for Inactive)
REMARK    1  A    between atoms: N_2  and  C1_3 
ROOT
ATOM      1  C1  UNL d   1      -1.480  -0.810   4.733  0.00  0.00     0.143 A 
ATOM      2  C2  UNL d   1      -2.606  -1.182   5.475  0.00  0.00    -0.057 A 
ATOM      3  C3  UNL d   1      -2.736  -2.474   5.999  0.00  0.00     0.033 A 
ATOM      4  C4  UNL d   1      -1.751  -3.428   5.765  0.00  0.00    -0.042 A 
ATOM      5  C5  UNL d   1      -0.635  -3.087   5.010  0.00  0.00     0.033 A 
ATOM      6  C6  UNL d   1      -0.508  -1.794   4.495  0.00  0.00    -0.057 A 
ENDROOT
BRANCH   1   7
ATOM      7  N   UNL d   1      -1.339   0.429   4.103  0.00  0.00    -0.732 N 
ATOM      8  C   UNL d   1      -0.164   0.723   3.311  0.00  0.00     0.284 C 
ATOM      9  H3  UNL d   1      -2.210   0.757   3.692  0.00  0.00     0.395 HD
ENDBRANCH   1   7
TORSDOF 1
ENDMDL
