MODEL 1
REMARK minimizedAffinity 0.702541292
REMARK minimizedRMSD -1
REMARK  1 active torsions:
REMARK  status: ('A' for Active; 'I' for Inactive)
REMARK    1  A    between atoms: N_2  and  C1_3 
ROOT
ATOM      1  C1  UNL d   1      -2.740   3.309  -5.089  0.00  0.00     0.143 A 
ATOM      2  C2  UNL d   1      -3.087   4.338  -5.971  0.00  0.00    -0.057 A 
ATOM      3  C3  UNL d   1      -2.731   5.667  -5.712  0.00  0.00     0.033 A 
ATOM      4  C4  UNL d   1      -2.045   5.995  -4.547  0.00  0.00    -0.042 A 
ATOM      5  C5  UNL d   1      -1.713   4.992  -3.644  0.00  0.00     0.033 A 
ATOM      6  C6  UNL d   1      -2.065   3.666  -3.911  0.00  0.00    -0.057 A 
ENDROOT
BRANCH   1   7
ATOM      7  N   UNL d   1      -3.151   1.982  -5.242  0.00  0.00    -0.732 N 
ATOM      8  C   UNL d   1      -4.345   1.499  -4.583  0.00  0.00     0.284 C 
ATOM      9  H3  UNL d   1      -3.039   1.648  -6.196  0.00  0.00     0.395 HD
ENDBRANCH   1   7
TORSDOF 1
ENDMDL
