MODEL 1
REMARK minimizedAffinity -3.85073566
REMARK minimizedRMSD -1
REMARK  0 active torsions:
REMARK  status: ('A' for Active; 'I' for Inactive)
ROOT
ATOM      1  C   UNL d   1      -2.104  -2.316   0.808  0.00  0.00     0.078 C 
ATOM      2  C1  UNL d   1      -1.379  -1.062   0.419  0.00  0.00    -0.077 A 
ATOM      3  C2  UNL d   1      -1.969   0.196   0.594  0.00  0.00    -0.001 A 
ATOM      4  C3  UNL d   1      -1.286   1.354   0.218  0.00  0.00     0.003 A 
ATOM      5  C4  UNL d   1      -0.010   1.265  -0.337  0.00  0.00    -0.005 A 
ATOM      6  C5  UNL d   1       0.583   0.017  -0.517  0.00  0.00     0.003 A 
ATOM      7  C6  UNL d   1      -0.098  -1.142  -0.141  0.00  0.00    -0.001 A 
ENDROOT
TORSDOF 0
ENDMDL
