MODEL 1
REMARK minimizedAffinity -4.11676645
REMARK minimizedRMSD -1
REMARK  0 active torsions:
REMARK  status: ('A' for Active; 'I' for Inactive)
ROOT
ATOM      1  C   UNL d   1       0.156   1.264  -1.125  0.00  0.00     0.078 C 
ATOM      2  C1  UNL d   1       0.039  -0.055  -0.422  0.00  0.00    -0.077 A 
ATOM      3  C2  UNL d   1       1.098  -0.562   0.341  0.00  0.00    -0.001 A 
ATOM      4  C3  UNL d   1       0.979  -1.796   0.982  0.00  0.00     0.003 A 
ATOM      5  C4  UNL d   1      -0.197  -2.534   0.866  0.00  0.00    -0.005 A 
ATOM      6  C5  UNL d   1      -1.255  -2.039   0.107  0.00  0.00     0.003 A 
ATOM      7  C6  UNL d   1      -1.138  -0.806  -0.535  0.00  0.00    -0.001 A 
ENDROOT
TORSDOF 0
ENDMDL
