MODEL 1
REMARK minimizedAffinity -4.32693815
REMARK minimizedRMSD -1
REMARK  0 active torsions:
REMARK  status: ('A' for Active; 'I' for Inactive)
ROOT
ATOM      1  C   UNL d   1      -1.347  -2.716   0.639  0.00  0.00     0.078 C 
ATOM      2  C1  UNL d   1      -0.642  -1.419   0.376  0.00  0.00    -0.077 A 
ATOM      3  C2  UNL d   1       0.756  -1.344   0.381  0.00  0.00    -0.001 A 
ATOM      4  C3  UNL d   1       1.398  -0.127   0.145  0.00  0.00     0.003 A 
ATOM      5  C4  UNL d   1       0.651   1.023  -0.098  0.00  0.00    -0.005 A 
ATOM      6  C5  UNL d   1      -0.741   0.959  -0.102  0.00  0.00     0.003 A 
ATOM      7  C6  UNL d   1      -1.385  -0.256   0.134  0.00  0.00    -0.001 A 
ENDROOT
TORSDOF 0
ENDMDL
