MODEL 1
REMARK minimizedAffinity -5.84456635
REMARK minimizedRMSD -1
REMARK  0 active torsions:
REMARK  status: ('A' for Active; 'I' for Inactive)
ROOT
ATOM      1  C   UNL d   1       0.331   0.481  -0.695  0.00  0.00     0.078 C 
ATOM      2  C1  UNL d   1      -0.464  -0.500   0.113  0.00  0.00    -0.077 A 
ATOM      3  C2  UNL d   1      -0.150  -1.864   0.104  0.00  0.00    -0.001 A 
ATOM      4  C3  UNL d   1      -0.904  -2.768   0.854  0.00  0.00     0.003 A 
ATOM      5  C4  UNL d   1      -1.979  -2.317   1.618  0.00  0.00    -0.005 A 
ATOM      6  C5  UNL d   1      -2.300  -0.961   1.632  0.00  0.00     0.003 A 
ATOM      7  C6  UNL d   1      -1.547  -0.056   0.883  0.00  0.00    -0.001 A 
ENDROOT
TORSDOF 0
ENDMDL
