MODEL 1
REMARK minimizedAffinity -2.92863655
REMARK minimizedRMSD -1
REMARK  0 active torsions:
REMARK  status: ('A' for Active; 'I' for Inactive)
ROOT
ATOM      1  C   UNL d   1      -1.519  -2.879   1.096  0.00  0.00     0.078 C 
ATOM      2  C1  UNL d   1      -0.830  -1.621   0.657  0.00  0.00    -0.077 A 
ATOM      3  C2  UNL d   1      -1.547  -0.431   0.481  0.00  0.00    -0.001 A 
ATOM      4  C3  UNL d   1      -0.895   0.730   0.063  0.00  0.00     0.003 A 
ATOM      5  C4  UNL d   1       0.477   0.712  -0.184  0.00  0.00    -0.005 A 
ATOM      6  C5  UNL d   1       1.198  -0.468  -0.014  0.00  0.00     0.003 A 
ATOM      7  C6  UNL d   1       0.547  -1.630   0.405  0.00  0.00    -0.001 A 
ENDROOT
TORSDOF 0
ENDMDL
