MODEL 1
REMARK minimizedAffinity -3.96600723
REMARK minimizedRMSD -1
REMARK  0 active torsions:
REMARK  status: ('A' for Active; 'I' for Inactive)
ROOT
ATOM      1  C   UNL d   1       0.952  -0.344   0.352  0.00  0.00     0.078 C 
ATOM      2  C1  UNL d   1       0.942   0.831  -0.581  0.00  0.00    -0.077 A 
ATOM      3  C2  UNL d   1      -0.138   1.721  -0.608  0.00  0.00    -0.001 A 
ATOM      4  C3  UNL d   1      -0.138   2.804  -1.488  0.00  0.00     0.003 A 
ATOM      5  C4  UNL d   1       0.939   3.007  -2.348  0.00  0.00    -0.005 A 
ATOM      6  C5  UNL d   1       2.018   2.125  -2.330  0.00  0.00     0.003 A 
ATOM      7  C6  UNL d   1       2.019   1.041  -1.451  0.00  0.00    -0.001 A 
ENDROOT
TORSDOF 0
ENDMDL
