MODEL 1
REMARK minimizedAffinity -3.08546758
REMARK minimizedRMSD -1
REMARK  0 active torsions:
REMARK  status: ('A' for Active; 'I' for Inactive)
ROOT
ATOM      1  C   UNL d   1      -0.744  -2.246   1.119  0.00  0.00     0.078 C 
ATOM      2  C1  UNL d   1      -0.221  -1.039   0.400  0.00  0.00    -0.077 A 
ATOM      3  C2  UNL d   1       1.132  -0.934   0.056  0.00  0.00    -0.001 A 
ATOM      4  C3  UNL d   1       1.607   0.200  -0.604  0.00  0.00     0.003 A 
ATOM      5  C4  UNL d   1       0.736   1.239  -0.926  0.00  0.00    -0.005 A 
ATOM      6  C5  UNL d   1      -0.612   1.144  -0.587  0.00  0.00     0.003 A 
ATOM      7  C6  UNL d   1      -1.089   0.011   0.074  0.00  0.00    -0.001 A 
ENDROOT
TORSDOF 0
ENDMDL
