MODEL 1
REMARK minimizedAffinity -3.65225005
REMARK minimizedRMSD -1
REMARK  0 active torsions:
REMARK  status: ('A' for Active; 'I' for Inactive)
ROOT
ATOM      1  C   UNL d   1       0.769   1.097  -0.482  0.00  0.00     0.078 C 
ATOM      2  C1  UNL d   1      -0.042  -0.054   0.034  0.00  0.00    -0.077 A 
ATOM      3  C2  UNL d   1      -1.440  -0.046  -0.048  0.00  0.00    -0.001 A 
ATOM      4  C3  UNL d   1      -2.182  -1.120   0.445  0.00  0.00     0.003 A 
ATOM      5  C4  UNL d   1      -1.536  -2.209   1.025  0.00  0.00    -0.005 A 
ATOM      6  C5  UNL d   1      -0.146  -2.225   1.114  0.00  0.00     0.003 A 
ATOM      7  C6  UNL d   1       0.599  -1.152   0.621  0.00  0.00    -0.001 A 
ENDROOT
TORSDOF 0
ENDMDL
