MODEL 1
REMARK minimizedAffinity -4.67752934
REMARK minimizedRMSD -1
REMARK  0 active torsions:
REMARK  status: ('A' for Active; 'I' for Inactive)
ROOT
ATOM      1  C   UNL d   1      -1.755  -2.572   0.765  0.00  0.00     0.078 C 
ATOM      2  C1  UNL d   1      -1.054  -1.265   0.547  0.00  0.00    -0.077 A 
ATOM      3  C2  UNL d   1       0.279  -1.223   0.120  0.00  0.00    -0.001 A 
ATOM      4  C3  UNL d   1       0.922   0.001  -0.069  0.00  0.00     0.003 A 
ATOM      5  C4  UNL d   1       0.240   1.193   0.168  0.00  0.00    -0.005 A 
ATOM      6  C5  UNL d   1      -1.086   1.162   0.595  0.00  0.00     0.003 A 
ATOM      7  C6  UNL d   1      -1.730  -0.062   0.785  0.00  0.00    -0.001 A 
ENDROOT
TORSDOF 0
ENDMDL
