MODEL 1
REMARK minimizedAffinity -5.44851398
REMARK minimizedRMSD -1
REMARK  0 active torsions:
REMARK  status: ('A' for Active; 'I' for Inactive)
ROOT
ATOM      1  C   UNL d   1       0.775   0.727  -0.404  0.00  0.00     0.078 C 
ATOM      2  C1  UNL d   1      -0.191  -0.290   0.125  0.00  0.00    -0.077 A 
ATOM      3  C2  UNL d   1      -1.318   0.099   0.860  0.00  0.00    -0.001 A 
ATOM      4  C3  UNL d   1      -2.204  -0.860   1.354  0.00  0.00     0.003 A 
ATOM      5  C4  UNL d   1      -1.972  -2.214   1.120  0.00  0.00    -0.005 A 
ATOM      6  C5  UNL d   1      -0.852  -2.611   0.391  0.00  0.00     0.003 A 
ATOM      7  C6  UNL d   1       0.035  -1.654  -0.104  0.00  0.00    -0.001 A 
ENDROOT
TORSDOF 0
ENDMDL
