MODEL 1
REMARK minimizedAffinity -4.14336491
REMARK minimizedRMSD -1
REMARK  0 active torsions:
REMARK  status: ('A' for Active; 'I' for Inactive)
ROOT
ATOM      1  C   UNL d   1       1.923  -0.489   0.396  0.00  0.00     0.078 C 
ATOM      2  C1  UNL d   1       0.499  -0.958   0.413  0.00  0.00    -0.077 A 
ATOM      3  C2  UNL d   1       0.188  -2.316   0.552  0.00  0.00    -0.001 A 
ATOM      4  C3  UNL d   1      -1.142  -2.739   0.556  0.00  0.00     0.003 A 
ATOM      5  C4  UNL d   1      -2.172  -1.811   0.420  0.00  0.00    -0.005 A 
ATOM      6  C5  UNL d   1      -1.872  -0.457   0.278  0.00  0.00     0.003 A 
ATOM      7  C6  UNL d   1      -0.543  -0.032   0.274  0.00  0.00    -0.001 A 
ENDROOT
TORSDOF 0
ENDMDL
