MODEL 1
REMARK minimizedAffinity -4.03319168
REMARK minimizedRMSD -1
REMARK  0 active torsions:
REMARK  status: ('A' for Active; 'I' for Inactive)
ROOT
ATOM      1  C   UNL d   1      -1.362  -2.518   0.843  0.00  0.00     0.078 C 
ATOM      2  C1  UNL d   1      -0.833  -1.124   0.681  0.00  0.00    -0.077 A 
ATOM      3  C2  UNL d   1       0.506  -0.896   0.340  0.00  0.00    -0.001 A 
ATOM      4  C3  UNL d   1       0.987   0.407   0.202  0.00  0.00     0.003 A 
ATOM      5  C4  UNL d   1       0.136   1.492   0.404  0.00  0.00    -0.005 A 
ATOM      6  C5  UNL d   1      -1.197   1.275   0.745  0.00  0.00     0.003 A 
ATOM      7  C6  UNL d   1      -1.680  -0.027   0.884  0.00  0.00    -0.001 A 
ENDROOT
TORSDOF 0
ENDMDL
