MODEL 1
REMARK minimizedAffinity -4.90999079
REMARK minimizedRMSD -1
REMARK  0 active torsions:
REMARK  status: ('A' for Active; 'I' for Inactive)
ROOT
ATOM      1  C   UNL d   1       0.759   1.323  -0.367  0.00  0.00     0.078 C 
ATOM      2  C1  UNL d   1       0.090   0.048   0.051  0.00  0.00    -0.077 A 
ATOM      3  C2  UNL d   1      -1.270   0.023   0.384  0.00  0.00    -0.001 A 
ATOM      4  C3  UNL d   1      -1.877  -1.170   0.781  0.00  0.00     0.003 A 
ATOM      5  C4  UNL d   1      -1.132  -2.345   0.851  0.00  0.00    -0.005 A 
ATOM      6  C5  UNL d   1       0.222  -2.329   0.523  0.00  0.00     0.003 A 
ATOM      7  C6  UNL d   1       0.831  -1.138   0.126  0.00  0.00    -0.001 A 
ENDROOT
TORSDOF 0
ENDMDL
