MODEL 1
REMARK minimizedAffinity -5.31917715
REMARK minimizedRMSD -1
REMARK  0 active torsions:
REMARK  status: ('A' for Active; 'I' for Inactive)
ROOT
ATOM      1  C   UNL d   1      -2.912  -0.711   1.619  0.00  0.00     0.078 C 
ATOM      2  C1  UNL d   1      -1.561  -0.870   0.988  0.00  0.00    -0.077 A 
ATOM      3  C2  UNL d   1      -0.979  -2.135   0.839  0.00  0.00    -0.001 A 
ATOM      4  C3  UNL d   1       0.283  -2.267   0.259  0.00  0.00     0.003 A 
ATOM      5  C4  UNL d   1       0.975  -1.139  -0.176  0.00  0.00    -0.005 A 
ATOM      6  C5  UNL d   1       0.406   0.124  -0.029  0.00  0.00     0.003 A 
ATOM      7  C6  UNL d   1      -0.857   0.259   0.551  0.00  0.00    -0.001 A 
ENDROOT
TORSDOF 0
ENDMDL
