MODEL 1
REMARK minimizedAffinity -4.89767694
REMARK minimizedRMSD -1
REMARK  0 active torsions:
REMARK  status: ('A' for Active; 'I' for Inactive)
ROOT
ATOM      1  C   UNL d   1       0.690   1.516  -0.502  0.00  0.00     0.078 C 
ATOM      2  C1  UNL d   1       0.202   0.200   0.025  0.00  0.00    -0.077 A 
ATOM      3  C2  UNL d   1      -1.157  -0.013   0.287  0.00  0.00    -0.001 A 
ATOM      4  C3  UNL d   1      -1.595  -1.241   0.787  0.00  0.00     0.003 A 
ATOM      5  C4  UNL d   1      -0.681  -2.264   1.029  0.00  0.00    -0.005 A 
ATOM      6  C5  UNL d   1       0.673  -2.061   0.772  0.00  0.00     0.003 A 
ATOM      7  C6  UNL d   1       1.113  -0.834   0.273  0.00  0.00    -0.001 A 
ENDROOT
TORSDOF 0
ENDMDL
