MODEL 1
REMARK minimizedAffinity -5.70532227
REMARK minimizedRMSD -1
REMARK  0 active torsions:
REMARK  status: ('A' for Active; 'I' for Inactive)
ROOT
ATOM      1  C   UNL d   1      -2.299  -2.540   1.402  0.00  0.00     0.078 C 
ATOM      2  C1  UNL d   1      -1.244  -1.548   1.012  0.00  0.00    -0.077 A 
ATOM      3  C2  UNL d   1       0.100  -1.926   0.913  0.00  0.00    -0.001 A 
ATOM      4  C3  UNL d   1       1.073  -0.990   0.558  0.00  0.00     0.003 A 
ATOM      5  C4  UNL d   1       0.711   0.331   0.300  0.00  0.00    -0.005 A 
ATOM      6  C5  UNL d   1      -0.624   0.717   0.398  0.00  0.00     0.003 A 
ATOM      7  C6  UNL d   1      -1.598  -0.218   0.753  0.00  0.00    -0.001 A 
ENDROOT
TORSDOF 0
ENDMDL
