MODEL 1
REMARK minimizedAffinity -5.61077023
REMARK minimizedRMSD -1
REMARK  0 active torsions:
REMARK  status: ('A' for Active; 'I' for Inactive)
ROOT
ATOM      1  C1  DEN d   1      -0.377  -1.328  -0.942  0.00  0.00     0.130 A 
ATOM      2  C2  DEN d   1       1.005  -1.784  -1.057  0.00  0.00    -0.031 A 
ATOM      3  C3  DEN d   1       1.805  -1.077  -0.037  0.00  0.00     0.027 A 
ATOM      4  C4  DEN d   1       1.041   0.667   1.702  0.00  0.00     0.027 A 
ATOM      5  C5  DEN d   1      -0.037   1.382   2.177  0.00  0.00    -0.003 A 
ATOM      6  C6  DEN d   1      -1.287   1.269   1.627  0.00  0.00     0.001 A 
ATOM      7  C7  DEN d   1      -1.499   0.389   0.599  0.00  0.00     0.017 A 
ATOM      8  C8  DEN d   1      -0.416  -0.329   0.111  0.00  0.00    -0.094 A 
ATOM      9  C9  DEN d   1       0.837  -0.211   0.688  0.00  0.00    -0.072 A 
ENDROOT
TORSDOF 0
ENDMDL
