MODEL 1
REMARK minimizedAffinity 0.437413931
REMARK minimizedRMSD -1
REMARK  0 active torsions:
REMARK  status: ('A' for Active; 'I' for Inactive)
ROOT
ATOM      1  C1  DEN d   1      -0.716   0.788  -1.313  0.00  0.00     0.130 A 
ATOM      2  C2  DEN d   1       0.068   0.580  -0.099  0.00  0.00    -0.031 A 
ATOM      3  C3  DEN d   1       1.497   0.674  -0.457  0.00  0.00     0.027 A 
ATOM      4  C4  DEN d   1       2.567   1.124  -2.760  0.00  0.00     0.027 A 
ATOM      5  C5  DEN d   1       2.307   1.352  -4.093  0.00  0.00    -0.003 A 
ATOM      6  C6  DEN d   1       1.032   1.375  -4.595  0.00  0.00     0.001 A 
ATOM      7  C7  DEN d   1      -0.033   1.210  -3.750  0.00  0.00     0.017 A 
ATOM      8  C8  DEN d   1       0.222   0.972  -2.406  0.00  0.00    -0.094 A 
ATOM      9  C9  DEN d   1       1.517   0.965  -1.916  0.00  0.00    -0.072 A 
ENDROOT
TORSDOF 0
ENDMDL
