MODEL 1
REMARK minimizedAffinity 0.89229852
REMARK minimizedRMSD -1
REMARK  0 active torsions:
REMARK  status: ('A' for Active; 'I' for Inactive)
ROOT
ATOM      1  C1  DEN d   1      -0.829   0.790  -0.532  0.00  0.00     0.130 A 
ATOM      2  C2  DEN d   1      -0.712  -0.395  -1.377  0.00  0.00    -0.031 A 
ATOM      3  C3  DEN d   1       0.484  -1.146  -0.945  0.00  0.00     0.027 A 
ATOM      4  C4  DEN d   1       2.152  -0.596   0.943  0.00  0.00     0.027 A 
ATOM      5  C5  DEN d   1       2.473   0.311   1.929  0.00  0.00    -0.003 A 
ATOM      6  C6  DEN d   1       1.741   1.450   2.139  0.00  0.00     0.001 A 
ATOM      7  C7  DEN d   1       0.624   1.689   1.382  0.00  0.00     0.017 A 
ATOM      8  C8  DEN d   1       0.299   0.782   0.382  0.00  0.00    -0.094 A 
ATOM      9  C9  DEN d   1       1.044  -0.369   0.193  0.00  0.00    -0.072 A 
ENDROOT
TORSDOF 0
ENDMDL
