MODEL 1
REMARK minimizedAffinity -1.03565562
REMARK minimizedRMSD -1
REMARK  0 active torsions:
REMARK  status: ('A' for Active; 'I' for Inactive)
ROOT
ATOM      1  C1  DEN d   1      -0.328  -0.673  -1.028  0.00  0.00     0.130 A 
ATOM      2  C2  DEN d   1      -1.733  -0.296  -1.148  0.00  0.00    -0.031 A 
ATOM      3  C3  DEN d   1      -2.085   0.534   0.021  0.00  0.00     0.027 A 
ATOM      4  C4  DEN d   1      -0.596   1.272   1.994  0.00  0.00     0.027 A 
ATOM      5  C5  DEN d   1       0.666   1.189   2.540  0.00  0.00    -0.003 A 
ATOM      6  C6  DEN d   1       1.667   0.458   1.958  0.00  0.00     0.001 A 
ATOM      7  C7  DEN d   1       1.436  -0.184   0.770  0.00  0.00     0.017 A 
ATOM      8  C8  DEN d   1       0.165  -0.111   0.217  0.00  0.00    -0.094 A 
ATOM      9  C9  DEN d   1      -0.831   0.644   0.814  0.00  0.00    -0.072 A 
ENDROOT
TORSDOF 0
ENDMDL
