MODEL 1
REMARK minimizedAffinity -1.81860018
REMARK minimizedRMSD -1
REMARK  0 active torsions:
REMARK  status: ('A' for Active; 'I' for Inactive)
ROOT
ATOM      1  C1  DEN d   1       0.444   0.833   2.254  0.00  0.00     0.130 A 
ATOM      2  C2  DEN d   1      -0.823   1.141   2.911  0.00  0.00    -0.031 A 
ATOM      3  C3  DEN d   1      -1.917   0.726   2.009  0.00  0.00     0.027 A 
ATOM      4  C4  DEN d   1      -1.771  -0.361  -0.326  0.00  0.00     0.027 A 
ATOM      5  C5  DEN d   1      -0.910  -0.805  -1.305  0.00  0.00    -0.003 A 
ATOM      6  C6  DEN d   1       0.450  -0.704  -1.182  0.00  0.00     0.001 A 
ATOM      7  C7  DEN d   1       0.992  -0.187  -0.035  0.00  0.00     0.017 A 
ATOM      8  C8  DEN d   1       0.131   0.270   0.953  0.00  0.00    -0.094 A 
ATOM      9  C9  DEN d   1      -1.242   0.148   0.816  0.00  0.00    -0.072 A 
ENDROOT
TORSDOF 0
ENDMDL
