MODEL 1
REMARK minimizedAffinity 2.17731309
REMARK minimizedRMSD -1
REMARK  0 active torsions:
REMARK  status: ('A' for Active; 'I' for Inactive)
ROOT
ATOM      1  C1  DEN d   1       1.858   0.560   2.182  0.00  0.00     0.130 A 
ATOM      2  C2  DEN d   1       2.392  -0.349   1.171  0.00  0.00    -0.031 A 
ATOM      3  C3  DEN d   1       1.290  -0.716   0.260  0.00  0.00     0.027 A 
ATOM      4  C4  DEN d   1      -1.177   0.033   0.313  0.00  0.00     0.027 A 
ATOM      5  C5  DEN d   1      -2.106   0.791   0.991  0.00  0.00    -0.003 A 
ATOM      6  C6  DEN d   1      -1.789   1.492   2.124  0.00  0.00     0.001 A 
ATOM      7  C7  DEN d   1      -0.500   1.486   2.588  0.00  0.00     0.017 A 
ATOM      8  C8  DEN d   1       0.440   0.718   1.913  0.00  0.00    -0.094 A 
ATOM      9  C9  DEN d   1       0.103   0.026   0.763  0.00  0.00    -0.072 A 
ENDROOT
TORSDOF 0
ENDMDL
