MODEL 1
REMARK minimizedAffinity -6.68123674
REMARK minimizedRMSD -1
REMARK  0 active torsions:
REMARK  status: ('A' for Active; 'I' for Inactive)
ROOT
ATOM      1  C1  DEN d   1       1.442   0.114   2.247  0.00  0.00     0.130 A 
ATOM      2  C2  DEN d   1       0.969   0.935   3.359  0.00  0.00    -0.031 A 
ATOM      3  C3  DEN d   1      -0.421   1.340   3.069  0.00  0.00     0.027 A 
ATOM      4  C4  DEN d   1      -1.881   0.775   1.018  0.00  0.00     0.027 A 
ATOM      5  C5  DEN d   1      -1.910   0.119  -0.192  0.00  0.00    -0.003 A 
ATOM      6  C6  DEN d   1      -0.823  -0.552  -0.686  0.00  0.00     0.001 A 
ATOM      7  C7  DEN d   1       0.327  -0.618   0.055  0.00  0.00     0.017 A 
ATOM      8  C8  DEN d   1       0.367   0.048   1.273  0.00  0.00    -0.094 A 
ATOM      9  C9  DEN d   1      -0.747   0.710   1.761  0.00  0.00    -0.072 A 
ENDROOT
TORSDOF 0
ENDMDL
