MODEL 1
REMARK minimizedAffinity -5.86206961
REMARK minimizedRMSD -1
REMARK  2 active torsions:
REMARK  status: ('A' for Active; 'I' for Inactive)
REMARK    1  A    between atoms: C1_2  and  C2_3 
REMARK    2  A    between atoms: C2_3  and  C3_4 
ROOT
ATOM      1  C3  UNL d   1       0.074  -0.217  -0.090  0.00  0.00    -0.075 A 
ATOM      2  C4  UNL d   1       0.174  -0.675   1.232  0.00  0.00     0.002 A 
ATOM      3  C5  UNL d   1      -0.757  -0.276   2.192  0.00  0.00     0.002 A 
ATOM      4  C6  UNL d   1      -1.792   0.591   1.846  0.00  0.00    -0.004 A 
ATOM      5  C7  UNL d   1      -1.891   1.065   0.539  0.00  0.00     0.002 A 
ATOM      6  C8  UNL d   1      -0.963   0.664  -0.424  0.00  0.00     0.002 A 
ENDROOT
BRANCH   1   7
ATOM      7  C2  UNL d   1       1.061  -0.668  -1.140  0.00  0.00     0.056 C 
BRANCH   7   8
ATOM      8  C1  UNL d   1       0.519  -1.747  -2.083  0.00  0.00     0.007 C 
ATOM      9  C   UNL d   1       0.748  -3.163  -1.571  0.00  0.00     0.009 C 
ENDBRANCH   7   8
ENDBRANCH   1   7
TORSDOF 2
ENDMDL
