MODEL 1
REMARK minimizedAffinity -6.32085943
REMARK minimizedRMSD -1
REMARK  2 active torsions:
REMARK  status: ('A' for Active; 'I' for Inactive)
REMARK    1  A    between atoms: C1_2  and  C2_3 
REMARK    2  A    between atoms: C2_3  and  C3_4 
ROOT
ATOM      1  C3  UNL d   1       0.192  -0.155  -0.006  0.00  0.00    -0.075 A 
ATOM      2  C4  UNL d   1      -0.050  -0.535   1.322  0.00  0.00     0.002 A 
ATOM      3  C5  UNL d   1      -0.866   0.244   2.144  0.00  0.00     0.002 A 
ATOM      4  C6  UNL d   1      -1.440   1.414   1.653  0.00  0.00    -0.004 A 
ATOM      5  C7  UNL d   1      -1.193   1.810   0.341  0.00  0.00     0.002 A 
ATOM      6  C8  UNL d   1      -0.381   1.031  -0.485  0.00  0.00     0.002 A 
ENDROOT
BRANCH   1   7
ATOM      7  C2  UNL d   1       1.050  -1.008  -0.909  0.00  0.00     0.056 C 
BRANCH   7   8
ATOM      8  C1  UNL d   1       0.281  -1.665  -2.061  0.00  0.00     0.007 C 
ATOM      9  C   UNL d   1       0.609  -3.142  -2.237  0.00  0.00     0.009 C 
ENDBRANCH   7   8
ENDBRANCH   1   7
TORSDOF 2
ENDMDL
