MODEL 1
REMARK minimizedAffinity -5.25339842
REMARK minimizedRMSD -1
REMARK  2 active torsions:
REMARK  status: ('A' for Active; 'I' for Inactive)
REMARK    1  A    between atoms: C1_2  and  C2_3 
REMARK    2  A    between atoms: C2_3  and  C3_4 
ROOT
ATOM      1  C3  UNL d   1       0.326  -0.301   0.153  0.00  0.00    -0.075 A 
ATOM      2  C4  UNL d   1       0.011  -1.063   1.288  0.00  0.00     0.002 A 
ATOM      3  C5  UNL d   1      -0.979  -0.637   2.174  0.00  0.00     0.002 A 
ATOM      4  C6  UNL d   1      -1.657   0.557   1.944  0.00  0.00    -0.004 A 
ATOM      5  C7  UNL d   1      -1.341   1.331   0.829  0.00  0.00     0.002 A 
ATOM      6  C8  UNL d   1      -0.354   0.905  -0.062  0.00  0.00     0.002 A 
ENDROOT
BRANCH   1   7
ATOM      7  C2  UNL d   1       1.375  -0.771  -0.826  0.00  0.00     0.056 C 
BRANCH   7   8
ATOM      8  C1  UNL d   1       1.320  -2.272  -1.128  0.00  0.00     0.007 C 
ATOM      9  C   UNL d   1       0.518  -2.603  -2.379  0.00  0.00     0.009 C 
ENDBRANCH   7   8
ENDBRANCH   1   7
TORSDOF 2
ENDMDL
