MODEL 1
REMARK minimizedAffinity -5.0957489
REMARK minimizedRMSD -1
REMARK  2 active torsions:
REMARK  status: ('A' for Active; 'I' for Inactive)
REMARK    1  A    between atoms: C1_2  and  C2_3 
REMARK    2  A    between atoms: C2_3  and  C3_4 
ROOT
ATOM      1  C3  UNL d   1      -0.073  -0.082  -0.031  0.00  0.00    -0.075 A 
ATOM      2  C4  UNL d   1      -1.109   0.417  -0.834  0.00  0.00     0.002 A 
ATOM      3  C5  UNL d   1      -2.102   1.228  -0.285  0.00  0.00     0.002 A 
ATOM      4  C6  UNL d   1      -2.079   1.542   1.072  0.00  0.00    -0.004 A 
ATOM      5  C7  UNL d   1      -1.063   1.039   1.882  0.00  0.00     0.002 A 
ATOM      6  C8  UNL d   1      -0.066   0.230   1.335  0.00  0.00     0.002 A 
ENDROOT
BRANCH   1   7
ATOM      7  C2  UNL d   1       1.022  -0.937  -0.625  0.00  0.00     0.056 C 
BRANCH   7   8
ATOM      8  C1  UNL d   1       0.648  -1.590  -1.959  0.00  0.00     0.007 C 
ATOM      9  C   UNL d   1       0.766  -3.109  -1.937  0.00  0.00     0.009 C 
ENDBRANCH   7   8
ENDBRANCH   1   7
TORSDOF 2
ENDMDL
