MODEL 1
REMARK minimizedAffinity -4.55577374
REMARK minimizedRMSD -1
REMARK  2 active torsions:
REMARK  status: ('A' for Active; 'I' for Inactive)
REMARK    1  A    between atoms: C1_2  and  C2_3 
REMARK    2  A    between atoms: C2_3  and  C3_4 
ROOT
ATOM      1  C3  UNL d   1      -0.084  -0.131  -0.366  0.00  0.00    -0.075 A 
ATOM      2  C4  UNL d   1      -0.558  -0.599   0.868  0.00  0.00     0.002 A 
ATOM      3  C5  UNL d   1      -1.339   0.221   1.684  0.00  0.00     0.002 A 
ATOM      4  C6  UNL d   1      -1.645   1.519   1.283  0.00  0.00    -0.004 A 
ATOM      5  C7  UNL d   1      -1.165   2.000   0.066  0.00  0.00     0.002 A 
ATOM      6  C8  UNL d   1      -0.388   1.181  -0.754  0.00  0.00     0.002 A 
ENDROOT
BRANCH   1   7
ATOM      7  C2  UNL d   1       0.736  -1.023  -1.267  0.00  0.00     0.056 C 
BRANCH   7   8
ATOM      8  C1  UNL d   1      -0.092  -1.806  -2.291  0.00  0.00     0.007 C 
ATOM      9  C   UNL d   1       0.352  -3.255  -2.440  0.00  0.00     0.009 C 
ENDBRANCH   7   8
ENDBRANCH   1   7
TORSDOF 2
ENDMDL
