MODEL 1
REMARK minimizedAffinity -1.11180604
REMARK minimizedRMSD -1
REMARK  2 active torsions:
REMARK  status: ('A' for Active; 'I' for Inactive)
REMARK    1  A    between atoms: C1_2  and  C2_3 
REMARK    2  A    between atoms: C2_3  and  C3_4 
ROOT
ATOM      1  C3  UNL d   1       0.590  -0.574  -0.487  0.00  0.00    -0.075 A 
ATOM      2  C4  UNL d   1      -0.234  -0.269   0.606  0.00  0.00     0.002 A 
ATOM      3  C5  UNL d   1      -0.806   0.997   0.730  0.00  0.00     0.002 A 
ATOM      4  C6  UNL d   1      -0.555   1.976  -0.229  0.00  0.00    -0.004 A 
ATOM      5  C7  UNL d   1       0.275   1.689  -1.310  0.00  0.00     0.002 A 
ATOM      6  C8  UNL d   1       0.846   0.421  -1.439  0.00  0.00     0.002 A 
ENDROOT
BRANCH   1   7
ATOM      7  C2  UNL d   1       1.188  -1.952  -0.642  0.00  0.00     0.056 C 
BRANCH   7   8
ATOM      8  C1  UNL d   1       0.700  -2.708  -1.883  0.00  0.00     0.007 C 
ATOM      9  C   UNL d   1       0.285  -4.143  -1.586  0.00  0.00     0.009 C 
ENDBRANCH   7   8
ENDBRANCH   1   7
TORSDOF 2
ENDMDL
