MODEL 1
REMARK minimizedAffinity -2.18072081
REMARK minimizedRMSD -1
REMARK  2 active torsions:
REMARK  status: ('A' for Active; 'I' for Inactive)
REMARK    1  A    between atoms: C1_2  and  C2_3 
REMARK    2  A    between atoms: C2_3  and  C3_4 
ROOT
ATOM      1  C3  UNL d   1       1.001  -1.102  -0.749  0.00  0.00    -0.075 A 
ATOM      2  C4  UNL d   1       0.388  -0.988   0.507  0.00  0.00     0.002 A 
ATOM      3  C5  UNL d   1      -0.235   0.202   0.885  0.00  0.00     0.002 A 
ATOM      4  C6  UNL d   1      -0.244   1.293   0.019  0.00  0.00    -0.004 A 
ATOM      5  C7  UNL d   1       0.377   1.196  -1.224  0.00  0.00     0.002 A 
ATOM      6  C8  UNL d   1       0.997   0.006  -1.607  0.00  0.00     0.002 A 
ENDROOT
BRANCH   1   7
ATOM      7  C2  UNL d   1       1.651  -2.396  -1.176  0.00  0.00     0.056 C 
BRANCH   7   8
ATOM      8  C1  UNL d   1       0.765  -3.276  -2.064  0.00  0.00     0.007 C 
ATOM      9  C   UNL d   1       0.271  -4.534  -1.361  0.00  0.00     0.009 C 
ENDBRANCH   7   8
ENDBRANCH   1   7
TORSDOF 2
ENDMDL
