MODEL 1
REMARK minimizedAffinity -5.97313452
REMARK minimizedRMSD -1
REMARK  2 active torsions:
REMARK  status: ('A' for Active; 'I' for Inactive)
REMARK    1  A    between atoms: C1_2  and  C2_3 
REMARK    2  A    between atoms: C2_3  and  C3_4 
ROOT
ATOM      1  C3  UNL d   1       0.170   0.103   0.008  0.00  0.00    -0.075 A 
ATOM      2  C4  UNL d   1      -0.401  -0.125   1.268  0.00  0.00     0.002 A 
ATOM      3  C5  UNL d   1      -1.308   0.786   1.810  0.00  0.00     0.002 A 
ATOM      4  C6  UNL d   1      -1.647   1.939   1.106  0.00  0.00    -0.004 A 
ATOM      5  C7  UNL d   1      -1.073   2.185  -0.139  0.00  0.00     0.002 A 
ATOM      6  C8  UNL d   1      -0.168   1.273  -0.686  0.00  0.00     0.002 A 
ENDROOT
BRANCH   1   7
ATOM      7  C2  UNL d   1       1.130  -0.893  -0.598  0.00  0.00     0.056 C 
BRANCH   7   8
ATOM      8  C1  UNL d   1       0.558  -1.663  -1.793  0.00  0.00     0.007 C 
ATOM      9  C   UNL d   1       1.064  -3.096  -1.881  0.00  0.00     0.009 C 
ENDBRANCH   7   8
ENDBRANCH   1   7
TORSDOF 2
ENDMDL
