MODEL 1
REMARK minimizedAffinity -4.0268302
REMARK minimizedRMSD -1
REMARK  2 active torsions:
REMARK  status: ('A' for Active; 'I' for Inactive)
REMARK    1  A    between atoms: C1_2  and  C2_3 
REMARK    2  A    between atoms: C2_3  and  C3_4 
ROOT
ATOM      1  C3  UNL d   1       0.089  -0.553  -0.074  0.00  0.00    -0.075 A 
ATOM      2  C4  UNL d   1      -0.199  -0.858   1.264  0.00  0.00     0.002 A 
ATOM      3  C5  UNL d   1      -0.948   0.023   2.045  0.00  0.00     0.002 A 
ATOM      4  C6  UNL d   1      -1.407   1.221   1.504  0.00  0.00    -0.004 A 
ATOM      5  C7  UNL d   1      -1.112   1.542   0.181  0.00  0.00     0.002 A 
ATOM      6  C8  UNL d   1      -0.367   0.660  -0.605  0.00  0.00     0.002 A 
ENDROOT
BRANCH   1   7
ATOM      7  C2  UNL d   1       0.873  -1.516  -0.934  0.00  0.00     0.056 C 
BRANCH   7   8
ATOM      8  C1  UNL d   1       0.091  -2.059  -2.134  0.00  0.00     0.007 C 
ATOM      9  C   UNL d   1       0.416  -3.513  -2.454  0.00  0.00     0.009 C 
ENDBRANCH   7   8
ENDBRANCH   1   7
TORSDOF 2
ENDMDL
