MODEL 1
REMARK minimizedAffinity -6.3763566
REMARK minimizedRMSD -1
REMARK  2 active torsions:
REMARK  status: ('A' for Active; 'I' for Inactive)
REMARK    1  A    between atoms: C1_2  and  C2_3 
REMARK    2  A    between atoms: C2_3  and  C3_4 
ROOT
ATOM      1  C3  UNL d   1      -0.163   0.768   0.413  0.00  0.00    -0.075 A 
ATOM      2  C4  UNL d   1       0.261   1.848  -0.374  0.00  0.00     0.002 A 
ATOM      3  C5  UNL d   1      -0.440   3.054  -0.358  0.00  0.00     0.002 A 
ATOM      4  C6  UNL d   1      -1.578   3.192   0.434  0.00  0.00    -0.004 A 
ATOM      5  C7  UNL d   1      -2.018   2.120   1.207  0.00  0.00     0.002 A 
ATOM      6  C8  UNL d   1      -1.316   0.913   1.197  0.00  0.00     0.002 A 
ENDROOT
BRANCH   1   7
ATOM      7  C2  UNL d   1       0.608  -0.531   0.424  0.00  0.00     0.056 C 
BRANCH   7   8
ATOM      8  C1  UNL d   1       1.474  -0.752  -0.821  0.00  0.00     0.007 C 
ATOM      9  C   UNL d   1       1.070  -1.983  -1.622  0.00  0.00     0.009 C 
ENDBRANCH   7   8
ENDBRANCH   1   7
TORSDOF 2
ENDMDL
