MODEL 1
REMARK minimizedAffinity -4.99921894
REMARK minimizedRMSD -1
REMARK  2 active torsions:
REMARK  status: ('A' for Active; 'I' for Inactive)
REMARK    1  A    between atoms: C1_2  and  C2_3 
REMARK    2  A    between atoms: C2_3  and  C3_4 
ROOT
ATOM      1  C3  UNL d   1      -0.415   1.433   0.446  0.00  0.00    -0.075 A 
ATOM      2  C4  UNL d   1       0.317   2.228  -0.449  0.00  0.00     0.002 A 
ATOM      3  C5  UNL d   1       0.024   3.584  -0.594  0.00  0.00     0.002 A 
ATOM      4  C6  UNL d   1      -1.007   4.160   0.144  0.00  0.00    -0.004 A 
ATOM      5  C7  UNL d   1      -1.751   3.377   1.024  0.00  0.00     0.002 A 
ATOM      6  C8  UNL d   1      -1.458   2.021   1.174  0.00  0.00     0.002 A 
ENDROOT
BRANCH   1   7
ATOM      7  C2  UNL d   1      -0.084  -0.029   0.629  0.00  0.00     0.056 C 
BRANCH   7   8
ATOM      8  C1  UNL d   1       1.058  -0.527  -0.263  0.00  0.00     0.007 C 
ATOM      9  C   UNL d   1       0.747  -1.847  -0.955  0.00  0.00     0.009 C 
ENDBRANCH   7   8
ENDBRANCH   1   7
TORSDOF 2
ENDMDL
