MODEL 1
REMARK minimizedAffinity 10.7616301
REMARK minimizedRMSD -1
REMARK  0 active torsions:
REMARK  status: ('A' for Active; 'I' for Inactive)
ROOT
ATOM      1  C   UNL d   1      -2.328   2.785   1.992  0.00  0.00     0.020 A 
ATOM      2  C1  UNL d   1      -1.549   2.402   3.083  0.00  0.00     0.020 A 
ATOM      3  C2  UNL d   1      -0.342   1.731   2.878  0.00  0.00     0.034 A 
ATOM      4  C3  UNL d   1       0.090   1.441   1.578  0.00  0.00     0.017 A 
ATOM      5  C4  UNL d   1      -0.693   1.826   0.484  0.00  0.00     0.017 A 
ATOM      6  C5  UNL d   1      -1.900   2.498   0.695  0.00  0.00     0.034 A 
ATOM      7 Cl   UNL d   1      -0.226   1.503  -1.149  0.00  0.00    -0.070 Cl
ATOM      8 Cl1  UNL d   1       1.593   0.608   1.398  0.00  0.00    -0.070 Cl
ENDROOT
TORSDOF 0
ENDMDL
