MODEL 1
REMARK minimizedAffinity 12.7886972
REMARK minimizedRMSD -1
REMARK  0 active torsions:
REMARK  status: ('A' for Active; 'I' for Inactive)
ROOT
ATOM      1  C   UNL d   1      -1.523   1.593  -1.197  0.00  0.00     0.020 A 
ATOM      2  C1  UNL d   1      -0.216   2.062  -1.065  0.00  0.00     0.020 A 
ATOM      3  C2  UNL d   1       0.243   3.091  -1.889  0.00  0.00     0.034 A 
ATOM      4  C3  UNL d   1      -0.604   3.656  -2.849  0.00  0.00     0.017 A 
ATOM      5  C4  UNL d   1      -1.916   3.185  -2.981  0.00  0.00     0.017 A 
ATOM      6  C5  UNL d   1      -2.370   2.154  -2.154  0.00  0.00     0.034 A 
ATOM      7 Cl   UNL d   1      -3.020   3.831  -4.143  0.00  0.00    -0.070 Cl
ATOM      8 Cl1  UNL d   1       0.030   4.926  -3.834  0.00  0.00    -0.070 Cl
ENDROOT
TORSDOF 0
ENDMDL
