MODEL 1
REMARK minimizedAffinity 6.00963545
REMARK minimizedRMSD -1
REMARK  0 active torsions:
REMARK  status: ('A' for Active; 'I' for Inactive)
ROOT
ATOM      1  C   UNL d   1      -0.597   2.995   0.063  0.00  0.00     0.020 A 
ATOM      2  C1  UNL d   1       0.358   4.008   0.151  0.00  0.00     0.020 A 
ATOM      3  C2  UNL d   1       1.186   4.091   1.273  0.00  0.00     0.034 A 
ATOM      4  C3  UNL d   1       1.061   3.160   2.310  0.00  0.00     0.017 A 
ATOM      5  C4  UNL d   1       0.102   2.144   2.221  0.00  0.00     0.017 A 
ATOM      6  C5  UNL d   1      -0.724   2.065   1.096  0.00  0.00     0.034 A 
ATOM      7 Cl   UNL d   1      -0.111   0.959   3.461  0.00  0.00    -0.070 Cl
ATOM      8 Cl1  UNL d   1       2.118   3.323   3.667  0.00  0.00    -0.070 Cl
ENDROOT
TORSDOF 0
ENDMDL
