MODEL 1
REMARK minimizedAffinity 13.0983038
REMARK minimizedRMSD -1
REMARK  0 active torsions:
REMARK  status: ('A' for Active; 'I' for Inactive)
ROOT
ATOM      1  C   UNL d   1       4.860  -5.997  -1.287  0.00  0.00     0.020 A 
ATOM      2  C1  UNL d   1       5.546  -4.932  -0.706  0.00  0.00     0.020 A 
ATOM      3  C2  UNL d   1       4.857  -3.775  -0.337  0.00  0.00     0.034 A 
ATOM      4  C3  UNL d   1       3.476  -3.680  -0.549  0.00  0.00     0.017 A 
ATOM      5  C4  UNL d   1       2.788  -4.751  -1.132  0.00  0.00     0.017 A 
ATOM      6  C5  UNL d   1       3.484  -5.907  -1.499  0.00  0.00     0.034 A 
ATOM      7 Cl   UNL d   1       1.085  -4.708  -1.425  0.00  0.00    -0.070 Cl
ATOM      8 Cl1  UNL d   1       2.688  -2.220  -0.069  0.00  0.00    -0.070 Cl
ENDROOT
TORSDOF 0
ENDMDL
