MODEL 1
REMARK minimizedAffinity 3.82269549
REMARK minimizedRMSD -1
REMARK  0 active torsions:
REMARK  status: ('A' for Active; 'I' for Inactive)
ROOT
ATOM      1  C   UNL d   1      -0.540   3.088  -0.134  0.00  0.00     0.020 A 
ATOM      2  C1  UNL d   1       0.442   4.075  -0.051  0.00  0.00     0.020 A 
ATOM      3  C2  UNL d   1       1.198   4.211   1.115  0.00  0.00     0.034 A 
ATOM      4  C3  UNL d   1       0.974   3.359   2.202  0.00  0.00     0.017 A 
ATOM      5  C4  UNL d   1      -0.011   2.368   2.118  0.00  0.00     0.017 A 
ATOM      6  C5  UNL d   1      -0.765   2.237   0.948  0.00  0.00     0.034 A 
ATOM      7 Cl   UNL d   1      -0.345   1.279   3.418  0.00  0.00    -0.070 Cl
ATOM      8 Cl1  UNL d   1       1.947   3.583   3.613  0.00  0.00    -0.070 Cl
ENDROOT
TORSDOF 0
ENDMDL
