MODEL 1
REMARK minimizedAffinity 3.54372168
REMARK minimizedRMSD -1
REMARK  0 active torsions:
REMARK  status: ('A' for Active; 'I' for Inactive)
ROOT
ATOM      1  C   UNL d   1       1.835   4.235   2.086  0.00  0.00     0.020 A 
ATOM      2  C1  UNL d   1       1.174   3.749   3.213  0.00  0.00     0.020 A 
ATOM      3  C2  UNL d   1      -0.046   3.083   3.073  0.00  0.00     0.034 A 
ATOM      4  C3  UNL d   1      -0.608   2.901   1.804  0.00  0.00     0.017 A 
ATOM      5  C4  UNL d   1       0.057   3.390   0.674  0.00  0.00     0.017 A 
ATOM      6  C5  UNL d   1       1.278   4.056   0.819  0.00  0.00     0.034 A 
ATOM      7 Cl   UNL d   1      -0.573   3.204  -0.925  0.00  0.00    -0.070 Cl
ATOM      8 Cl1  UNL d   1      -2.118   2.068   1.706  0.00  0.00    -0.070 Cl
ENDROOT
TORSDOF 0
ENDMDL
