MODEL 1
REMARK minimizedAffinity 6.20944071
REMARK minimizedRMSD -1
REMARK  0 active torsions:
REMARK  status: ('A' for Active; 'I' for Inactive)
ROOT
ATOM      1  C   UNL d   1      -0.780  -1.821  -1.454  0.00  0.00     0.020 A 
ATOM      2  C1  UNL d   1       0.421  -1.147  -1.233  0.00  0.00     0.020 A 
ATOM      3  C2  UNL d   1       0.421   0.237  -1.050  0.00  0.00     0.034 A 
ATOM      4  C3  UNL d   1      -0.782   0.952  -1.086  0.00  0.00     0.017 A 
ATOM      5  C4  UNL d   1      -1.987   0.274  -1.308  0.00  0.00     0.017 A 
ATOM      6  C5  UNL d   1      -1.981  -1.112  -1.490  0.00  0.00     0.034 A 
ATOM      7 Cl   UNL d   1      -3.511   1.088  -1.366  0.00  0.00    -0.070 Cl
ATOM      8 Cl1  UNL d   1      -0.708   2.662  -0.851  0.00  0.00    -0.070 Cl
ENDROOT
TORSDOF 0
ENDMDL
