MODEL 1
REMARK minimizedAffinity 7.89004517
REMARK minimizedRMSD -1
REMARK  0 active torsions:
REMARK  status: ('A' for Active; 'I' for Inactive)
ROOT
ATOM      1  C   UNL d   1      -2.111  -5.147  -5.305  0.00  0.00     0.020 A 
ATOM      2  C1  UNL d   1      -2.003  -5.165  -3.915  0.00  0.00     0.020 A 
ATOM      3  C2  UNL d   1      -3.129  -5.427  -3.132  0.00  0.00     0.034 A 
ATOM      4  C3  UNL d   1      -4.367  -5.672  -3.737  0.00  0.00     0.017 A 
ATOM      5  C4  UNL d   1      -4.473  -5.654  -5.133  0.00  0.00     0.017 A 
ATOM      6  C5  UNL d   1      -3.343  -5.391  -5.913  0.00  0.00     0.034 A 
ATOM      7 Cl   UNL d   1      -5.967  -5.947  -5.952  0.00  0.00    -0.070 Cl
ATOM      8 Cl1  UNL d   1      -5.717  -5.990  -2.707  0.00  0.00    -0.070 Cl
ENDROOT
TORSDOF 0
ENDMDL
