MODEL 1
REMARK minimizedAffinity 11.709918
REMARK minimizedRMSD -1
REMARK  0 active torsions:
REMARK  status: ('A' for Active; 'I' for Inactive)
ROOT
ATOM      1  C   UNL d   1       0.013   1.517   2.966  0.00  0.00     0.020 A 
ATOM      2  C1  UNL d   1       0.744   2.677   3.218  0.00  0.00     0.020 A 
ATOM      3  C2  UNL d   1       0.856   3.660   2.233  0.00  0.00     0.034 A 
ATOM      4  C3  UNL d   1       0.235   3.485   0.991  0.00  0.00     0.017 A 
ATOM      5  C4  UNL d   1      -0.498   2.320   0.738  0.00  0.00     0.017 A 
ATOM      6  C5  UNL d   1      -0.607   1.339   1.728  0.00  0.00     0.034 A 
ATOM      7 Cl   UNL d   1      -1.291   2.033  -0.770  0.00  0.00    -0.070 Cl
ATOM      8 Cl1  UNL d   1       0.415   4.742  -0.181  0.00  0.00    -0.070 Cl
ENDROOT
TORSDOF 0
ENDMDL
