MODEL 1
REMARK minimizedAffinity 7.4482975
REMARK minimizedRMSD -1
REMARK  0 active torsions:
REMARK  status: ('A' for Active; 'I' for Inactive)
ROOT
ATOM      1  C   UNL d   1       0.226   1.429   2.262  0.00  0.00     0.020 A 
ATOM      2  C1  UNL d   1       0.930   0.405   2.895  0.00  0.00     0.020 A 
ATOM      3  C2  UNL d   1       1.462  -0.644   2.143  0.00  0.00     0.034 A 
ATOM      4  C3  UNL d   1       1.292  -0.671   0.754  0.00  0.00     0.017 A 
ATOM      5  C4  UNL d   1       0.586   0.357   0.120  0.00  0.00     0.017 A 
ATOM      6  C5  UNL d   1       0.055   1.405   0.878  0.00  0.00     0.034 A 
ATOM      7 Cl   UNL d   1       0.335   0.392  -1.590  0.00  0.00    -0.070 Cl
ATOM      8 Cl1  UNL d   1       1.978  -1.999  -0.113  0.00  0.00    -0.070 Cl
ENDROOT
TORSDOF 0
ENDMDL
