MODEL 1
REMARK minimizedAffinity -2.32399297
REMARK minimizedRMSD -1
REMARK  0 active torsions:
REMARK  status: ('A' for Active; 'I' for Inactive)
ROOT
ATOM      1  C   UNL d   1       5.441  -4.929  -0.914  0.00  0.00     0.020 A 
ATOM      2  C1  UNL d   1       4.555  -4.978  -1.990  0.00  0.00     0.020 A 
ATOM      3  C2  UNL d   1       3.760  -3.870  -2.291  0.00  0.00     0.034 A 
ATOM      4  C3  UNL d   1       3.849  -2.708  -1.515  0.00  0.00     0.017 A 
ATOM      5  C4  UNL d   1       4.739  -2.660  -0.436  0.00  0.00     0.017 A 
ATOM      6  C5  UNL d   1       5.532  -3.772  -0.139  0.00  0.00     0.034 A 
ATOM      7 Cl   UNL d   1       4.904  -1.261   0.566  0.00  0.00    -0.070 Cl
ATOM      8 Cl1  UNL d   1       2.836  -1.376  -1.945  0.00  0.00    -0.070 Cl
ENDROOT
TORSDOF 0
ENDMDL
