MODEL 1
REMARK minimizedAffinity 9.8951273
REMARK minimizedRMSD -1
REMARK  0 active torsions:
REMARK  status: ('A' for Active; 'I' for Inactive)
ROOT
ATOM      1  C   UNL d   1       4.941  -4.711  -0.956  0.00  0.00     0.020 A 
ATOM      2  C1  UNL d   1       5.075  -3.324  -0.990  0.00  0.00     0.020 A 
ATOM      3  C2  UNL d   1       4.969  -2.642  -2.204  0.00  0.00     0.034 A 
ATOM      4  C3  UNL d   1       4.729  -3.347  -3.389  0.00  0.00     0.017 A 
ATOM      5  C4  UNL d   1       4.595  -4.740  -3.354  0.00  0.00     0.017 A 
ATOM      6  C5  UNL d   1       4.702  -5.418  -2.136  0.00  0.00     0.034 A 
ATOM      7 Cl   UNL d   1       4.298  -5.679  -4.775  0.00  0.00    -0.070 Cl
ATOM      8 Cl1  UNL d   1       4.610  -2.439  -4.855  0.00  0.00    -0.070 Cl
ENDROOT
TORSDOF 0
ENDMDL
