MODEL 1
REMARK minimizedAffinity 11.3084965
REMARK minimizedRMSD -1
REMARK  0 active torsions:
REMARK  status: ('A' for Active; 'I' for Inactive)
ROOT
ATOM      1  C   UNL d   1       1.521  -4.911   0.024  0.00  0.00     0.020 A 
ATOM      2  C1  UNL d   1       1.556  -5.914  -0.944  0.00  0.00     0.020 A 
ATOM      3  C2  UNL d   1       2.639  -6.000  -1.820  0.00  0.00     0.034 A 
ATOM      4  C3  UNL d   1       3.692  -5.082  -1.731  0.00  0.00     0.017 A 
ATOM      5  C4  UNL d   1       3.656  -4.076  -0.759  0.00  0.00     0.017 A 
ATOM      6  C5  UNL d   1       2.568  -3.994   0.117  0.00  0.00     0.034 A 
ATOM      7 Cl   UNL d   1       4.917  -2.907  -0.587  0.00  0.00    -0.070 Cl
ATOM      8 Cl1  UNL d   1       5.000  -5.248  -2.847  0.00  0.00    -0.070 Cl
ENDROOT
TORSDOF 0
ENDMDL
