MODEL 1
REMARK minimizedAffinity 2.0546186
REMARK minimizedRMSD -1
REMARK  0 active torsions:
REMARK  status: ('A' for Active; 'I' for Inactive)
ROOT
ATOM      1  C   UNL d   1      -2.736   3.963  -3.291  0.00  0.00    -0.002 A 
ATOM      2  C1  UNL d   1      -3.915   3.270  -3.060  0.00  0.00     0.010 A 
ATOM      3  C2  UNL d   1      -3.886   1.954  -2.594  0.00  0.00     0.041 A 
ATOM      4  C3  UNL d   1      -2.639   1.341  -2.361  0.00  0.00    -0.075 A 
ATOM      5  S   UNL d   1      -2.359  -0.261  -1.789  0.00  0.00     0.015 SA
ATOM      6  C4  UNL d   1      -0.667  -0.063  -1.838  0.00  0.00     0.022 A 
ATOM      7  C5  UNL d   1      -0.307   1.189  -2.277  0.00  0.00     0.026 A 
ATOM      8  C6  UNL d   1      -1.438   2.019  -2.585  0.00  0.00    -0.082 A 
ATOM      9  C7  UNL d   1      -1.501   3.352  -3.058  0.00  0.00     0.045 A 
ENDROOT
TORSDOF 0
ENDMDL
