MODEL 1
REMARK minimizedAffinity 5.54445553
REMARK minimizedRMSD -1
REMARK  0 active torsions:
REMARK  status: ('A' for Active; 'I' for Inactive)
ROOT
ATOM      1  C   UNL d   1       2.028  -0.700  -1.389  0.00  0.00    -0.002 A 
ATOM      2  C1  UNL d   1       0.831  -0.096  -1.745  0.00  0.00     0.010 A 
ATOM      3  C2  UNL d   1      -0.226  -0.025  -0.835  0.00  0.00     0.041 A 
ATOM      4  C3  UNL d   1      -0.057  -0.575   0.451  0.00  0.00    -0.075 A 
ATOM      5  S   UNL d   1      -1.213  -0.603   1.730  0.00  0.00     0.015 SA
ATOM      6  C4  UNL d   1      -0.144  -1.416   2.779  0.00  0.00     0.022 A 
ATOM      7  C5  UNL d   1       1.070  -1.668   2.184  0.00  0.00     0.026 A 
ATOM      8  C6  UNL d   1       1.140  -1.187   0.833  0.00  0.00    -0.082 A 
ATOM      9  C7  UNL d   1       2.193  -1.244  -0.112  0.00  0.00     0.045 A 
ENDROOT
TORSDOF 0
ENDMDL
