MODEL 1
REMARK minimizedAffinity 7.71092892
REMARK minimizedRMSD -1
REMARK  0 active torsions:
REMARK  status: ('A' for Active; 'I' for Inactive)
ROOT
ATOM      1  C   UNL d   1       2.616  -1.501  -0.473  0.00  0.00    -0.002 A 
ATOM      2  C1  UNL d   1       2.585  -1.113   0.859  0.00  0.00     0.010 A 
ATOM      3  C2  UNL d   1       1.616  -0.218   1.316  0.00  0.00     0.041 A 
ATOM      4  C3  UNL d   1       0.669   0.286   0.403  0.00  0.00    -0.075 A 
ATOM      5  S   UNL d   1      -0.610   1.393   0.736  0.00  0.00     0.015 SA
ATOM      6  C4  UNL d   1      -1.145   1.378  -0.882  0.00  0.00     0.022 A 
ATOM      7  C5  UNL d   1      -0.378   0.554  -1.671  0.00  0.00     0.026 A 
ATOM      8  C6  UNL d   1       0.680  -0.090  -0.943  0.00  0.00    -0.082 A 
ATOM      9  C7  UNL d   1       1.675  -0.999  -1.376  0.00  0.00     0.045 A 
ENDROOT
TORSDOF 0
ENDMDL
