MODEL 1
REMARK minimizedAffinity 0.717759609
REMARK minimizedRMSD -1
REMARK  0 active torsions:
REMARK  status: ('A' for Active; 'I' for Inactive)
ROOT
ATOM      1  C   UNL d   1       1.498  -1.183   2.931  0.00  0.00    -0.002 A 
ATOM      2  C1  UNL d   1       0.200  -1.664   3.036  0.00  0.00     0.010 A 
ATOM      3  C2  UNL d   1      -0.753  -1.354   2.064  0.00  0.00     0.041 A 
ATOM      4  C3  UNL d   1      -0.377  -0.546   0.974  0.00  0.00    -0.075 A 
ATOM      5  S   UNL d   1      -1.376  -0.038  -0.337  0.00  0.00     0.015 SA
ATOM      6  C4  UNL d   1      -0.104   0.829  -1.068  0.00  0.00     0.022 A 
ATOM      7  C5  UNL d   1       1.062   0.744  -0.343  0.00  0.00     0.026 A 
ATOM      8  C6  UNL d   1       0.923  -0.050   0.845  0.00  0.00    -0.082 A 
ATOM      9  C7  UNL d   1       1.867  -0.381   1.847  0.00  0.00     0.045 A 
ENDROOT
TORSDOF 0
ENDMDL
