MODEL 1
REMARK minimizedAffinity -2.1636579
REMARK minimizedRMSD -1
REMARK  0 active torsions:
REMARK  status: ('A' for Active; 'I' for Inactive)
ROOT
ATOM      1  C   UNL d   1       0.566  -1.441   0.448  0.00  0.00     0.078 C 
ATOM      2  C1  UNL d   1      -0.063  -2.260  -0.640  0.00  0.00    -0.077 A 
ATOM      3  C2  UNL d   1      -1.136  -3.117  -0.368  0.00  0.00    -0.001 A 
ATOM      4  C3  UNL d   1      -1.706  -3.880  -1.389  0.00  0.00     0.003 A 
ATOM      5  C4  UNL d   1      -1.207  -3.796  -2.687  0.00  0.00    -0.005 A 
ATOM      6  C5  UNL d   1      -0.138  -2.948  -2.966  0.00  0.00     0.003 A 
ATOM      7  C6  UNL d   1       0.433  -2.183  -1.947  0.00  0.00    -0.001 A 
ENDROOT
TORSDOF 0
ENDMDL
