MODEL 1
REMARK minimizedAffinity -4.99093246
REMARK minimizedRMSD -1
REMARK  0 active torsions:
REMARK  status: ('A' for Active; 'I' for Inactive)
ROOT
ATOM      1  C   UNL d   1       0.515   3.485  -0.090  0.00  0.00     0.078 C 
ATOM      2  C1  UNL d   1       0.382   2.009   0.140  0.00  0.00    -0.077 A 
ATOM      3  C2  UNL d   1       1.467   1.148  -0.058  0.00  0.00    -0.001 A 
ATOM      4  C3  UNL d   1       1.326  -0.225   0.150  0.00  0.00     0.003 A 
ATOM      5  C4  UNL d   1       0.101  -0.749   0.556  0.00  0.00    -0.005 A 
ATOM      6  C5  UNL d   1      -0.986   0.100   0.754  0.00  0.00     0.003 A 
ATOM      7  C6  UNL d   1      -0.847   1.473   0.547  0.00  0.00    -0.001 A 
ENDROOT
TORSDOF 0
ENDMDL
