MODEL 1
REMARK minimizedAffinity -3.89309669
REMARK minimizedRMSD -1
REMARK  0 active torsions:
REMARK  status: ('A' for Active; 'I' for Inactive)
ROOT
ATOM      1  C   UNL d   1       0.088   3.258  -0.142  0.00  0.00     0.078 C 
ATOM      2  C1  UNL d   1       0.303   1.779  -0.021  0.00  0.00    -0.077 A 
ATOM      3  C2  UNL d   1      -0.773   0.886  -0.084  0.00  0.00    -0.001 A 
ATOM      4  C3  UNL d   1      -0.559  -0.487   0.040  0.00  0.00     0.003 A 
ATOM      5  C4  UNL d   1       0.730  -0.980   0.230  0.00  0.00    -0.005 A 
ATOM      6  C5  UNL d   1       1.808  -0.099   0.296  0.00  0.00     0.003 A 
ATOM      7  C6  UNL d   1       1.595   1.275   0.172  0.00  0.00    -0.001 A 
ENDROOT
TORSDOF 0
ENDMDL
