MODEL 1
REMARK minimizedAffinity -2.52809405
REMARK minimizedRMSD -1
REMARK  0 active torsions:
REMARK  status: ('A' for Active; 'I' for Inactive)
ROOT
ATOM      1  C   UNL d   1      -0.057   3.705   0.923  0.00  0.00     0.078 C 
ATOM      2  C1  UNL d   1       0.268   2.251   0.756  0.00  0.00    -0.077 A 
ATOM      3  C2  UNL d   1       1.588   1.792   0.842  0.00  0.00    -0.001 A 
ATOM      4  C3  UNL d   1       1.876   0.437   0.674  0.00  0.00     0.003 A 
ATOM      5  C4  UNL d   1       0.850  -0.470   0.418  0.00  0.00    -0.005 A 
ATOM      6  C5  UNL d   1      -0.466  -0.023   0.329  0.00  0.00     0.003 A 
ATOM      7  C6  UNL d   1      -0.757   1.332   0.496  0.00  0.00    -0.001 A 
ENDROOT
TORSDOF 0
ENDMDL
