MODEL 1
REMARK minimizedAffinity -1.85863018
REMARK minimizedRMSD -1
REMARK  0 active torsions:
REMARK  status: ('A' for Active; 'I' for Inactive)
ROOT
ATOM      1  C   UNL d   1       0.058  -1.463  -0.313  0.00  0.00     0.078 C 
ATOM      2  C1  UNL d   1       0.495  -0.031  -0.227  0.00  0.00    -0.077 A 
ATOM      3  C2  UNL d   1      -0.442   1.007  -0.159  0.00  0.00    -0.001 A 
ATOM      4  C3  UNL d   1      -0.021   2.335  -0.089  0.00  0.00     0.003 A 
ATOM      5  C4  UNL d   1       1.339   2.639  -0.089  0.00  0.00    -0.005 A 
ATOM      6  C5  UNL d   1       2.280   1.613  -0.159  0.00  0.00     0.003 A 
ATOM      7  C6  UNL d   1       1.860   0.284  -0.229  0.00  0.00    -0.001 A 
ENDROOT
TORSDOF 0
ENDMDL
