MODEL 1
REMARK minimizedAffinity -1.16863143
REMARK minimizedRMSD -1
REMARK  0 active torsions:
REMARK  status: ('A' for Active; 'I' for Inactive)
ROOT
ATOM      1  C   UNL d   1      -2.087  -0.084   0.495  0.00  0.00     0.078 C 
ATOM      2  C1  UNL d   1      -0.607   0.020   0.278  0.00  0.00    -0.077 A 
ATOM      3  C2  UNL d   1       0.211  -1.115   0.326  0.00  0.00    -0.001 A 
ATOM      4  C3  UNL d   1       1.589  -1.001   0.131  0.00  0.00     0.003 A 
ATOM      5  C4  UNL d   1       2.160   0.246  -0.112  0.00  0.00    -0.005 A 
ATOM      6  C5  UNL d   1       1.355   1.382  -0.160  0.00  0.00     0.003 A 
ATOM      7  C6  UNL d   1      -0.023   1.270   0.035  0.00  0.00    -0.001 A 
ENDROOT
TORSDOF 0
ENDMDL
