MODEL 1
REMARK minimizedAffinity -5.89227486
REMARK minimizedRMSD -1
REMARK  0 active torsions:
REMARK  status: ('A' for Active; 'I' for Inactive)
ROOT
ATOM      1  C   UNL d   1       0.065  -0.576   0.084  0.00  0.00     0.078 C 
ATOM      2  C1  UNL d   1       0.711   0.767   0.246  0.00  0.00    -0.077 A 
ATOM      3  C2  UNL d   1      -0.017   1.946   0.048  0.00  0.00    -0.001 A 
ATOM      4  C3  UNL d   1       0.600   3.190   0.192  0.00  0.00     0.003 A 
ATOM      5  C4  UNL d   1       1.949   3.266   0.533  0.00  0.00    -0.005 A 
ATOM      6  C5  UNL d   1       2.682   2.098   0.729  0.00  0.00     0.003 A 
ATOM      7  C6  UNL d   1       2.067   0.854   0.586  0.00  0.00    -0.001 A 
ENDROOT
TORSDOF 0
ENDMDL
