MODEL 1
REMARK minimizedAffinity -1.91530013
REMARK minimizedRMSD -1
REMARK  0 active torsions:
REMARK  status: ('A' for Active; 'I' for Inactive)
ROOT
ATOM      1  C   UNL d   1      -0.686  -0.460   0.489  0.00  0.00     0.078 C 
ATOM      2  C1  UNL d   1       0.225   0.731   0.485  0.00  0.00    -0.077 A 
ATOM      3  C2  UNL d   1       1.486   0.673  -0.119  0.00  0.00    -0.001 A 
ATOM      4  C3  UNL d   1       2.327   1.787  -0.107  0.00  0.00     0.003 A 
ATOM      5  C4  UNL d   1       1.916   2.967   0.510  0.00  0.00    -0.005 A 
ATOM      6  C5  UNL d   1       0.664   3.034   1.117  0.00  0.00     0.003 A 
ATOM      7  C6  UNL d   1      -0.179   1.921   1.105  0.00  0.00    -0.001 A 
ENDROOT
TORSDOF 0
ENDMDL
