MODEL 1
REMARK minimizedAffinity -5.45938063
REMARK minimizedRMSD -1
REMARK  0 active torsions:
REMARK  status: ('A' for Active; 'I' for Inactive)
ROOT
ATOM      1  C   UNL d   1      -0.021  -1.581   0.007  0.00  0.00     0.078 C 
ATOM      2  C1  UNL d   1       0.154  -0.093  -0.032  0.00  0.00    -0.077 A 
ATOM      3  C2  UNL d   1      -0.932   0.767   0.173  0.00  0.00    -0.001 A 
ATOM      4  C3  UNL d   1      -0.757   2.151   0.123  0.00  0.00     0.003 A 
ATOM      5  C4  UNL d   1       0.504   2.687  -0.133  0.00  0.00    -0.005 A 
ATOM      6  C5  UNL d   1       1.590   1.840  -0.341  0.00  0.00     0.003 A 
ATOM      7  C6  UNL d   1       1.416   0.456  -0.292  0.00  0.00    -0.001 A 
ENDROOT
TORSDOF 0
ENDMDL
