MODEL 1
REMARK minimizedAffinity -4.38265848
REMARK minimizedRMSD -1
REMARK  0 active torsions:
REMARK  status: ('A' for Active; 'I' for Inactive)
ROOT
ATOM      1  C   UNL d   1      -0.233  -0.974   0.013  0.00  0.00     0.078 C 
ATOM      2  C1  UNL d   1      -0.066   0.499   0.235  0.00  0.00    -0.077 A 
ATOM      3  C2  UNL d   1       1.051   1.182  -0.262  0.00  0.00    -0.001 A 
ATOM      4  C3  UNL d   1       1.198   2.552  -0.038  0.00  0.00     0.003 A 
ATOM      5  C4  UNL d   1       0.233   3.251   0.683  0.00  0.00    -0.005 A 
ATOM      6  C5  UNL d   1      -0.881   2.579   1.184  0.00  0.00     0.003 A 
ATOM      7  C6  UNL d   1      -1.030   1.210   0.962  0.00  0.00    -0.001 A 
ENDROOT
TORSDOF 0
ENDMDL
