MODEL 1
REMARK minimizedAffinity -5.8105278
REMARK minimizedRMSD -1
REMARK  0 active torsions:
REMARK  status: ('A' for Active; 'I' for Inactive)
ROOT
ATOM      1  C   UNL d   1      -0.018  -1.154   0.053  0.00  0.00     0.078 C 
ATOM      2  C1  UNL d   1      -0.040   0.345   0.076  0.00  0.00    -0.077 A 
ATOM      3  C2  UNL d   1      -1.218   1.044   0.363  0.00  0.00    -0.001 A 
ATOM      4  C3  UNL d   1      -1.226   2.440   0.372  0.00  0.00     0.003 A 
ATOM      5  C4  UNL d   1      -0.059   3.148   0.093  0.00  0.00    -0.005 A 
ATOM      6  C5  UNL d   1       1.118   2.461  -0.196  0.00  0.00     0.003 A 
ATOM      7  C6  UNL d   1       1.128   1.065  -0.205  0.00  0.00    -0.001 A 
ENDROOT
TORSDOF 0
ENDMDL
