MODEL 1
REMARK minimizedAffinity -4.44592333
REMARK minimizedRMSD -1
REMARK  0 active torsions:
REMARK  status: ('A' for Active; 'I' for Inactive)
ROOT
ATOM      1  C   UNL d   1       0.012   3.585  -0.004  0.00  0.00     0.078 C 
ATOM      2  C1  UNL d   1      -0.245   2.120   0.185  0.00  0.00    -0.077 A 
ATOM      3  C2  UNL d   1       0.662   1.162  -0.284  0.00  0.00    -0.001 A 
ATOM      4  C3  UNL d   1       0.406  -0.199  -0.110  0.00  0.00     0.003 A 
ATOM      5  C4  UNL d   1      -0.758  -0.614   0.533  0.00  0.00    -0.005 A 
ATOM      6  C5  UNL d   1      -1.668   0.331   1.002  0.00  0.00     0.003 A 
ATOM      7  C6  UNL d   1      -1.413   1.692   0.828  0.00  0.00    -0.001 A 
ENDROOT
TORSDOF 0
ENDMDL
