MODEL 1
REMARK minimizedAffinity -5.03051281
REMARK minimizedRMSD -1
REMARK  0 active torsions:
REMARK  status: ('A' for Active; 'I' for Inactive)
ROOT
ATOM      1  C   UNL d   1       0.391   3.238  -0.042  0.00  0.00     0.078 C 
ATOM      2  C1  UNL d   1       0.584   1.787   0.285  0.00  0.00    -0.077 A 
ATOM      3  C2  UNL d   1      -0.508   0.963   0.583  0.00  0.00    -0.001 A 
ATOM      4  C3  UNL d   1      -0.312  -0.383   0.895  0.00  0.00     0.003 A 
ATOM      5  C4  UNL d   1       0.975  -0.917   0.913  0.00  0.00    -0.005 A 
ATOM      6  C5  UNL d   1       2.068  -0.105   0.619  0.00  0.00     0.003 A 
ATOM      7  C6  UNL d   1       1.874   1.242   0.307  0.00  0.00    -0.001 A 
ENDROOT
TORSDOF 0
ENDMDL
