MODEL 1
REMARK minimizedAffinity 15.632865
REMARK minimizedRMSD -1
REMARK  1 active torsions:
REMARK  status: ('A' for Active; 'I' for Inactive)
REMARK    1  A    between atoms: C1_2  and  C2_3 
ROOT
ATOM      1  C2  UNL d   1      -2.235   0.442   0.565  0.00  0.00    -0.081 A 
ATOM      2  C3  UNL d   1      -0.869   0.158   0.674  0.00  0.00     0.006 A 
ATOM      3  C4  UNL d   1      -0.350  -0.391   1.849  0.00  0.00     0.002 A 
ATOM      4  C5  UNL d   1      -1.190  -0.673   2.932  0.00  0.00    -0.080 A 
ATOM      5  C6  UNL d   1      -0.652  -1.290   4.188  0.00  0.00     0.076 C 
ATOM      6  C7  UNL d   1      -2.553  -0.373   2.830  0.00  0.00     0.002 A 
ATOM      7  C8  UNL d   1      -3.072   0.177   1.655  0.00  0.00     0.006 A 
ENDROOT
BRANCH   1   8
ATOM      8  C1  UNL d   1      -2.808   0.974  -0.724  0.00  0.00     0.054 C 
ATOM      9  C   UNL d   1      -4.190   1.574  -0.509  0.00  0.00     0.018 C 
ENDBRANCH   1   8
TORSDOF 1
ENDMDL
