MODEL 1
REMARK minimizedAffinity 8.55532265
REMARK minimizedRMSD -1
REMARK  1 active torsions:
REMARK  status: ('A' for Active; 'I' for Inactive)
REMARK    1  A    between atoms: C1_2  and  C2_3 
ROOT
ATOM      1  C2  UNL d   1      -1.436   0.290   0.732  0.00  0.00    -0.081 A 
ATOM      2  C3  UNL d   1      -0.088  -0.001   0.976  0.00  0.00     0.006 A 
ATOM      3  C4  UNL d   1       0.323  -0.453   2.233  0.00  0.00     0.002 A 
ATOM      4  C5  UNL d   1      -0.607  -0.628   3.263  0.00  0.00    -0.080 A 
ATOM      5  C6  UNL d   1      -0.184  -1.141   4.607  0.00  0.00     0.076 C 
ATOM      6  C7  UNL d   1      -1.951  -0.321   3.025  0.00  0.00     0.002 A 
ATOM      7  C8  UNL d   1      -2.362   0.131   1.769  0.00  0.00     0.006 A 
ENDROOT
BRANCH   1   8
ATOM      8  C1  UNL d   1      -1.892   0.715  -0.640  0.00  0.00     0.054 C 
ATOM      9  C   UNL d   1      -3.367   1.091  -0.641  0.00  0.00     0.018 C 
ENDBRANCH   1   8
TORSDOF 1
ENDMDL
