MODEL 1
REMARK minimizedAffinity -2.28081322
REMARK minimizedRMSD -1
REMARK  1 active torsions:
REMARK  status: ('A' for Active; 'I' for Inactive)
REMARK    1  A    between atoms: C1_2  and  C2_3 
ROOT
ATOM      1  C2  UNL d   1       1.654   0.007  -2.446  0.00  0.00    -0.081 A 
ATOM      2  C3  UNL d   1       0.666  -0.771  -1.830  0.00  0.00     0.006 A 
ATOM      3  C4  UNL d   1       0.619  -0.883  -0.438  0.00  0.00     0.002 A 
ATOM      4  C5  UNL d   1       1.554  -0.214   0.360  0.00  0.00    -0.080 A 
ATOM      5  C6  UNL d   1       1.496  -0.302   1.856  0.00  0.00     0.076 C 
ATOM      6  C7  UNL d   1       2.551   0.548  -0.257  0.00  0.00     0.002 A 
ATOM      7  C8  UNL d   1       2.599   0.661  -1.648  0.00  0.00     0.006 A 
ENDROOT
BRANCH   1   8
ATOM      8  C1  UNL d   1       1.668   0.182  -3.943  0.00  0.00     0.054 C 
ATOM      9  C   UNL d   1       0.256   0.274  -4.503  0.00  0.00     0.018 C 
ENDBRANCH   1   8
TORSDOF 1
ENDMDL
