MODEL 1
REMARK minimizedAffinity 1.31899369
REMARK minimizedRMSD -1
REMARK  1 active torsions:
REMARK  status: ('A' for Active; 'I' for Inactive)
REMARK    1  A    between atoms: C1_2  and  C2_3 
ROOT
ATOM      1  C2  UNL d   1       0.581   0.647   0.792  0.00  0.00    -0.081 A 
ATOM      2  C3  UNL d   1       0.422  -0.281  -0.244  0.00  0.00     0.006 A 
ATOM      3  C4  UNL d   1      -0.854  -0.652  -0.673  0.00  0.00     0.002 A 
ATOM      4  C5  UNL d   1      -1.992  -0.097  -0.079  0.00  0.00    -0.080 A 
ATOM      5  C6  UNL d   1      -3.368  -0.464  -0.551  0.00  0.00     0.076 C 
ATOM      6  C7  UNL d   1      -1.834   0.817   0.969  0.00  0.00     0.002 A 
ATOM      7  C8  UNL d   1      -0.559   1.188   1.398  0.00  0.00     0.006 A 
ENDROOT
BRANCH   1   8
ATOM      8  C1  UNL d   1       1.956   1.098   1.214  0.00  0.00     0.054 C 
ATOM      9  C   UNL d   1       2.164   2.579   0.928  0.00  0.00     0.018 C 
ENDBRANCH   1   8
TORSDOF 1
ENDMDL
