MODEL 1
REMARK minimizedAffinity 6.43866396
REMARK minimizedRMSD -1
REMARK  1 active torsions:
REMARK  status: ('A' for Active; 'I' for Inactive)
REMARK    1  A    between atoms: C1_2  and  C2_3 
ROOT
ATOM      1  C2  UNL d   1       4.055   3.696  -0.141  0.00  0.00    -0.081 A 
ATOM      2  C3  UNL d   1       3.543   2.608   0.577  0.00  0.00     0.006 A 
ATOM      3  C4  UNL d   1       3.488   2.644   1.972  0.00  0.00     0.002 A 
ATOM      4  C5  UNL d   1       3.936   3.769   2.672  0.00  0.00    -0.080 A 
ATOM      5  C6  UNL d   1       3.854   3.832   4.168  0.00  0.00     0.076 C 
ATOM      6  C7  UNL d   1       4.464   4.848   1.956  0.00  0.00     0.002 A 
ATOM      7  C8  UNL d   1       4.521   4.813   0.561  0.00  0.00     0.006 A 
ENDROOT
BRANCH   1   8
ATOM      8  C1  UNL d   1       4.057   3.687  -1.648  0.00  0.00     0.054 C 
ATOM      9  C   UNL d   1       3.797   2.289  -2.194  0.00  0.00     0.018 C 
ENDBRANCH   1   8
TORSDOF 1
ENDMDL
