MODEL 1
REMARK minimizedAffinity 1.04270053
REMARK minimizedRMSD -1
REMARK  1 active torsions:
REMARK  status: ('A' for Active; 'I' for Inactive)
REMARK    1  A    between atoms: C1_2  and  C2_3 
ROOT
ATOM      1  C2  UNL d   1      -1.624  -0.581   2.440  0.00  0.00    -0.081 A 
ATOM      2  C3  UNL d   1      -0.241  -0.547   2.223  0.00  0.00     0.006 A 
ATOM      3  C4  UNL d   1       0.269  -0.444   0.926  0.00  0.00     0.002 A 
ATOM      4  C5  UNL d   1      -0.593  -0.366  -0.172  0.00  0.00    -0.080 A 
ATOM      5  C6  UNL d   1      -0.058  -0.224  -1.566  0.00  0.00     0.076 C 
ATOM      6  C7  UNL d   1      -1.974  -0.417   0.044  0.00  0.00     0.002 A 
ATOM      7  C8  UNL d   1      -2.486  -0.521   1.339  0.00  0.00     0.006 A 
ENDROOT
BRANCH   1   8
ATOM      8  C1  UNL d   1      -2.179  -0.627   3.841  0.00  0.00     0.054 C 
ATOM      9  C   UNL d   1      -3.020  -1.876   4.063  0.00  0.00     0.018 C 
ENDBRANCH   1   8
TORSDOF 1
ENDMDL
