MODEL 1
REMARK minimizedAffinity 4.87445736
REMARK minimizedRMSD -1
REMARK  1 active torsions:
REMARK  status: ('A' for Active; 'I' for Inactive)
REMARK    1  A    between atoms: C1_2  and  C2_3 
ROOT
ATOM      1  C2  UNL d   1      -0.889  -0.990   3.812  0.00  0.00    -0.081 A 
ATOM      2  C3  UNL d   1      -2.116  -0.327   3.686  0.00  0.00     0.006 A 
ATOM      3  C4  UNL d   1      -2.446   0.333   2.500  0.00  0.00     0.002 A 
ATOM      4  C5  UNL d   1      -1.558   0.336   1.419  0.00  0.00    -0.080 A 
ATOM      5  C6  UNL d   1      -1.912   1.016   0.130  0.00  0.00     0.076 C 
ATOM      6  C7  UNL d   1      -0.324  -0.311   1.551  0.00  0.00     0.002 A 
ATOM      7  C8  UNL d   1       0.006  -0.971   2.737  0.00  0.00     0.006 A 
ENDROOT
BRANCH   1   8
ATOM      8  C1  UNL d   1      -0.558  -1.758   5.067  0.00  0.00     0.054 C 
ATOM      9  C   UNL d   1       0.326  -0.941   5.998  0.00  0.00     0.018 C 
ENDBRANCH   1   8
TORSDOF 1
ENDMDL
