MODEL 1
REMARK minimizedAffinity 0.704486907
REMARK minimizedRMSD -1
REMARK  1 active torsions:
REMARK  status: ('A' for Active; 'I' for Inactive)
REMARK    1  A    between atoms: C1_2  and  C2_3 
ROOT
ATOM      1  C2  UNL d   1      -0.071  -0.709   1.332  0.00  0.00    -0.081 A 
ATOM      2  C3  UNL d   1      -0.424  -0.797  -0.020  0.00  0.00     0.006 A 
ATOM      3  C4  UNL d   1      -1.697  -0.409  -0.446  0.00  0.00     0.002 A 
ATOM      4  C5  UNL d   1      -2.634   0.080   0.470  0.00  0.00    -0.080 A 
ATOM      5  C6  UNL d   1      -3.993   0.529   0.021  0.00  0.00     0.076 C 
ATOM      6  C7  UNL d   1      -2.287   0.151   1.823  0.00  0.00     0.002 A 
ATOM      7  C8  UNL d   1      -1.015  -0.237   2.250  0.00  0.00     0.006 A 
ENDROOT
BRANCH   1   8
ATOM      8  C1  UNL d   1       1.322  -1.066   1.785  0.00  0.00     0.054 C 
ATOM      9  C   UNL d   1       2.344  -0.062   1.273  0.00  0.00     0.018 C 
ENDBRANCH   1   8
TORSDOF 1
ENDMDL
