MODEL 1
REMARK minimizedAffinity -0.712768614
REMARK minimizedRMSD -1
REMARK  1 active torsions:
REMARK  status: ('A' for Active; 'I' for Inactive)
REMARK    1  A    between atoms: N_2  and  C1_3 
ROOT
ATOM      1  C1  UNL d   1      -5.449  -4.322  -4.241  0.00  0.00     0.143 A 
ATOM      2  C2  UNL d   1      -5.715  -3.451  -3.179  0.00  0.00    -0.057 A 
ATOM      3  C3  UNL d   1      -5.486  -3.833  -1.852  0.00  0.00     0.033 A 
ATOM      4  C4  UNL d   1      -5.013  -5.108  -1.561  0.00  0.00    -0.042 A 
ATOM      5  C5  UNL d   1      -4.765  -5.999  -2.599  0.00  0.00     0.033 A 
ATOM      6  C6  UNL d   1      -4.989  -5.609  -3.923  0.00  0.00    -0.057 A 
ENDROOT
BRANCH   1   7
ATOM      7  N   UNL d   1      -5.748  -4.036  -5.576  0.00  0.00    -0.732 N 
ATOM      8  C   UNL d   1      -5.997  -2.675  -6.000  0.00  0.00     0.284 C 
ATOM      9  H3  UNL d   1      -5.182  -4.577  -6.225  0.00  0.00     0.395 HD
ENDBRANCH   1   7
TORSDOF 1
ENDMDL
