MODEL 1
REMARK minimizedAffinity -1.90318251
REMARK minimizedRMSD -1
REMARK  1 active torsions:
REMARK  status: ('A' for Active; 'I' for Inactive)
REMARK    1  A    between atoms: N_2  and  C1_3 
ROOT
ATOM      1  C1  UNL d   1      -5.595  -4.448  -3.341  0.00  0.00     0.143 A 
ATOM      2  C2  UNL d   1      -6.000  -3.665  -4.428  0.00  0.00    -0.057 A 
ATOM      3  C3  UNL d   1      -5.723  -4.052  -5.745  0.00  0.00     0.033 A 
ATOM      4  C4  UNL d   1      -5.009  -5.219  -5.997  0.00  0.00    -0.042 A 
ATOM      5  C5  UNL d   1      -4.576  -6.000  -4.932  0.00  0.00     0.033 A 
ATOM      6  C6  UNL d   1      -4.861  -5.611  -3.619  0.00  0.00    -0.057 A 
ENDROOT
BRANCH   1   7
ATOM      7  N   UNL d   1      -5.754  -4.066  -2.006  0.00  0.00    -0.732 N 
ATOM      8  C   UNL d   1      -6.000  -2.683  -1.659  0.00  0.00     0.284 C 
ATOM      9  H3  UNL d   1      -6.309  -4.734  -1.475  0.00  0.00     0.395 HD
ENDBRANCH   1   7
TORSDOF 1
ENDMDL
