MODEL 1
REMARK minimizedAffinity 5.74863911
REMARK minimizedRMSD -1
REMARK  1 active torsions:
REMARK  status: ('A' for Active; 'I' for Inactive)
REMARK    1  A    between atoms: N_2  and  C1_3 
ROOT
ATOM      1  C1  UNL d   1       4.700  -0.625  -3.741  0.00  0.00     0.143 A 
ATOM      2  C2  UNL d   1       5.800  -0.782  -4.589  0.00  0.00    -0.057 A 
ATOM      3  C3  UNL d   1       5.985   0.049  -5.701  0.00  0.00     0.033 A 
ATOM      4  C4  UNL d   1       5.053   1.038  -6.000  0.00  0.00    -0.042 A 
ATOM      5  C5  UNL d   1       3.939   1.196  -5.184  0.00  0.00     0.033 A 
ATOM      6  C6  UNL d   1       3.763   0.367  -4.072  0.00  0.00    -0.057 A 
ENDROOT
BRANCH   1   7
ATOM      7  N   UNL d   1       4.408  -1.483  -2.677  0.00  0.00    -0.732 N 
ATOM      8  C   UNL d   1       3.102  -2.095  -2.560  0.00  0.00     0.284 C 
ATOM      9  H3  UNL d   1       5.181  -2.108  -2.460  0.00  0.00     0.395 HD
ENDBRANCH   1   7
TORSDOF 1
ENDMDL
