MODEL 1
REMARK minimizedAffinity -0.318914115
REMARK minimizedRMSD -1
REMARK  1 active torsions:
REMARK  status: ('A' for Active; 'I' for Inactive)
REMARK    1  A    between atoms: N_2  and  C1_3 
ROOT
ATOM      1  C1  UNL d   1      -5.512  -4.970  -3.607  0.00  0.00     0.143 A 
ATOM      2  C2  UNL d   1      -5.912  -5.491  -4.843  0.00  0.00    -0.057 A 
ATOM      3  C3  UNL d   1      -6.000  -4.678  -5.979  0.00  0.00     0.033 A 
ATOM      4  C4  UNL d   1      -5.715  -3.319  -5.894  0.00  0.00    -0.042 A 
ATOM      5  C5  UNL d   1      -5.340  -2.775  -4.671  0.00  0.00     0.033 A 
ATOM      6  C6  UNL d   1      -5.247  -3.593  -3.541  0.00  0.00    -0.057 A 
ENDROOT
BRANCH   1   7
ATOM      7  N   UNL d   1      -5.500  -5.706  -2.420  0.00  0.00    -0.732 N 
ATOM      8  C   UNL d   1      -4.253  -5.998  -1.746  0.00  0.00     0.284 C 
ATOM      9  H3  UNL d   1      -6.260  -5.447  -1.795  0.00  0.00     0.395 HD
ENDBRANCH   1   7
TORSDOF 1
ENDMDL
