MODEL 1
REMARK minimizedAffinity 9.9148035
REMARK minimizedRMSD -1
REMARK  1 active torsions:
REMARK  status: ('A' for Active; 'I' for Inactive)
REMARK    1  A    between atoms: N_2  and  C1_3 
ROOT
ATOM      1  C1  UNL d   1       4.485  -1.112  -4.074  0.00  0.00     0.143 A 
ATOM      2  C2  UNL d   1       4.013   0.202  -4.152  0.00  0.00    -0.057 A 
ATOM      3  C3  UNL d   1       4.503   1.094  -5.114  0.00  0.00     0.033 A 
ATOM      4  C4  UNL d   1       5.498   0.693  -5.999  0.00  0.00    -0.042 A 
ATOM      5  C5  UNL d   1       6.000  -0.601  -5.924  0.00  0.00     0.033 A 
ATOM      6  C6  UNL d   1       5.502  -1.489  -4.965  0.00  0.00    -0.057 A 
ENDROOT
BRANCH   1   7
ATOM      7  N   UNL d   1       4.109  -2.016  -3.077  0.00  0.00    -0.732 N 
ATOM      8  C   UNL d   1       2.810  -2.653  -3.111  0.00  0.00     0.284 C 
ATOM      9  H3  UNL d   1       4.869  -2.637  -2.808  0.00  0.00     0.395 HD
ENDBRANCH   1   7
TORSDOF 1
ENDMDL
