MODEL 1
REMARK minimizedAffinity -1.21649563
REMARK minimizedRMSD -1
REMARK  1 active torsions:
REMARK  status: ('A' for Active; 'I' for Inactive)
REMARK    1  A    between atoms: N_2  and  C1_3 
ROOT
ATOM      1  C1  UNL d   1      -5.688  -4.736  -4.080  0.00  0.00     0.143 A 
ATOM      2  C2  UNL d   1      -4.991  -5.856  -3.614  0.00  0.00    -0.057 A 
ATOM      3  C3  UNL d   1      -4.652  -5.990  -2.262  0.00  0.00     0.033 A 
ATOM      4  C4  UNL d   1      -4.981  -4.989  -1.354  0.00  0.00    -0.042 A 
ATOM      5  C5  UNL d   1      -5.652  -3.856  -1.799  0.00  0.00     0.033 A 
ATOM      6  C6  UNL d   1      -5.993  -3.731  -3.149  0.00  0.00    -0.057 A 
ENDROOT
BRANCH   1   7
ATOM      7  N   UNL d   1      -5.967  -4.499  -5.428  0.00  0.00    -0.732 N 
ATOM      8  C   UNL d   1      -5.920  -3.156  -5.965  0.00  0.00     0.284 C 
ATOM      9  H3  UNL d   1      -5.563  -5.205  -6.039  0.00  0.00     0.395 HD
ENDBRANCH   1   7
TORSDOF 1
ENDMDL
