MODEL 1
REMARK minimizedAffinity 1.94370401
REMARK minimizedRMSD -1
REMARK  1 active torsions:
REMARK  status: ('A' for Active; 'I' for Inactive)
REMARK    1  A    between atoms: N_2  and  C1_3 
ROOT
ATOM      1  C1  UNL d   1       4.641  -0.745  -3.672  0.00  0.00     0.143 A 
ATOM      2  C2  UNL d   1       5.688  -1.118  -4.522  0.00  0.00    -0.057 A 
ATOM      3  C3  UNL d   1       5.999  -0.370  -5.663  0.00  0.00     0.033 A 
ATOM      4  C4  UNL d   1       5.248   0.753  -5.992  0.00  0.00    -0.042 A 
ATOM      5  C5  UNL d   1       4.186   1.129  -5.176  0.00  0.00     0.033 A 
ATOM      6  C6  UNL d   1       3.885   0.381  -4.034  0.00  0.00    -0.057 A 
ENDROOT
BRANCH   1   7
ATOM      7  N   UNL d   1       4.220  -1.503  -2.577  0.00  0.00    -0.732 N 
ATOM      8  C   UNL d   1       2.978  -2.244  -2.628  0.00  0.00     0.284 C 
ATOM      9  H3  UNL d   1       4.986  -2.005  -2.134  0.00  0.00     0.395 HD
ENDBRANCH   1   7
TORSDOF 1
ENDMDL
