MODEL 1
REMARK minimizedAffinity 0.22897777
REMARK minimizedRMSD -1
REMARK  1 active torsions:
REMARK  status: ('A' for Active; 'I' for Inactive)
REMARK    1  A    between atoms: N_2  and  C1_3 
ROOT
ATOM      1  C1  UNL d   1      -5.813  -4.490  -3.208  0.00  0.00     0.143 A 
ATOM      2  C2  UNL d   1      -5.636  -5.776  -3.730  0.00  0.00    -0.057 A 
ATOM      3  C3  UNL d   1      -5.590  -5.999  -5.112  0.00  0.00     0.033 A 
ATOM      4  C4  UNL d   1      -5.751  -4.939  -5.999  0.00  0.00    -0.042 A 
ATOM      5  C5  UNL d   1      -5.954  -3.656  -5.502  0.00  0.00     0.033 A 
ATOM      6  C6  UNL d   1      -5.991  -3.439  -4.121  0.00  0.00    -0.057 A 
ENDROOT
BRANCH   1   7
ATOM      7  N   UNL d   1      -5.965  -4.218  -1.846  0.00  0.00    -0.732 N 
ATOM      8  C   UNL d   1      -5.999  -2.853  -1.367  0.00  0.00     0.284 C 
ATOM      9  H3  UNL d   1      -6.643  -4.832  -1.401  0.00  0.00     0.395 HD
ENDBRANCH   1   7
TORSDOF 1
ENDMDL
