MODEL 1
REMARK minimizedAffinity 1.3602016
REMARK minimizedRMSD -1
REMARK  1 active torsions:
REMARK  status: ('A' for Active; 'I' for Inactive)
REMARK    1  A    between atoms: N_2  and  C1_3 
ROOT
ATOM      1  C1  UNL d   1       5.166   0.722  -3.598  0.00  0.00     0.143 A 
ATOM      2  C2  UNL d   1       5.194   1.429  -4.805  0.00  0.00    -0.057 A 
ATOM      3  C3  UNL d   1       5.591   0.814  -5.998  0.00  0.00     0.033 A 
ATOM      4  C4  UNL d   1       5.996  -0.517  -6.000  0.00  0.00    -0.042 A 
ATOM      5  C5  UNL d   1       6.000  -1.232  -4.807  0.00  0.00     0.033 A 
ATOM      6  C6  UNL d   1       5.596  -0.614  -3.620  0.00  0.00    -0.057 A 
ENDROOT
BRANCH   1   7
ATOM      7  N   UNL d   1       4.875   1.305  -2.362  0.00  0.00    -0.732 N 
ATOM      8  C   UNL d   1       4.616   0.480  -1.201  0.00  0.00     0.284 C 
ATOM      9  H3  UNL d   1       5.453   2.121  -2.172  0.00  0.00     0.395 HD
ENDBRANCH   1   7
TORSDOF 1
ENDMDL
