MODEL 1
REMARK minimizedAffinity 0.00245248899
REMARK minimizedRMSD -1
REMARK  0 active torsions:
REMARK  status: ('A' for Active; 'I' for Inactive)
ROOT
ATOM      1  C1  BNZ d   1      -1.300   5.997   4.804  0.00  0.00     0.000 A 
ATOM      2  C2  BNZ d   1      -2.001   5.988   3.628  0.00  0.00     0.000 A 
ATOM      3  C3  BNZ d   1      -3.368   5.986   3.628  0.00  0.00     0.000 A 
ATOM      4  C4  BNZ d   1      -4.031   5.952   4.802  0.00  0.00     0.000 A 
ATOM      5  C5  BNZ d   1      -3.338   5.950   5.996  0.00  0.00     0.000 A 
ATOM      6  C6  BNZ d   1      -1.963   5.992   5.992  0.00  0.00     0.000 A 
ENDROOT
TORSDOF 0
ENDMDL
