MODEL 1
REMARK minimizedAffinity 5.04831219
REMARK minimizedRMSD -1
REMARK  0 active torsions:
REMARK  status: ('A' for Active; 'I' for Inactive)
ROOT
ATOM      1  C1  BNZ d   1      -5.736  -2.095   1.155  0.00  0.00     0.000 A 
ATOM      2  C2  BNZ d   1      -4.515  -1.535   1.420  0.00  0.00     0.000 A 
ATOM      3  C3  BNZ d   1      -3.552  -1.466   0.452  0.00  0.00     0.000 A 
ATOM      4  C4  BNZ d   1      -3.796  -1.992  -0.765  0.00  0.00     0.000 A 
ATOM      5  C5  BNZ d   1      -5.019  -2.568  -1.045  0.00  0.00     0.000 A 
ATOM      6  C6  BNZ d   1      -6.000  -2.602  -0.080  0.00  0.00     0.000 A 
ENDROOT
TORSDOF 0
ENDMDL
