MODEL 1
REMARK minimizedAffinity 0.85921526
REMARK minimizedRMSD -1
REMARK  0 active torsions:
REMARK  status: ('A' for Active; 'I' for Inactive)
ROOT
ATOM      1  C1  BNZ d   1       3.771   5.998   3.094  0.00  0.00     0.000 A 
ATOM      2  C2  BNZ d   1       3.791   5.308   1.911  0.00  0.00     0.000 A 
ATOM      3  C3  BNZ d   1       4.900   4.606   1.530  0.00  0.00     0.000 A 
ATOM      4  C4  BNZ d   1       5.999   4.626   2.312  0.00  0.00     0.000 A 
ATOM      5  C5  BNZ d   1       5.997   5.325   3.503  0.00  0.00     0.000 A 
ATOM      6  C6  BNZ d   1       4.866   5.999   3.902  0.00  0.00     0.000 A 
ENDROOT
TORSDOF 0
ENDMDL
