MODEL 1
REMARK minimizedAffinity -0.0111196619
REMARK minimizedRMSD -1
REMARK  0 active torsions:
REMARK  status: ('A' for Active; 'I' for Inactive)
ROOT
ATOM      1  C1  BNZ d   1       5.029   5.266   1.466  0.00  0.00     0.000 A 
ATOM      2  C2  BNZ d   1       6.000   4.608   2.173  0.00  0.00     0.000 A 
ATOM      3  C3  BNZ d   1       6.000   4.620   3.540  0.00  0.00     0.000 A 
ATOM      4  C4  BNZ d   1       5.054   5.323   4.197  0.00  0.00     0.000 A 
ATOM      5  C5  BNZ d   1       4.075   6.000   3.498  0.00  0.00     0.000 A 
ATOM      6  C6  BNZ d   1       4.055   5.953   2.123  0.00  0.00     0.000 A 
ENDROOT
TORSDOF 0
ENDMDL
