MODEL 1
REMARK minimizedAffinity 7.14317369
REMARK minimizedRMSD -1
REMARK  0 active torsions:
REMARK  status: ('A' for Active; 'I' for Inactive)
ROOT
ATOM      1  C1  BNZ d   1      -1.882   4.519  -1.047  0.00  0.00     0.000 A 
ATOM      2  C2  BNZ d   1      -0.742   5.274  -1.106  0.00  0.00     0.000 A 
ATOM      3  C3  BNZ d   1      -0.325   5.999  -0.024  0.00  0.00     0.000 A 
ATOM      4  C4  BNZ d   1      -1.070   5.998   1.101  0.00  0.00     0.000 A 
ATOM      5  C5  BNZ d   1      -2.228   5.249   1.172  0.00  0.00     0.000 A 
ATOM      6  C6  BNZ d   1      -2.623   4.490   0.094  0.00  0.00     0.000 A 
ENDROOT
TORSDOF 0
ENDMDL
