MODEL 1
REMARK minimizedAffinity -0.20965305
REMARK minimizedRMSD -1
REMARK  0 active torsions:
REMARK  status: ('A' for Active; 'I' for Inactive)
ROOT
ATOM      1  C1  BNZ d   1       5.594   4.153   1.553  0.00  0.00     0.000 A 
ATOM      2  C2  BNZ d   1       4.680   5.066   1.100  0.00  0.00     0.000 A 
ATOM      3  C3  BNZ d   1       4.147   6.000   1.944  0.00  0.00     0.000 A 
ATOM      4  C4  BNZ d   1       4.498   5.994   3.247  0.00  0.00     0.000 A 
ATOM      5  C5  BNZ d   1       5.412   5.073   3.720  0.00  0.00     0.000 A 
ATOM      6  C6  BNZ d   1       5.975   4.160   2.859  0.00  0.00     0.000 A 
ENDROOT
TORSDOF 0
ENDMDL
