MODEL 1
REMARK minimizedAffinity 7.78471661
REMARK minimizedRMSD -1
REMARK  0 active torsions:
REMARK  status: ('A' for Active; 'I' for Inactive)
ROOT
ATOM      1  C1  BNZ d   1      -5.999  -1.530   0.633  0.00  0.00     0.000 A 
ATOM      2  C2  BNZ d   1      -4.827  -1.898   1.238  0.00  0.00     0.000 A 
ATOM      3  C3  BNZ d   1      -3.645  -1.866   0.552  0.00  0.00     0.000 A 
ATOM      4  C4  BNZ d   1      -3.643  -1.505  -0.748  0.00  0.00     0.000 A 
ATOM      5  C5  BNZ d   1      -4.818  -1.140  -1.374  0.00  0.00     0.000 A 
ATOM      6  C6  BNZ d   1      -6.000  -1.136  -0.669  0.00  0.00     0.000 A 
ENDROOT
TORSDOF 0
ENDMDL
