MODEL 1
REMARK minimizedAffinity 4.10706854
REMARK minimizedRMSD -1
REMARK  0 active torsions:
REMARK  status: ('A' for Active; 'I' for Inactive)
ROOT
ATOM      1  C1  BNZ d   1      -2.134   5.268   3.623  0.00  0.00     0.000 A 
ATOM      2  C2  BNZ d   1      -1.409   5.265   4.785  0.00  0.00     0.000 A 
ATOM      3  C3  BNZ d   1      -1.992   5.601   5.974  0.00  0.00     0.000 A 
ATOM      4  C4  BNZ d   1      -3.287   5.979   5.995  0.00  0.00     0.000 A 
ATOM      5  C5  BNZ d   1      -4.029   5.996   4.831  0.00  0.00     0.000 A 
ATOM      6  C6  BNZ d   1      -3.449   5.620   3.641  0.00  0.00     0.000 A 
ENDROOT
TORSDOF 0
ENDMDL
