MODEL 1
REMARK minimizedAffinity 11.5351181
REMARK minimizedRMSD -1
REMARK  0 active torsions:
REMARK  status: ('A' for Active; 'I' for Inactive)
ROOT
ATOM      1  C1  BNZ d   1       2.609  -0.846  -2.135  0.00  0.00     0.000 A 
ATOM      2  C2  BNZ d   1       1.482  -1.007  -2.895  0.00  0.00     0.000 A 
ATOM      3  C3  BNZ d   1       0.682   0.060  -3.196  0.00  0.00     0.000 A 
ATOM      4  C4  BNZ d   1       0.988   1.278  -2.705  0.00  0.00     0.000 A 
ATOM      5  C5  BNZ d   1       2.116   1.455  -1.929  0.00  0.00     0.000 A 
ATOM      6  C6  BNZ d   1       2.940   0.386  -1.660  0.00  0.00     0.000 A 
ENDROOT
TORSDOF 0
ENDMDL
