MODEL 1
REMARK minimizedAffinity 3.65971541
REMARK minimizedRMSD -1
REMARK  0 active torsions:
REMARK  status: ('A' for Active; 'I' for Inactive)
ROOT
ATOM      1  C1  BNZ d   1      -2.376  -1.790   0.996  0.00  0.00     0.000 A 
ATOM      2  C2  BNZ d   1      -2.157  -1.044   2.123  0.00  0.00     0.000 A 
ATOM      3  C3  BNZ d   1      -2.344   0.310   2.113  0.00  0.00     0.000 A 
ATOM      4  C4  BNZ d   1      -2.710   0.921   0.967  0.00  0.00     0.000 A 
ATOM      5  C5  BNZ d   1      -2.925   0.183  -0.180  0.00  0.00     0.000 A 
ATOM      6  C6  BNZ d   1      -2.774  -1.185  -0.156  0.00  0.00     0.000 A 
ENDROOT
TORSDOF 0
ENDMDL
