MODEL 1
REMARK minimizedAffinity 6.81927681
REMARK minimizedRMSD -1
REMARK  0 active torsions:
REMARK  status: ('A' for Active; 'I' for Inactive)
ROOT
ATOM      1  C1  BNZ d   1      -3.000   0.406   2.897  0.00  0.00     0.000 A 
ATOM      2  C2  BNZ d   1      -3.609  -0.303   1.896  0.00  0.00     0.000 A 
ATOM      3  C3  BNZ d   1      -2.882  -0.806   0.853  0.00  0.00     0.000 A 
ATOM      4  C4  BNZ d   1      -1.557  -0.564   0.791  0.00  0.00     0.000 A 
ATOM      5  C5  BNZ d   1      -0.930   0.157   1.787  0.00  0.00     0.000 A 
ATOM      6  C6  BNZ d   1      -1.658   0.628   2.856  0.00  0.00     0.000 A 
ENDROOT
TORSDOF 0
ENDMDL
