MODEL 1
REMARK minimizedAffinity 2.70376062
REMARK minimizedRMSD -1
REMARK  0 active torsions:
REMARK  status: ('A' for Active; 'I' for Inactive)
ROOT
ATOM      1  C1  BNZ d   1      -2.919   1.892   0.559  0.00  0.00     0.000 A 
ATOM      2  C2  BNZ d   1      -2.773   1.847   1.920  0.00  0.00     0.000 A 
ATOM      3  C3  BNZ d   1      -2.235   0.749   2.531  0.00  0.00     0.000 A 
ATOM      4  C4  BNZ d   1      -1.882  -0.318   1.785  0.00  0.00     0.000 A 
ATOM      5  C5  BNZ d   1      -2.032  -0.292   0.413  0.00  0.00     0.000 A 
ATOM      6  C6  BNZ d   1      -2.537   0.830  -0.202  0.00  0.00     0.000 A 
ENDROOT
TORSDOF 0
ENDMDL
