MODEL 1
REMARK minimizedAffinity 5.97739887
REMARK minimizedRMSD -1
REMARK  0 active torsions:
REMARK  status: ('A' for Active; 'I' for Inactive)
ROOT
ATOM      1  C1  BNZ d   1       0.232   6.000  -2.190  0.00  0.00     0.000 A 
ATOM      2  C2  BNZ d   1       1.012   5.999  -3.316  0.00  0.00     0.000 A 
ATOM      3  C3  BNZ d   1       2.376   5.973  -3.223  0.00  0.00     0.000 A 
ATOM      4  C4  BNZ d   1       2.957   5.990  -2.006  0.00  0.00     0.000 A 
ATOM      5  C5  BNZ d   1       2.185   6.000  -0.862  0.00  0.00     0.000 A 
ATOM      6  C6  BNZ d   1       0.813   5.986  -0.959  0.00  0.00     0.000 A 
ENDROOT
TORSDOF 0
ENDMDL
