MODEL 1
REMARK minimizedAffinity 0.743499756
REMARK minimizedRMSD -1
REMARK  0 active torsions:
REMARK  status: ('A' for Active; 'I' for Inactive)
ROOT
ATOM      1  C1  BNZ d   1       3.726   6.000   1.831  0.00  0.00     0.000 A 
ATOM      2  C2  BNZ d   1       3.745   5.522   0.548  0.00  0.00     0.000 A 
ATOM      3  C3  BNZ d   1       4.878   4.962   0.027  0.00  0.00     0.000 A 
ATOM      4  C4  BNZ d   1       6.000   4.916   0.774  0.00  0.00     0.000 A 
ATOM      5  C5  BNZ d   1       5.999   5.402   2.067  0.00  0.00     0.000 A 
ATOM      6  C6  BNZ d   1       4.846   5.930   2.601  0.00  0.00     0.000 A 
ENDROOT
TORSDOF 0
ENDMDL
