MODEL 1
REMARK minimizedAffinity -2.15538788
REMARK minimizedRMSD -1
REMARK  0 active torsions:
REMARK  status: ('A' for Active; 'I' for Inactive)
ROOT
ATOM      1  C   UNL d   1       0.478  -0.895  -1.312  0.00  0.00     0.023 A 
ATOM      2  C1  UNL d   1       1.523  -0.597  -0.436  0.00  0.00     0.003 A 
ATOM      3  C2  UNL d   1       1.265   0.086   0.753  0.00  0.00     0.048 A 
ATOM      4  C3  UNL d   1      -0.040   0.469   1.062  0.00  0.00     0.023 A 
ATOM      5  C4  UNL d   1      -1.088   0.173   0.190  0.00  0.00     0.048 A 
ATOM      6  C5  UNL d   1      -0.826  -0.510  -0.999  0.00  0.00     0.003 A 
ATOM      7  I   UNL d   1      -0.426   1.487   2.833  0.00  0.00    -0.146 I 
ENDROOT
TORSDOF 0
ENDMDL
