MODEL 1
REMARK minimizedAffinity -0.405967474
REMARK minimizedRMSD -1
REMARK  0 active torsions:
REMARK  status: ('A' for Active; 'I' for Inactive)
ROOT
ATOM      1  C   UNL d   1      -0.972   1.079   2.261  0.00  0.00     0.023 A 
ATOM      2  C1  UNL d   1       0.393   1.127   1.976  0.00  0.00     0.003 A 
ATOM      3  C2  UNL d   1       0.859   0.733   0.720  0.00  0.00     0.048 A 
ATOM      4  C3  UNL d   1      -0.045   0.293  -0.246  0.00  0.00     0.023 A 
ATOM      5  C4  UNL d   1      -1.411   0.244   0.034  0.00  0.00     0.048 A 
ATOM      6  C5  UNL d   1      -1.873   0.638   1.292  0.00  0.00     0.003 A 
ATOM      7  I   UNL d   1       0.647  -0.294  -2.116  0.00  0.00    -0.146 I 
ENDROOT
TORSDOF 0
ENDMDL
