MODEL 1
REMARK minimizedAffinity -3.35358143
REMARK minimizedRMSD -1
REMARK  0 active torsions:
REMARK  status: ('A' for Active; 'I' for Inactive)
ROOT
ATOM      1  C   UNL d   1       0.987   0.715   2.270  0.00  0.00     0.023 A 
ATOM      2  C1  UNL d   1       1.939  -0.116   1.680  0.00  0.00     0.003 A 
ATOM      3  C2  UNL d   1       1.782  -0.528   0.355  0.00  0.00     0.048 A 
ATOM      4  C3  UNL d   1       0.671  -0.104  -0.374  0.00  0.00     0.023 A 
ATOM      5  C4  UNL d   1      -0.283   0.728   0.212  0.00  0.00     0.048 A 
ATOM      6  C5  UNL d   1      -0.123   1.136   1.538  0.00  0.00     0.003 A 
ATOM      7  I   UNL d   1       0.436  -0.716  -2.347  0.00  0.00    -0.146 I 
ENDROOT
TORSDOF 0
ENDMDL
