MODEL 1
REMARK minimizedAffinity -3.45128965
REMARK minimizedRMSD -1
REMARK  0 active torsions:
REMARK  status: ('A' for Active; 'I' for Inactive)
ROOT
ATOM      1  C   UNL d   1      -1.668   0.573   1.938  0.00  0.00     0.023 A 
ATOM      2  C1  UNL d   1      -2.301   0.154   0.767  0.00  0.00     0.003 A 
ATOM      3  C2  UNL d   1      -1.544  -0.177  -0.358  0.00  0.00     0.048 A 
ATOM      4  C3  UNL d   1      -0.153  -0.087  -0.306  0.00  0.00     0.023 A 
ATOM      5  C4  UNL d   1       0.485   0.330   0.863  0.00  0.00     0.048 A 
ATOM      6  C5  UNL d   1      -0.276   0.661   1.985  0.00  0.00     0.003 A 
ATOM      7  I   UNL d   1       0.977  -0.579  -1.980  0.00  0.00    -0.146 I 
ENDROOT
TORSDOF 0
ENDMDL
