MODEL 1
REMARK minimizedAffinity -2.08407354
REMARK minimizedRMSD -1
REMARK  0 active torsions:
REMARK  status: ('A' for Active; 'I' for Inactive)
ROOT
ATOM      1  C   UNL d   1       2.063  -0.976   0.449  0.00  0.00     0.023 A 
ATOM      2  C1  UNL d   1       1.141  -1.104  -0.590  0.00  0.00     0.003 A 
ATOM      3  C2  UNL d   1      -0.179  -0.685  -0.410  0.00  0.00     0.048 A 
ATOM      4  C3  UNL d   1      -0.570  -0.137   0.812  0.00  0.00     0.023 A 
ATOM      5  C4  UNL d   1       0.350  -0.007   1.854  0.00  0.00     0.048 A 
ATOM      6  C5  UNL d   1       1.668  -0.428   1.669  0.00  0.00     0.003 A 
ATOM      7  I   UNL d   1      -2.533   0.488   1.083  0.00  0.00    -0.146 I 
ENDROOT
TORSDOF 0
ENDMDL
