MODEL 1
REMARK minimizedAffinity -1.66648293
REMARK minimizedRMSD -1
REMARK  0 active torsions:
REMARK  status: ('A' for Active; 'I' for Inactive)
ROOT
ATOM      1  C   UNL d   1       2.225   0.162  -3.236  0.00  0.00     0.023 A 
ATOM      2  C1  UNL d   1       1.268  -0.714  -2.725  0.00  0.00     0.003 A 
ATOM      3  C2  UNL d   1       0.125  -1.013  -3.469  0.00  0.00     0.048 A 
ATOM      4  C3  UNL d   1      -0.054  -0.432  -4.724  0.00  0.00     0.023 A 
ATOM      5  C4  UNL d   1       0.902   0.445  -5.240  0.00  0.00     0.048 A 
ATOM      6  C5  UNL d   1       2.042   0.741  -4.491  0.00  0.00     0.003 A 
ATOM      7  I   UNL d   1      -1.754  -0.876  -5.834  0.00  0.00    -0.146 I 
ENDROOT
TORSDOF 0
ENDMDL
