MODEL 1
REMARK minimizedAffinity -2.48691559
REMARK minimizedRMSD -1
REMARK  0 active torsions:
REMARK  status: ('A' for Active; 'I' for Inactive)
ROOT
ATOM      1  C   UNL d   1      -2.239   0.364   2.759  0.00  0.00     0.023 A 
ATOM      2  C1  UNL d   1      -1.016   1.024   2.639  0.00  0.00     0.003 A 
ATOM      3  C2  UNL d   1      -0.272   0.911   1.462  0.00  0.00     0.048 A 
ATOM      4  C3  UNL d   1      -0.759   0.138   0.409  0.00  0.00     0.023 A 
ATOM      5  C4  UNL d   1      -1.983  -0.523   0.524  0.00  0.00     0.048 A 
ATOM      6  C5  UNL d   1      -2.722  -0.409   1.702  0.00  0.00     0.003 A 
ATOM      7  I   UNL d   1       0.345  -0.031  -1.344  0.00  0.00    -0.146 I 
ENDROOT
TORSDOF 0
ENDMDL
