MODEL 1
REMARK minimizedAffinity -2.46376419
REMARK minimizedRMSD -1
REMARK  1 active torsions:
REMARK  status: ('A' for Active; 'I' for Inactive)
REMARK    1  A    between atoms: C3_4  and  O_7 
ROOT
ATOM      1  C   UNL d   1       0.235  -2.029   0.258  0.00  0.00    -0.033 A 
ATOM      2  C1  UNL d   1      -0.503  -1.181   1.085  0.00  0.00     0.039 A 
ATOM      3  C2  UNL d   1      -0.562   0.187   0.811  0.00  0.00    -0.080 A 
ATOM      4  C3  UNL d   1       0.120   0.693  -0.292  0.00  0.00     0.150 A 
ATOM      5  C4  UNL d   1       0.855  -0.147  -1.122  0.00  0.00    -0.007 A 
ATOM      6  C5  UNL d   1       0.913  -1.513  -0.847  0.00  0.00     0.039 A 
ENDROOT
BRANCH   4   7
ATOM      7  O   UNL d   1       0.097   2.021  -0.597  0.00  0.00    -0.526 OA
ATOM      8  H5  UNL d   1      -0.426   2.483   0.080  0.00  0.00     0.418 HD
ENDBRANCH   4   7
TORSDOF 1
ENDMDL
