MODEL 1
REMARK minimizedAffinity -5.55176544
REMARK minimizedRMSD -1
REMARK  1 active torsions:
REMARK  status: ('A' for Active; 'I' for Inactive)
REMARK    1  A    between atoms: C3_4  and  O_7 
ROOT
ATOM      1  C   UNL d   1      -0.157  -3.549  -0.151  0.00  0.00    -0.033 A 
ATOM      2  C1  UNL d   1       0.253  -2.913  -1.324  0.00  0.00     0.039 A 
ATOM      3  C2  UNL d   1       0.257  -1.518  -1.398  0.00  0.00    -0.080 A 
ATOM      4  C3  UNL d   1      -0.150  -0.774  -0.295  0.00  0.00     0.150 A 
ATOM      5  C4  UNL d   1      -0.556  -1.401   0.878  0.00  0.00    -0.007 A 
ATOM      6  C5  UNL d   1      -0.560  -2.794   0.950  0.00  0.00     0.039 A 
ENDROOT
BRANCH   4   7
ATOM      7  O   UNL d   1      -0.167   0.589  -0.322  0.00  0.00    -0.526 OA
ATOM      8  H5  UNL d   1       0.111   0.883  -1.206  0.00  0.00     0.418 HD
ENDBRANCH   4   7
TORSDOF 1
ENDMDL
