MODEL 1
REMARK minimizedAffinity -3.80787492
REMARK minimizedRMSD -1
REMARK  1 active torsions:
REMARK  status: ('A' for Active; 'I' for Inactive)
REMARK    1  A    between atoms: C3_4  and  O_7 
ROOT
ATOM      1  C   UNL d   1      -0.005   0.781  -0.365  0.00  0.00    -0.033 A 
ATOM      2  C1  UNL d   1       0.766  -0.069  -1.161  0.00  0.00     0.039 A 
ATOM      3  C2  UNL d   1       0.878  -1.422  -0.835  0.00  0.00    -0.080 A 
ATOM      4  C3  UNL d   1       0.214  -1.912   0.286  0.00  0.00     0.150 A 
ATOM      5  C4  UNL d   1      -0.558  -1.071   1.081  0.00  0.00    -0.007 A 
ATOM      6  C5  UNL d   1      -0.668   0.280   0.755  0.00  0.00     0.039 A 
ENDROOT
BRANCH   4   7
ATOM      7  O   UNL d   1       0.297  -3.224   0.647  0.00  0.00    -0.526 OA
ATOM      8  H5  UNL d   1       0.888  -3.678   0.023  0.00  0.00     0.418 HD
ENDBRANCH   4   7
TORSDOF 1
ENDMDL
