MODEL 1
REMARK minimizedAffinity -0.859148324
REMARK minimizedRMSD -1
REMARK  1 active torsions:
REMARK  status: ('A' for Active; 'I' for Inactive)
REMARK    1  A    between atoms: C3_4  and  O_7 
ROOT
ATOM      1  C   UNL d   1       0.028   0.635  -1.306  0.00  0.00    -0.033 A 
ATOM      2  C1  UNL d   1       0.586  -0.358  -2.113  0.00  0.00     0.039 A 
ATOM      3  C2  UNL d   1       0.915  -1.600  -1.567  0.00  0.00    -0.080 A 
ATOM      4  C3  UNL d   1       0.680  -1.837  -0.216  0.00  0.00     0.150 A 
ATOM      5  C4  UNL d   1       0.121  -0.853   0.593  0.00  0.00    -0.007 A 
ATOM      6  C5  UNL d   1      -0.206   0.387   0.047  0.00  0.00     0.039 A 
ENDROOT
BRANCH   4   7
ATOM      7  O   UNL d   1       0.989  -3.032   0.363  0.00  0.00    -0.526 OA
ATOM      8  H5  UNL d   1       1.395  -3.604  -0.310  0.00  0.00     0.418 HD
ENDBRANCH   4   7
TORSDOF 1
ENDMDL
