MODEL 1
REMARK minimizedAffinity -2.46332812
REMARK minimizedRMSD -1
REMARK  1 active torsions:
REMARK  status: ('A' for Active; 'I' for Inactive)
REMARK    1  A    between atoms: C3_4  and  O_7 
ROOT
ATOM      1  C   UNL d   1      -0.366   0.339  -0.357  0.00  0.00    -0.033 A 
ATOM      2  C1  UNL d   1       0.021  -0.631  -1.284  0.00  0.00     0.039 A 
ATOM      3  C2  UNL d   1       0.146  -1.965  -0.890  0.00  0.00    -0.080 A 
ATOM      4  C3  UNL d   1      -0.120  -2.315   0.431  0.00  0.00     0.150 A 
ATOM      5  C4  UNL d   1      -0.509  -1.354   1.359  0.00  0.00    -0.007 A 
ATOM      6  C5  UNL d   1      -0.632  -0.023   0.964  0.00  0.00     0.039 A 
ENDROOT
BRANCH   4   7
ATOM      7  O   UNL d   1      -0.007  -3.603   0.864  0.00  0.00    -0.526 OA
ATOM      8  H5  UNL d   1       0.298  -4.151   0.122  0.00  0.00     0.418 HD
ENDBRANCH   4   7
TORSDOF 1
ENDMDL
