MODEL 1
REMARK minimizedAffinity -5.53663397
REMARK minimizedRMSD -1
REMARK  1 active torsions:
REMARK  status: ('A' for Active; 'I' for Inactive)
REMARK    1  A    between atoms: C3_4  and  O_7 
ROOT
ATOM      1  C   UNL d   1      -0.142  -3.270  -0.784  0.00  0.00    -0.033 A 
ATOM      2  C1  UNL d   1       0.188  -2.500  -1.901  0.00  0.00     0.039 A 
ATOM      3  C2  UNL d   1       0.234  -1.108  -1.803  0.00  0.00    -0.080 A 
ATOM      4  C3  UNL d   1      -0.051  -0.500  -0.583  0.00  0.00     0.150 A 
ATOM      5  C4  UNL d   1      -0.376  -1.261   0.535  0.00  0.00    -0.007 A 
ATOM      6  C5  UNL d   1      -0.422  -2.651   0.434  0.00  0.00     0.039 A 
ENDROOT
BRANCH   4   7
ATOM      7  O   UNL d   1      -0.023   0.856  -0.440  0.00  0.00    -0.526 OA
ATOM      8  H5  UNL d   1       0.188   1.252  -1.301  0.00  0.00     0.418 HD
ENDBRANCH   4   7
TORSDOF 1
ENDMDL
