MODEL 1
REMARK minimizedAffinity -3.47752714
REMARK minimizedRMSD -1
REMARK  1 active torsions:
REMARK  status: ('A' for Active; 'I' for Inactive)
REMARK    1  A    between atoms: C3_4  and  O_7 
ROOT
ATOM      1  C   UNL d   1      -0.432   0.560  -0.372  0.00  0.00    -0.033 A 
ATOM      2  C1  UNL d   1       0.396  -0.231  -1.171  0.00  0.00     0.039 A 
ATOM      3  C2  UNL d   1       0.559  -1.587  -0.882  0.00  0.00    -0.080 A 
ATOM      4  C3  UNL d   1      -0.112  -2.139   0.206  0.00  0.00     0.150 A 
ATOM      5  C4  UNL d   1      -0.941  -1.358   1.004  0.00  0.00    -0.007 A 
ATOM      6  C5  UNL d   1      -1.102  -0.003   0.714  0.00  0.00     0.039 A 
ENDROOT
BRANCH   4   7
ATOM      7  O   UNL d   1       0.020  -3.457   0.531  0.00  0.00    -0.526 OA
ATOM      8  H5  UNL d   1       0.646  -3.866  -0.090  0.00  0.00     0.418 HD
ENDBRANCH   4   7
TORSDOF 1
ENDMDL
