MODEL 1
REMARK minimizedAffinity -4.72992516
REMARK minimizedRMSD -1
REMARK  1 active torsions:
REMARK  status: ('A' for Active; 'I' for Inactive)
REMARK    1  A    between atoms: C3_4  and  O_7 
ROOT
ATOM      1  C   UNL d   1      -0.094   0.492  -0.763  0.00  0.00    -0.033 A 
ATOM      2  C1  UNL d   1      -0.737   0.431   0.474  0.00  0.00     0.039 A 
ATOM      3  C2  UNL d   1      -0.836  -0.786   1.152  0.00  0.00    -0.080 A 
ATOM      4  C3  UNL d   1      -0.287  -1.932   0.582  0.00  0.00     0.150 A 
ATOM      5  C4  UNL d   1       0.359  -1.877  -0.648  0.00  0.00    -0.007 A 
ATOM      6  C5  UNL d   1       0.455  -0.661  -1.324  0.00  0.00     0.039 A 
ENDROOT
BRANCH   4   7
ATOM      7  O   UNL d   1      -0.363  -3.143   1.204  0.00  0.00    -0.526 OA
ATOM      8  H5  UNL d   1      -0.862  -3.034   2.030  0.00  0.00     0.418 HD
ENDBRANCH   4   7
TORSDOF 1
ENDMDL
