MODEL 1
REMARK minimizedAffinity -4.06193066
REMARK minimizedRMSD -1
REMARK  1 active torsions:
REMARK  status: ('A' for Active; 'I' for Inactive)
REMARK    1  A    between atoms: C3_4  and  O_7 
ROOT
ATOM      1  C   UNL d   1       0.015  -1.745  -2.245  0.00  0.00    -0.033 A 
ATOM      2  C1  UNL d   1      -0.244  -3.076  -1.909  0.00  0.00     0.039 A 
ATOM      3  C2  UNL d   1      -0.529  -3.421  -0.587  0.00  0.00    -0.080 A 
ATOM      4  C3  UNL d   1      -0.553  -2.427   0.389  0.00  0.00     0.150 A 
ATOM      5  C4  UNL d   1      -0.299  -1.100   0.060  0.00  0.00    -0.007 A 
ATOM      6  C5  UNL d   1      -0.013  -0.757  -1.261  0.00  0.00     0.039 A 
ENDROOT
BRANCH   4   7
ATOM      7  O   UNL d   1      -0.822  -2.716   1.693  0.00  0.00    -0.526 OA
ATOM      8  H5  UNL d   1      -0.948  -3.676   1.776  0.00  0.00     0.418 HD
ENDBRANCH   4   7
TORSDOF 1
ENDMDL
