MODEL 1
REMARK minimizedAffinity -4.06845427
REMARK minimizedRMSD -1
REMARK  1 active torsions:
REMARK  status: ('A' for Active; 'I' for Inactive)
REMARK    1  A    between atoms: C3_4  and  O_7 
ROOT
ATOM      1  C   UNL d   1      -0.433   0.317   0.576  0.00  0.00    -0.033 A 
ATOM      2  C1  UNL d   1      -1.344  -0.538   1.200  0.00  0.00     0.039 A 
ATOM      3  C2  UNL d   1      -1.114  -1.915   1.217  0.00  0.00    -0.080 A 
ATOM      4  C3  UNL d   1       0.031  -2.424   0.610  0.00  0.00     0.150 A 
ATOM      5  C4  UNL d   1       0.945  -1.578  -0.010  0.00  0.00    -0.007 A 
ATOM      6  C5  UNL d   1       0.712  -0.203  -0.028  0.00  0.00     0.039 A 
ENDROOT
BRANCH   4   7
ATOM      7  O   UNL d   1       0.296  -3.761   0.597  0.00  0.00    -0.526 OA
ATOM      8  H5  UNL d   1      -0.436  -4.224   1.037  0.00  0.00     0.418 HD
ENDBRANCH   4   7
TORSDOF 1
ENDMDL
