MODEL 1
REMARK minimizedAffinity -3.79683614
REMARK minimizedRMSD -1
REMARK  1 active torsions:
REMARK  status: ('A' for Active; 'I' for Inactive)
REMARK    1  A    between atoms: C3_4  and  O_7 
ROOT
ATOM      1  C   UNL d   1      -0.375   0.910   0.011  0.00  0.00    -0.033 A 
ATOM      2  C1  UNL d   1      -0.941   0.429   1.193  0.00  0.00     0.039 A 
ATOM      3  C2  UNL d   1      -0.939  -0.941   1.462  0.00  0.00    -0.080 A 
ATOM      4  C3  UNL d   1      -0.368  -1.818   0.544  0.00  0.00     0.150 A 
ATOM      5  C4  UNL d   1       0.202  -1.344  -0.634  0.00  0.00    -0.007 A 
ATOM      6  C5  UNL d   1       0.198   0.024  -0.902  0.00  0.00     0.039 A 
ENDROOT
BRANCH   4   7
ATOM      7  O   UNL d   1      -0.346  -3.163   0.761  0.00  0.00    -0.526 OA
ATOM      8  H5  UNL d   1      -0.800  -3.347   1.601  0.00  0.00     0.418 HD
ENDBRANCH   4   7
TORSDOF 1
ENDMDL
