MODEL 1
REMARK minimizedAffinity -3.70031095
REMARK minimizedRMSD -1
REMARK  1 active torsions:
REMARK  status: ('A' for Active; 'I' for Inactive)
REMARK    1  A    between atoms: C3_4  and  O_7 
ROOT
ATOM      1  C   UNL d   1      -0.740   0.086   0.301  0.00  0.00    -0.033 A 
ATOM      2  C1  UNL d   1      -1.593  -0.994   0.537  0.00  0.00     0.039 A 
ATOM      3  C2  UNL d   1      -1.077  -2.290   0.610  0.00  0.00    -0.080 A 
ATOM      4  C3  UNL d   1       0.290  -2.491   0.446  0.00  0.00     0.150 A 
ATOM      5  C4  UNL d   1       1.146  -1.419   0.214  0.00  0.00    -0.007 A 
ATOM      6  C5  UNL d   1       0.629  -0.126   0.140  0.00  0.00     0.039 A 
ENDROOT
BRANCH   4   7
ATOM      7  O   UNL d   1       0.839  -3.738   0.504  0.00  0.00    -0.526 OA
ATOM      8  H5  UNL d   1       0.125  -4.382   0.642  0.00  0.00     0.418 HD
ENDBRANCH   4   7
TORSDOF 1
ENDMDL
