MODEL 1
REMARK minimizedAffinity 4.16638088
REMARK minimizedRMSD -1
REMARK  0 active torsions:
REMARK  status: ('A' for Active; 'I' for Inactive)
ROOT
ATOM      1  C   UNL d   1      -1.980  -0.094   2.487  0.00  0.00     0.172 C 
ATOM      2  N   UNL d   1      -2.127  -0.372   1.078  0.00  0.00    -0.070 N 
ATOM      3  C1  UNL d   1      -2.971  -1.302   0.532  0.00  0.00    -0.004 A 
ATOM      4  C2  UNL d   1      -2.817  -1.260  -0.837  0.00  0.00    -0.047 A 
ATOM      5  C3  UNL d   1      -1.846  -0.271  -1.123  0.00  0.00    -0.047 A 
ATOM      6  C4  UNL d   1      -1.436   0.263   0.080  0.00  0.00    -0.004 A 
ENDROOT
TORSDOF 0
ENDMDL
