MODEL 1
REMARK minimizedAffinity 0.396382719
REMARK minimizedRMSD -1
REMARK  0 active torsions:
REMARK  status: ('A' for Active; 'I' for Inactive)
ROOT
ATOM      1  C   UNL d   1       0.928  -0.682   0.739  0.00  0.00     0.172 C 
ATOM      2  N   UNL d   1      -0.408  -0.307   1.136  0.00  0.00    -0.070 N 
ATOM      3  C1  UNL d   1      -0.766   0.200   2.358  0.00  0.00    -0.004 A 
ATOM      4  C2  UNL d   1      -2.125   0.428   2.339  0.00  0.00    -0.047 A 
ATOM      5  C3  UNL d   1      -2.601   0.044   1.063  0.00  0.00    -0.047 A 
ATOM      6  C4  UNL d   1      -1.518  -0.407   0.339  0.00  0.00    -0.004 A 
ENDROOT
TORSDOF 0
ENDMDL
