MODEL 1
REMARK minimizedAffinity 1.54521465
REMARK minimizedRMSD -1
REMARK  0 active torsions:
REMARK  status: ('A' for Active; 'I' for Inactive)
ROOT
ATOM      1  C   UNL d   1       1.193  -0.692   1.351  0.00  0.00     0.172 C 
ATOM      2  N   UNL d   1       1.482  -1.002   2.732  0.00  0.00    -0.070 N 
ATOM      3  C1  UNL d   1       0.566  -1.397   3.669  0.00  0.00    -0.004 A 
ATOM      4  C2  UNL d   1       1.236  -1.594   4.857  0.00  0.00    -0.047 A 
ATOM      5  C3  UNL d   1       2.602  -1.306   4.626  0.00  0.00    -0.047 A 
ATOM      6  C4  UNL d   1       2.726  -0.942   3.301  0.00  0.00    -0.004 A 
ENDROOT
TORSDOF 0
ENDMDL
