MODEL 1
REMARK minimizedAffinity 2.00853634
REMARK minimizedRMSD -1
REMARK  0 active torsions:
REMARK  status: ('A' for Active; 'I' for Inactive)
ROOT
ATOM      1  C   UNL d   1       0.808   0.949   0.493  0.00  0.00     0.172 C 
ATOM      2  N   UNL d   1      -0.512   0.384   0.651  0.00  0.00    -0.070 N 
ATOM      3  C1  UNL d   1      -1.221   0.327   1.822  0.00  0.00    -0.004 A 
ATOM      4  C2  UNL d   1      -2.428  -0.282   1.555  0.00  0.00    -0.047 A 
ATOM      5  C3  UNL d   1      -2.445  -0.602   0.177  0.00  0.00    -0.047 A 
ATOM      6  C4  UNL d   1      -1.247  -0.179  -0.358  0.00  0.00    -0.004 A 
ENDROOT
TORSDOF 0
ENDMDL
