MODEL 1
REMARK minimizedAffinity 0.0505261198
REMARK minimizedRMSD -1
REMARK  0 active torsions:
REMARK  status: ('A' for Active; 'I' for Inactive)
ROOT
ATOM      1  C   UNL d   1       1.123  -0.412   1.018  0.00  0.00     0.172 C 
ATOM      2  N   UNL d   1      -0.253  -0.342   0.586  0.00  0.00    -0.070 N 
ATOM      3  C1  UNL d   1      -0.715  -0.659  -0.663  0.00  0.00    -0.004 A 
ATOM      4  C2  UNL d   1      -2.079  -0.462  -0.672  0.00  0.00    -0.047 A 
ATOM      5  C3  UNL d   1      -2.449  -0.009   0.617  0.00  0.00    -0.047 A 
ATOM      6  C4  UNL d   1      -1.300   0.056   1.375  0.00  0.00    -0.004 A 
ENDROOT
TORSDOF 0
ENDMDL
