MODEL 1
REMARK minimizedAffinity -1.62316048
REMARK minimizedRMSD -1
REMARK  0 active torsions:
REMARK  status: ('A' for Active; 'I' for Inactive)
ROOT
ATOM      1  C   UNL d   1      -2.097   0.157   2.664  0.00  0.00     0.172 C 
ATOM      2  N   UNL d   1      -1.589  -0.792   3.626  0.00  0.00    -0.070 N 
ATOM      3  C1  UNL d   1      -0.276  -0.940   3.984  0.00  0.00    -0.004 A 
ATOM      4  C2  UNL d   1      -0.205  -1.945   4.924  0.00  0.00    -0.047 A 
ATOM      5  C3  UNL d   1      -1.522  -2.419   5.137  0.00  0.00    -0.047 A 
ATOM      6  C4  UNL d   1      -2.358  -1.687   4.321  0.00  0.00    -0.004 A 
ENDROOT
TORSDOF 0
ENDMDL
