MODEL 1
REMARK minimizedAffinity 2.29780006
REMARK minimizedRMSD -1
REMARK  0 active torsions:
REMARK  status: ('A' for Active; 'I' for Inactive)
ROOT
ATOM      1  C   UNL d   1       1.420  -0.609   1.821  0.00  0.00     0.172 C 
ATOM      2  N   UNL d   1       1.434  -1.021   3.205  0.00  0.00    -0.070 N 
ATOM      3  C1  UNL d   1       2.554  -1.282   3.949  0.00  0.00    -0.004 A 
ATOM      4  C2  UNL d   1       2.145  -1.644   5.214  0.00  0.00    -0.047 A 
ATOM      5  C3  UNL d   1       0.730  -1.601   5.231  0.00  0.00    -0.047 A 
ATOM      6  C4  UNL d   1       0.317  -1.212   3.974  0.00  0.00    -0.004 A 
ENDROOT
TORSDOF 0
ENDMDL
