MODEL 1
REMARK minimizedAffinity -2.52644753
REMARK minimizedRMSD -1
REMARK  0 active torsions:
REMARK  status: ('A' for Active; 'I' for Inactive)
ROOT
ATOM      1  C   UNL d   1       2.225   0.717   1.271  0.00  0.00     0.172 C 
ATOM      2  N   UNL d   1       2.234  -0.033   2.504  0.00  0.00    -0.070 N 
ATOM      3  C1  UNL d   1       3.346  -0.542   3.121  0.00  0.00    -0.004 A 
ATOM      4  C2  UNL d   1       2.935  -1.188   4.267  0.00  0.00    -0.047 A 
ATOM      5  C3  UNL d   1       1.527  -1.064   4.341  0.00  0.00    -0.047 A 
ATOM      6  C4  UNL d   1       1.120  -0.345   3.237  0.00  0.00    -0.004 A 
ENDROOT
TORSDOF 0
ENDMDL
