MODEL 1
REMARK minimizedAffinity 8.93304253
REMARK minimizedRMSD -1
REMARK  0 active torsions:
REMARK  status: ('A' for Active; 'I' for Inactive)
ROOT
ATOM      1  N1  IND d   1      -2.961  -3.278   0.775  0.00  0.00    -0.196 N 
ATOM      2  C2  IND d   1      -1.838  -2.692   1.291  0.00  0.00     0.054 A 
ATOM      3  C3  IND d   1      -1.084  -2.167   0.300  0.00  0.00    -0.031 A 
ATOM      4  C4  IND d   1      -1.548  -2.065  -2.230  0.00  0.00     0.051 A 
ATOM      5  C5  IND d   1      -2.429  -2.497  -3.182  0.00  0.00    -0.031 A 
ATOM      6  C6  IND d   1      -3.556  -3.223  -2.856  0.00  0.00     0.015 A 
ATOM      7  C7  IND d   1      -3.852  -3.537  -1.560  0.00  0.00    -0.016 A 
ATOM      8  C8  IND d   1      -2.956  -3.106  -0.591  0.00  0.00    -0.047 A 
ATOM      9  C9  IND d   1      -1.788  -2.405  -0.920  0.00  0.00    -0.096 A 
ATOM     10  HN1 IND d   1      -3.567  -3.685   1.228  0.00  0.00     0.298 HD
ENDROOT
TORSDOF 0
ENDMDL
