MODEL 1
REMARK minimizedAffinity 1.9718473
REMARK minimizedRMSD -1
REMARK  0 active torsions:
REMARK  status: ('A' for Active; 'I' for Inactive)
ROOT
ATOM      1  N1  IND d   1       2.494  -0.166   1.124  0.00  0.00    -0.196 N 
ATOM      2  C2  IND d   1       1.713   0.754   0.482  0.00  0.00     0.054 A 
ATOM      3  C3  IND d   1       2.416   1.884   0.243  0.00  0.00    -0.031 A 
ATOM      4  C4  IND d   1       4.890   2.404   0.729  0.00  0.00     0.051 A 
ATOM      5  C5  IND d   1       6.000   1.888   1.336  0.00  0.00    -0.031 A 
ATOM      6  C6  IND d   1       5.999   0.634   1.913  0.00  0.00     0.015 A 
ATOM      7  C7  IND d   1       4.886  -0.158   1.894  0.00  0.00    -0.016 A 
ATOM      8  C8  IND d   1       3.755   0.366   1.284  0.00  0.00    -0.047 A 
ATOM      9  C9  IND d   1       3.737   1.654   0.735  0.00  0.00    -0.096 A 
ATOM     10  HN1 IND d   1       2.241  -0.945   1.384  0.00  0.00     0.298 HD
ENDROOT
TORSDOF 0
ENDMDL
