MODEL 1
REMARK minimizedAffinity 20.5755367
REMARK minimizedRMSD -1
REMARK  0 active torsions:
REMARK  status: ('A' for Active; 'I' for Inactive)
ROOT
ATOM      1  N1  IND d   1       3.851  -1.217   4.876  0.00  0.00    -0.196 N 
ATOM      2  C2  IND d   1       5.102  -1.494   5.353  0.00  0.00     0.054 A 
ATOM      3  C3  IND d   1       5.999  -1.504   4.341  0.00  0.00    -0.031 A 
ATOM      4  C4  IND d   1       5.652  -0.992   1.842  0.00  0.00     0.051 A 
ATOM      5  C5  IND d   1       4.677  -0.723   0.923  0.00  0.00    -0.031 A 
ATOM      6  C6  IND d   1       3.350  -0.599   1.283  0.00  0.00     0.015 A 
ATOM      7  C7  IND d   1       2.949  -0.729   2.582  0.00  0.00    -0.016 A 
ATOM      8  C8  IND d   1       3.936  -1.010   3.517  0.00  0.00    -0.047 A 
ATOM      9  C9  IND d   1       5.277  -1.179   3.152  0.00  0.00    -0.096 A 
ATOM     10  HN1 IND d   1       3.132  -1.178   5.347  0.00  0.00     0.298 HD
ENDROOT
TORSDOF 0
ENDMDL
