MODEL 1
REMARK minimizedAffinity 3.88082886
REMARK minimizedRMSD -1
REMARK  0 active torsions:
REMARK  status: ('A' for Active; 'I' for Inactive)
ROOT
ATOM      1  N1  IND d   1       3.173   2.616  -3.421  0.00  0.00    -0.196 N 
ATOM      2  C2  IND d   1       4.495   2.273  -3.376  0.00  0.00     0.054 A 
ATOM      3  C3  IND d   1       5.234   3.155  -4.086  0.00  0.00    -0.031 A 
ATOM      4  C4  IND d   1       4.494   5.291  -5.317  0.00  0.00     0.051 A 
ATOM      5  C5  IND d   1       3.380   6.000  -5.669  0.00  0.00    -0.031 A 
ATOM      6  C6  IND d   1       2.115   5.611  -5.280  0.00  0.00     0.015 A 
ATOM      7  C7  IND d   1       1.916   4.499  -4.511  0.00  0.00    -0.016 A 
ATOM      8  C8  IND d   1       3.045   3.773  -4.157  0.00  0.00    -0.047 A 
ATOM      9  C9  IND d   1       4.327   4.139  -4.585  0.00  0.00    -0.096 A 
ATOM     10  HN1 IND d   1       2.529   2.182  -3.051  0.00  0.00     0.298 HD
ENDROOT
TORSDOF 0
ENDMDL
