MODEL 1
REMARK minimizedAffinity 14.7583847
REMARK minimizedRMSD -1
REMARK  0 active torsions:
REMARK  status: ('A' for Active; 'I' for Inactive)
ROOT
ATOM      1  N1  IND d   1       4.890   0.677  -1.441  0.00  0.00    -0.196 N 
ATOM      2  C2  IND d   1       4.860   1.759  -2.275  0.00  0.00     0.054 A 
ATOM      3  C3  IND d   1       3.890   2.620  -1.894  0.00  0.00    -0.031 A 
ATOM      4  C4  IND d   1       2.301   2.503   0.128  0.00  0.00     0.051 A 
ATOM      5  C5  IND d   1       1.928   1.687   1.159  0.00  0.00    -0.031 A 
ATOM      6  C6  IND d   1       2.537   0.469   1.382  0.00  0.00     0.015 A 
ATOM      7  C7  IND d   1       3.554   0.025   0.585  0.00  0.00    -0.016 A 
ATOM      8  C8  IND d   1       3.931   0.848  -0.466  0.00  0.00    -0.047 A 
ATOM      9  C9  IND d   1       3.288   2.066  -0.723  0.00  0.00    -0.096 A 
ATOM     10  HN1 IND d   1       5.419   0.003  -1.512  0.00  0.00     0.298 HD
ENDROOT
TORSDOF 0
ENDMDL
