MODEL 1
REMARK minimizedAffinity 8.7336216
REMARK minimizedRMSD -1
REMARK  0 active torsions:
REMARK  status: ('A' for Active; 'I' for Inactive)
ROOT
ATOM      1  N1  IND d   1       1.219   0.975   3.180  0.00  0.00    -0.196 N 
ATOM      2  C2  IND d   1       0.342   1.843   2.593  0.00  0.00     0.054 A 
ATOM      3  C3  IND d   1       0.785   2.203   1.367  0.00  0.00    -0.031 A 
ATOM      4  C4  IND d   1       2.870   1.408   0.084  0.00  0.00     0.051 A 
ATOM      5  C5  IND d   1       3.995   0.644   0.224  0.00  0.00    -0.031 A 
ATOM      6  C6  IND d   1       4.255  -0.066   1.379  0.00  0.00     0.015 A 
ATOM      7  C7  IND d   1       3.391  -0.046   2.437  0.00  0.00    -0.016 A 
ATOM      8  C8  IND d   1       2.252   0.734   2.301  0.00  0.00    -0.047 A 
ATOM      9  C9  IND d   1       2.003   1.490   1.148  0.00  0.00    -0.096 A 
ATOM     10  HN1 IND d   1       1.139   0.636   3.966  0.00  0.00     0.298 HD
ENDROOT
TORSDOF 0
ENDMDL
