MODEL 1
REMARK minimizedAffinity 15.2302456
REMARK minimizedRMSD -1
REMARK  0 active torsions:
REMARK  status: ('A' for Active; 'I' for Inactive)
ROOT
ATOM      1  N1  IND d   1       4.115   3.735  -2.782  0.00  0.00    -0.196 N 
ATOM      2  C2  IND d   1       4.084   2.386  -2.999  0.00  0.00     0.054 A 
ATOM      3  C3  IND d   1       3.316   2.101  -4.075  0.00  0.00    -0.031 A 
ATOM      4  C4  IND d   1       2.099   3.698  -5.686  0.00  0.00     0.051 A 
ATOM      5  C5  IND d   1       1.805   5.019  -5.874  0.00  0.00    -0.031 A 
ATOM      6  C6  IND d   1       2.277   6.000  -5.027  0.00  0.00     0.015 A 
ATOM      7  C7  IND d   1       3.075   5.696  -3.960  0.00  0.00    -0.016 A 
ATOM      8  C8  IND d   1       3.370   4.355  -3.761  0.00  0.00    -0.047 A 
ATOM      9  C9  IND d   1       2.858   3.351  -4.593  0.00  0.00    -0.096 A 
ATOM     10  HN1 IND d   1       4.530   4.131  -2.141  0.00  0.00     0.298 HD
ENDROOT
TORSDOF 0
ENDMDL
