MODEL 1
REMARK minimizedAffinity 20.2361393
REMARK minimizedRMSD -1
REMARK  0 active torsions:
REMARK  status: ('A' for Active; 'I' for Inactive)
ROOT
ATOM      1  N1  IND d   1      -1.764  -1.098  -2.896  0.00  0.00    -0.196 N 
ATOM      2  C2  IND d   1      -1.838  -1.816  -1.736  0.00  0.00     0.054 A 
ATOM      3  C3  IND d   1      -1.471  -3.100  -1.952  0.00  0.00    -0.031 A 
ATOM      4  C4  IND d   1      -0.616  -4.214  -4.110  0.00  0.00     0.051 A 
ATOM      5  C5  IND d   1      -0.410  -3.971  -5.439  0.00  0.00    -0.031 A 
ATOM      6  C6  IND d   1      -0.648  -2.733  -5.999  0.00  0.00     0.015 A 
ATOM      7  C7  IND d   1      -1.091  -1.683  -5.246  0.00  0.00    -0.016 A 
ATOM      8  C8  IND d   1      -1.307  -1.928  -3.897  0.00  0.00    -0.047 A 
ATOM      9  C9  IND d   1      -1.109  -3.194  -3.331  0.00  0.00    -0.096 A 
ATOM     10  HN1 IND d   1      -1.969  -0.268  -2.986  0.00  0.00     0.298 HD
ENDROOT
TORSDOF 0
ENDMDL
