MODEL 1
REMARK minimizedAffinity 17.3856888
REMARK minimizedRMSD -1
REMARK  0 active torsions:
REMARK  status: ('A' for Active; 'I' for Inactive)
ROOT
ATOM      1  N1  IND d   1      -3.840  -0.189   2.594  0.00  0.00    -0.196 N 
ATOM      2  C2  IND d   1      -3.587   1.090   3.004  0.00  0.00     0.054 A 
ATOM      3  C3  IND d   1      -3.988   1.262   4.284  0.00  0.00    -0.031 A 
ATOM      4  C4  IND d   1      -4.991  -0.447   5.927  0.00  0.00     0.051 A 
ATOM      5  C5  IND d   1      -5.442  -1.735   5.999  0.00  0.00    -0.031 A 
ATOM      6  C6  IND d   1      -5.379  -2.592   4.919  0.00  0.00     0.015 A 
ATOM      7  C7  IND d   1      -4.848  -2.194   3.725  0.00  0.00    -0.016 A 
ATOM      8  C8  IND d   1      -4.396  -0.884   3.646  0.00  0.00    -0.047 A 
ATOM      9  C9  IND d   1      -4.497   0.002   4.725  0.00  0.00    -0.096 A 
ATOM     10  HN1 IND d   1      -3.678  -0.506   1.812  0.00  0.00     0.298 HD
ENDROOT
TORSDOF 0
ENDMDL
