MODEL 1
REMARK minimizedAffinity 6.11713839
REMARK minimizedRMSD -1
REMARK  0 active torsions:
REMARK  status: ('A' for Active; 'I' for Inactive)
ROOT
ATOM      1  N1  IND d   1       3.340   5.001  -5.998  0.00  0.00    -0.196 N 
ATOM      2  C2  IND d   1       2.082   5.193  -5.500  0.00  0.00     0.054 A 
ATOM      3  C3  IND d   1       1.906   4.466  -4.374  0.00  0.00    -0.031 A 
ATOM      4  C4  IND d   1       3.581   2.970  -3.115  0.00  0.00     0.051 A 
ATOM      5  C5  IND d   1       4.844   2.455  -3.204  0.00  0.00    -0.031 A 
ATOM      6  C6  IND d   1       5.688   2.771  -4.249  0.00  0.00     0.015 A 
ATOM      7  C7  IND d   1       5.303   3.627  -5.242  0.00  0.00    -0.016 A 
ATOM      8  C8  IND d   1       4.019   4.146  -5.158  0.00  0.00    -0.047 A 
ATOM      9  C9  IND d   1       3.143   3.796  -4.123  0.00  0.00    -0.096 A 
ATOM     10  HN1 IND d   1       3.655   5.355  -6.716  0.00  0.00     0.298 HD
ENDROOT
TORSDOF 0
ENDMDL
