MODEL 1
REMARK minimizedAffinity -2.84110737
REMARK minimizedRMSD -1
REMARK  0 active torsions:
REMARK  status: ('A' for Active; 'I' for Inactive)
ROOT
ATOM      1  N1  IND d   1       3.814   2.695  -3.311  0.00  0.00    -0.196 N 
ATOM      2  C2  IND d   1       5.065   2.241  -2.999  0.00  0.00     0.054 A 
ATOM      3  C3  IND d   1       5.999   2.912  -3.710  0.00  0.00    -0.031 A 
ATOM      4  C4  IND d   1       5.707   4.862  -5.365  0.00  0.00     0.051 A 
ATOM      5  C5  IND d   1       4.748   5.602  -6.000  0.00  0.00    -0.031 A 
ATOM      6  C6  IND d   1       3.403   5.408  -5.764  0.00  0.00     0.015 A 
ATOM      7  C7  IND d   1       2.964   4.471  -4.872  0.00  0.00    -0.016 A 
ATOM      8  C8  IND d   1       3.933   3.713  -4.231  0.00  0.00    -0.047 A 
ATOM      9  C9  IND d   1       5.299   3.876  -4.498  0.00  0.00    -0.096 A 
ATOM     10  HN1 IND d   1       3.077   2.395  -2.986  0.00  0.00     0.298 HD
ENDROOT
TORSDOF 0
ENDMDL
