MODEL 1
REMARK minimizedAffinity 14.7071104
REMARK minimizedRMSD -1
REMARK  0 active torsions:
REMARK  status: ('A' for Active; 'I' for Inactive)
ROOT
ATOM      1  N1  IND d   1      -1.108  -4.995   3.408  0.00  0.00    -0.196 N 
ATOM      2  C2  IND d   1      -1.597  -5.997   2.618  0.00  0.00     0.054 A 
ATOM      3  C3  IND d   1      -1.996  -5.503   1.424  0.00  0.00    -0.031 A 
ATOM      4  C4  IND d   1      -1.843  -3.098   0.517  0.00  0.00     0.051 A 
ATOM      5  C5  IND d   1      -1.502  -1.827   0.886  0.00  0.00    -0.031 A 
ATOM      6  C6  IND d   1      -1.000  -1.542   2.139  0.00  0.00     0.015 A 
ATOM      7  C7  IND d   1      -0.808  -2.523   3.070  0.00  0.00    -0.016 A 
ATOM      8  C8  IND d   1      -1.160  -3.814   2.701  0.00  0.00    -0.047 A 
ATOM      9  C9  IND d   1      -1.709  -4.103   1.446  0.00  0.00    -0.096 A 
ATOM     10  HN1 IND d   1      -0.816  -5.087   4.212  0.00  0.00     0.298 HD
ENDROOT
TORSDOF 0
ENDMDL
