MODEL 1
REMARK minimizedAffinity 11.5602093
REMARK minimizedRMSD -1
REMARK  0 active torsions:
REMARK  status: ('A' for Active; 'I' for Inactive)
ROOT
ATOM      1  N1  IND d   1      -4.724   5.234   5.221  0.00  0.00    -0.196 N 
ATOM      2  C2  IND d   1      -5.625   5.997   4.533  0.00  0.00     0.054 A 
ATOM      3  C3  IND d   1      -5.944   5.406   3.360  0.00  0.00    -0.031 A 
ATOM      4  C4  IND d   1      -5.183   3.137   2.412  0.00  0.00     0.051 A 
ATOM      5  C5  IND d   1      -4.334   2.095   2.662  0.00  0.00    -0.031 A 
ATOM      6  C6  IND d   1      -3.557   2.045   3.802  0.00  0.00     0.015 A 
ATOM      7  C7  IND d   1      -3.610   3.032   4.744  0.00  0.00    -0.016 A 
ATOM      8  C8  IND d   1      -4.466   4.095   4.491  0.00  0.00    -0.047 A 
ATOM      9  C9  IND d   1      -5.225   4.173   3.315  0.00  0.00    -0.096 A 
ATOM     10  HN1 IND d   1      -4.376   5.432   5.982  0.00  0.00     0.298 HD
ENDROOT
TORSDOF 0
ENDMDL
