MODEL 1
REMARK minimizedAffinity 9.56232452
REMARK minimizedRMSD -1
REMARK  0 active torsions:
REMARK  status: ('A' for Active; 'I' for Inactive)
ROOT
ATOM      1  N1  IND d   1       3.342  -0.110   0.290  0.00  0.00    -0.196 N 
ATOM      2  C2  IND d   1       3.735   0.692  -0.745  0.00  0.00     0.054 A 
ATOM      3  C3  IND d   1       3.075   1.871  -0.704  0.00  0.00    -0.031 A 
ATOM      4  C4  IND d   1       1.381   2.737   1.030  0.00  0.00     0.051 A 
ATOM      5  C5  IND d   1       0.680   2.351   2.137  0.00  0.00    -0.031 A 
ATOM      6  C6  IND d   1       0.835   1.100   2.699  0.00  0.00     0.015 A 
ATOM      7  C7  IND d   1       1.710   0.189   2.178  0.00  0.00    -0.016 A 
ATOM      8  C8  IND d   1       2.419   0.576   1.049  0.00  0.00    -0.047 A 
ATOM      9  C9  IND d   1       2.234   1.828   0.450  0.00  0.00    -0.096 A 
ATOM     10  HN1 IND d   1       3.624  -0.908   0.442  0.00  0.00     0.298 HD
ENDROOT
TORSDOF 0
ENDMDL
