MODEL 1
REMARK minimizedAffinity 1.08987868
REMARK minimizedRMSD -1
REMARK  0 active torsions:
REMARK  status: ('A' for Active; 'I' for Inactive)
ROOT
ATOM      1  N1  IND d   1       1.951   2.744  -4.869  0.00  0.00    -0.196 N 
ATOM      2  C2  IND d   1       1.590   3.871  -5.555  0.00  0.00     0.054 A 
ATOM      3  C3  IND d   1       2.688   4.523  -5.999  0.00  0.00    -0.031 A 
ATOM      4  C4  IND d   1       5.170   3.868  -5.803  0.00  0.00     0.051 A 
ATOM      5  C5  IND d   1       5.998   2.943  -5.233  0.00  0.00    -0.031 A 
ATOM      6  C6  IND d   1       5.510   1.881  -4.499  0.00  0.00     0.015 A 
ATOM      7  C7  IND d   1       4.168   1.698  -4.318  0.00  0.00    -0.016 A 
ATOM      8  C8  IND d   1       3.324   2.640  -4.890  0.00  0.00    -0.047 A 
ATOM      9  C9  IND d   1       3.816   3.743  -5.599  0.00  0.00    -0.096 A 
ATOM     10  HN1 IND d   1       1.411   2.194  -4.489  0.00  0.00     0.298 HD
ENDROOT
TORSDOF 0
ENDMDL
