MODEL 1
REMARK minimizedAffinity 2.75309896
REMARK minimizedRMSD -1
REMARK  0 active torsions:
REMARK  status: ('A' for Active; 'I' for Inactive)
ROOT
ATOM      1  N1  IND d   1       6.000   2.999  -2.273  0.00  0.00    -0.196 N 
ATOM      2  C2  IND d   1       5.988   1.695  -2.682  0.00  0.00     0.054 A 
ATOM      3  C3  IND d   1       5.949   1.626  -4.032  0.00  0.00    -0.031 A 
ATOM      4  C4  IND d   1       6.000   3.525  -5.769  0.00  0.00     0.051 A 
ATOM      5  C5  IND d   1       5.974   4.887  -5.877  0.00  0.00    -0.031 A 
ATOM      6  C6  IND d   1       5.959   5.706  -4.767  0.00  0.00     0.015 A 
ATOM      7  C7  IND d   1       5.979   5.191  -3.501  0.00  0.00    -0.016 A 
ATOM      8  C8  IND d   1       5.998   3.808  -3.388  0.00  0.00    -0.047 A 
ATOM      9  C9  IND d   1       5.971   2.971  -4.511  0.00  0.00    -0.096 A 
ATOM     10  HN1 IND d   1       6.007   3.269  -1.457  0.00  0.00     0.298 HD
ENDROOT
TORSDOF 0
ENDMDL
