MODEL 1
REMARK minimizedAffinity 9.73585701
REMARK minimizedRMSD -1
REMARK  0 active torsions:
REMARK  status: ('A' for Active; 'I' for Inactive)
ROOT
ATOM      1  N1  IND d   1       3.772   1.861  -2.943  0.00  0.00    -0.196 N 
ATOM      2  C2  IND d   1       4.950   1.511  -2.345  0.00  0.00     0.054 A 
ATOM      3  C3  IND d   1       5.996   2.038  -3.021  0.00  0.00    -0.031 A 
ATOM      4  C4  IND d   1       6.000   3.589  -5.077  0.00  0.00     0.051 A 
ATOM      5  C5  IND d   1       5.167   4.156  -6.000  0.00  0.00    -0.031 A 
ATOM      6  C6  IND d   1       3.799   3.986  -5.949  0.00  0.00     0.015 A 
ATOM      7  C7  IND d   1       3.209   3.249  -4.961  0.00  0.00    -0.016 A 
ATOM      8  C8  IND d   1       4.052   2.665  -4.026  0.00  0.00    -0.047 A 
ATOM      9  C9  IND d   1       5.444   2.799  -4.098  0.00  0.00    -0.096 A 
ATOM     10  HN1 IND d   1       2.988   1.620  -2.687  0.00  0.00     0.298 HD
ENDROOT
TORSDOF 0
ENDMDL
