MODEL 1
REMARK minimizedAffinity -6.13489389
REMARK minimizedRMSD -1
REMARK  1 active torsions:
REMARK  status: ('A' for Active; 'I' for Inactive)
REMARK    1  A    between atoms: C1_2  and  C2_3 
ROOT
ATOM      1  C2  UNL d   1      -0.164  -1.349  -0.646  0.00  0.00    -0.081 A 
ATOM      2  C3  UNL d   1       0.682  -0.799   0.325  0.00  0.00     0.006 A 
ATOM      3  C4  UNL d   1       0.741   0.584   0.512  0.00  0.00     0.002 A 
ATOM      4  C5  UNL d   1      -0.050   1.439  -0.262  0.00  0.00    -0.080 A 
ATOM      5  C6  UNL d   1      -0.020   2.924  -0.051  0.00  0.00     0.076 C 
ATOM      6  C7  UNL d   1      -0.883   0.891  -1.244  0.00  0.00     0.002 A 
ATOM      7  C8  UNL d   1      -0.941  -0.491  -1.433  0.00  0.00     0.006 A 
ENDROOT
BRANCH   1   8
ATOM      8  C1  UNL d   1      -0.277  -2.843  -0.807  0.00  0.00     0.054 C 
ATOM      9  C   UNL d   1      -0.718  -3.217  -2.215  0.00  0.00     0.018 C 
ENDBRANCH   1   8
TORSDOF 1
ENDMDL
