MODEL 1
REMARK minimizedAffinity -4.89856434
REMARK minimizedRMSD -1
REMARK  1 active torsions:
REMARK  status: ('A' for Active; 'I' for Inactive)
REMARK    1  A    between atoms: C1_2  and  C2_3 
ROOT
ATOM      1  C2  UNL d   1      -0.207  -1.008  -0.152  0.00  0.00    -0.081 A 
ATOM      2  C3  UNL d   1      -1.369  -0.245   0.016  0.00  0.00     0.006 A 
ATOM      3  C4  UNL d   1      -1.287   1.136   0.212  0.00  0.00     0.002 A 
ATOM      4  C5  UNL d   1      -0.044   1.777   0.235  0.00  0.00    -0.080 A 
ATOM      5  C6  UNL d   1       0.056   3.263   0.414  0.00  0.00     0.076 C 
ATOM      6  C7  UNL d   1       1.118   1.012   0.085  0.00  0.00     0.002 A 
ATOM      7  C8  UNL d   1       1.037  -0.368  -0.110  0.00  0.00     0.006 A 
ENDROOT
BRANCH   1   8
ATOM      8  C1  UNL d   1      -0.295  -2.487  -0.427  0.00  0.00     0.054 C 
ATOM      9  C   UNL d   1      -0.149  -2.783  -1.913  0.00  0.00     0.018 C 
ENDBRANCH   1   8
TORSDOF 1
ENDMDL
