MODEL 1
REMARK minimizedAffinity -3.78499079
REMARK minimizedRMSD -1
REMARK  1 active torsions:
REMARK  status: ('A' for Active; 'I' for Inactive)
REMARK    1  A    between atoms: C1_2  and  C2_3 
ROOT
ATOM      1  C2  UNL d   1      -0.611   1.279   0.410  0.00  0.00    -0.081 A 
ATOM      2  C3  UNL d   1       0.497   0.642  -0.164  0.00  0.00     0.006 A 
ATOM      3  C4  UNL d   1       0.486  -0.737  -0.383  0.00  0.00     0.002 A 
ATOM      4  C5  UNL d   1      -0.634  -1.502  -0.038  0.00  0.00    -0.080 A 
ATOM      5  C6  UNL d   1      -0.670  -2.979  -0.295  0.00  0.00     0.076 C 
ATOM      6  C7  UNL d   1      -1.733  -0.869   0.551  0.00  0.00     0.002 A 
ATOM      7  C8  UNL d   1      -1.723   0.510   0.770  0.00  0.00     0.006 A 
ENDROOT
BRANCH   1   8
ATOM      8  C1  UNL d   1      -0.628   2.776   0.587  0.00  0.00     0.054 C 
ATOM      9  C   UNL d   1       0.760   3.311   0.908  0.00  0.00     0.018 C 
ENDBRANCH   1   8
TORSDOF 1
ENDMDL
