MODEL 1
REMARK minimizedAffinity -3.18357468
REMARK minimizedRMSD -1
REMARK  1 active torsions:
REMARK  status: ('A' for Active; 'I' for Inactive)
REMARK    1  A    between atoms: C1_2  and  C2_3 
ROOT
ATOM      1  C2  UNL d   1      -0.495   0.054  -0.592  0.00  0.00    -0.081 A 
ATOM      2  C3  UNL d   1      -0.728  -0.051  -1.969  0.00  0.00     0.006 A 
ATOM      3  C4  UNL d   1      -0.804  -1.304  -2.581  0.00  0.00     0.002 A 
ATOM      4  C5  UNL d   1      -0.656  -2.473  -1.827  0.00  0.00    -0.080 A 
ATOM      5  C6  UNL d   1      -0.765  -3.825  -2.467  0.00  0.00     0.076 C 
ATOM      6  C7  UNL d   1      -0.406  -2.368  -0.454  0.00  0.00     0.002 A 
ATOM      7  C8  UNL d   1      -0.329  -1.115   0.158  0.00  0.00     0.006 A 
ENDROOT
BRANCH   1   8
ATOM      8  C1  UNL d   1      -0.477   1.402   0.082  0.00  0.00     0.054 C 
ATOM      9  C   UNL d   1       0.651   2.272  -0.452  0.00  0.00     0.018 C 
ENDBRANCH   1   8
TORSDOF 1
ENDMDL
