MODEL 1
REMARK minimizedAffinity -3.70051026
REMARK minimizedRMSD -1
REMARK  1 active torsions:
REMARK  status: ('A' for Active; 'I' for Inactive)
REMARK    1  A    between atoms: C1_2  and  C2_3 
ROOT
ATOM      1  C2  UNL d   1      -0.922  -1.251  -0.024  0.00  0.00    -0.081 A 
ATOM      2  C3  UNL d   1      -1.986  -0.421   0.351  0.00  0.00     0.006 A 
ATOM      3  C4  UNL d   1      -1.766   0.930   0.627  0.00  0.00     0.002 A 
ATOM      4  C5  UNL d   1      -0.482   1.476   0.525  0.00  0.00    -0.080 A 
ATOM      5  C6  UNL d   1      -0.238   2.932   0.789  0.00  0.00     0.076 C 
ATOM      6  C7  UNL d   1       0.584   0.643   0.168  0.00  0.00     0.002 A 
ATOM      7  C8  UNL d   1       0.365  -0.708  -0.108  0.00  0.00     0.006 A 
ENDROOT
BRANCH   1   8
ATOM      8  C1  UNL d   1      -1.166  -2.694  -0.385  0.00  0.00     0.054 C 
ATOM      9  C   UNL d   1      -1.214  -2.887  -1.894  0.00  0.00     0.018 C 
ENDBRANCH   1   8
TORSDOF 1
ENDMDL
