MODEL 1
REMARK minimizedAffinity -2.64507818
REMARK minimizedRMSD -1
REMARK  1 active torsions:
REMARK  status: ('A' for Active; 'I' for Inactive)
REMARK    1  A    between atoms: C1_2  and  C2_3 
ROOT
ATOM      1  C2  UNL d   1      -0.481  -0.247   0.244  0.00  0.00    -0.081 A 
ATOM      2  C3  UNL d   1      -1.323   0.670   0.886  0.00  0.00     0.006 A 
ATOM      3  C4  UNL d   1      -1.051   2.039   0.831  0.00  0.00     0.002 A 
ATOM      4  C5  UNL d   1       0.061   2.515   0.128  0.00  0.00    -0.080 A 
ATOM      5  C6  UNL d   1       0.346   3.984   0.036  0.00  0.00     0.076 C 
ATOM      6  C7  UNL d   1       0.912   1.598  -0.498  0.00  0.00     0.002 A 
ATOM      7  C8  UNL d   1       0.641   0.229  -0.443  0.00  0.00     0.006 A 
ENDROOT
BRANCH   1   8
ATOM      8  C1  UNL d   1      -0.806  -1.719   0.247  0.00  0.00     0.054 C 
ATOM      9  C   UNL d   1      -1.094  -2.224  -1.159  0.00  0.00     0.018 C 
ENDBRANCH   1   8
TORSDOF 1
ENDMDL
