MODEL 1
REMARK minimizedAffinity -4.56505299
REMARK minimizedRMSD -1
REMARK  1 active torsions:
REMARK  status: ('A' for Active; 'I' for Inactive)
REMARK    1  A    between atoms: C1_2  and  C2_3 
ROOT
ATOM      1  C2  UNL d   1      -0.313   1.334   0.342  0.00  0.00    -0.081 A 
ATOM      2  C3  UNL d   1       0.644   0.744  -0.493  0.00  0.00     0.006 A 
ATOM      3  C4  UNL d   1       0.613  -0.629  -0.746  0.00  0.00     0.002 A 
ATOM      4  C5  UNL d   1      -0.378  -1.434  -0.175  0.00  0.00    -0.080 A 
ATOM      5  C6  UNL d   1      -0.440  -2.905  -0.463  0.00  0.00     0.076 C 
ATOM      6  C7  UNL d   1      -1.323  -0.848   0.674  0.00  0.00     0.002 A 
ATOM      7  C8  UNL d   1      -1.293   0.525   0.927  0.00  0.00     0.006 A 
ENDROOT
BRANCH   1   8
ATOM      8  C1  UNL d   1      -0.321   2.825   0.565  0.00  0.00     0.054 C 
ATOM      9  C   UNL d   1       0.296   3.564  -0.613  0.00  0.00     0.018 C 
ENDBRANCH   1   8
TORSDOF 1
ENDMDL
