MODEL 1
REMARK minimizedAffinity -5.11861515
REMARK minimizedRMSD -1
REMARK  1 active torsions:
REMARK  status: ('A' for Active; 'I' for Inactive)
REMARK    1  A    between atoms: C1_2  and  C2_3 
ROOT
ATOM      1  C2  UNL d   1       0.254  -0.583   0.153  0.00  0.00    -0.081 A 
ATOM      2  C3  UNL d   1      -0.707   0.422   0.319  0.00  0.00     0.006 A 
ATOM      3  C4  UNL d   1      -0.318   1.743   0.551  0.00  0.00     0.002 A 
ATOM      4  C5  UNL d   1       1.038   2.083   0.614  0.00  0.00    -0.080 A 
ATOM      5  C6  UNL d   1       1.469   3.503   0.832  0.00  0.00     0.076 C 
ATOM      6  C7  UNL d   1       1.998   1.077   0.466  0.00  0.00     0.002 A 
ATOM      7  C8  UNL d   1       1.609  -0.245   0.234  0.00  0.00     0.006 A 
ENDROOT
BRANCH   1   8
ATOM      8  C1  UNL d   1      -0.162  -1.997  -0.162  0.00  0.00     0.054 C 
ATOM      9  C   UNL d   1      -0.203  -2.240  -1.663  0.00  0.00     0.018 C 
ENDBRANCH   1   8
TORSDOF 1
ENDMDL
