MODEL 1
REMARK minimizedAffinity -3.4018352
REMARK minimizedRMSD -1
REMARK  1 active torsions:
REMARK  status: ('A' for Active; 'I' for Inactive)
REMARK    1  A    between atoms: C1_2  and  C2_3 
ROOT
ATOM      1  C2  UNL d   1      -0.097  -1.673  -0.701  0.00  0.00    -0.081 A 
ATOM      2  C3  UNL d   1       0.372  -1.439   0.598  0.00  0.00     0.006 A 
ATOM      3  C4  UNL d   1       0.220  -0.183   1.190  0.00  0.00     0.002 A 
ATOM      4  C5  UNL d   1      -0.409   0.857   0.498  0.00  0.00    -0.080 A 
ATOM      5  C6  UNL d   1      -0.605   2.201   1.134  0.00  0.00     0.076 C 
ATOM      6  C7  UNL d   1      -0.862   0.629  -0.806  0.00  0.00     0.002 A 
ATOM      7  C8  UNL d   1      -0.710  -0.627  -1.399  0.00  0.00     0.006 A 
ENDROOT
BRANCH   1   8
ATOM      8  C1  UNL d   1       0.006  -3.044  -1.318  0.00  0.00     0.054 C 
ATOM      9  C   UNL d   1      -1.170  -3.325  -2.243  0.00  0.00     0.018 C 
ENDBRANCH   1   8
TORSDOF 1
ENDMDL
