MODEL 1
REMARK minimizedAffinity -1.04683304
REMARK minimizedRMSD -1
REMARK  1 active torsions:
REMARK  status: ('A' for Active; 'I' for Inactive)
REMARK    1  A    between atoms: C1_2  and  C2_3 
ROOT
ATOM      1  C2  UNL d   1       0.264  -1.412   0.022  0.00  0.00    -0.081 A 
ATOM      2  C3  UNL d   1       1.383  -0.646   0.370  0.00  0.00     0.006 A 
ATOM      3  C4  UNL d   1       1.266   0.732   0.565  0.00  0.00     0.002 A 
ATOM      4  C5  UNL d   1       0.027   1.366   0.421  0.00  0.00    -0.080 A 
ATOM      5  C6  UNL d   1      -0.118   2.840   0.656  0.00  0.00     0.076 C 
ATOM      6  C7  UNL d   1      -1.088   0.604   0.056  0.00  0.00     0.002 A 
ATOM      7  C8  UNL d   1      -0.971  -0.774  -0.139  0.00  0.00     0.006 A 
ENDROOT
BRANCH   1   8
ATOM      8  C1  UNL d   1       0.374  -2.908  -0.125  0.00  0.00     0.054 C 
ATOM      9  C   UNL d   1      -0.654  -3.445  -1.111  0.00  0.00     0.018 C 
ENDBRANCH   1   8
TORSDOF 1
ENDMDL
