MODEL 1
REMARK minimizedAffinity 6.63963175
REMARK minimizedRMSD -1
REMARK  1 active torsions:
REMARK  status: ('A' for Active; 'I' for Inactive)
REMARK    1  A    between atoms: C1_2  and  C2_3 
ROOT
ATOM      1  C2  UNL d   1       0.913  -1.627  -0.373  0.00  0.00    -0.081 A 
ATOM      2  C3  UNL d   1      -0.157  -2.165   0.352  0.00  0.00     0.006 A 
ATOM      3  C4  UNL d   1      -1.103  -2.977  -0.279  0.00  0.00     0.002 A 
ATOM      4  C5  UNL d   1      -0.990  -3.270  -1.642  0.00  0.00    -0.080 A 
ATOM      5  C6  UNL d   1      -1.982  -4.164  -2.325  0.00  0.00     0.076 C 
ATOM      6  C7  UNL d   1       0.069  -2.717  -2.370  0.00  0.00     0.002 A 
ATOM      7  C8  UNL d   1       1.014  -1.905  -1.740  0.00  0.00     0.006 A 
ENDROOT
BRANCH   1   8
ATOM      8  C1  UNL d   1       1.970  -0.804   0.319  0.00  0.00     0.054 C 
ATOM      9  C   UNL d   1       1.968   0.633  -0.182  0.00  0.00     0.018 C 
ENDBRANCH   1   8
TORSDOF 1
ENDMDL
