MODEL 1
REMARK minimizedAffinity 7.33603001
REMARK minimizedRMSD -1
REMARK  1 active torsions:
REMARK  status: ('A' for Active; 'I' for Inactive)
REMARK    1  A    between atoms: C1_2  and  C2_3 
ROOT
ATOM      1  C2  UNL d   1       0.929  -1.772  -0.381  0.00  0.00    -0.081 A 
ATOM      2  C3  UNL d   1      -0.294  -2.437  -0.229  0.00  0.00     0.006 A 
ATOM      3  C4  UNL d   1      -0.767  -3.287  -1.231  0.00  0.00     0.002 A 
ATOM      4  C5  UNL d   1      -0.023  -3.493  -2.397  0.00  0.00    -0.080 A 
ATOM      5  C6  UNL d   1      -0.506  -4.426  -3.468  0.00  0.00     0.076 C 
ATOM      6  C7  UNL d   1       1.191  -2.815  -2.557  0.00  0.00     0.002 A 
ATOM      7  C8  UNL d   1       1.664  -1.965  -1.556  0.00  0.00     0.006 A 
ENDROOT
BRANCH   1   8
ATOM      8  C1  UNL d   1       1.474  -0.905   0.726  0.00  0.00     0.054 C 
ATOM      9  C   UNL d   1       2.809  -0.287   0.338  0.00  0.00     0.018 C 
ENDBRANCH   1   8
TORSDOF 1
ENDMDL
