MODEL 1
REMARK minimizedAffinity -2.23778152
REMARK minimizedRMSD -1
REMARK  0 active torsions:
REMARK  status: ('A' for Active; 'I' for Inactive)
ROOT
ATOM      1  C   UNL d   1       0.335   0.888  -0.031  0.00  0.00     0.172 C 
ATOM      2  N   UNL d   1       0.990   2.040   0.544  0.00  0.00    -0.070 N 
ATOM      3  C1  UNL d   1       2.331   2.312   0.475  0.00  0.00    -0.004 A 
ATOM      4  C2  UNL d   1       2.555   3.497   1.143  0.00  0.00    -0.047 A 
ATOM      5  C3  UNL d   1       1.307   3.950   1.632  0.00  0.00    -0.047 A 
ATOM      6  C4  UNL d   1       0.355   3.030   1.246  0.00  0.00    -0.004 A 
ENDROOT
TORSDOF 0
ENDMDL
