MODEL 1
REMARK minimizedAffinity 0.32404995
REMARK minimizedRMSD -1
REMARK  0 active torsions:
REMARK  status: ('A' for Active; 'I' for Inactive)
ROOT
ATOM      1  C   UNL d   1      -0.080   0.009  -1.675  0.00  0.00     0.172 C 
ATOM      2  N   UNL d   1      -0.677  -0.363  -0.415  0.00  0.00    -0.070 N 
ATOM      3  C1  UNL d   1      -0.943  -1.642  -0.004  0.00  0.00    -0.004 A 
ATOM      4  C2  UNL d   1      -1.509  -1.574   1.250  0.00  0.00    -0.047 A 
ATOM      5  C3  UNL d   1      -1.588  -0.206   1.606  0.00  0.00    -0.047 A 
ATOM      6  C4  UNL d   1      -1.065   0.521   0.557  0.00  0.00    -0.004 A 
ENDROOT
TORSDOF 0
ENDMDL
