MODEL 1
REMARK minimizedAffinity -2.38117242
REMARK minimizedRMSD -1
REMARK  0 active torsions:
REMARK  status: ('A' for Active; 'I' for Inactive)
ROOT
ATOM      1  C   UNL d   1      -0.461  -0.748   1.467  0.00  0.00     0.172 C 
ATOM      2  N   UNL d   1      -0.156  -0.339   0.116  0.00  0.00    -0.070 N 
ATOM      3  C1  UNL d   1      -0.009   0.953  -0.312  0.00  0.00    -0.004 A 
ATOM      4  C2  UNL d   1       0.277   0.921  -1.660  0.00  0.00    -0.047 A 
ATOM      5  C3  UNL d   1       0.303  -0.437  -2.055  0.00  0.00    -0.047 A 
ATOM      6  C4  UNL d   1       0.031  -1.196  -0.936  0.00  0.00    -0.004 A 
ENDROOT
TORSDOF 0
ENDMDL
