MODEL 1
REMARK minimizedAffinity -1.91810918
REMARK minimizedRMSD -1
REMARK  0 active torsions:
REMARK  status: ('A' for Active; 'I' for Inactive)
ROOT
ATOM      1  C   UNL d   1       0.580  -0.372  -2.350  0.00  0.00     0.172 C 
ATOM      2  N   UNL d   1       0.382  -0.332  -0.921  0.00  0.00    -0.070 N 
ATOM      3  C1  UNL d   1      -0.788  -0.013  -0.285  0.00  0.00    -0.004 A 
ATOM      4  C2  UNL d   1      -0.566  -0.090   1.073  0.00  0.00    -0.047 A 
ATOM      5  C3  UNL d   1       0.786  -0.466   1.260  0.00  0.00    -0.047 A 
ATOM      6  C4  UNL d   1       1.349  -0.609   0.009  0.00  0.00    -0.004 A 
ENDROOT
TORSDOF 0
ENDMDL
