MODEL 1
REMARK minimizedAffinity -3.38557625
REMARK minimizedRMSD -1
REMARK  0 active torsions:
REMARK  status: ('A' for Active; 'I' for Inactive)
ROOT
ATOM      1  C   UNL d   1      -0.990  -2.293   0.453  0.00  0.00     0.172 C 
ATOM      2  N   UNL d   1      -0.644  -0.990  -0.064  0.00  0.00    -0.070 N 
ATOM      3  C1  UNL d   1      -0.059  -0.743  -1.277  0.00  0.00    -0.004 A 
ATOM      4  C2  UNL d   1       0.106   0.620  -1.396  0.00  0.00    -0.047 A 
ATOM      5  C3  UNL d   1      -0.397   1.212  -0.213  0.00  0.00    -0.047 A 
ATOM      6  C4  UNL d   1      -0.855   0.192   0.594  0.00  0.00    -0.004 A 
ENDROOT
TORSDOF 0
ENDMDL
