MODEL 1
REMARK minimizedAffinity -2.63750005
REMARK minimizedRMSD -1
REMARK  0 active torsions:
REMARK  status: ('A' for Active; 'I' for Inactive)
ROOT
ATOM      1  C   UNL d   1       0.079   1.216  -1.070  0.00  0.00     0.172 C 
ATOM      2  N   UNL d   1       0.806   2.287  -0.430  0.00  0.00    -0.070 N 
ATOM      3  C1  UNL d   1       0.290   3.170   0.481  0.00  0.00    -0.004 A 
ATOM      4  C2  UNL d   1       1.299   4.033   0.851  0.00  0.00    -0.047 A 
ATOM      5  C3  UNL d   1       2.461   3.656   0.137  0.00  0.00    -0.047 A 
ATOM      6  C4  UNL d   1       2.128   2.573  -0.649  0.00  0.00    -0.004 A 
ENDROOT
TORSDOF 0
ENDMDL
