MODEL 1
REMARK minimizedAffinity -1.71223104
REMARK minimizedRMSD -1
REMARK  0 active torsions:
REMARK  status: ('A' for Active; 'I' for Inactive)
ROOT
ATOM      1  C   UNL d   1       1.565   2.269   0.192  0.00  0.00     0.172 C 
ATOM      2  N   UNL d   1       0.510   1.328   0.487  0.00  0.00    -0.070 N 
ATOM      3  C1  UNL d   1      -0.773   1.392   0.013  0.00  0.00    -0.004 A 
ATOM      4  C2  UNL d   1      -1.465   0.315   0.523  0.00  0.00    -0.047 A 
ATOM      5  C3  UNL d   1      -0.567  -0.422   1.332  0.00  0.00    -0.047 A 
ATOM      6  C4  UNL d   1       0.648   0.228   1.292  0.00  0.00    -0.004 A 
ENDROOT
TORSDOF 0
ENDMDL
