MODEL 1
REMARK minimizedAffinity 2.01831079
REMARK minimizedRMSD -1
REMARK  0 active torsions:
REMARK  status: ('A' for Active; 'I' for Inactive)
ROOT
ATOM      1  C   UNL d   1      -0.257   0.001  -0.745  0.00  0.00     0.172 C 
ATOM      2  N   UNL d   1      -0.841  -0.099   0.572  0.00  0.00    -0.070 N 
ATOM      3  C1  UNL d   1      -0.285  -0.744   1.644  0.00  0.00    -0.004 A 
ATOM      4  C2  UNL d   1      -1.148  -0.611   2.711  0.00  0.00    -0.047 A 
ATOM      5  C3  UNL d   1      -2.261   0.140   2.264  0.00  0.00    -0.047 A 
ATOM      6  C4  UNL d   1      -2.045   0.444   0.936  0.00  0.00    -0.004 A 
ENDROOT
TORSDOF 0
ENDMDL
