MODEL 1
REMARK minimizedAffinity -1.29152596
REMARK minimizedRMSD -1
REMARK  0 active torsions:
REMARK  status: ('A' for Active; 'I' for Inactive)
ROOT
ATOM      1  C   UNL d   1      -0.055  -0.026  -2.096  0.00  0.00     0.172 C 
ATOM      2  N   UNL d   1      -0.456   0.063  -0.712  0.00  0.00    -0.070 N 
ATOM      3  C1  UNL d   1      -1.554  -0.539  -0.158  0.00  0.00    -0.004 A 
ATOM      4  C2  UNL d   1      -1.585  -0.212   1.180  0.00  0.00    -0.047 A 
ATOM      5  C3  UNL d   1      -0.467   0.617   1.440  0.00  0.00    -0.047 A 
ATOM      6  C4  UNL d   1       0.215   0.771   0.251  0.00  0.00    -0.004 A 
ENDROOT
TORSDOF 0
ENDMDL
