MODEL 1
REMARK minimizedAffinity -3.16624975
REMARK minimizedRMSD -1
REMARK  0 active torsions:
REMARK  status: ('A' for Active; 'I' for Inactive)
ROOT
ATOM      1  C   UNL d   1      -0.962  -1.726   1.205  0.00  0.00     0.172 C 
ATOM      2  N   UNL d   1      -0.749  -0.393   0.693  0.00  0.00    -0.070 N 
ATOM      3  C1  UNL d   1      -1.540   0.695   0.948  0.00  0.00    -0.004 A 
ATOM      4  C2  UNL d   1      -1.002   1.774   0.280  0.00  0.00    -0.047 A 
ATOM      5  C3  UNL d   1       0.152   1.318  -0.401  0.00  0.00    -0.047 A 
ATOM      6  C4  UNL d   1       0.285  -0.027  -0.128  0.00  0.00    -0.004 A 
ENDROOT
TORSDOF 0
ENDMDL
