MODEL 1
REMARK minimizedAffinity -0.297968864
REMARK minimizedRMSD -1
REMARK  0 active torsions:
REMARK  status: ('A' for Active; 'I' for Inactive)
ROOT
ATOM      1  C   UNL d   1       1.160   0.244  -1.480  0.00  0.00     0.172 C 
ATOM      2  N   UNL d   1       0.145   0.333  -0.456  0.00  0.00    -0.070 N 
ATOM      3  C1  UNL d   1      -0.251  -0.689   0.366  0.00  0.00    -0.004 A 
ATOM      4  C2  UNL d   1      -1.235  -0.202   1.199  0.00  0.00    -0.047 A 
ATOM      5  C3  UNL d   1      -1.438   1.158   0.866  0.00  0.00    -0.047 A 
ATOM      6  C4  UNL d   1      -0.570   1.463  -0.162  0.00  0.00    -0.004 A 
ENDROOT
TORSDOF 0
ENDMDL
