MODEL 1
REMARK minimizedAffinity -4.03231573
REMARK minimizedRMSD -1
REMARK  0 active torsions:
REMARK  status: ('A' for Active; 'I' for Inactive)
ROOT
ATOM      1  C   UNL d   1       0.243   0.474  -0.024  0.00  0.00     0.172 C 
ATOM      2  N   UNL d   1       0.140  -0.956  -0.196  0.00  0.00    -0.070 N 
ATOM      3  C1  UNL d   1       0.344  -1.636  -1.367  0.00  0.00    -0.004 A 
ATOM      4  C2  UNL d   1       0.152  -2.978  -1.115  0.00  0.00    -0.047 A 
ATOM      5  C3  UNL d   1      -0.179  -3.108   0.254  0.00  0.00    -0.047 A 
ATOM      6  C4  UNL d   1      -0.179  -1.841   0.799  0.00  0.00    -0.004 A 
ENDROOT
TORSDOF 0
ENDMDL
