MODEL 1
REMARK minimizedAffinity -1.72922409
REMARK minimizedRMSD -1
REMARK  0 active torsions:
REMARK  status: ('A' for Active; 'I' for Inactive)
ROOT
ATOM      1  C   UNL d   1       0.244  -0.069  -2.111  0.00  0.00     0.172 C 
ATOM      2  N   UNL d   1      -0.342  -0.238  -0.802  0.00  0.00    -0.070 N 
ATOM      3  C1  UNL d   1      -0.774   0.772   0.015  0.00  0.00    -0.004 A 
ATOM      4  C2  UNL d   1      -1.266   0.201   1.169  0.00  0.00    -0.047 A 
ATOM      5  C3  UNL d   1      -1.125  -1.201   1.040  0.00  0.00    -0.047 A 
ATOM      6  C4  UNL d   1      -0.550  -1.445  -0.189  0.00  0.00    -0.004 A 
ENDROOT
TORSDOF 0
ENDMDL
