MODEL 1
REMARK minimizedAffinity -3.88624454
REMARK minimizedRMSD -1
REMARK  0 active torsions:
REMARK  status: ('A' for Active; 'I' for Inactive)
ROOT
ATOM      1  C   UNL d   1      -0.145   0.633  -0.449  0.00  0.00     0.172 C 
ATOM      2  N   UNL d   1       0.157  -0.770  -0.286  0.00  0.00    -0.070 N 
ATOM      3  C1  UNL d   1       0.304  -1.678  -1.301  0.00  0.00    -0.004 A 
ATOM      4  C2  UNL d   1       0.586  -2.902  -0.735  0.00  0.00    -0.047 A 
ATOM      5  C3  UNL d   1       0.607  -2.725   0.669  0.00  0.00    -0.047 A 
ATOM      6  C4  UNL d   1       0.338  -1.395   0.919  0.00  0.00    -0.004 A 
ENDROOT
TORSDOF 0
ENDMDL
