MODEL 1
REMARK minimizedAffinity 2.2879076
REMARK minimizedRMSD -1
REMARK  0 active torsions:
REMARK  status: ('A' for Active; 'I' for Inactive)
ROOT
ATOM      1  N1  IND d   1       0.580   0.346  -2.120  0.00  0.00    -0.196 N 
ATOM      2  C2  IND d   1       0.110   1.585  -1.786  0.00  0.00     0.054 A 
ATOM      3  C3  IND d   1      -1.201   1.520  -1.464  0.00  0.00    -0.031 A 
ATOM      4  C4  IND d   1      -2.749  -0.532  -1.319  0.00  0.00     0.051 A 
ATOM      5  C5  IND d   1      -2.783  -1.876  -1.567  0.00  0.00    -0.031 A 
ATOM      6  C6  IND d   1      -1.674  -2.562  -2.018  0.00  0.00     0.015 A 
ATOM      7  C7  IND d   1      -0.482  -1.929  -2.229  0.00  0.00    -0.016 A 
ATOM      8  C8  IND d   1      -0.446  -0.563  -1.985  0.00  0.00    -0.047 A 
ATOM      9  C9  IND d   1      -1.579   0.146  -1.567  0.00  0.00    -0.096 A 
ATOM     10  HN1 IND d   1       1.382   0.165  -2.373  0.00  0.00     0.298 HD
ENDROOT
TORSDOF 0
ENDMDL
