MODEL 1
REMARK minimizedAffinity 4.04894066
REMARK minimizedRMSD -1
REMARK  0 active torsions:
REMARK  status: ('A' for Active; 'I' for Inactive)
ROOT
ATOM      1  N1  IND d   1       3.368  -2.353  -2.243  0.00  0.00    -0.196 N 
ATOM      2  C2  IND d   1       3.674  -1.616  -1.133  0.00  0.00     0.054 A 
ATOM      3  C3  IND d   1       4.552  -2.284  -0.352  0.00  0.00    -0.031 A 
ATOM      4  C4  IND d   1       5.697  -4.555  -0.751  0.00  0.00     0.051 A 
ATOM      5  C5  IND d   1       5.709  -5.620  -1.608  0.00  0.00    -0.031 A 
ATOM      6  C6  IND d   1       4.927  -5.649  -2.744  0.00  0.00     0.015 A 
ATOM      7  C7  IND d   1       4.110  -4.606  -3.074  0.00  0.00    -0.016 A 
ATOM      8  C8  IND d   1       4.090  -3.526  -2.203  0.00  0.00    -0.047 A 
ATOM      9  C9  IND d   1       4.849  -3.508  -1.026  0.00  0.00    -0.096 A 
ATOM     10  HN1 IND d   1       2.818  -2.123  -2.862  0.00  0.00     0.298 HD
ENDROOT
TORSDOF 0
ENDMDL
