MODEL 1
REMARK minimizedAffinity 1.02085352
REMARK minimizedRMSD -1
REMARK  0 active torsions:
REMARK  status: ('A' for Active; 'I' for Inactive)
ROOT
ATOM      1  N1  IND d   1      -0.093   1.123  -0.846  0.00  0.00    -0.196 N 
ATOM      2  C2  IND d   1      -0.110  -0.232  -1.023  0.00  0.00     0.054 A 
ATOM      3  C3  IND d   1       0.111  -0.863   0.152  0.00  0.00    -0.031 A 
ATOM      4  C4  IND d   1       0.425   0.128   2.507  0.00  0.00     0.051 A 
ATOM      5  C5  IND d   1       0.555   1.318   3.166  0.00  0.00    -0.031 A 
ATOM      6  C6  IND d   1       0.471   2.528   2.509  0.00  0.00     0.015 A 
ATOM      7  C7  IND d   1       0.242   2.594   1.164  0.00  0.00    -0.016 A 
ATOM      8  C8  IND d   1       0.117   1.388   0.490  0.00  0.00    -0.047 A 
ATOM      9  C9  IND d   1       0.243   0.156   1.144  0.00  0.00    -0.096 A 
ATOM     10  HN1 IND d   1      -0.195   1.712  -1.464  0.00  0.00     0.298 HD
ENDROOT
TORSDOF 0
ENDMDL
