MODEL 1
REMARK minimizedAffinity -1.26398742
REMARK minimizedRMSD -1
REMARK  0 active torsions:
REMARK  status: ('A' for Active; 'I' for Inactive)
ROOT
ATOM      1  N1  IND d   1       0.698   3.116  -0.300  0.00  0.00    -0.196 N 
ATOM      2  C2  IND d   1       0.656   3.722   0.925  0.00  0.00     0.054 A 
ATOM      3  C3  IND d   1       0.646   2.794   1.908  0.00  0.00    -0.031 A 
ATOM      4  C4  IND d   1       0.795   0.229   1.739  0.00  0.00     0.051 A 
ATOM      5  C5  IND d   1       0.814  -0.791   0.829  0.00  0.00    -0.031 A 
ATOM      6  C6  IND d   1       0.798  -0.556  -0.530  0.00  0.00     0.015 A 
ATOM      7  C7  IND d   1       0.774   0.714  -1.034  0.00  0.00    -0.016 A 
ATOM      8  C8  IND d   1       0.747   1.752  -0.113  0.00  0.00    -0.047 A 
ATOM      9  C9  IND d   1       0.721   1.519   1.268  0.00  0.00    -0.096 A 
ATOM     10  HN1 IND d   1       0.695   3.519  -1.060  0.00  0.00     0.298 HD
ENDROOT
TORSDOF 0
ENDMDL
