MODEL 1
REMARK minimizedAffinity -4.82577562
REMARK minimizedRMSD -1
REMARK  2 active torsions:
REMARK  status: ('A' for Active; 'I' for Inactive)
REMARK    1  A    between atoms: C1_2  and  C2_3 
REMARK    2  A    between atoms: C2_3  and  C3_4 
ROOT
ATOM      1  C3  UNL d   1      -0.579  -0.125   0.221  0.00  0.00    -0.075 A 
ATOM      2  C4  UNL d   1       0.407   0.361   1.091  0.00  0.00     0.002 A 
ATOM      3  C5  UNL d   1       0.178   0.409   2.466  0.00  0.00     0.002 A 
ATOM      4  C6  UNL d   1      -1.042  -0.017   2.987  0.00  0.00    -0.004 A 
ATOM      5  C7  UNL d   1      -2.036  -0.486   2.131  0.00  0.00     0.002 A 
ATOM      6  C8  UNL d   1      -1.807  -0.540   0.755  0.00  0.00     0.002 A 
ENDROOT
BRANCH   1   7
ATOM      7  C2  UNL d   1      -0.326  -0.208  -1.265  0.00  0.00     0.056 C 
BRANCH   7   8
ATOM      8  C1  UNL d   1       0.725   0.784  -1.775  0.00  0.00     0.007 C 
ATOM      9  C   UNL d   1       1.716   0.160  -2.749  0.00  0.00     0.009 C 
ENDBRANCH   7   8
ENDBRANCH   1   7
TORSDOF 2
ENDMDL
