MODEL 1
REMARK minimizedAffinity -5.54408789
REMARK minimizedRMSD -1
REMARK  2 active torsions:
REMARK  status: ('A' for Active; 'I' for Inactive)
REMARK    1  A    between atoms: C1_2  and  C2_3 
REMARK    2  A    between atoms: C2_3  and  C3_4 
ROOT
ATOM      1  C3  UNL d   1      -0.309   0.338  -0.331  0.00  0.00    -0.075 A 
ATOM      2  C4  UNL d   1      -1.682   0.601  -0.222  0.00  0.00     0.002 A 
ATOM      3  C5  UNL d   1      -2.261   0.841   1.024  0.00  0.00     0.002 A 
ATOM      4  C6  UNL d   1      -1.479   0.810   2.177  0.00  0.00    -0.004 A 
ATOM      5  C7  UNL d   1      -0.116   0.533   2.082  0.00  0.00     0.002 A 
ATOM      6  C8  UNL d   1       0.466   0.297   0.836  0.00  0.00     0.002 A 
ENDROOT
BRANCH   1   7
ATOM      7  C2  UNL d   1       0.329   0.106  -1.680  0.00  0.00     0.056 C 
BRANCH   7   8
ATOM      8  C1  UNL d   1      -0.082  -1.211  -2.346  0.00  0.00     0.007 C 
ATOM      9  C   UNL d   1       1.009  -1.803  -3.228  0.00  0.00     0.009 C 
ENDBRANCH   7   8
ENDBRANCH   1   7
TORSDOF 2
ENDMDL
