MODEL 1
REMARK minimizedAffinity -1.61286867
REMARK minimizedRMSD -1
REMARK  2 active torsions:
REMARK  status: ('A' for Active; 'I' for Inactive)
REMARK    1  A    between atoms: C1_2  and  C2_3 
REMARK    2  A    between atoms: C2_3  and  C3_4 
ROOT
ATOM      1  C3  UNL d   1      -0.370   0.348   1.436  0.00  0.00    -0.075 A 
ATOM      2  C4  UNL d   1       0.097   0.120   2.738  0.00  0.00     0.002 A 
ATOM      3  C5  UNL d   1      -0.775   0.182   3.826  0.00  0.00     0.002 A 
ATOM      4  C6  UNL d   1      -2.120   0.483   3.627  0.00  0.00    -0.004 A 
ATOM      5  C7  UNL d   1      -2.593   0.728   2.339  0.00  0.00     0.002 A 
ATOM      6  C8  UNL d   1      -1.723   0.662   1.249  0.00  0.00     0.002 A 
ENDROOT
BRANCH   1   7
ATOM      7  C2  UNL d   1       0.562   0.253   0.252  0.00  0.00     0.056 C 
BRANCH   7   8
ATOM      8  C1  UNL d   1      -0.139   0.369  -1.105  0.00  0.00     0.007 C 
ATOM      9  C   UNL d   1       0.756  -0.009  -2.278  0.00  0.00     0.009 C 
ENDBRANCH   7   8
ENDBRANCH   1   7
TORSDOF 2
ENDMDL
