MODEL 1
REMARK minimizedAffinity -1.75321519
REMARK minimizedRMSD -1
REMARK  2 active torsions:
REMARK  status: ('A' for Active; 'I' for Inactive)
REMARK    1  A    between atoms: C1_2  and  C2_3 
REMARK    2  A    between atoms: C2_3  and  C3_4 
ROOT
ATOM      1  C3  UNL d   1       0.012   0.251   0.277  0.00  0.00    -0.075 A 
ATOM      2  C4  UNL d   1      -0.738  -0.918   0.470  0.00  0.00     0.002 A 
ATOM      3  C5  UNL d   1      -1.040  -1.361   1.758  0.00  0.00     0.002 A 
ATOM      4  C6  UNL d   1      -0.588  -0.649   2.867  0.00  0.00    -0.004 A 
ATOM      5  C7  UNL d   1       0.172   0.504   2.687  0.00  0.00     0.002 A 
ATOM      6  C8  UNL d   1       0.472   0.953   1.399  0.00  0.00     0.002 A 
ENDROOT
BRANCH   1   7
ATOM      7  C2  UNL d   1       0.317   0.753  -1.114  0.00  0.00     0.056 C 
BRANCH   7   8
ATOM      8  C1  UNL d   1       0.456  -0.358  -2.161  0.00  0.00     0.007 C 
ATOM      9  C   UNL d   1       1.726  -0.243  -2.993  0.00  0.00     0.009 C 
ENDBRANCH   7   8
ENDBRANCH   1   7
TORSDOF 2
ENDMDL
