MODEL 1
REMARK minimizedAffinity 1.15588033
REMARK minimizedRMSD -1
REMARK  2 active torsions:
REMARK  status: ('A' for Active; 'I' for Inactive)
REMARK    1  A    between atoms: C1_2  and  C2_3 
REMARK    2  A    between atoms: C2_3  and  C3_4 
ROOT
ATOM      1  C3  UNL d   1      -1.661   0.948   1.070  0.00  0.00    -0.075 A 
ATOM      2  C4  UNL d   1      -1.149   0.727  -0.217  0.00  0.00     0.002 A 
ATOM      3  C5  UNL d   1       0.217   0.520  -0.410  0.00  0.00     0.002 A 
ATOM      4  C6  UNL d   1       1.088   0.542   0.676  0.00  0.00    -0.004 A 
ATOM      5  C7  UNL d   1       0.593   0.777   1.957  0.00  0.00     0.002 A 
ATOM      6  C8  UNL d   1      -0.774   0.980   2.154  0.00  0.00     0.002 A 
ENDROOT
BRANCH   1   7
ATOM      7  C2  UNL d   1      -3.142   1.142   1.289  0.00  0.00     0.056 C 
BRANCH   7   8
ATOM      8  C1  UNL d   1      -3.523   1.442   2.743  0.00  0.00     0.007 C 
ATOM      9  C   UNL d   1      -4.241   2.775   2.912  0.00  0.00     0.009 C 
ENDBRANCH   7   8
ENDBRANCH   1   7
TORSDOF 2
ENDMDL
