MODEL 1
REMARK minimizedAffinity -3.17577171
REMARK minimizedRMSD -1
REMARK  2 active torsions:
REMARK  status: ('A' for Active; 'I' for Inactive)
REMARK    1  A    between atoms: C1_2  and  C2_3 
REMARK    2  A    between atoms: C2_3  and  C3_4 
ROOT
ATOM      1  C3  UNL d   1      -0.007   0.502  -0.881  0.00  0.00    -0.075 A 
ATOM      2  C4  UNL d   1       0.401   0.166   0.418  0.00  0.00     0.002 A 
ATOM      3  C5  UNL d   1      -0.517   0.157   1.469  0.00  0.00     0.002 A 
ATOM      4  C6  UNL d   1      -1.848   0.494   1.238  0.00  0.00    -0.004 A 
ATOM      5  C7  UNL d   1      -2.261   0.847  -0.045  0.00  0.00     0.002 A 
ATOM      6  C8  UNL d   1      -1.347   0.852  -1.100  0.00  0.00     0.002 A 
ENDROOT
BRANCH   1   7
ATOM      7  C2  UNL d   1       0.974   0.485  -2.028  0.00  0.00     0.056 C 
BRANCH   7   8
ATOM      8  C1  UNL d   1       0.966  -0.818  -2.836  0.00  0.00     0.007 C 
ATOM      9  C   UNL d   1       2.334  -1.184  -3.397  0.00  0.00     0.009 C 
ENDBRANCH   7   8
ENDBRANCH   1   7
TORSDOF 2
ENDMDL
