MODEL 1
REMARK minimizedAffinity -4.91945744
REMARK minimizedRMSD -1
REMARK  2 active torsions:
REMARK  status: ('A' for Active; 'I' for Inactive)
REMARK    1  A    between atoms: C1_2  and  C2_3 
REMARK    2  A    between atoms: C2_3  and  C3_4 
ROOT
ATOM      1  C3  UNL d   1      -0.219   0.058   0.720  0.00  0.00    -0.075 A 
ATOM      2  C4  UNL d   1      -1.531   0.473   0.450  0.00  0.00     0.002 A 
ATOM      3  C5  UNL d   1      -2.540   0.289   1.395  0.00  0.00     0.002 A 
ATOM      4  C6  UNL d   1      -2.254  -0.321   2.615  0.00  0.00    -0.004 A 
ATOM      5  C7  UNL d   1      -0.957  -0.752   2.887  0.00  0.00     0.002 A 
ATOM      6  C8  UNL d   1       0.056  -0.565   1.945  0.00  0.00     0.002 A 
ENDROOT
BRANCH   1   7
ATOM      7  C2  UNL d   1       0.884   0.281  -0.287  0.00  0.00     0.056 C 
BRANCH   7   8
ATOM      8  C1  UNL d   1       0.687  -0.474  -1.606  0.00  0.00     0.007 C 
ATOM      9  C   UNL d   1       1.950  -0.539  -2.455  0.00  0.00     0.009 C 
ENDBRANCH   7   8
ENDBRANCH   1   7
TORSDOF 2
ENDMDL
