MODEL 1
REMARK minimizedAffinity -4.01675224
REMARK minimizedRMSD -1
REMARK  2 active torsions:
REMARK  status: ('A' for Active; 'I' for Inactive)
REMARK    1  A    between atoms: C1_2  and  C2_3 
REMARK    2  A    between atoms: C2_3  and  C3_4 
ROOT
ATOM      1  C3  UNL d   1      -0.209   0.389   0.479  0.00  0.00    -0.075 A 
ATOM      2  C4  UNL d   1      -1.508  -0.117   0.628  0.00  0.00     0.002 A 
ATOM      3  C5  UNL d   1      -2.055  -0.302   1.898  0.00  0.00     0.002 A 
ATOM      4  C6  UNL d   1      -1.309   0.007   3.033  0.00  0.00    -0.004 A 
ATOM      5  C7  UNL d   1      -0.011   0.496   2.897  0.00  0.00     0.002 A 
ATOM      6  C8  UNL d   1       0.537   0.686   1.628  0.00  0.00     0.002 A 
ENDROOT
BRANCH   1   7
ATOM      7  C2  UNL d   1       0.378   0.619  -0.893  0.00  0.00     0.056 C 
BRANCH   7   8
ATOM      8  C1  UNL d   1       0.511  -0.654  -1.735  0.00  0.00     0.007 C 
ATOM      9  C   UNL d   1       1.425  -0.482  -2.941  0.00  0.00     0.009 C 
ENDBRANCH   7   8
ENDBRANCH   1   7
TORSDOF 2
ENDMDL
