MODEL 1
REMARK minimizedAffinity -5.31106567
REMARK minimizedRMSD -1
REMARK  2 active torsions:
REMARK  status: ('A' for Active; 'I' for Inactive)
REMARK    1  A    between atoms: C1_2  and  C2_3 
REMARK    2  A    between atoms: C2_3  and  C3_4 
ROOT
ATOM      1  C3  UNL d   1       0.127   0.132   1.063  0.00  0.00    -0.075 A 
ATOM      2  C4  UNL d   1      -1.202  -0.132   0.701  0.00  0.00     0.002 A 
ATOM      3  C5  UNL d   1      -2.171  -0.359   1.678  0.00  0.00     0.002 A 
ATOM      4  C6  UNL d   1      -1.823  -0.335   3.027  0.00  0.00    -0.004 A 
ATOM      5  C7  UNL d   1      -0.503  -0.091   3.398  0.00  0.00     0.002 A 
ATOM      6  C8  UNL d   1       0.468   0.141   2.422  0.00  0.00     0.002 A 
ENDROOT
BRANCH   1   7
ATOM      7  C2  UNL d   1       1.174   0.408   0.011  0.00  0.00     0.056 C 
BRANCH   7   8
ATOM      8  C1  UNL d   1       0.654   0.312  -1.427  0.00  0.00     0.007 C 
ATOM      9  C   UNL d   1       1.731  -0.078  -2.431  0.00  0.00     0.009 C 
ENDBRANCH   7   8
ENDBRANCH   1   7
TORSDOF 2
ENDMDL
