MODEL 1
REMARK minimizedAffinity -4.1935153
REMARK minimizedRMSD -1
REMARK  2 active torsions:
REMARK  status: ('A' for Active; 'I' for Inactive)
REMARK    1  A    between atoms: C1_2  and  C2_3 
REMARK    2  A    between atoms: C2_3  and  C3_4 
ROOT
ATOM      1  C3  UNL d   1       0.116   0.029   0.334  0.00  0.00    -0.075 A 
ATOM      2  C4  UNL d   1      -0.984  -0.840   0.375  0.00  0.00     0.002 A 
ATOM      3  C5  UNL d   1      -1.569  -1.185   1.594  0.00  0.00     0.002 A 
ATOM      4  C6  UNL d   1      -1.056  -0.675   2.785  0.00  0.00    -0.004 A 
ATOM      5  C7  UNL d   1       0.046   0.176   2.757  0.00  0.00     0.002 A 
ATOM      6  C8  UNL d   1       0.631   0.526   1.538  0.00  0.00     0.002 A 
ENDROOT
BRANCH   1   7
ATOM      7  C2  UNL d   1       0.735   0.430  -0.984  0.00  0.00     0.056 C 
BRANCH   7   8
ATOM      8  C1  UNL d   1       1.595  -0.663  -1.627  0.00  0.00     0.007 C 
ATOM      9  C   UNL d   1       2.458  -0.152  -2.774  0.00  0.00     0.009 C 
ENDBRANCH   7   8
ENDBRANCH   1   7
TORSDOF 2
ENDMDL
