MODEL 1
REMARK minimizedAffinity -5.21613979
REMARK minimizedRMSD -1
REMARK  2 active torsions:
REMARK  status: ('A' for Active; 'I' for Inactive)
REMARK    1  A    between atoms: C1_2  and  C2_3 
REMARK    2  A    between atoms: C2_3  and  C3_4 
ROOT
ATOM      1  C3  UNL d   1      -0.498   0.122   0.491  0.00  0.00    -0.075 A 
ATOM      2  C4  UNL d   1      -1.853  -0.151   0.725  0.00  0.00     0.002 A 
ATOM      3  C5  UNL d   1      -2.303  -0.454   2.011  0.00  0.00     0.002 A 
ATOM      4  C6  UNL d   1      -1.404  -0.498   3.074  0.00  0.00    -0.004 A 
ATOM      5  C7  UNL d   1      -0.053  -0.246   2.850  0.00  0.00     0.002 A 
ATOM      6  C8  UNL d   1       0.400   0.062   1.566  0.00  0.00     0.002 A 
ENDROOT
BRANCH   1   7
ATOM      7  C2  UNL d   1      -0.009   0.479  -0.892  0.00  0.00     0.056 C 
BRANCH   7   8
ATOM      8  C1  UNL d   1       0.245  -0.732  -1.796  0.00  0.00     0.007 C 
ATOM      9  C   UNL d   1       1.493  -0.586  -2.657  0.00  0.00     0.009 C 
ENDBRANCH   7   8
ENDBRANCH   1   7
TORSDOF 2
ENDMDL
