MODEL 1
REMARK minimizedAffinity -3.28296661
REMARK minimizedRMSD -1
REMARK  2 active torsions:
REMARK  status: ('A' for Active; 'I' for Inactive)
REMARK    1  A    between atoms: C1_2  and  C2_3 
REMARK    2  A    between atoms: C2_3  and  C3_4 
ROOT
ATOM      1  C3  UNL d   1       0.263   0.058   0.077  0.00  0.00    -0.075 A 
ATOM      2  C4  UNL d   1      -0.892  -0.501   0.644  0.00  0.00     0.002 A 
ATOM      3  C5  UNL d   1      -1.104  -0.444   2.021  0.00  0.00     0.002 A 
ATOM      4  C6  UNL d   1      -0.162   0.162   2.849  0.00  0.00    -0.004 A 
ATOM      5  C7  UNL d   1       0.997   0.706   2.299  0.00  0.00     0.002 A 
ATOM      6  C8  UNL d   1       1.209   0.654   0.920  0.00  0.00     0.002 A 
ENDROOT
BRANCH   1   7
ATOM      7  C2  UNL d   1       0.484   0.025  -1.416  0.00  0.00     0.056 C 
BRANCH   7   8
ATOM      8  C1  UNL d   1       1.941   0.244  -1.836  0.00  0.00     0.007 C 
ATOM      9  C   UNL d   1       2.408  -0.726  -2.913  0.00  0.00     0.009 C 
ENDBRANCH   7   8
ENDBRANCH   1   7
TORSDOF 2
ENDMDL
