MODEL 1
REMARK minimizedAffinity -3.56570506
REMARK minimizedRMSD -1
REMARK  2 active torsions:
REMARK  status: ('A' for Active; 'I' for Inactive)
REMARK    1  A    between atoms: C1_2  and  C2_3 
REMARK    2  A    between atoms: C2_3  and  C3_4 
ROOT
ATOM      1  C3  UNL d   1       1.066  -0.098  -2.165  0.00  0.00    -0.075 A 
ATOM      2  C4  UNL d   1       0.633  -1.194  -2.925  0.00  0.00     0.002 A 
ATOM      3  C5  UNL d   1       1.521  -1.870  -3.761  0.00  0.00     0.002 A 
ATOM      4  C6  UNL d   1       2.847  -1.454  -3.857  0.00  0.00    -0.004 A 
ATOM      5  C7  UNL d   1       3.284  -0.356  -3.119  0.00  0.00     0.002 A 
ATOM      6  C8  UNL d   1       2.398   0.320  -2.278  0.00  0.00     0.002 A 
ENDROOT
BRANCH   1   7
ATOM      7  C2  UNL d   1       0.117   0.620  -1.235  0.00  0.00     0.056 C 
BRANCH   7   8
ATOM      8  C1  UNL d   1      -0.335  -0.219  -0.035  0.00  0.00     0.007 C 
ATOM      9  C   UNL d   1      -1.767   0.071   0.396  0.00  0.00     0.009 C 
ENDBRANCH   7   8
ENDBRANCH   1   7
TORSDOF 2
ENDMDL
