MODEL 1
REMARK minimizedAffinity -4.92139387
REMARK minimizedRMSD -1
REMARK  2 active torsions:
REMARK  status: ('A' for Active; 'I' for Inactive)
REMARK    1  A    between atoms: C1_2  and  C2_3 
REMARK    2  A    between atoms: C2_3  and  C3_4 
ROOT
ATOM      1  C3  UNL d   1      -0.213   0.040   0.105  0.00  0.00    -0.075 A 
ATOM      2  C4  UNL d   1       0.647  -0.092   1.205  0.00  0.00     0.002 A 
ATOM      3  C5  UNL d   1       0.132  -0.236   2.493  0.00  0.00     0.002 A 
ATOM      4  C6  UNL d   1      -1.246  -0.239   2.700  0.00  0.00    -0.004 A 
ATOM      5  C7  UNL d   1      -2.109  -0.091   1.616  0.00  0.00     0.002 A 
ATOM      6  C8  UNL d   1      -1.597   0.049   0.325  0.00  0.00     0.002 A 
ENDROOT
BRANCH   1   7
ATOM      7  C2  UNL d   1       0.338   0.167  -1.295  0.00  0.00     0.056 C 
BRANCH   7   8
ATOM      8  C1  UNL d   1       0.400  -1.158  -2.063  0.00  0.00     0.007 C 
ATOM      9  C   UNL d   1       1.587  -1.246  -3.013  0.00  0.00     0.009 C 
ENDBRANCH   7   8
ENDBRANCH   1   7
TORSDOF 2
ENDMDL
