MODEL 1
REMARK minimizedAffinity -4.68605566
REMARK minimizedRMSD -1
REMARK  0 active torsions:
REMARK  status: ('A' for Active; 'I' for Inactive)
ROOT
ATOM      1  O1  BZF d   1      -5.999  -0.834  -0.050  0.00  0.00    -0.204 OA
ATOM      2  C2  BZF d   1      -5.847  -1.092  -1.399  0.00  0.00     0.174 A 
ATOM      3  C3  BZF d   1      -4.713  -0.534  -1.867  0.00  0.00    -0.012 A 
ATOM      4  C3A BZF d   1      -4.072   0.035  -0.722  0.00  0.00    -0.107 A 
ATOM      5  C4  BZF d   1      -2.900   0.713  -0.541  0.00  0.00     0.055 A 
ATOM      6  C5  BZF d   1      -2.600   1.197   0.693  0.00  0.00    -0.016 A 
ATOM      7  C6  BZF d   1      -3.450   1.026   1.766  0.00  0.00     0.022 A 
ATOM      8  C7  BZF d   1      -4.621   0.355   1.637  0.00  0.00     0.029 A 
ATOM      9  C7A BZF d   1      -4.911  -0.163   0.399  0.00  0.00     0.058 A 
ENDROOT
TORSDOF 0
ENDMDL
