MODEL 1
REMARK minimizedAffinity -2.50808907
REMARK minimizedRMSD -1
REMARK  0 active torsions:
REMARK  status: ('A' for Active; 'I' for Inactive)
ROOT
ATOM      1  O1  BZF d   1       2.023   1.875  -0.035  0.00  0.00    -0.204 OA
ATOM      2  C2  BZF d   1       3.403   1.907  -0.084  0.00  0.00     0.174 A 
ATOM      3  C3  BZF d   1       3.909   0.659  -0.154  0.00  0.00    -0.012 A 
ATOM      4  C3A BZF d   1       2.770  -0.204  -0.241  0.00  0.00    -0.107 A 
ATOM      5  C4  BZF d   1       2.624  -1.557  -0.349  0.00  0.00     0.055 A 
ATOM      6  C5  BZF d   1       1.374  -2.089  -0.337  0.00  0.00    -0.016 A 
ATOM      7  C6  BZF d   1       0.249  -1.299  -0.213  0.00  0.00     0.022 A 
ATOM      8  C7  BZF d   1       0.344   0.048  -0.108  0.00  0.00     0.029 A 
ATOM      9  C7A BZF d   1       1.605   0.592  -0.153  0.00  0.00     0.058 A 
ENDROOT
TORSDOF 0
ENDMDL
