MODEL 1
REMARK minimizedAffinity -2.62989831
REMARK minimizedRMSD -1
REMARK  0 active torsions:
REMARK  status: ('A' for Active; 'I' for Inactive)
ROOT
ATOM      1  O1  BZF d   1       3.766   0.430  -0.281  0.00  0.00    -0.204 OA
ATOM      2  C2  BZF d   1       3.428   1.767  -0.207  0.00  0.00     0.174 A 
ATOM      3  C3  BZF d   1       2.089   1.922  -0.176  0.00  0.00    -0.012 A 
ATOM      4  C3A BZF d   1       1.558   0.594  -0.141  0.00  0.00    -0.107 A 
ATOM      5  C4  BZF d   1       0.289   0.092  -0.087  0.00  0.00     0.055 A 
ATOM      6  C5  BZF d   1       0.109  -1.254  -0.140  0.00  0.00    -0.016 A 
ATOM      7  C6  BZF d   1       1.173  -2.125  -0.253  0.00  0.00     0.022 A 
ATOM      8  C7  BZF d   1       2.450  -1.674  -0.305  0.00  0.00     0.029 A 
ATOM      9  C7A BZF d   1       2.637  -0.316  -0.218  0.00  0.00     0.058 A 
ENDROOT
TORSDOF 0
ENDMDL
