MODEL 1
REMARK minimizedAffinity 0.247421324
REMARK minimizedRMSD -1
REMARK  0 active torsions:
REMARK  status: ('A' for Active; 'I' for Inactive)
ROOT
ATOM      1  O1  BZF d   1       0.818  -1.622  -0.835  0.00  0.00    -0.204 OA
ATOM      2  C2  BZF d   1       2.143  -1.969  -0.655  0.00  0.00     0.174 A 
ATOM      3  C3  BZF d   1       2.910  -0.869  -0.507  0.00  0.00    -0.012 A 
ATOM      4  C3A BZF d   1       1.995   0.230  -0.508  0.00  0.00    -0.107 A 
ATOM      5  C4  BZF d   1       2.151   1.581  -0.382  0.00  0.00     0.055 A 
ATOM      6  C5  BZF d   1       1.062   2.385  -0.501  0.00  0.00    -0.016 A 
ATOM      7  C6  BZF d   1      -0.195   1.874  -0.750  0.00  0.00     0.022 A 
ATOM      8  C7  BZF d   1      -0.400   0.540  -0.878  0.00  0.00     0.029 A 
ATOM      9  C7A BZF d   1       0.694  -0.277  -0.726  0.00  0.00     0.058 A 
ENDROOT
TORSDOF 0
ENDMDL
