MODEL 1
REMARK minimizedAffinity -3.30423927
REMARK minimizedRMSD -1
REMARK  0 active torsions:
REMARK  status: ('A' for Active; 'I' for Inactive)
ROOT
ATOM      1  O1  BZF d   1      -0.486  -0.070  -1.268  0.00  0.00    -0.204 OA
ATOM      2  C2  BZF d   1      -0.838   1.011  -0.483  0.00  0.00     0.174 A 
ATOM      3  C3  BZF d   1      -0.127   1.021   0.663  0.00  0.00    -0.012 A 
ATOM      4  C3A BZF d   1       0.787  -0.073   0.549  0.00  0.00    -0.107 A 
ATOM      5  C4  BZF d   1       1.766  -0.568   1.363  0.00  0.00     0.055 A 
ATOM      6  C5  BZF d   1       2.428  -1.695   0.990  0.00  0.00    -0.016 A 
ATOM      7  C6  BZF d   1       2.134  -2.354  -0.186  0.00  0.00     0.022 A 
ATOM      8  C7  BZF d   1       1.175  -1.898  -1.028  0.00  0.00     0.029 A 
ATOM      9  C7A BZF d   1       0.527  -0.742  -0.670  0.00  0.00     0.058 A 
ENDROOT
TORSDOF 0
ENDMDL
