MODEL 1
REMARK minimizedAffinity -2.27473474
REMARK minimizedRMSD -1
REMARK  0 active torsions:
REMARK  status: ('A' for Active; 'I' for Inactive)
ROOT
ATOM      1  O1  BZF d   1       0.834  -1.738  -0.594  0.00  0.00    -0.204 OA
ATOM      2  C2  BZF d   1       2.168  -2.049  -0.419  0.00  0.00     0.174 A 
ATOM      3  C3  BZF d   1       2.887  -0.940  -0.155  0.00  0.00    -0.012 A 
ATOM      4  C3A BZF d   1       1.929   0.120  -0.073  0.00  0.00    -0.107 A 
ATOM      5  C4  BZF d   1       2.028   1.458   0.181  0.00  0.00     0.055 A 
ATOM      6  C5  BZF d   1       0.910   2.227   0.116  0.00  0.00    -0.016 A 
ATOM      7  C6  BZF d   1      -0.321   1.693  -0.206  0.00  0.00     0.022 A 
ATOM      8  C7  BZF d   1      -0.470   0.370  -0.462  0.00  0.00     0.029 A 
ATOM      9  C7A BZF d   1       0.653  -0.415  -0.364  0.00  0.00     0.058 A 
ENDROOT
TORSDOF 0
ENDMDL
