MODEL 1
REMARK minimizedAffinity -5.16319942
REMARK minimizedRMSD -1
REMARK  0 active torsions:
REMARK  status: ('A' for Active; 'I' for Inactive)
ROOT
ATOM      1  O1  BZF d   1       0.356   1.706  -0.382  0.00  0.00    -0.204 OA
ATOM      2  C2  BZF d   1       1.265   2.588   0.171  0.00  0.00     0.174 A 
ATOM      3  C3  BZF d   1       2.248   1.922   0.812  0.00  0.00    -0.012 A 
ATOM      4  C3A BZF d   1       1.984   0.537   0.570  0.00  0.00    -0.107 A 
ATOM      5  C4  BZF d   1       2.618  -0.617   0.933  0.00  0.00     0.055 A 
ATOM      6  C5  BZF d   1       2.061  -1.810   0.597  0.00  0.00    -0.016 A 
ATOM      7  C6  BZF d   1       0.871  -1.886  -0.096  0.00  0.00     0.022 A 
ATOM      8  C7  BZF d   1       0.208  -0.769  -0.482  0.00  0.00     0.029 A 
ATOM      9  C7A BZF d   1       0.785   0.438  -0.173  0.00  0.00     0.058 A 
ENDROOT
TORSDOF 0
ENDMDL
