MODEL 1
REMARK minimizedAffinity 6.56667471
REMARK minimizedRMSD -1
REMARK  2 active torsions:
REMARK  status: ('A' for Active; 'I' for Inactive)
REMARK    1  A    between atoms: C2'_3  and  C1'_4 
REMARK    2  A    between atoms: C1'_4  and  C1_5 
ROOT
ATOM      1  C1  I4B d   1       2.580   0.536  -2.059  0.00  0.00    -0.075 A 
ATOM      2  C2  I4B d   1       1.518   0.765  -2.898  0.00  0.00     0.003 A 
ATOM      3  C3  I4B d   1       1.660   0.578  -4.295  0.00  0.00     0.002 A 
ATOM      4  C4  I4B d   1       2.886   0.213  -4.810  0.00  0.00    -0.004 A 
ATOM      5  C5  I4B d   1       3.955  -0.040  -3.956  0.00  0.00     0.002 A 
ATOM      6  C6  I4B d   1       3.798   0.110  -2.571  0.00  0.00     0.003 A 
ENDROOT
BRANCH   1   7
ATOM      7  C1' I4B d   1       2.404   0.775  -0.593  0.00  0.00     0.060 C 
BRANCH   7   8
ATOM      8  C2' I4B d   1       3.211   2.003  -0.220  0.00  0.00    -0.013 C 
ATOM      9  C4' I4B d   1       2.783   3.202  -1.025  0.00  0.00     0.013 C 
ATOM     10  C3' I4B d   1       3.033   2.245   1.249  0.00  0.00     0.013 C 
ENDBRANCH   7   8
ENDBRANCH   1   7
TORSDOF 2
ENDMDL
