MODEL 1
REMARK minimizedAffinity 5.41594267
REMARK minimizedRMSD -1
REMARK  2 active torsions:
REMARK  status: ('A' for Active; 'I' for Inactive)
REMARK    1  A    between atoms: C2'_3  and  C1'_4 
REMARK    2  A    between atoms: C1'_4  and  C1_5 
ROOT
ATOM      1  C1  I4B d   1       1.304   0.351  -2.335  0.00  0.00    -0.075 A 
ATOM      2  C2  I4B d   1       0.319  -0.603  -2.393  0.00  0.00     0.003 A 
ATOM      3  C3  I4B d   1      -0.420  -0.793  -3.586  0.00  0.00     0.002 A 
ATOM      4  C4  I4B d   1      -0.176   0.021  -4.673  0.00  0.00    -0.004 A 
ATOM      5  C5  I4B d   1       0.838   0.972  -4.620  0.00  0.00     0.002 A 
ATOM      6  C6  I4B d   1       1.592   1.131  -3.448  0.00  0.00     0.003 A 
ENDROOT
BRANCH   1   7
ATOM      7  C1' I4B d   1       2.042   0.548  -1.049  0.00  0.00     0.060 C 
BRANCH   7   8
ATOM      8  C2' I4B d   1       1.605  -0.540  -0.089  0.00  0.00    -0.013 C 
ATOM      9  C4' I4B d   1       2.704  -1.545   0.133  0.00  0.00     0.013 C 
ATOM     10  C3' I4B d   1       1.202   0.114   1.199  0.00  0.00     0.013 C 
ENDBRANCH   7   8
ENDBRANCH   1   7
TORSDOF 2
ENDMDL
