MODEL 1
REMARK minimizedAffinity 7.07094479
REMARK minimizedRMSD -1
REMARK  2 active torsions:
REMARK  status: ('A' for Active; 'I' for Inactive)
REMARK    1  A    between atoms: C2'_3  and  C1'_4 
REMARK    2  A    between atoms: C1'_4  and  C1_5 
ROOT
ATOM      1  C1  I4B d   1       0.480  -2.794  -5.305  0.00  0.00    -0.075 A 
ATOM      2  C2  I4B d   1      -0.523  -3.667  -4.964  0.00  0.00     0.003 A 
ATOM      3  C3  I4B d   1      -0.289  -5.063  -4.984  0.00  0.00     0.002 A 
ATOM      4  C4  I4B d   1       0.939  -5.541  -5.396  0.00  0.00    -0.004 A 
ATOM      5  C5  I4B d   1       1.961  -4.653  -5.719  0.00  0.00     0.002 A 
ATOM      6  C6  I4B d   1       1.734  -3.270  -5.661  0.00  0.00     0.003 A 
ENDROOT
BRANCH   1   7
ATOM      7  C1' I4B d   1       0.188  -1.326  -5.305  0.00  0.00     0.060 C 
BRANCH   7   8
ATOM      8  C2' I4B d   1       0.852  -0.718  -4.087  0.00  0.00    -0.013 C 
ATOM      9  C4' I4B d   1       1.323   0.685  -4.366  0.00  0.00     0.013 C 
ATOM     10  C3' I4B d   1      -0.136  -0.743  -2.959  0.00  0.00     0.013 C 
ENDBRANCH   7   8
ENDBRANCH   1   7
TORSDOF 2
ENDMDL
