MODEL 1
REMARK minimizedAffinity 1.94610393
REMARK minimizedRMSD -1
REMARK  2 active torsions:
REMARK  status: ('A' for Active; 'I' for Inactive)
REMARK    1  A    between atoms: C2'_3  and  C1'_4 
REMARK    2  A    between atoms: C1'_4  and  C1_5 
ROOT
ATOM      1  C1  I4B d   1       3.267   0.117  -3.384  0.00  0.00    -0.075 A 
ATOM      2  C2  I4B d   1       2.296  -0.151  -4.316  0.00  0.00     0.003 A 
ATOM      3  C3  I4B d   1       0.965   0.284  -4.104  0.00  0.00     0.002 A 
ATOM      4  C4  I4B d   1       0.641   0.934  -2.931  0.00  0.00    -0.004 A 
ATOM      5  C5  I4B d   1       1.631   1.225  -1.997  0.00  0.00     0.002 A 
ATOM      6  C6  I4B d   1       2.955   0.825  -2.230  0.00  0.00     0.003 A 
ENDROOT
BRANCH   1   7
ATOM      7  C1' I4B d   1       4.655  -0.385  -3.624  0.00  0.00     0.060 C 
BRANCH   7   8
ATOM      8  C2' I4B d   1       4.567  -1.864  -3.946  0.00  0.00    -0.013 C 
ATOM      9  C4' I4B d   1       4.949  -2.134  -5.377  0.00  0.00     0.013 C 
ATOM     10  C3' I4B d   1       5.468  -2.598  -2.998  0.00  0.00     0.013 C 
ENDBRANCH   7   8
ENDBRANCH   1   7
TORSDOF 2
ENDMDL
