MODEL 1
REMARK minimizedAffinity 2.40172625
REMARK minimizedRMSD -1
REMARK  2 active torsions:
REMARK  status: ('A' for Active; 'I' for Inactive)
REMARK    1  A    between atoms: C2'_3  and  C1'_4 
REMARK    2  A    between atoms: C1'_4  and  C1_5 
ROOT
ATOM      1  C1  I4B d   1       2.087   0.306  -2.181  0.00  0.00    -0.075 A 
ATOM      2  C2  I4B d   1       1.099   0.731  -3.034  0.00  0.00     0.003 A 
ATOM      3  C3  I4B d   1       1.340   0.800  -4.427  0.00  0.00     0.002 A 
ATOM      4  C4  I4B d   1       2.592   0.485  -4.917  0.00  0.00    -0.004 A 
ATOM      5  C5  I4B d   1       3.585   0.033  -4.054  0.00  0.00     0.002 A 
ATOM      6  C6  I4B d   1       3.328  -0.069  -2.679  0.00  0.00     0.003 A 
ENDROOT
BRANCH   1   7
ATOM      7  C1' I4B d   1       1.808   0.277  -0.712  0.00  0.00     0.060 C 
BRANCH   7   8
ATOM      8  C2' I4B d   1       1.890  -1.164  -0.250  0.00  0.00    -0.013 C 
ATOM      9  C4' I4B d   1       2.448  -1.258   1.146  0.00  0.00     0.013 C 
ATOM     10  C3' I4B d   1       0.513  -1.752  -0.324  0.00  0.00     0.013 C 
ENDBRANCH   7   8
ENDBRANCH   1   7
TORSDOF 2
ENDMDL
