MODEL 1
REMARK minimizedAffinity -5.0943985
REMARK minimizedRMSD -1
REMARK  1 active torsions:
REMARK  status: ('A' for Active; 'I' for Inactive)
REMARK    1  A    between atoms: C1_2  and  C2_3 
ROOT
ATOM      1  C2  UNL d   1       0.216   0.957  -0.055  0.00  0.00    -0.073 A 
ATOM      2  C3  UNL d   1      -0.846   1.018   0.855  0.00  0.00    -0.002 A 
ATOM      3  C4  UNL d   1      -1.435  -0.154   1.330  0.00  0.00     0.004 A 
ATOM      4  C5  UNL d   1      -0.966  -1.397   0.907  0.00  0.00    -0.004 A 
ATOM      5  C6  UNL d   1       0.101  -1.480   0.007  0.00  0.00    -0.075 A 
ATOM      6  C7  UNL d   1       0.616  -2.810  -0.460  0.00  0.00     0.076 C 
ATOM      7  C8  UNL d   1       0.686  -0.298  -0.468  0.00  0.00     0.001 A 
ENDROOT
BRANCH   1   8
ATOM      8  C1  UNL d   1       0.860   2.219  -0.567  0.00  0.00     0.053 C 
ATOM      9  C   UNL d   1       0.445   3.438   0.242  0.00  0.00     0.018 C 
ENDBRANCH   1   8
TORSDOF 1
ENDMDL
