MODEL 1
REMARK minimizedAffinity -2.70295715
REMARK minimizedRMSD -1
REMARK  1 active torsions:
REMARK  status: ('A' for Active; 'I' for Inactive)
REMARK    1  A    between atoms: C1_2  and  C2_3 
ROOT
ATOM      1  C2  UNL d   1       0.719   0.671   0.048  0.00  0.00    -0.073 A 
ATOM      2  C3  UNL d   1      -0.638   1.005   0.121  0.00  0.00    -0.002 A 
ATOM      3  C4  UNL d   1      -1.600   0.011   0.303  0.00  0.00     0.004 A 
ATOM      4  C5  UNL d   1      -1.215  -1.325   0.421  0.00  0.00    -0.004 A 
ATOM      5  C6  UNL d   1       0.137  -1.678   0.362  0.00  0.00    -0.075 A 
ATOM      6  C7  UNL d   1       0.567  -3.110   0.484  0.00  0.00     0.076 C 
ATOM      7  C8  UNL d   1       1.097  -0.673   0.176  0.00  0.00     0.001 A 
ENDROOT
BRANCH   1   8
ATOM      8  C1  UNL d   1       1.762   1.742  -0.142  0.00  0.00     0.053 C 
ATOM      9  C   UNL d   1       1.580   2.894   0.833  0.00  0.00     0.018 C 
ENDBRANCH   1   8
TORSDOF 1
ENDMDL
