MODEL 1
REMARK minimizedAffinity -3.51062512
REMARK minimizedRMSD -1
REMARK  1 active torsions:
REMARK  status: ('A' for Active; 'I' for Inactive)
REMARK    1  A    between atoms: C1_2  and  C2_3 
ROOT
ATOM      1  C2  UNL d   1      -0.043   0.056  -0.038  0.00  0.00    -0.073 A 
ATOM      2  C3  UNL d   1      -1.235   0.147   0.690  0.00  0.00    -0.002 A 
ATOM      3  C4  UNL d   1      -1.715  -0.956   1.397  0.00  0.00     0.004 A 
ATOM      4  C5  UNL d   1      -1.006  -2.157   1.389  0.00  0.00    -0.004 A 
ATOM      5  C6  UNL d   1       0.192  -2.265   0.677  0.00  0.00    -0.075 A 
ATOM      6  C7  UNL d   1       0.965  -3.551   0.657  0.00  0.00     0.076 C 
ATOM      7  C8  UNL d   1       0.667  -1.153  -0.033  0.00  0.00     0.001 A 
ENDROOT
BRANCH   1   8
ATOM      8  C1  UNL d   1       0.483   1.246  -0.798  0.00  0.00     0.053 C 
ATOM      9  C   UNL d   1       0.823   2.406   0.124  0.00  0.00     0.018 C 
ENDBRANCH   1   8
TORSDOF 1
ENDMDL
