MODEL 1
REMARK minimizedAffinity -3.09631228
REMARK minimizedRMSD -1
REMARK  1 active torsions:
REMARK  status: ('A' for Active; 'I' for Inactive)
REMARK    1  A    between atoms: C1_2  and  C2_3 
ROOT
ATOM      1  C2  UNL d   1       0.513  -0.798  -0.315  0.00  0.00    -0.073 A 
ATOM      2  C3  UNL d   1       0.577  -0.734  -1.712  0.00  0.00    -0.002 A 
ATOM      3  C4  UNL d   1       0.475   0.493  -2.367  0.00  0.00     0.004 A 
ATOM      4  C5  UNL d   1       0.316   1.669  -1.634  0.00  0.00    -0.004 A 
ATOM      5  C6  UNL d   1       0.262   1.628  -0.238  0.00  0.00    -0.075 A 
ATOM      6  C7  UNL d   1       0.089   2.884   0.565  0.00  0.00     0.076 C 
ATOM      7  C8  UNL d   1       0.362   0.391   0.413  0.00  0.00     0.001 A 
ENDROOT
BRANCH   1   8
ATOM      8  C1  UNL d   1       0.628  -2.120   0.397  0.00  0.00     0.053 C 
ATOM      9  C   UNL d   1      -0.705  -2.849   0.466  0.00  0.00     0.018 C 
ENDBRANCH   1   8
TORSDOF 1
ENDMDL
