MODEL 1
REMARK minimizedAffinity -3.88535047
REMARK minimizedRMSD -1
REMARK  1 active torsions:
REMARK  status: ('A' for Active; 'I' for Inactive)
REMARK    1  A    between atoms: C1_2  and  C2_3 
ROOT
ATOM      1  C2  UNL d   1      -0.104   0.785  -0.291  0.00  0.00    -0.073 A 
ATOM      2  C3  UNL d   1      -0.008   0.729  -1.686  0.00  0.00    -0.002 A 
ATOM      3  C4  UNL d   1       0.145  -0.498  -2.333  0.00  0.00     0.004 A 
ATOM      4  C5  UNL d   1       0.195  -1.680  -1.593  0.00  0.00    -0.004 A 
ATOM      5  C6  UNL d   1       0.089  -1.645  -0.199  0.00  0.00    -0.075 A 
ATOM      6  C7  UNL d   1       0.143  -2.907   0.611  0.00  0.00     0.076 C 
ATOM      7  C8  UNL d   1      -0.061  -0.409   0.443  0.00  0.00     0.001 A 
ENDROOT
BRANCH   1   8
ATOM      8  C1  UNL d   1      -0.275   2.107   0.412  0.00  0.00     0.053 C 
ATOM      9  C   UNL d   1       1.040   2.860   0.537  0.00  0.00     0.018 C 
ENDBRANCH   1   8
TORSDOF 1
ENDMDL
