MODEL 1
REMARK minimizedAffinity -2.19095755
REMARK minimizedRMSD -1
REMARK  1 active torsions:
REMARK  status: ('A' for Active; 'I' for Inactive)
REMARK    1  A    between atoms: C1_2  and  C2_3 
ROOT
ATOM      1  C2  UNL d   1      -0.307   0.433  -0.018  0.00  0.00    -0.073 A 
ATOM      2  C3  UNL d   1      -1.360   0.417   0.904  0.00  0.00    -0.002 A 
ATOM      3  C4  UNL d   1      -1.770  -0.783   1.485  0.00  0.00     0.004 A 
ATOM      4  C5  UNL d   1      -1.128  -1.977   1.157  0.00  0.00    -0.004 A 
ATOM      5  C6  UNL d   1      -0.067  -1.981   0.246  0.00  0.00    -0.075 A 
ATOM      6  C7  UNL d   1       0.632  -3.257  -0.119  0.00  0.00     0.076 C 
ATOM      7  C8  UNL d   1       0.337  -0.771  -0.335  0.00  0.00     0.001 A 
ENDROOT
BRANCH   1   8
ATOM      8  C1  UNL d   1       0.143   1.728  -0.644  0.00  0.00     0.053 C 
ATOM      9  C   UNL d   1       0.334   2.825   0.391  0.00  0.00     0.018 C 
ENDBRANCH   1   8
TORSDOF 1
ENDMDL
