MODEL 1
REMARK minimizedAffinity -4.71846056
REMARK minimizedRMSD -1
REMARK  1 active torsions:
REMARK  status: ('A' for Active; 'I' for Inactive)
REMARK    1  A    between atoms: C1_2  and  C2_3 
ROOT
ATOM      1  C2  UNL d   1      -0.046   0.977   0.043  0.00  0.00    -0.073 A 
ATOM      2  C3  UNL d   1      -0.679   0.362   1.129  0.00  0.00    -0.002 A 
ATOM      3  C4  UNL d   1      -0.685  -1.028   1.248  0.00  0.00     0.004 A 
ATOM      4  C5  UNL d   1      -0.052  -1.817   0.287  0.00  0.00    -0.004 A 
ATOM      5  C6  UNL d   1       0.596  -1.222  -0.799  0.00  0.00    -0.075 A 
ATOM      6  C7  UNL d   1       1.279  -2.056  -1.842  0.00  0.00     0.076 C 
ATOM      7  C8  UNL d   1       0.595   0.175  -0.913  0.00  0.00     0.001 A 
ENDROOT
BRANCH   1   8
ATOM      8  C1  UNL d   1      -0.031   2.478  -0.086  0.00  0.00     0.053 C 
ATOM      9  C   UNL d   1       1.384   3.034  -0.110  0.00  0.00     0.018 C 
ENDBRANCH   1   8
TORSDOF 1
ENDMDL
