MODEL 1
REMARK minimizedAffinity -4.44708252
REMARK minimizedRMSD -1
REMARK  1 active torsions:
REMARK  status: ('A' for Active; 'I' for Inactive)
REMARK    1  A    between atoms: C1_2  and  C2_3 
ROOT
ATOM      1  C2  UNL d   1      -0.011  -0.473  -0.805  0.00  0.00    -0.073 A 
ATOM      2  C3  UNL d   1       0.553  -0.281  -2.072  0.00  0.00    -0.002 A 
ATOM      3  C4  UNL d   1       0.978  -1.375  -2.827  0.00  0.00     0.004 A 
ATOM      4  C5  UNL d   1       0.838  -2.669  -2.328  0.00  0.00    -0.004 A 
ATOM      5  C6  UNL d   1       0.267  -2.882  -1.069  0.00  0.00    -0.075 A 
ATOM      6  C7  UNL d   1       0.112  -4.269  -0.517  0.00  0.00     0.076 C 
ATOM      7  C8  UNL d   1      -0.155  -1.779  -0.316  0.00  0.00     0.001 A 
ENDROOT
BRANCH   1   8
ATOM      8  C1  UNL d   1      -0.477   0.705   0.011  0.00  0.00     0.053 C 
ATOM      9  C   UNL d   1      -1.476   0.296   1.082  0.00  0.00     0.018 C 
ENDBRANCH   1   8
TORSDOF 1
ENDMDL
