MODEL 1
REMARK minimizedAffinity -3.58911467
REMARK minimizedRMSD -1
REMARK  1 active torsions:
REMARK  status: ('A' for Active; 'I' for Inactive)
REMARK    1  A    between atoms: C1_2  and  C2_3 
ROOT
ATOM      1  C2  UNL d   1      -0.365  -0.827   0.193  0.00  0.00    -0.073 A 
ATOM      2  C3  UNL d   1      -0.914  -2.049  -0.213  0.00  0.00    -0.002 A 
ATOM      3  C4  UNL d   1      -0.188  -3.231  -0.068  0.00  0.00     0.004 A 
ATOM      4  C5  UNL d   1       1.090  -3.206   0.491  0.00  0.00    -0.004 A 
ATOM      5  C6  UNL d   1       1.651  -1.997   0.914  0.00  0.00    -0.075 A 
ATOM      6  C7  UNL d   1       3.026  -1.953   1.515  0.00  0.00     0.076 C 
ATOM      7  C8  UNL d   1       0.917  -0.814   0.762  0.00  0.00     0.001 A 
ENDROOT
BRANCH   1   8
ATOM      8  C1  UNL d   1      -1.147   0.452   0.043  0.00  0.00     0.053 C 
ATOM      9  C   UNL d   1      -2.459   0.410   0.812  0.00  0.00     0.018 C 
ENDBRANCH   1   8
TORSDOF 1
ENDMDL
