MODEL 1
REMARK minimizedAffinity -5.05720043
REMARK minimizedRMSD -1
REMARK  1 active torsions:
REMARK  status: ('A' for Active; 'I' for Inactive)
REMARK    1  A    between atoms: C1_2  and  C2_3 
ROOT
ATOM      1  C2  UNL d   1       0.068   0.687   0.041  0.00  0.00    -0.073 A 
ATOM      2  C3  UNL d   1       0.234   0.697  -1.349  0.00  0.00    -0.002 A 
ATOM      3  C4  UNL d   1       0.291  -0.502  -2.060  0.00  0.00     0.004 A 
ATOM      4  C5  UNL d   1       0.176  -1.721  -1.392  0.00  0.00    -0.004 A 
ATOM      5  C6  UNL d   1      -0.002  -1.751  -0.005  0.00  0.00    -0.075 A 
ATOM      6  C7  UNL d   1      -0.125  -3.054   0.729  0.00  0.00     0.076 C 
ATOM      7  C8  UNL d   1      -0.056  -0.543   0.703  0.00  0.00     0.001 A 
ENDROOT
BRANCH   1   8
ATOM      8  C1  UNL d   1      -0.000   1.980   0.813  0.00  0.00     0.053 C 
ATOM      9  C   UNL d   1       1.320   2.733   0.782  0.00  0.00     0.018 C 
ENDBRANCH   1   8
TORSDOF 1
ENDMDL
