MODEL 1
REMARK minimizedAffinity -4.02670622
REMARK minimizedRMSD -1
REMARK  1 active torsions:
REMARK  status: ('A' for Active; 'I' for Inactive)
REMARK    1  A    between atoms: C1_2  and  C2_3 
ROOT
ATOM      1  C2  UNL d   1       0.439  -0.654   0.445  0.00  0.00    -0.073 A 
ATOM      2  C3  UNL d   1       1.439  -1.621   0.292  0.00  0.00    -0.002 A 
ATOM      3  C4  UNL d   1       1.103  -2.973   0.197  0.00  0.00     0.004 A 
ATOM      4  C5  UNL d   1      -0.233  -3.369   0.246  0.00  0.00    -0.004 A 
ATOM      5  C6  UNL d   1      -1.247  -2.416   0.386  0.00  0.00    -0.075 A 
ATOM      6  C7  UNL d   1      -2.690  -2.826   0.443  0.00  0.00     0.076 C 
ATOM      7  C8  UNL d   1      -0.902  -1.061   0.484  0.00  0.00     0.001 A 
ENDROOT
BRANCH   1   8
ATOM      8  C1  UNL d   1       0.796   0.807   0.541  0.00  0.00     0.053 C 
ATOM      9  C   UNL d   1      -0.196   1.687  -0.203  0.00  0.00     0.018 C 
ENDBRANCH   1   8
TORSDOF 1
ENDMDL
