MODEL 1
REMARK minimizedAffinity -2.88715601
REMARK minimizedRMSD -1
REMARK  1 active torsions:
REMARK  status: ('A' for Active; 'I' for Inactive)
REMARK    1  A    between atoms: C1_2  and  C2_3 
ROOT
ATOM      1  C2  UNL d   1       0.153   1.088  -0.496  0.00  0.00    -0.073 A 
ATOM      2  C3  UNL d   1       0.414   0.959  -1.865  0.00  0.00    -0.002 A 
ATOM      3  C4  UNL d   1       0.669  -0.296  -2.418  0.00  0.00     0.004 A 
ATOM      4  C5  UNL d   1       0.660  -1.434  -1.611  0.00  0.00    -0.004 A 
ATOM      5  C6  UNL d   1       0.389  -1.327  -0.243  0.00  0.00    -0.075 A 
ATOM      6  C7  UNL d   1       0.378  -2.541   0.638  0.00  0.00     0.076 C 
ATOM      7  C8  UNL d   1       0.136  -0.063   0.305  0.00  0.00     0.001 A 
ENDROOT
BRANCH   1   8
ATOM      8  C1  UNL d   1      -0.130   2.441   0.105  0.00  0.00     0.053 C 
ATOM      9  C   UNL d   1       1.147   3.183   0.465  0.00  0.00     0.018 C 
ENDBRANCH   1   8
TORSDOF 1
ENDMDL
