MODEL 1
REMARK minimizedAffinity -3.76146245
REMARK minimizedRMSD -1
REMARK  1 active torsions:
REMARK  status: ('A' for Active; 'I' for Inactive)
REMARK    1  A    between atoms: C1_2  and  C2_3 
ROOT
ATOM      1  C2  UNL d   1       0.768   2.148  -0.014  0.00  0.00    -0.073 A 
ATOM      2  C3  UNL d   1       2.130   2.428   0.147  0.00  0.00    -0.002 A 
ATOM      3  C4  UNL d   1       2.545   3.435   1.020  0.00  0.00     0.004 A 
ATOM      4  C5  UNL d   1       1.604   4.167   1.744  0.00  0.00    -0.004 A 
ATOM      5  C6  UNL d   1       0.239   3.895   1.605  0.00  0.00    -0.075 A 
ATOM      6  C7  UNL d   1      -0.785   4.676   2.376  0.00  0.00     0.076 C 
ATOM      7  C8  UNL d   1      -0.169   2.884   0.726  0.00  0.00     0.001 A 
ENDROOT
BRANCH   1   8
ATOM      8  C1  UNL d   1       0.316   1.057  -0.949  0.00  0.00     0.053 C 
ATOM      9  C   UNL d   1       0.509  -0.326  -0.348  0.00  0.00     0.018 C 
ENDBRANCH   1   8
TORSDOF 1
ENDMDL
