MODEL 1
REMARK minimizedAffinity -1.97860682
REMARK minimizedRMSD -1
REMARK  1 active torsions:
REMARK  status: ('A' for Active; 'I' for Inactive)
REMARK    1  A    between atoms: C1_2  and  C2_3 
ROOT
ATOM      1  C2  UNL d   1       0.497   0.924  -0.054  0.00  0.00    -0.073 A 
ATOM      2  C3  UNL d   1       0.519   0.903  -1.453  0.00  0.00    -0.002 A 
ATOM      3  C4  UNL d   1       0.528  -0.312  -2.140  0.00  0.00     0.004 A 
ATOM      4  C5  UNL d   1       0.509  -1.516  -1.436  0.00  0.00    -0.004 A 
ATOM      5  C6  UNL d   1       0.475  -1.515  -0.038  0.00  0.00    -0.075 A 
ATOM      6  C7  UNL d   1       0.457  -2.802   0.734  0.00  0.00     0.076 C 
ATOM      7  C8  UNL d   1       0.469  -0.291   0.644  0.00  0.00     0.001 A 
ENDROOT
BRANCH   1   8
ATOM      8  C1  UNL d   1       0.480   2.234   0.691  0.00  0.00     0.053 C 
ATOM      9  C   UNL d   1       1.854   2.885   0.730  0.00  0.00     0.018 C 
ENDBRANCH   1   8
TORSDOF 1
ENDMDL
