MODEL 1
REMARK minimizedAffinity 2.49781108
REMARK minimizedRMSD -1
REMARK  1 active torsions:
REMARK  status: ('A' for Active; 'I' for Inactive)
REMARK    1  A    between atoms: C1_2  and  C2_3 
ROOT
ATOM      1  C2  UNL d   1       4.392   2.259   1.515  0.00  0.00    -0.076 A 
ATOM      2  C3  UNL d   1       4.081   2.904   2.725  0.00  0.00     0.004 A 
ATOM      3  C4  UNL d   1       4.296   4.272   2.886  0.00  0.00    -0.003 A 
ATOM      4  C5  UNL d   1       4.825   5.018   1.838  0.00  0.00     0.000 A 
ATOM      5  C6  UNL d   1       5.123   4.398   0.625  0.00  0.00     0.000 A 
ATOM      6  C7  UNL d   1       4.897   3.023   0.442  0.00  0.00    -0.073 A 
ATOM      7  C8  UNL d   1       5.243   2.406  -0.886  0.00  0.00     0.078 C 
ENDROOT
BRANCH   1   8
ATOM      8  C1  UNL d   1       4.163   0.769   1.409  0.00  0.00     0.053 C 
ATOM      9  C   UNL d   1       2.989   0.423   0.506  0.00  0.00     0.018 C 
ENDBRANCH   1   8
TORSDOF 1
ENDMDL
