MODEL 1
REMARK minimizedAffinity 12.509491
REMARK minimizedRMSD -1
REMARK  1 active torsions:
REMARK  status: ('A' for Active; 'I' for Inactive)
REMARK    1  A    between atoms: C1_2  and  C2_3 
ROOT
ATOM      1  C2  UNL d   1      -0.404  -1.238   1.491  0.00  0.00    -0.076 A 
ATOM      2  C3  UNL d   1      -0.781  -2.520   1.054  0.00  0.00     0.004 A 
ATOM      3  C4  UNL d   1      -2.058  -2.759   0.549  0.00  0.00    -0.003 A 
ATOM      4  C5  UNL d   1      -2.978  -1.720   0.472  0.00  0.00     0.000 A 
ATOM      5  C6  UNL d   1      -2.616  -0.438   0.885  0.00  0.00     0.000 A 
ATOM      6  C7  UNL d   1      -1.327  -0.176   1.381  0.00  0.00    -0.073 A 
ATOM      7  C8  UNL d   1      -0.992   1.224   1.818  0.00  0.00     0.078 C 
ENDROOT
BRANCH   1   8
ATOM      8  C1  UNL d   1       0.986  -1.044   2.055  0.00  0.00     0.053 C 
ATOM      9  C   UNL d   1       1.337  -2.083   3.109  0.00  0.00     0.018 C 
ENDBRANCH   1   8
TORSDOF 1
ENDMDL
