MODEL 1
REMARK minimizedAffinity 11.7673597
REMARK minimizedRMSD -1
REMARK  1 active torsions:
REMARK  status: ('A' for Active; 'I' for Inactive)
REMARK    1  A    between atoms: C1_2  and  C2_3 
ROOT
ATOM      1  C2  UNL d   1       2.970  -0.486   0.461  0.00  0.00    -0.076 A 
ATOM      2  C3  UNL d   1       4.235  -0.834  -0.045  0.00  0.00     0.004 A 
ATOM      3  C4  UNL d   1       4.625  -2.168  -0.146  0.00  0.00    -0.003 A 
ATOM      4  C5  UNL d   1       3.757  -3.177   0.258  0.00  0.00     0.000 A 
ATOM      5  C6  UNL d   1       2.492  -2.851   0.746  0.00  0.00     0.000 A 
ATOM      6  C7  UNL d   1       2.077  -1.511   0.839  0.00  0.00    -0.073 A 
ATOM      7  C8  UNL d   1       0.704  -1.217   1.378  0.00  0.00     0.078 C 
ENDROOT
BRANCH   1   8
ATOM      8  C1  UNL d   1       2.613   0.979   0.572  0.00  0.00     0.053 C 
ATOM      9  C   UNL d   1       3.810   1.889   0.348  0.00  0.00     0.018 C 
ENDBRANCH   1   8
TORSDOF 1
ENDMDL
