MODEL 1
REMARK minimizedAffinity 8.45178604
REMARK minimizedRMSD -1
REMARK  1 active torsions:
REMARK  status: ('A' for Active; 'I' for Inactive)
REMARK    1  A    between atoms: C1_2  and  C2_3 
ROOT
ATOM      1  C2  UNL d   1      -2.274  -0.142   0.625  0.00  0.00    -0.076 A 
ATOM      2  C3  UNL d   1      -2.288  -1.533   0.423  0.00  0.00     0.004 A 
ATOM      3  C4  UNL d   1      -1.207  -2.326   0.808  0.00  0.00    -0.003 A 
ATOM      4  C5  UNL d   1      -0.096  -1.740   1.403  0.00  0.00     0.000 A 
ATOM      5  C6  UNL d   1      -0.072  -0.364   1.627  0.00  0.00     0.000 A 
ATOM      6  C7  UNL d   1      -1.159   0.447   1.260  0.00  0.00    -0.073 A 
ATOM      7  C8  UNL d   1      -1.078   1.926   1.520  0.00  0.00     0.078 C 
ENDROOT
BRANCH   1   8
ATOM      8  C1  UNL d   1      -3.462   0.669   0.162  0.00  0.00     0.053 C 
ATOM      9  C   UNL d   1      -3.472   0.881  -1.344  0.00  0.00     0.018 C 
ENDBRANCH   1   8
TORSDOF 1
ENDMDL
