MODEL 1
REMARK minimizedAffinity 2.47174358
REMARK minimizedRMSD -1
REMARK  1 active torsions:
REMARK  status: ('A' for Active; 'I' for Inactive)
REMARK    1  A    between atoms: C1_2  and  C2_3 
ROOT
ATOM      1  C2  UNL d   1      -0.593  -1.235   1.059  0.00  0.00    -0.076 A 
ATOM      2  C3  UNL d   1      -0.345  -0.005   1.692  0.00  0.00     0.004 A 
ATOM      3  C4  UNL d   1      -1.322   0.988   1.738  0.00  0.00    -0.003 A 
ATOM      4  C5  UNL d   1      -2.563   0.767   1.152  0.00  0.00     0.000 A 
ATOM      5  C6  UNL d   1      -2.833  -0.454   0.535  0.00  0.00     0.000 A 
ATOM      6  C7  UNL d   1      -1.864  -1.472   0.494  0.00  0.00    -0.073 A 
ATOM      7  C8  UNL d   1      -2.207  -2.767  -0.190  0.00  0.00     0.078 C 
ENDROOT
BRANCH   1   8
ATOM      8  C1  UNL d   1       0.514  -2.264   1.016  0.00  0.00     0.053 C 
ATOM      9  C   UNL d   1       1.731  -1.779   0.243  0.00  0.00     0.018 C 
ENDBRANCH   1   8
TORSDOF 1
ENDMDL
