MODEL 1
REMARK minimizedAffinity 3.21131444
REMARK minimizedRMSD -1
REMARK  1 active torsions:
REMARK  status: ('A' for Active; 'I' for Inactive)
REMARK    1  A    between atoms: C1_2  and  C2_3 
ROOT
ATOM      1  C2  UNL d   1      -2.235   0.421   2.549  0.00  0.00    -0.076 A 
ATOM      2  C3  UNL d   1      -1.217  -0.188   3.304  0.00  0.00     0.004 A 
ATOM      3  C4  UNL d   1      -0.230  -0.957   2.689  0.00  0.00    -0.003 A 
ATOM      4  C5  UNL d   1      -0.244  -1.128   1.309  0.00  0.00     0.000 A 
ATOM      5  C6  UNL d   1      -1.235  -0.516   0.543  0.00  0.00     0.000 A 
ATOM      6  C7  UNL d   1      -2.228   0.275   1.145  0.00  0.00    -0.073 A 
ATOM      7  C8  UNL d   1      -3.277   0.906   0.271  0.00  0.00     0.078 C 
ENDROOT
BRANCH   1   8
ATOM      8  C1  UNL d   1      -3.294   1.220   3.273  0.00  0.00     0.053 C 
ATOM      9  C   UNL d   1      -4.576   0.430   3.486  0.00  0.00     0.018 C 
ENDBRANCH   1   8
TORSDOF 1
ENDMDL
