MODEL 1
REMARK minimizedAffinity 23.3432102
REMARK minimizedRMSD -1
REMARK  1 active torsions:
REMARK  status: ('A' for Active; 'I' for Inactive)
REMARK    1  A    between atoms: C1_2  and  C2_3 
ROOT
ATOM      1  C2  UNL d   1       2.776  -1.754   1.738  0.00  0.00    -0.076 A 
ATOM      2  C3  UNL d   1       2.915  -2.465   2.943  0.00  0.00     0.004 A 
ATOM      3  C4  UNL d   1       1.852  -2.576   3.837  0.00  0.00    -0.003 A 
ATOM      4  C5  UNL d   1       0.632  -1.978   3.541  0.00  0.00     0.000 A 
ATOM      5  C6  UNL d   1       0.471  -1.284   2.342  0.00  0.00     0.000 A 
ATOM      6  C7  UNL d   1       1.528  -1.177   1.422  0.00  0.00    -0.073 A 
ATOM      7  C8  UNL d   1       1.300  -0.411   0.148  0.00  0.00     0.078 C 
ENDROOT
BRANCH   1   8
ATOM      8  C1  UNL d   1       3.972  -1.645   0.820  0.00  0.00     0.053 C 
ATOM      9  C   UNL d   1       4.466  -0.214   0.674  0.00  0.00     0.018 C 
ENDBRANCH   1   8
TORSDOF 1
ENDMDL
