MODEL 1
REMARK minimizedAffinity 3.75683236
REMARK minimizedRMSD -1
REMARK  1 active torsions:
REMARK  status: ('A' for Active; 'I' for Inactive)
REMARK    1  A    between atoms: C1_2  and  C2_3 
ROOT
ATOM      1  C2  UNL d   1       1.270  -2.300   1.207  0.00  0.00    -0.076 A 
ATOM      2  C3  UNL d   1       1.167  -3.239   2.247  0.00  0.00     0.004 A 
ATOM      3  C4  UNL d   1       1.975  -3.148   3.379  0.00  0.00    -0.003 A 
ATOM      4  C5  UNL d   1       2.900  -2.116   3.489  0.00  0.00     0.000 A 
ATOM      5  C6  UNL d   1       3.004  -1.165   2.474  0.00  0.00     0.000 A 
ATOM      6  C7  UNL d   1       2.185  -1.233   1.334  0.00  0.00    -0.073 A 
ATOM      7  C8  UNL d   1       2.344  -0.184   0.268  0.00  0.00     0.078 C 
ENDROOT
BRANCH   1   8
ATOM      8  C1  UNL d   1       0.386  -2.465  -0.009  0.00  0.00     0.053 C 
ATOM      9  C   UNL d   1      -0.797  -3.384   0.252  0.00  0.00     0.018 C 
ENDBRANCH   1   8
TORSDOF 1
ENDMDL
