MODEL 1
REMARK minimizedAffinity 12.4121809
REMARK minimizedRMSD -1
REMARK  1 active torsions:
REMARK  status: ('A' for Active; 'I' for Inactive)
REMARK    1  A    between atoms: C1_2  and  C2_3 
ROOT
ATOM      1  C2  UNL d   1       0.527  -0.547   0.071  0.00  0.00    -0.076 A 
ATOM      2  C3  UNL d   1      -0.324  -0.327   1.168  0.00  0.00     0.004 A 
ATOM      3  C4  UNL d   1      -1.626  -0.825   1.177  0.00  0.00    -0.003 A 
ATOM      4  C5  UNL d   1      -2.097  -1.552   0.090  0.00  0.00     0.000 A 
ATOM      5  C6  UNL d   1      -1.260  -1.796  -0.999  0.00  0.00     0.000 A 
ATOM      6  C7  UNL d   1       0.060  -1.315  -1.017  0.00  0.00    -0.073 A 
ATOM      7  C8  UNL d   1       0.916  -1.602  -2.219  0.00  0.00     0.078 C 
ENDROOT
BRANCH   1   8
ATOM      8  C1  UNL d   1       1.920   0.041   0.106  0.00  0.00     0.053 C 
ATOM      9  C   UNL d   1       1.912   1.561   0.065  0.00  0.00     0.018 C 
ENDBRANCH   1   8
TORSDOF 1
ENDMDL
