MODEL 1
REMARK minimizedAffinity 14.0433693
REMARK minimizedRMSD -1
REMARK  1 active torsions:
REMARK  status: ('A' for Active; 'I' for Inactive)
REMARK    1  A    between atoms: C1_2  and  C2_3 
ROOT
ATOM      1  C2  UNL d   1      -4.349  -3.992  -4.129  0.00  0.00    -0.076 A 
ATOM      2  C3  UNL d   1      -5.610  -4.003  -4.748  0.00  0.00     0.004 A 
ATOM      3  C4  UNL d   1      -5.946  -4.987  -5.677  0.00  0.00    -0.003 A 
ATOM      4  C5  UNL d   1      -5.024  -5.977  -6.000  0.00  0.00     0.000 A 
ATOM      5  C6  UNL d   1      -3.774  -5.992  -5.382  0.00  0.00     0.000 A 
ATOM      6  C7  UNL d   1      -3.427  -5.017  -4.432  0.00  0.00    -0.073 A 
ATOM      7  C8  UNL d   1      -2.063  -5.077  -3.801  0.00  0.00     0.078 C 
ENDROOT
BRANCH   1   8
ATOM      8  C1  UNL d   1      -4.032  -2.884  -3.150  0.00  0.00     0.053 C 
ATOM      9  C   UNL d   1      -4.802  -1.606  -3.447  0.00  0.00     0.018 C 
ENDBRANCH   1   8
TORSDOF 1
ENDMDL
