MODEL 1
REMARK minimizedAffinity -2.03928995
REMARK minimizedRMSD -1
REMARK  3 active torsions:
REMARK  status: ('A' for Active; 'I' for Inactive)
REMARK    1  A    between atoms: C3'_2  and  C2'_3 
REMARK    2  A    between atoms: C2'_3  and  C1'_4 
REMARK    3  A    between atoms: C1'_4  and  C1_5 
ROOT
ATOM      1  C1  N4B d   1       5.407  -2.870   5.533  0.00  0.00    -0.075 A 
ATOM      2  C2  N4B d   1       6.000  -1.659   5.951  0.00  0.00     0.002 A 
ATOM      3  C3  N4B d   1       5.555  -0.464   5.440  0.00  0.00     0.002 A 
ATOM      4  C4  N4B d   1       4.536  -0.458   4.499  0.00  0.00    -0.004 A 
ATOM      5  C5  N4B d   1       3.951  -1.631   4.120  0.00  0.00     0.002 A 
ATOM      6  C6  N4B d   1       4.385  -2.838   4.629  0.00  0.00     0.002 A 
ENDROOT
BRANCH   1   7
ATOM      7  C1' N4B d   1       5.916  -4.207   6.000  0.00  0.00     0.057 C 
BRANCH   7   8
ATOM      8  C2' N4B d   1       5.988  -5.159   4.810  0.00  0.00     0.009 C 
BRANCH   8   9
ATOM      9  C3' N4B d   1       4.730  -6.000   4.679  0.00  0.00     0.004 C 
ATOM     10  C4' N4B d   1       3.885  -5.978   5.917  0.00  0.00     0.003 C 
ENDBRANCH   8   9
ENDBRANCH   7   8
ENDBRANCH   1   7
TORSDOF 3
ENDMDL
