MODEL 1
REMARK minimizedAffinity -1.38573134
REMARK minimizedRMSD -1
REMARK  3 active torsions:
REMARK  status: ('A' for Active; 'I' for Inactive)
REMARK    1  A    between atoms: C3'_2  and  C2'_3 
REMARK    2  A    between atoms: C2'_3  and  C1'_4 
REMARK    3  A    between atoms: C1'_4  and  C1_5 
ROOT
ATOM      1  C1  N4B d   1       5.514   1.498   4.214  0.00  0.00    -0.075 A 
ATOM      2  C2  N4B d   1       5.983   1.220   5.517  0.00  0.00     0.002 A 
ATOM      3  C3  N4B d   1       5.955  -0.066   5.997  0.00  0.00     0.002 A 
ATOM      4  C4  N4B d   1       5.448  -1.084   5.203  0.00  0.00    -0.004 A 
ATOM      5  C5  N4B d   1       5.021  -0.812   3.936  0.00  0.00     0.002 A 
ATOM      6  C6  N4B d   1       5.046   0.476   3.439  0.00  0.00     0.002 A 
ENDROOT
BRANCH   1   7
ATOM      7  C1' N4B d   1       5.444   2.901   3.677  0.00  0.00     0.057 C 
BRANCH   7   8
ATOM      8  C2' N4B d   1       4.872   3.821   4.752  0.00  0.00     0.009 C 
BRANCH   8   9
ATOM      9  C3' N4B d   1       5.955   4.372   5.663  0.00  0.00     0.004 C 
ATOM     10  C4' N4B d   1       5.996   5.871   5.676  0.00  0.00     0.003 C 
ENDBRANCH   8   9
ENDBRANCH   7   8
ENDBRANCH   1   7
TORSDOF 3
ENDMDL
