MODEL 1
REMARK minimizedAffinity 7.87034082
REMARK minimizedRMSD -1
REMARK  3 active torsions:
REMARK  status: ('A' for Active; 'I' for Inactive)
REMARK    1  A    between atoms: C3'_2  and  C2'_3 
REMARK    2  A    between atoms: C2'_3  and  C1'_4 
REMARK    3  A    between atoms: C1'_4  and  C1_5 
ROOT
ATOM      1  C1  N4B d   1       1.110  -0.250  -0.545  0.00  0.00    -0.075 A 
ATOM      2  C2  N4B d   1      -0.127  -0.807  -0.154  0.00  0.00     0.002 A 
ATOM      3  C3  N4B d   1      -0.252  -2.166  -0.004  0.00  0.00     0.002 A 
ATOM      4  C4  N4B d   1       0.837  -2.986  -0.255  0.00  0.00    -0.004 A 
ATOM      5  C5  N4B d   1       2.036  -2.439  -0.608  0.00  0.00     0.002 A 
ATOM      6  C6  N4B d   1       2.177  -1.074  -0.759  0.00  0.00     0.002 A 
ENDROOT
BRANCH   1   7
ATOM      7  C1' N4B d   1       1.272   1.223  -0.805  0.00  0.00     0.057 C 
BRANCH   7   8
ATOM      8  C2' N4B d   1       0.499   2.006   0.252  0.00  0.00     0.009 C 
BRANCH   8   9
ATOM      9  C3' N4B d   1       1.176   3.323   0.591  0.00  0.00     0.004 C 
ATOM     10  C4' N4B d   1       1.496   3.452   2.051  0.00  0.00     0.003 C 
ENDBRANCH   8   9
ENDBRANCH   7   8
ENDBRANCH   1   7
TORSDOF 3
ENDMDL
