MODEL 1
REMARK minimizedAffinity -3.1140244
REMARK minimizedRMSD -1
REMARK  3 active torsions:
REMARK  status: ('A' for Active; 'I' for Inactive)
REMARK    1  A    between atoms: C3'_2  and  C2'_3 
REMARK    2  A    between atoms: C2'_3  and  C1'_4 
REMARK    3  A    between atoms: C1'_4  and  C1_5 
ROOT
ATOM      1  C1  N4B d   1       5.133   0.492   4.739  0.00  0.00    -0.075 A 
ATOM      2  C2  N4B d   1       5.663  -0.083   5.915  0.00  0.00     0.002 A 
ATOM      3  C3  N4B d   1       5.933  -1.429   5.959  0.00  0.00     0.002 A 
ATOM      4  C4  N4B d   1       5.665  -2.219   4.851  0.00  0.00    -0.004 A 
ATOM      5  C5  N4B d   1       5.178  -1.651   3.710  0.00  0.00     0.002 A 
ATOM      6  C6  N4B d   1       4.905  -0.299   3.650  0.00  0.00     0.002 A 
ENDROOT
BRANCH   1   7
ATOM      7  C1' N4B d   1       4.742   1.943   4.672  0.00  0.00     0.057 C 
BRANCH   7   8
ATOM      8  C2' N4B d   1       5.996   2.793   4.495  0.00  0.00     0.009 C 
BRANCH   8   9
ATOM      9  C3' N4B d   1       5.972   4.031   5.374  0.00  0.00     0.004 C 
ATOM     10  C4' N4B d   1       5.996   5.305   4.584  0.00  0.00     0.003 C 
ENDBRANCH   8   9
ENDBRANCH   7   8
ENDBRANCH   1   7
TORSDOF 3
ENDMDL
