MODEL 1
REMARK minimizedAffinity 0.2511608
REMARK minimizedRMSD -1
REMARK  3 active torsions:
REMARK  status: ('A' for Active; 'I' for Inactive)
REMARK    1  A    between atoms: C3'_2  and  C2'_3 
REMARK    2  A    between atoms: C2'_3  and  C1'_4 
REMARK    3  A    between atoms: C1'_4  and  C1_5 
ROOT
ATOM      1  C1  N4B d   1       5.183   1.139   4.388  0.00  0.00    -0.075 A 
ATOM      2  C2  N4B d   1       4.851   1.790   3.180  0.00  0.00     0.002 A 
ATOM      3  C3  N4B d   1       5.099   3.133   3.033  0.00  0.00     0.002 A 
ATOM      4  C4  N4B d   1       5.659   3.846   4.082  0.00  0.00    -0.004 A 
ATOM      5  C5  N4B d   1       6.000   3.204   5.237  0.00  0.00     0.002 A 
ATOM      6  C6  N4B d   1       5.760   1.854   5.397  0.00  0.00     0.002 A 
ENDROOT
BRANCH   1   7
ATOM      7  C1' N4B d   1       4.852  -0.309   4.627  0.00  0.00     0.057 C 
BRANCH   7   8
ATOM      8  C2' N4B d   1       5.564  -0.783   5.891  0.00  0.00     0.009 C 
BRANCH   8   9
ATOM      9  C3' N4B d   1       5.991  -2.238   5.791  0.00  0.00     0.004 C 
ATOM     10  C4' N4B d   1       5.210  -3.003   4.764  0.00  0.00     0.003 C 
ENDBRANCH   8   9
ENDBRANCH   7   8
ENDBRANCH   1   7
TORSDOF 3
ENDMDL
