MODEL 1
REMARK minimizedAffinity -1.74707258
REMARK minimizedRMSD -1
REMARK  3 active torsions:
REMARK  status: ('A' for Active; 'I' for Inactive)
REMARK    1  A    between atoms: C3'_2  and  C2'_3 
REMARK    2  A    between atoms: C2'_3  and  C1'_4 
REMARK    3  A    between atoms: C1'_4  and  C1_5 
ROOT
ATOM      1  C1  N4B d   1       5.992  -0.029   4.609  0.00  0.00    -0.075 A 
ATOM      2  C2  N4B d   1       5.998  -0.636   5.884  0.00  0.00     0.002 A 
ATOM      3  C3  N4B d   1       5.951  -2.005   5.993  0.00  0.00     0.002 A 
ATOM      4  C4  N4B d   1       5.878  -2.781   4.846  0.00  0.00    -0.004 A 
ATOM      5  C5  N4B d   1       5.899  -2.188   3.618  0.00  0.00     0.002 A 
ATOM      6  C6  N4B d   1       5.950  -0.814   3.494  0.00  0.00     0.002 A 
ENDROOT
BRANCH   1   7
ATOM      7  C1' N4B d   1       5.956   1.466   4.442  0.00  0.00     0.057 C 
BRANCH   7   8
ATOM      8  C2' N4B d   1       5.324   2.093   5.681  0.00  0.00     0.009 C 
BRANCH   8   9
ATOM      9  C3' N4B d   1       5.926   3.451   6.000  0.00  0.00     0.004 C 
ATOM     10  C4' N4B d   1       5.994   4.352   4.802  0.00  0.00     0.003 C 
ENDBRANCH   8   9
ENDBRANCH   7   8
ENDBRANCH   1   7
TORSDOF 3
ENDMDL
