MODEL 1
REMARK minimizedAffinity -1.39794457
REMARK minimizedRMSD -1
REMARK  3 active torsions:
REMARK  status: ('A' for Active; 'I' for Inactive)
REMARK    1  A    between atoms: C3'_2  and  C2'_3 
REMARK    2  A    between atoms: C2'_3  and  C1'_4 
REMARK    3  A    between atoms: C1'_4  and  C1_5 
ROOT
ATOM      1  C1  N4B d   1       5.497   0.048   5.320  0.00  0.00    -0.075 A 
ATOM      2  C2  N4B d   1       5.380  -1.185   5.999  0.00  0.00     0.002 A 
ATOM      3  C3  N4B d   1       5.573  -2.363   5.320  0.00  0.00     0.002 A 
ATOM      4  C4  N4B d   1       5.863  -2.334   3.964  0.00  0.00    -0.004 A 
ATOM      5  C5  N4B d   1       5.999  -1.139   3.321  0.00  0.00     0.002 A 
ATOM      6  C6  N4B d   1       5.812   0.053   3.992  0.00  0.00     0.002 A 
ENDROOT
BRANCH   1   7
ATOM      7  C1' N4B d   1       5.211   1.359   6.000  0.00  0.00     0.057 C 
BRANCH   7   8
ATOM      8  C2' N4B d   1       5.903   2.482   5.232  0.00  0.00     0.009 C 
BRANCH   8   9
ATOM      9  C3' N4B d   1       5.141   3.792   5.334  0.00  0.00     0.004 C 
ATOM     10  C4' N4B d   1       6.000   4.928   5.805  0.00  0.00     0.003 C 
ENDBRANCH   8   9
ENDBRANCH   7   8
ENDBRANCH   1   7
TORSDOF 3
ENDMDL
