MODEL 1
REMARK minimizedAffinity 6.15435696
REMARK minimizedRMSD -1
REMARK  3 active torsions:
REMARK  status: ('A' for Active; 'I' for Inactive)
REMARK    1  A    between atoms: C3'_2  and  C2'_3 
REMARK    2  A    between atoms: C2'_3  and  C1'_4 
REMARK    3  A    between atoms: C1'_4  and  C1_5 
ROOT
ATOM      1  C1  N4B d   1       1.184   0.117  -0.376  0.00  0.00    -0.075 A 
ATOM      2  C2  N4B d   1       0.043  -0.681  -0.139  0.00  0.00     0.002 A 
ATOM      3  C3  N4B d   1       0.190  -1.994   0.235  0.00  0.00     0.002 A 
ATOM      4  C4  N4B d   1       1.462  -2.534   0.359  0.00  0.00    -0.004 A 
ATOM      5  C5  N4B d   1       2.558  -1.750   0.153  0.00  0.00     0.002 A 
ATOM      6  C6  N4B d   1       2.426  -0.427  -0.219  0.00  0.00     0.002 A 
ENDROOT
BRANCH   1   7
ATOM      7  C1' N4B d   1       1.073   1.534  -0.869  0.00  0.00     0.057 C 
BRANCH   7   8
ATOM      8  C2' N4B d   1       0.008   2.265  -0.058  0.00  0.00     0.009 C 
BRANCH   8   9
ATOM      9  C3' N4B d   1       0.614   3.092   1.063  0.00  0.00     0.004 C 
ATOM     10  C4' N4B d   1       1.514   4.181   0.559  0.00  0.00     0.003 C 
ENDBRANCH   8   9
ENDBRANCH   7   8
ENDBRANCH   1   7
TORSDOF 3
ENDMDL
