MODEL 1
REMARK minimizedAffinity 4.65740252
REMARK minimizedRMSD -1
REMARK  3 active torsions:
REMARK  status: ('A' for Active; 'I' for Inactive)
REMARK    1  A    between atoms: C3'_2  and  C2'_3 
REMARK    2  A    between atoms: C2'_3  and  C1'_4 
REMARK    3  A    between atoms: C1'_4  and  C1_5 
ROOT
ATOM      1  C1  N4B d   1       1.264   0.342  -0.989  0.00  0.00    -0.075 A 
ATOM      2  C2  N4B d   1       0.405  -0.730  -0.661  0.00  0.00     0.002 A 
ATOM      3  C3  N4B d   1       0.911  -2.000  -0.529  0.00  0.00     0.002 A 
ATOM      4  C4  N4B d   1       2.263  -2.225  -0.738  0.00  0.00    -0.004 A 
ATOM      5  C5  N4B d   1       3.091  -1.180  -1.029  0.00  0.00     0.002 A 
ATOM      6  C6  N4B d   1       2.597   0.102  -1.161  0.00  0.00     0.002 A 
ENDROOT
BRANCH   1   7
ATOM      7  C1' N4B d   1       0.744   1.732  -1.228  0.00  0.00     0.057 C 
BRANCH   7   8
ATOM      8  C2' N4B d   1       0.635   2.463   0.107  0.00  0.00     0.009 C 
BRANCH   8   9
ATOM      9  C3' N4B d   1       1.757   3.469   0.297  0.00  0.00     0.004 C 
ATOM     10  C4' N4B d   1       1.521   4.390   1.457  0.00  0.00     0.003 C 
ENDBRANCH   8   9
ENDBRANCH   7   8
ENDBRANCH   1   7
TORSDOF 3
ENDMDL
