MODEL 1
REMARK minimizedAffinity 2.51761484
REMARK minimizedRMSD -1
REMARK  3 active torsions:
REMARK  status: ('A' for Active; 'I' for Inactive)
REMARK    1  A    between atoms: C3'_2  and  C2'_3 
REMARK    2  A    between atoms: C2'_3  and  C1'_4 
REMARK    3  A    between atoms: C1'_4  and  C1_5 
ROOT
ATOM      1  C1  N4B d   1      -0.476   1.094   1.630  0.00  0.00    -0.075 A 
ATOM      2  C2  N4B d   1      -0.243   0.101   0.653  0.00  0.00     0.002 A 
ATOM      3  C3  N4B d   1       0.436   0.417  -0.498  0.00  0.00     0.002 A 
ATOM      4  C4  N4B d   1       0.874   1.717  -0.701  0.00  0.00    -0.004 A 
ATOM      5  C5  N4B d   1       0.668   2.664   0.259  0.00  0.00     0.002 A 
ATOM      6  C6  N4B d   1      -0.010   2.360   1.422  0.00  0.00     0.002 A 
ENDROOT
BRANCH   1   7
ATOM      7  C1' N4B d   1      -1.289   0.818   2.865  0.00  0.00     0.057 C 
BRANCH   7   8
ATOM      8  C2' N4B d   1      -2.237  -0.346   2.590  0.00  0.00     0.009 C 
BRANCH   8   9
ATOM      9  C3' N4B d   1      -3.669  -0.016   2.974  0.00  0.00     0.004 C 
ATOM     10  C4' N4B d   1      -4.321  -1.102   3.776  0.00  0.00     0.003 C 
ENDBRANCH   8   9
ENDBRANCH   7   8
ENDBRANCH   1   7
TORSDOF 3
ENDMDL
