MODEL 1
REMARK minimizedAffinity 6.01786089
REMARK minimizedRMSD -1
REMARK  3 active torsions:
REMARK  status: ('A' for Active; 'I' for Inactive)
REMARK    1  A    between atoms: C3'_2  and  C2'_3 
REMARK    2  A    between atoms: C2'_3  and  C1'_4 
REMARK    3  A    between atoms: C1'_4  and  C1_5 
ROOT
ATOM      1  C1  N4B d   1       0.097   0.733  -0.524  0.00  0.00    -0.075 A 
ATOM      2  C2  N4B d   1       1.308   0.132  -0.931  0.00  0.00     0.002 A 
ATOM      3  C3  N4B d   1       1.560  -1.182  -0.621  0.00  0.00     0.002 A 
ATOM      4  C4  N4B d   1       0.629  -1.905   0.109  0.00  0.00    -0.004 A 
ATOM      5  C5  N4B d   1      -0.550  -1.324   0.476  0.00  0.00     0.002 A 
ATOM      6  C6  N4B d   1      -0.818  -0.006   0.167  0.00  0.00     0.002 A 
ENDROOT
BRANCH   1   7
ATOM      7  C1' N4B d   1      -0.186   2.191  -0.766  0.00  0.00     0.057 C 
BRANCH   7   8
ATOM      8  C2' N4B d   1       0.019   2.963   0.534  0.00  0.00     0.009 C 
BRANCH   8   9
ATOM      9  C3' N4B d   1       1.291   3.794   0.506  0.00  0.00     0.004 C 
ATOM     10  C4' N4B d   1       1.943   3.904   1.852  0.00  0.00     0.003 C 
ENDBRANCH   8   9
ENDBRANCH   7   8
ENDBRANCH   1   7
TORSDOF 3
ENDMDL
