MODEL 1
REMARK minimizedAffinity 10.5500021
REMARK minimizedRMSD -1
REMARK  1 active torsions:
REMARK  status: ('A' for Active; 'I' for Inactive)
REMARK    1  A    between atoms: N_2  and  C1_3 
ROOT
ATOM      1  C1  UNL d   1       0.299  -2.080   2.693  0.00  0.00     0.143 A 
ATOM      2  C2  UNL d   1       1.376  -1.484   3.358  0.00  0.00    -0.057 A 
ATOM      3  C3  UNL d   1       1.306  -1.178   4.723  0.00  0.00     0.033 A 
ATOM      4  C4  UNL d   1       0.145  -1.438   5.442  0.00  0.00    -0.042 A 
ATOM      5  C5  UNL d   1      -0.946  -2.008   4.796  0.00  0.00     0.033 A 
ATOM      6  C6  UNL d   1      -0.869  -2.317   3.435  0.00  0.00    -0.057 A 
ENDROOT
BRANCH   1   7
ATOM      7  N   UNL d   1       0.271  -2.318   1.317  0.00  0.00    -0.732 N 
ATOM      8  C   UNL d   1      -0.755  -3.157   0.735  0.00  0.00     0.284 C 
ATOM      9  H3  UNL d   1       0.483  -1.484   0.774  0.00  0.00     0.395 HD
ENDBRANCH   1   7
TORSDOF 1
ENDMDL
