MODEL 1
REMARK minimizedAffinity 3.19497943
REMARK minimizedRMSD -1
REMARK  1 active torsions:
REMARK  status: ('A' for Active; 'I' for Inactive)
REMARK    1  A    between atoms: N_2  and  C1_3 
ROOT
ATOM      1  C1  UNL d   1       1.797  -2.320   4.810  0.00  0.00     0.143 A 
ATOM      2  C2  UNL d   1       3.078  -2.881   4.768  0.00  0.00    -0.057 A 
ATOM      3  C3  UNL d   1       3.811  -2.932   3.576  0.00  0.00     0.033 A 
ATOM      4  C4  UNL d   1       3.261  -2.446   2.394  0.00  0.00    -0.042 A 
ATOM      5  C5  UNL d   1       1.980  -1.906   2.407  0.00  0.00     0.033 A 
ATOM      6  C6  UNL d   1       1.256  -1.853   3.601  0.00  0.00    -0.057 A 
ENDROOT
BRANCH   1   7
ATOM      7  N   UNL d   1       0.980  -2.330   5.942  0.00  0.00    -0.732 N 
ATOM      8  C   UNL d   1      -0.222  -1.524   5.991  0.00  0.00     0.284 C 
ATOM      9  H3  UNL d   1       0.872  -3.262   6.335  0.00  0.00     0.395 HD
ENDBRANCH   1   7
TORSDOF 1
ENDMDL
