MODEL 1
REMARK minimizedAffinity 4.02719355
REMARK minimizedRMSD -1
REMARK  1 active torsions:
REMARK  status: ('A' for Active; 'I' for Inactive)
REMARK    1  A    between atoms: N_2  and  C1_3 
ROOT
ATOM      1  C1  UNL d   1      -2.592  -2.794   0.234  0.00  0.00     0.143 A 
ATOM      2  C2  UNL d   1      -2.341  -3.971   0.947  0.00  0.00    -0.057 A 
ATOM      3  C3  UNL d   1      -1.161  -4.700   0.756  0.00  0.00     0.033 A 
ATOM      4  C4  UNL d   1      -0.220  -4.278  -0.178  0.00  0.00    -0.042 A 
ATOM      5  C5  UNL d   1      -0.459  -3.124  -0.916  0.00  0.00     0.033 A 
ATOM      6  C6  UNL d   1      -1.637  -2.398  -0.716  0.00  0.00    -0.057 A 
ENDROOT
BRANCH   1   7
ATOM      7  N   UNL d   1      -3.790  -2.080   0.308  0.00  0.00    -0.732 N 
ATOM      8  C   UNL d   1      -5.061  -2.752   0.140  0.00  0.00     0.284 C 
ATOM      9  H3  UNL d   1      -3.782  -1.384   1.050  0.00  0.00     0.395 HD
ENDBRANCH   1   7
TORSDOF 1
ENDMDL
