MODEL 1
REMARK minimizedAffinity 7.68185425
REMARK minimizedRMSD -1
REMARK  1 active torsions:
REMARK  status: ('A' for Active; 'I' for Inactive)
REMARK    1  A    between atoms: N_2  and  C1_3 
ROOT
ATOM      1  C1  UNL d   1      -0.265  -4.922   0.396  0.00  0.00     0.143 A 
ATOM      2  C2  UNL d   1      -1.405  -4.564   1.124  0.00  0.00    -0.057 A 
ATOM      3  C3  UNL d   1      -2.139  -3.415   0.805  0.00  0.00     0.033 A 
ATOM      4  C4  UNL d   1      -1.728  -2.586  -0.233  0.00  0.00    -0.042 A 
ATOM      5  C5  UNL d   1      -0.584  -2.909  -0.955  0.00  0.00     0.033 A 
ATOM      6  C6  UNL d   1       0.141  -4.061  -0.636  0.00  0.00    -0.057 A 
ENDROOT
BRANCH   1   7
ATOM      7  N   UNL d   1       0.563  -5.998   0.726  0.00  0.00    -0.732 N 
ATOM      8  C   UNL d   1       2.003  -5.863   0.675  0.00  0.00     0.284 C 
ATOM      9  H3  UNL d   1       0.223  -6.516   1.533  0.00  0.00     0.395 HD
ENDBRANCH   1   7
TORSDOF 1
ENDMDL
