MODEL 1
REMARK minimizedAffinity 4.50860691
REMARK minimizedRMSD -1
REMARK  1 active torsions:
REMARK  status: ('A' for Active; 'I' for Inactive)
REMARK    1  A    between atoms: N_2  and  C1_3 
ROOT
ATOM      1  C1  UNL d   1      -1.342  -2.951   2.578  0.00  0.00     0.143 A 
ATOM      2  C2  UNL d   1      -0.745  -4.171   2.240  0.00  0.00    -0.057 A 
ATOM      3  C3  UNL d   1      -0.673  -4.600   0.910  0.00  0.00     0.033 A 
ATOM      4  C4  UNL d   1      -1.224  -3.828  -0.107  0.00  0.00    -0.042 A 
ATOM      5  C5  UNL d   1      -1.845  -2.625   0.207  0.00  0.00     0.033 A 
ATOM      6  C6  UNL d   1      -1.908  -2.198   1.538  0.00  0.00    -0.057 A 
ENDROOT
BRANCH   1   7
ATOM      7  N   UNL d   1      -1.533  -2.516   3.892  0.00  0.00    -0.732 N 
ATOM      8  C   UNL d   1      -0.401  -2.162   4.722  0.00  0.00     0.284 C 
ATOM      9  H3  UNL d   1      -2.327  -1.887   3.981  0.00  0.00     0.395 HD
ENDBRANCH   1   7
TORSDOF 1
ENDMDL
