MODEL 1
REMARK minimizedAffinity 0.0758957267
REMARK minimizedRMSD -1
REMARK  1 active torsions:
REMARK  status: ('A' for Active; 'I' for Inactive)
REMARK    1  A    between atoms: N_2  and  C1_3 
ROOT
ATOM      1  C1  UNL d   1      -5.989  -0.187   3.591  0.00  0.00     0.143 A 
ATOM      2  C2  UNL d   1      -5.958   1.174   3.267  0.00  0.00    -0.057 A 
ATOM      3  C3  UNL d   1      -5.975   1.604   1.935  0.00  0.00     0.033 A 
ATOM      4  C4  UNL d   1      -5.994   0.676   0.899  0.00  0.00    -0.042 A 
ATOM      5  C5  UNL d   1      -6.000  -0.682   1.197  0.00  0.00     0.033 A 
ATOM      6  C6  UNL d   1      -5.989  -1.105   2.529  0.00  0.00    -0.057 A 
ENDROOT
BRANCH   1   7
ATOM      7  N   UNL d   1      -5.875  -0.679   4.894  0.00  0.00    -0.732 N 
ATOM      8  C   UNL d   1      -4.584  -0.749   5.544  0.00  0.00     0.284 C 
ATOM      9  H3  UNL d   1      -6.628  -0.358   5.498  0.00  0.00     0.395 HD
ENDBRANCH   1   7
TORSDOF 1
ENDMDL
