MODEL 1
REMARK minimizedAffinity 9.72780037
REMARK minimizedRMSD -1
REMARK  0 active torsions:
REMARK  status: ('A' for Active; 'I' for Inactive)
ROOT
ATOM      1  N1  IND d   1      -3.102   0.908  -3.192  0.00  0.00    -0.196 N 
ATOM      2  C2  IND d   1      -3.250   0.842  -1.834  0.00  0.00     0.054 A 
ATOM      3  C3  IND d   1      -3.707   2.019  -1.353  0.00  0.00    -0.031 A 
ATOM      4  C4  IND d   1      -4.376   4.157  -2.622  0.00  0.00     0.051 A 
ATOM      5  C5  IND d   1      -4.382   4.710  -3.872  0.00  0.00    -0.031 A 
ATOM      6  C6  IND d   1      -3.956   4.009  -4.982  0.00  0.00     0.015 A 
ATOM      7  C7  IND d   1      -3.516   2.719  -4.884  0.00  0.00    -0.016 A 
ATOM      8  C8  IND d   1      -3.502   2.157  -3.616  0.00  0.00    -0.047 A 
ATOM      9  C9  IND d   1      -3.893   2.877  -2.480  0.00  0.00    -0.096 A 
ATOM     10  HN1 IND d   1      -2.809   0.277  -3.696  0.00  0.00     0.298 HD
ENDROOT
TORSDOF 0
ENDMDL
