MODEL 1
REMARK minimizedAffinity 2.38441253
REMARK minimizedRMSD -1
REMARK  0 active torsions:
REMARK  status: ('A' for Active; 'I' for Inactive)
ROOT
ATOM      1  N1  IND d   1       1.218  -1.175   2.633  0.00  0.00    -0.196 N 
ATOM      2  C2  IND d   1       1.941  -1.718   1.607  0.00  0.00     0.054 A 
ATOM      3  C3  IND d   1       2.661  -2.774   2.046  0.00  0.00    -0.031 A 
ATOM      4  C4  IND d   1       2.729  -3.850   4.384  0.00  0.00     0.051 A 
ATOM      5  C5  IND d   1       2.267  -3.684   5.659  0.00  0.00    -0.031 A 
ATOM      6  C6  IND d   1       1.413  -2.655   5.997  0.00  0.00     0.015 A 
ATOM      7  C7  IND d   1       0.977  -1.755   5.066  0.00  0.00    -0.016 A 
ATOM      8  C8  IND d   1       1.450  -1.916   3.771  0.00  0.00    -0.047 A 
ATOM      9  C9  IND d   1       2.351  -2.933   3.431  0.00  0.00    -0.096 A 
ATOM     10  HN1 IND d   1       0.706  -0.487   2.577  0.00  0.00     0.298 HD
ENDROOT
TORSDOF 0
ENDMDL
