MODEL 1
REMARK minimizedAffinity 17.5330143
REMARK minimizedRMSD -1
REMARK  0 active torsions:
REMARK  status: ('A' for Active; 'I' for Inactive)
ROOT
ATOM      1  N1  IND d   1      -3.559   1.214  -3.558  0.00  0.00    -0.196 N 
ATOM      2  C2  IND d   1      -3.496   1.033  -2.204  0.00  0.00     0.054 A 
ATOM      3  C3  IND d   1      -3.501   2.227  -1.570  0.00  0.00    -0.031 A 
ATOM      4  C4  IND d   1      -3.709   4.599  -2.548  0.00  0.00     0.051 A 
ATOM      5  C5  IND d   1      -3.756   5.274  -3.736  0.00  0.00    -0.031 A 
ATOM      6  C6  IND d   1      -3.742   4.617  -4.949  0.00  0.00     0.015 A 
ATOM      7  C7  IND d   1      -3.692   3.254  -5.020  0.00  0.00    -0.016 A 
ATOM      8  C8  IND d   1      -3.637   2.565  -3.817  0.00  0.00    -0.047 A 
ATOM      9  C9  IND d   1      -3.608   3.228  -2.583  0.00  0.00    -0.096 A 
ATOM     10  HN1 IND d   1      -3.551   0.589  -4.149  0.00  0.00     0.298 HD
ENDROOT
TORSDOF 0
ENDMDL
