MODEL 1
REMARK minimizedAffinity 12.5526991
REMARK minimizedRMSD -1
REMARK  0 active torsions:
REMARK  status: ('A' for Active; 'I' for Inactive)
ROOT
ATOM      1  N1  IND d   1       1.455  -3.414   2.707  0.00  0.00    -0.196 N 
ATOM      2  C2  IND d   1       1.444  -2.625   1.591  0.00  0.00     0.054 A 
ATOM      3  C3  IND d   1       1.125  -1.353   1.918  0.00  0.00    -0.031 A 
ATOM      4  C4  IND d   1       0.681  -0.321   4.234  0.00  0.00     0.051 A 
ATOM      5  C5  IND d   1       0.543  -0.653   5.553  0.00  0.00    -0.031 A 
ATOM      6  C6  IND d   1       0.708  -1.948   6.000  0.00  0.00     0.015 A 
ATOM      7  C7  IND d   1       1.030  -2.962   5.142  0.00  0.00    -0.016 A 
ATOM      8  C8  IND d   1       1.164  -2.630   3.802  0.00  0.00    -0.047 A 
ATOM      9  C9  IND d   1       0.956  -1.325   3.336  0.00  0.00    -0.096 A 
ATOM     10  HN1 IND d   1       1.617  -4.258   2.723  0.00  0.00     0.298 HD
ENDROOT
TORSDOF 0
ENDMDL
