MODEL 1
REMARK minimizedAffinity 9.03816986
REMARK minimizedRMSD -1
REMARK  0 active torsions:
REMARK  status: ('A' for Active; 'I' for Inactive)
ROOT
ATOM      1  N1  IND d   1       1.086  -1.551   5.236  0.00  0.00    -0.196 N 
ATOM      2  C2  IND d   1       1.362  -2.651   5.999  0.00  0.00     0.054 A 
ATOM      3  C3  IND d   1       1.769  -3.676   5.216  0.00  0.00    -0.031 A 
ATOM      4  C4  IND d   1       2.152  -3.737   2.671  0.00  0.00     0.051 A 
ATOM      5  C5  IND d   1       2.001  -2.984   1.540  0.00  0.00    -0.031 A 
ATOM      6  C6  IND d   1       1.531  -1.687   1.585  0.00  0.00     0.015 A 
ATOM      7  C7  IND d   1       1.203  -1.089   2.769  0.00  0.00    -0.016 A 
ATOM      8  C8  IND d   1       1.348  -1.853   3.918  0.00  0.00    -0.047 A 
ATOM      9  C9  IND d   1       1.785  -3.184   3.875  0.00  0.00    -0.096 A 
ATOM     10  HN1 IND d   1       0.797  -0.796   5.531  0.00  0.00     0.298 HD
ENDROOT
TORSDOF 0
ENDMDL
