MODEL 1
REMARK minimizedAffinity 11.9606094
REMARK minimizedRMSD -1
REMARK  0 active torsions:
REMARK  status: ('A' for Active; 'I' for Inactive)
ROOT
ATOM      1  N1  IND d   1       0.914  -4.797  -2.950  0.00  0.00    -0.196 N 
ATOM      2  C2  IND d   1       2.270  -4.857  -2.783  0.00  0.00     0.054 A 
ATOM      3  C3  IND d   1       2.576  -5.014  -1.476  0.00  0.00    -0.031 A 
ATOM      4  C4  IND d   1       1.010  -5.296   0.548  0.00  0.00     0.051 A 
ATOM      5  C5  IND d   1      -0.310  -5.273   0.900  0.00  0.00    -0.031 A 
ATOM      6  C6  IND d   1      -1.310  -5.089  -0.033  0.00  0.00     0.015 A 
ATOM      7  C7  IND d   1      -1.027  -4.931  -1.360  0.00  0.00    -0.016 A 
ATOM      8  C8  IND d   1       0.314  -4.948  -1.720  0.00  0.00    -0.047 A 
ATOM      9  C9  IND d   1       1.335  -5.092  -0.772  0.00  0.00    -0.096 A 
ATOM     10  HN1 IND d   1       0.506  -4.683  -3.698  0.00  0.00     0.298 HD
ENDROOT
TORSDOF 0
ENDMDL
