MODEL 1
REMARK minimizedAffinity -3.20036173
REMARK minimizedRMSD -1
REMARK  0 active torsions:
REMARK  status: ('A' for Active; 'I' for Inactive)
ROOT
ATOM      1  C2' OXE d   1       0.279   0.087   0.242  0.00  0.00     0.078 C 
ATOM      2  C1' OXE d   1      -1.483   0.472  -1.909  0.00  0.00     0.078 C 
ATOM      3  C1  OXE d   1      -1.091  -0.943  -1.566  0.00  0.00    -0.078 A 
ATOM      4  C2  OXE d   1      -0.192  -1.119  -0.542  0.00  0.00    -0.078 A 
ATOM      5  C3  OXE d   1       0.161  -2.407  -0.149  0.00  0.00     0.003 A 
ATOM      6  C4  OXE d   1      -0.271  -3.517  -0.885  0.00  0.00    -0.002 A 
ATOM      7  C5  OXE d   1      -1.156  -3.357  -1.956  0.00  0.00    -0.002 A 
ATOM      8  C6  OXE d   1      -1.608  -2.083  -2.282  0.00  0.00     0.003 A 
ENDROOT
TORSDOF 0
ENDMDL
