MODEL 1
REMARK minimizedAffinity -3.08493733
REMARK minimizedRMSD -1
REMARK  0 active torsions:
REMARK  status: ('A' for Active; 'I' for Inactive)
ROOT
ATOM      1  C2' OXE d   1      -0.030   3.117  -0.312  0.00  0.00     0.078 C 
ATOM      2  C1' OXE d   1      -2.291   1.918   0.843  0.00  0.00     0.078 C 
ATOM      3  C1  OXE d   1      -1.177   1.015   0.377  0.00  0.00    -0.078 A 
ATOM      4  C2  OXE d   1      -0.095   1.607  -0.230  0.00  0.00    -0.078 A 
ATOM      5  C3  OXE d   1       0.985   0.824  -0.629  0.00  0.00     0.003 A 
ATOM      6  C4  OXE d   1       0.913  -0.572  -0.558  0.00  0.00    -0.002 A 
ATOM      7  C5  OXE d   1      -0.197  -1.198   0.020  0.00  0.00    -0.002 A 
ATOM      8  C6  OXE d   1      -1.230  -0.418   0.530  0.00  0.00     0.003 A 
ENDROOT
TORSDOF 0
ENDMDL
