MODEL 1
REMARK minimizedAffinity -3.98170805
REMARK minimizedRMSD -1
REMARK  0 active torsions:
REMARK  status: ('A' for Active; 'I' for Inactive)
ROOT
ATOM      1  C2' OXE d   1      -1.882   1.868   0.061  0.00  0.00     0.078 C 
ATOM      2  C1' OXE d   1      -1.040  -0.766  -0.422  0.00  0.00     0.078 C 
ATOM      3  C1  OXE d   1      -0.012   0.222   0.069  0.00  0.00    -0.078 A 
ATOM      4  C2  OXE d   1      -0.422   1.520   0.259  0.00  0.00    -0.078 A 
ATOM      5  C3  OXE d   1       0.473   2.459   0.764  0.00  0.00     0.003 A 
ATOM      6  C4  OXE d   1       1.823   2.131   0.934  0.00  0.00    -0.002 A 
ATOM      7  C5  OXE d   1       2.270   0.825   0.709  0.00  0.00    -0.002 A 
ATOM      8  C6  OXE d   1       1.359  -0.150   0.318  0.00  0.00     0.003 A 
ENDROOT
TORSDOF 0
ENDMDL
