MODEL 1
REMARK minimizedAffinity -3.98369598
REMARK minimizedRMSD -1
REMARK  0 active torsions:
REMARK  status: ('A' for Active; 'I' for Inactive)
ROOT
ATOM      1  C2' OXE d   1       0.130   3.199  -0.332  0.00  0.00     0.078 C 
ATOM      2  C1' OXE d   1      -2.067   1.732   0.616  0.00  0.00     0.078 C 
ATOM      3  C1  OXE d   1      -0.762   1.000   0.425  0.00  0.00    -0.078 A 
ATOM      4  C2  OXE d   1       0.295   1.715  -0.084  0.00  0.00    -0.078 A 
ATOM      5  C3  OXE d   1       1.536   1.102  -0.229  0.00  0.00     0.003 A 
ATOM      6  C4  OXE d   1       1.678  -0.273  -0.006  0.00  0.00    -0.002 A 
ATOM      7  C5  OXE d   1       0.604  -1.028   0.474  0.00  0.00    -0.002 A 
ATOM      8  C6  OXE d   1      -0.609  -0.400   0.735  0.00  0.00     0.003 A 
ENDROOT
TORSDOF 0
ENDMDL
