MODEL 1
REMARK minimizedAffinity -3.64378548
REMARK minimizedRMSD -1
REMARK  0 active torsions:
REMARK  status: ('A' for Active; 'I' for Inactive)
ROOT
ATOM      1  C2' OXE d   1       0.219  -1.031   0.187  0.00  0.00     0.078 C 
ATOM      2  C1' OXE d   1       2.815  -0.048   0.602  0.00  0.00     0.078 C 
ATOM      3  C1  OXE d   1       1.676   0.940   0.630  0.00  0.00    -0.078 A 
ATOM      4  C2  OXE d   1       0.414   0.457   0.380  0.00  0.00    -0.078 A 
ATOM      5  C3  OXE d   1      -0.679   1.317   0.448  0.00  0.00     0.003 A 
ATOM      6  C4  OXE d   1      -0.489   2.694   0.617  0.00  0.00    -0.002 A 
ATOM      7  C5  OXE d   1       0.793   3.212   0.835  0.00  0.00    -0.002 A 
ATOM      8  C6  OXE d   1       1.879   2.345   0.886  0.00  0.00     0.003 A 
ENDROOT
TORSDOF 0
ENDMDL
