MODEL 1
REMARK minimizedAffinity -4.61851549
REMARK minimizedRMSD -1
REMARK  0 active torsions:
REMARK  status: ('A' for Active; 'I' for Inactive)
ROOT
ATOM      1  C2' OXE d   1      -1.342   2.983   2.568  0.00  0.00     0.078 C 
ATOM      2  C1' OXE d   1      -1.956   0.759   0.968  0.00  0.00     0.078 C 
ATOM      3  C1  OXE d   1      -0.677   1.504   0.677  0.00  0.00    -0.078 A 
ATOM      4  C2  OXE d   1      -0.408   2.619   1.434  0.00  0.00    -0.078 A 
ATOM      5  C3  OXE d   1       0.784   3.311   1.243  0.00  0.00     0.003 A 
ATOM      6  C4  OXE d   1       1.638   2.974   0.186  0.00  0.00    -0.002 A 
ATOM      7  C5  OXE d   1       1.363   1.866  -0.623  0.00  0.00    -0.002 A 
ATOM      8  C6  OXE d   1       0.234   1.097  -0.364  0.00  0.00     0.003 A 
ENDROOT
TORSDOF 0
ENDMDL
