MODEL 1
REMARK minimizedAffinity -1.17872369
REMARK minimizedRMSD -1
REMARK  0 active torsions:
REMARK  status: ('A' for Active; 'I' for Inactive)
ROOT
ATOM      1  C2' OXE d   1      -1.929   0.578   0.623  0.00  0.00     0.078 C 
ATOM      2  C1' OXE d   1       0.037   2.582   0.616  0.00  0.00     0.078 C 
ATOM      3  C1  OXE d   1       0.486   1.156   0.422  0.00  0.00    -0.078 A 
ATOM      4  C2  OXE d   1      -0.477   0.177   0.473  0.00  0.00    -0.078 A 
ATOM      5  C3  OXE d   1      -0.124  -1.150   0.246  0.00  0.00     0.003 A 
ATOM      6  C4  OXE d   1       1.222  -1.514   0.119  0.00  0.00    -0.002 A 
ATOM      7  C5  OXE d   1       2.223  -0.537   0.103  0.00  0.00    -0.002 A 
ATOM      8  C6  OXE d   1       1.869   0.803   0.211  0.00  0.00     0.003 A 
ENDROOT
TORSDOF 0
ENDMDL
