MODEL 1
REMARK minimizedAffinity -5.01044893
REMARK minimizedRMSD -1
REMARK  0 active torsions:
REMARK  status: ('A' for Active; 'I' for Inactive)
ROOT
ATOM      1  C2' OXE d   1       0.088   2.033   0.819  0.00  0.00     0.078 C 
ATOM      2  C1' OXE d   1      -2.055   0.355   1.503  0.00  0.00     0.078 C 
ATOM      3  C1  OXE d   1      -0.735  -0.292   1.166  0.00  0.00    -0.078 A 
ATOM      4  C2  OXE d   1       0.295   0.534   0.787  0.00  0.00    -0.078 A 
ATOM      5  C3  OXE d   1       1.549  -0.007   0.519  0.00  0.00     0.003 A 
ATOM      6  C4  OXE d   1       1.730  -1.395   0.482  0.00  0.00    -0.002 A 
ATOM      7  C5  OXE d   1       0.682  -2.256   0.826  0.00  0.00    -0.002 A 
ATOM      8  C6  OXE d   1      -0.542  -1.720   1.211  0.00  0.00     0.003 A 
ENDROOT
TORSDOF 0
ENDMDL
