MODEL 1
REMARK minimizedAffinity -4.70535564
REMARK minimizedRMSD -1
REMARK  0 active torsions:
REMARK  status: ('A' for Active; 'I' for Inactive)
ROOT
ATOM      1  C2' OXE d   1       0.715  -1.570   0.509  0.00  0.00     0.078 C 
ATOM      2  C1' OXE d   1       2.376   0.647   0.056  0.00  0.00     0.078 C 
ATOM      3  C1  OXE d   1       0.897   0.897   0.213  0.00  0.00    -0.078 A 
ATOM      4  C2  OXE d   1       0.086  -0.199   0.388  0.00  0.00    -0.078 A 
ATOM      5  C3  OXE d   1      -1.279  -0.020   0.592  0.00  0.00     0.003 A 
ATOM      6  C4  OXE d   1      -1.854   1.250   0.468  0.00  0.00    -0.002 A 
ATOM      7  C5  OXE d   1      -1.051   2.375   0.250  0.00  0.00    -0.002 A 
ATOM      8  C6  OXE d   1       0.328   2.221   0.163  0.00  0.00     0.003 A 
ENDROOT
TORSDOF 0
ENDMDL
