MODEL 1
REMARK minimizedAffinity -4.5672102
REMARK minimizedRMSD -1
REMARK  0 active torsions:
REMARK  status: ('A' for Active; 'I' for Inactive)
ROOT
ATOM      1  C2' OXE d   1      -0.315   2.506   0.070  0.00  0.00     0.078 C 
ATOM      2  C1' OXE d   1      -2.466   0.733   0.396  0.00  0.00     0.078 C 
ATOM      3  C1  OXE d   1      -1.072   0.157   0.404  0.00  0.00    -0.078 A 
ATOM      4  C2  OXE d   1      -0.028   1.026   0.196  0.00  0.00    -0.078 A 
ATOM      5  C3  OXE d   1       1.281   0.555   0.249  0.00  0.00     0.003 A 
ATOM      6  C4  OXE d   1       1.537  -0.817   0.356  0.00  0.00    -0.002 A 
ATOM      7  C5  OXE d   1       0.486  -1.724   0.528  0.00  0.00    -0.002 A 
ATOM      8  C6  OXE d   1      -0.819  -1.250   0.597  0.00  0.00     0.003 A 
ENDROOT
TORSDOF 0
ENDMDL
