MODEL 1
REMARK minimizedAffinity -2.9978416
REMARK minimizedRMSD -1
REMARK  0 active torsions:
REMARK  status: ('A' for Active; 'I' for Inactive)
ROOT
ATOM      1  C2' OXE d   1      -0.384  -1.496  -0.034  0.00  0.00     0.078 C 
ATOM      2  C1' OXE d   1      -1.994   0.748   0.469  0.00  0.00     0.078 C 
ATOM      3  C1  OXE d   1      -0.497   0.932   0.509  0.00  0.00    -0.078 A 
ATOM      4  C2  OXE d   1       0.283  -0.181   0.308  0.00  0.00    -0.078 A 
ATOM      5  C3  OXE d   1       1.669  -0.056   0.280  0.00  0.00     0.003 A 
ATOM      6  C4  OXE d   1       2.277   1.162   0.607  0.00  0.00    -0.002 A 
ATOM      7  C5  OXE d   1       1.501   2.299   0.855  0.00  0.00    -0.002 A 
ATOM      8  C6  OXE d   1       0.116   2.211   0.768  0.00  0.00     0.003 A 
ENDROOT
TORSDOF 0
ENDMDL
