MODEL 1
REMARK minimizedAffinity -1.77797306
REMARK minimizedRMSD -1
REMARK  0 active torsions:
REMARK  status: ('A' for Active; 'I' for Inactive)
ROOT
ATOM      1  C2' OXE d   1      -1.561   0.990  -0.007  0.00  0.00     0.078 C 
ATOM      2  C1' OXE d   1       0.896  -0.277   0.481  0.00  0.00     0.078 C 
ATOM      3  C1  OXE d   1      -0.047  -0.925  -0.502  0.00  0.00    -0.078 A 
ATOM      4  C2  OXE d   1      -1.266  -0.323  -0.700  0.00  0.00    -0.078 A 
ATOM      5  C3  OXE d   1      -2.152  -0.849  -1.636  0.00  0.00     0.003 A 
ATOM      6  C4  OXE d   1      -1.876  -2.069  -2.265  0.00  0.00    -0.002 A 
ATOM      7  C5  OXE d   1      -0.657  -2.720  -2.048  0.00  0.00    -0.002 A 
ATOM      8  C6  OXE d   1       0.284  -2.141  -1.204  0.00  0.00     0.003 A 
ENDROOT
TORSDOF 0
ENDMDL
