MODEL 1
REMARK minimizedAffinity -4.76431513
REMARK minimizedRMSD -1
REMARK  0 active torsions:
REMARK  status: ('A' for Active; 'I' for Inactive)
ROOT
ATOM      1  C2' OXE d   1       0.375  -1.148  -0.090  0.00  0.00     0.078 C 
ATOM      2  C1' OXE d   1      -1.478   0.921   0.319  0.00  0.00     0.078 C 
ATOM      3  C1  OXE d   1      -0.013   1.249   0.466  0.00  0.00    -0.078 A 
ATOM      4  C2  OXE d   1       0.884   0.220   0.310  0.00  0.00    -0.078 A 
ATOM      5  C3  OXE d   1       2.250   0.480   0.381  0.00  0.00     0.003 A 
ATOM      6  C4  OXE d   1       2.712   1.746   0.761  0.00  0.00    -0.002 A 
ATOM      7  C5  OXE d   1       1.813   2.798   0.964  0.00  0.00    -0.002 A 
ATOM      8  C6  OXE d   1       0.453   2.578   0.779  0.00  0.00     0.003 A 
ENDROOT
TORSDOF 0
ENDMDL
