MODEL 1
REMARK minimizedAffinity -5.97619247
REMARK minimizedRMSD -1
REMARK  0 active torsions:
REMARK  status: ('A' for Active; 'I' for Inactive)
ROOT
ATOM      1  C2' OXE d   1      -1.848   1.019   0.835  0.00  0.00     0.078 C 
ATOM      2  C1' OXE d   1       0.019  -1.055   0.525  0.00  0.00     0.078 C 
ATOM      3  C1  OXE d   1       0.433   0.333   0.103  0.00  0.00    -0.078 A 
ATOM      4  C2  OXE d   1      -0.503   1.333   0.215  0.00  0.00    -0.078 A 
ATOM      5  C3  OXE d   1      -0.156   2.642  -0.109  0.00  0.00     0.003 A 
ATOM      6  C4  OXE d   1       1.086   2.922  -0.691  0.00  0.00    -0.002 A 
ATOM      7  C5  OXE d   1       2.040   1.911  -0.850  0.00  0.00    -0.002 A 
ATOM      8  C6  OXE d   1       1.745   0.622  -0.420  0.00  0.00     0.003 A 
ENDROOT
TORSDOF 0
ENDMDL
