MODEL 1
REMARK minimizedAffinity -5.9714222
REMARK minimizedRMSD -1
REMARK  0 active torsions:
REMARK  status: ('A' for Active; 'I' for Inactive)
ROOT
ATOM      1  C2' OXE d   1      -2.080   0.403   0.867  0.00  0.00     0.078 C 
ATOM      2  C1' OXE d   1       0.073  -1.182   0.011  0.00  0.00     0.078 C 
ATOM      3  C1  OXE d   1       0.274   0.313   0.057  0.00  0.00    -0.078 A 
ATOM      4  C2  OXE d   1      -0.799   1.084   0.433  0.00  0.00    -0.078 A 
ATOM      5  C3  OXE d   1      -0.652   2.463   0.545  0.00  0.00     0.003 A 
ATOM      6  C4  OXE d   1       0.532   3.085   0.131  0.00  0.00    -0.002 A 
ATOM      7  C5  OXE d   1       1.625   2.321  -0.292  0.00  0.00    -0.002 A 
ATOM      8  C6  OXE d   1       1.527   0.934  -0.295  0.00  0.00     0.003 A 
ENDROOT
TORSDOF 0
ENDMDL
