MODEL 1
REMARK minimizedAffinity -2.5512569
REMARK minimizedRMSD -1
REMARK  0 active torsions:
REMARK  status: ('A' for Active; 'I' for Inactive)
ROOT
ATOM      1  C2' OXE d   1       0.041  -1.181  -0.674  0.00  0.00     0.078 C 
ATOM      2  C1' OXE d   1      -1.719  -0.155   1.256  0.00  0.00     0.078 C 
ATOM      3  C1  OXE d   1      -0.731   0.796   0.630  0.00  0.00    -0.078 A 
ATOM      4  C2  OXE d   1       0.158   0.275  -0.280  0.00  0.00    -0.078 A 
ATOM      5  C3  OXE d   1       1.055   1.119  -0.928  0.00  0.00     0.003 A 
ATOM      6  C4  OXE d   1       1.164   2.463  -0.551  0.00  0.00    -0.002 A 
ATOM      7  C5  OXE d   1       0.295   3.005   0.402  0.00  0.00    -0.002 A 
ATOM      8  C6  OXE d   1      -0.684   2.197   0.970  0.00  0.00     0.003 A 
ENDROOT
TORSDOF 0
ENDMDL
