MODEL 1
REMARK minimizedAffinity -2.50127077
REMARK minimizedRMSD -1
REMARK  0 active torsions:
REMARK  status: ('A' for Active; 'I' for Inactive)
ROOT
ATOM      1  C2' OXE d   1       1.335   0.402  -0.330  0.00  0.00     0.078 C 
ATOM      2  C1' OXE d   1      -1.136  -0.078   0.915  0.00  0.00     0.078 C 
ATOM      3  C1  OXE d   1      -0.680  -1.051  -0.143  0.00  0.00    -0.078 A 
ATOM      4  C2  OXE d   1       0.508  -0.783  -0.780  0.00  0.00    -0.078 A 
ATOM      5  C3  OXE d   1       1.001  -1.679  -1.724  0.00  0.00     0.003 A 
ATOM      6  C4  OXE d   1       0.225  -2.767  -2.142  0.00  0.00    -0.002 A 
ATOM      7  C5  OXE d   1      -1.006  -3.036  -1.535  0.00  0.00    -0.002 A 
ATOM      8  C6  OXE d   1      -1.452  -2.214  -0.506  0.00  0.00     0.003 A 
ENDROOT
TORSDOF 0
ENDMDL
