MODEL 1
REMARK minimizedAffinity -4.85201788
REMARK minimizedRMSD -1
REMARK  0 active torsions:
REMARK  status: ('A' for Active; 'I' for Inactive)
ROOT
ATOM      1  C2' OXE d   1      -2.091   0.419   0.694  0.00  0.00     0.078 C 
ATOM      2  C1' OXE d   1       0.213  -0.754  -0.400  0.00  0.00     0.078 C 
ATOM      3  C1  OXE d   1       0.240   0.729  -0.127  0.00  0.00    -0.078 A 
ATOM      4  C2  OXE d   1      -0.908   1.303   0.364  0.00  0.00    -0.078 A 
ATOM      5  C3  OXE d   1      -0.919   2.658   0.685  0.00  0.00     0.003 A 
ATOM      6  C4  OXE d   1       0.176   3.470   0.368  0.00  0.00    -0.002 A 
ATOM      7  C5  OXE d   1       1.341   2.913  -0.170  0.00  0.00    -0.002 A 
ATOM      8  C6  OXE d   1       1.404   1.540  -0.384  0.00  0.00     0.003 A 
ENDROOT
TORSDOF 0
ENDMDL
