MODEL 1
REMARK minimizedAffinity -3.13778996
REMARK minimizedRMSD -1
REMARK  0 active torsions:
REMARK  status: ('A' for Active; 'I' for Inactive)
ROOT
ATOM      1  C   UNL d   1      -0.042   0.627   0.018  0.00  0.00     0.172 C 
ATOM      2  N   UNL d   1      -0.518  -0.733   0.114  0.00  0.00    -0.070 N 
ATOM      3  C1  UNL d   1      -0.380  -1.697  -0.848  0.00  0.00    -0.004 A 
ATOM      4  C2  UNL d   1      -0.964  -2.852  -0.375  0.00  0.00    -0.047 A 
ATOM      5  C3  UNL d   1      -1.472  -2.572   0.916  0.00  0.00    -0.047 A 
ATOM      6  C4  UNL d   1      -1.182  -1.253   1.194  0.00  0.00    -0.004 A 
ENDROOT
TORSDOF 0
ENDMDL
