MODEL 1
REMARK minimizedAffinity -3.90227818
REMARK minimizedRMSD -1
REMARK  0 active torsions:
REMARK  status: ('A' for Active; 'I' for Inactive)
ROOT
ATOM      1  C   UNL d   1      -0.295   0.568  -0.606  0.00  0.00     0.172 C 
ATOM      2  N   UNL d   1      -0.246  -0.871  -0.495  0.00  0.00    -0.070 N 
ATOM      3  C1  UNL d   1      -0.454  -1.591   0.652  0.00  0.00    -0.004 A 
ATOM      4  C2  UNL d   1      -0.321  -2.927   0.341  0.00  0.00    -0.047 A 
ATOM      5  C3  UNL d   1      -0.022  -3.013  -1.039  0.00  0.00    -0.047 A 
ATOM      6  C4  UNL d   1       0.018  -1.726  -1.532  0.00  0.00    -0.004 A 
ENDROOT
TORSDOF 0
ENDMDL
