MODEL 1
REMARK minimizedAffinity -4.04435205
REMARK minimizedRMSD -1
REMARK  0 active torsions:
REMARK  status: ('A' for Active; 'I' for Inactive)
ROOT
ATOM      1  C   UNL d   1      -1.965  -0.355   1.062  0.00  0.00     0.172 C 
ATOM      2  N   UNL d   1      -0.948  -1.324   0.727  0.00  0.00    -0.070 N 
ATOM      3  C1  UNL d   1      -1.145  -2.671   0.585  0.00  0.00    -0.004 A 
ATOM      4  C2  UNL d   1       0.067  -3.244   0.264  0.00  0.00    -0.047 A 
ATOM      5  C3  UNL d   1       1.026  -2.204   0.211  0.00  0.00    -0.047 A 
ATOM      6  C4  UNL d   1       0.370  -1.026   0.502  0.00  0.00    -0.004 A 
ENDROOT
TORSDOF 0
ENDMDL
