MODEL 1
REMARK minimizedAffinity -3.32782269
REMARK minimizedRMSD -1
REMARK  0 active torsions:
REMARK  status: ('A' for Active; 'I' for Inactive)
ROOT
ATOM      1  C   UNL d   1       0.035   0.090   0.014  0.00  0.00     0.172 C 
ATOM      2  N   UNL d   1       0.622   1.384   0.274  0.00  0.00    -0.070 N 
ATOM      3  C1  UNL d   1       1.938   1.618   0.573  0.00  0.00    -0.004 A 
ATOM      4  C2  UNL d   1       2.095   2.975   0.751  0.00  0.00    -0.047 A 
ATOM      5  C3  UNL d   1       0.830   3.578   0.553  0.00  0.00    -0.047 A 
ATOM      6  C4  UNL d   1      -0.064   2.569   0.260  0.00  0.00    -0.004 A 
ENDROOT
TORSDOF 0
ENDMDL
