MODEL 1
REMARK minimizedAffinity -1.99607289
REMARK minimizedRMSD -1
REMARK  0 active torsions:
REMARK  status: ('A' for Active; 'I' for Inactive)
ROOT
ATOM      1  C   UNL d   1       0.199   1.155   0.221  0.00  0.00     0.172 C 
ATOM      2  N   UNL d   1      -0.394  -0.159   0.297  0.00  0.00    -0.070 N 
ATOM      3  C1  UNL d   1      -1.520  -0.487   1.004  0.00  0.00    -0.004 A 
ATOM      4  C2  UNL d   1      -1.756  -1.833   0.821  0.00  0.00    -0.047 A 
ATOM      5  C3  UNL d   1      -0.736  -2.331  -0.024  0.00  0.00    -0.047 A 
ATOM      6  C4  UNL d   1       0.094  -1.274  -0.333  0.00  0.00    -0.004 A 
ENDROOT
TORSDOF 0
ENDMDL
