MODEL 1
REMARK minimizedAffinity -3.67300677
REMARK minimizedRMSD -1
REMARK  0 active torsions:
REMARK  status: ('A' for Active; 'I' for Inactive)
ROOT
ATOM      1  C   UNL d   1      -1.897   0.177   1.160  0.00  0.00     0.172 C 
ATOM      2  N   UNL d   1      -1.060  -0.961   0.863  0.00  0.00    -0.070 N 
ATOM      3  C1  UNL d   1      -1.452  -2.273   0.903  0.00  0.00    -0.004 A 
ATOM      4  C2  UNL d   1      -0.367  -3.048   0.554  0.00  0.00    -0.047 A 
ATOM      5  C3  UNL d   1       0.714  -2.173   0.297  0.00  0.00    -0.047 A 
ATOM      6  C4  UNL d   1       0.258  -0.887   0.495  0.00  0.00    -0.004 A 
ENDROOT
TORSDOF 0
ENDMDL
