MODEL 1
REMARK minimizedAffinity -3.90994143
REMARK minimizedRMSD -1
REMARK  0 active torsions:
REMARK  status: ('A' for Active; 'I' for Inactive)
ROOT
ATOM      1  C   UNL d   1       0.286   0.674  -0.127  0.00  0.00     0.172 C 
ATOM      2  N   UNL d   1       0.211  -0.758   0.043  0.00  0.00    -0.070 N 
ATOM      3  C1  UNL d   1       0.692  -1.693  -0.835  0.00  0.00    -0.004 A 
ATOM      4  C2  UNL d   1       0.426  -2.940  -0.311  0.00  0.00    -0.047 A 
ATOM      5  C3  UNL d   1      -0.239  -2.748   0.923  0.00  0.00    -0.047 A 
ATOM      6  C4  UNL d   1      -0.359  -1.388   1.118  0.00  0.00    -0.004 A 
ENDROOT
TORSDOF 0
ENDMDL
