MODEL 1
REMARK minimizedAffinity -2.61783338
REMARK minimizedRMSD -1
REMARK  0 active torsions:
REMARK  status: ('A' for Active; 'I' for Inactive)
ROOT
ATOM      1  C   UNL d   1      -0.227   0.141   0.362  0.00  0.00     0.172 C 
ATOM      2  N   UNL d   1       0.396   1.442   0.283  0.00  0.00    -0.070 N 
ATOM      3  C1  UNL d   1       1.299   1.950   1.177  0.00  0.00    -0.004 A 
ATOM      4  C2  UNL d   1       1.653   3.211   0.749  0.00  0.00    -0.047 A 
ATOM      5  C3  UNL d   1       0.938   3.470  -0.444  0.00  0.00    -0.047 A 
ATOM      6  C4  UNL d   1       0.167   2.358  -0.710  0.00  0.00    -0.004 A 
ENDROOT
TORSDOF 0
ENDMDL
