MODEL 1
REMARK minimizedAffinity -3.5036397
REMARK minimizedRMSD -1
REMARK  0 active torsions:
REMARK  status: ('A' for Active; 'I' for Inactive)
ROOT
ATOM      1  C   UNL d   1       0.495   0.654   0.249  0.00  0.00     0.172 C 
ATOM      2  N   UNL d   1       0.068  -0.705   0.485  0.00  0.00    -0.070 N 
ATOM      3  C1  UNL d   1      -1.131  -1.082   1.029  0.00  0.00    -0.004 A 
ATOM      4  C2  UNL d   1      -1.155  -2.459   1.086  0.00  0.00    -0.047 A 
ATOM      5  C3  UNL d   1       0.073  -2.926   0.560  0.00  0.00    -0.047 A 
ATOM      6  C4  UNL d   1       0.810  -1.819   0.195  0.00  0.00    -0.004 A 
ENDROOT
TORSDOF 0
ENDMDL
