MODEL 1
REMARK minimizedAffinity -1.92984343
REMARK minimizedRMSD -1
REMARK  0 active torsions:
REMARK  status: ('A' for Active; 'I' for Inactive)
ROOT
ATOM      1  C   UNL d   1       1.006   2.493   0.126  0.00  0.00     0.172 C 
ATOM      2  N   UNL d   1       0.732   1.201  -0.458  0.00  0.00    -0.070 N 
ATOM      3  C1  UNL d   1      -0.021   0.976  -1.579  0.00  0.00    -0.004 A 
ATOM      4  C2  UNL d   1      -0.042  -0.383  -1.808  0.00  0.00    -0.047 A 
ATOM      5  C3  UNL d   1       0.724  -0.996  -0.788  0.00  0.00    -0.047 A 
ATOM      6  C4  UNL d   1       1.191   0.008   0.034  0.00  0.00    -0.004 A 
ENDROOT
TORSDOF 0
ENDMDL
