MODEL 1
REMARK minimizedAffinity -3.53042936
REMARK minimizedRMSD -1
REMARK  0 active torsions:
REMARK  status: ('A' for Active; 'I' for Inactive)
ROOT
ATOM      1  C   UNL d   1      -0.185   0.972  -0.222  0.00  0.00     0.172 C 
ATOM      2  N   UNL d   1       0.410   2.185   0.289  0.00  0.00    -0.070 N 
ATOM      3  C1  UNL d   1       1.579   2.746  -0.150  0.00  0.00    -0.004 A 
ATOM      4  C2  UNL d   1       1.801   3.889   0.587  0.00  0.00    -0.047 A 
ATOM      5  C3  UNL d   1       0.728   4.019   1.501  0.00  0.00    -0.047 A 
ATOM      6  C4  UNL d   1      -0.119   2.950   1.294  0.00  0.00    -0.004 A 
ENDROOT
TORSDOF 0
ENDMDL
