MODEL 1
REMARK minimizedAffinity -2.22783589
REMARK minimizedRMSD -1
REMARK  0 active torsions:
REMARK  status: ('A' for Active; 'I' for Inactive)
ROOT
ATOM      1  C   UNL d   1       3.085   3.359  -0.325  0.00  0.00     0.172 C 
ATOM      2  N   UNL d   1       1.963   3.243   0.576  0.00  0.00    -0.070 N 
ATOM      3  C1  UNL d   1       0.680   2.925   0.218  0.00  0.00    -0.004 A 
ATOM      4  C2  UNL d   1      -0.088   2.916   1.362  0.00  0.00    -0.047 A 
ATOM      5  C3  UNL d   1       0.762   3.240   2.446  0.00  0.00    -0.047 A 
ATOM      6  C4  UNL d   1       2.026   3.438   1.931  0.00  0.00    -0.004 A 
ENDROOT
TORSDOF 0
ENDMDL
