MODEL 1
REMARK minimizedAffinity -2.32273746
REMARK minimizedRMSD -1
REMARK  0 active torsions:
REMARK  status: ('A' for Active; 'I' for Inactive)
ROOT
ATOM      1  C   UNL d   1       0.432  -1.819  -0.667  0.00  0.00     0.172 C 
ATOM      2  N   UNL d   1      -0.159  -0.565  -0.261  0.00  0.00    -0.070 N 
ATOM      3  C1  UNL d   1      -1.066  -0.400   0.751  0.00  0.00    -0.004 A 
ATOM      4  C2  UNL d   1      -1.382   0.940   0.821  0.00  0.00    -0.047 A 
ATOM      5  C3  UNL d   1      -0.638   1.603  -0.184  0.00  0.00    -0.047 A 
ATOM      6  C4  UNL d   1       0.110   0.648  -0.839  0.00  0.00    -0.004 A 
ENDROOT
TORSDOF 0
ENDMDL
