MODEL 1
REMARK minimizedAffinity -3.93552637
REMARK minimizedRMSD -1
REMARK  0 active torsions:
REMARK  status: ('A' for Active; 'I' for Inactive)
ROOT
ATOM      1  C4' PXY d   1       3.517  -1.707   0.735  0.00  0.00     0.077 C 
ATOM      2  C1' PXY d   1      -1.553   0.837  -0.378  0.00  0.00     0.077 C 
ATOM      3  C1  PXY d   1      -0.229   0.158  -0.086  0.00  0.00    -0.082 A 
ATOM      4  C2  PXY d   1       0.739   0.839   0.506  0.00  0.00     0.003 A 
ATOM      5  C3  PXY d   1       1.953   0.250   0.749  0.00  0.00     0.003 A 
ATOM      6  C4  PXY d   1       2.161  -1.065   0.430  0.00  0.00    -0.082 A 
ATOM      7  C5  PXY d   1       1.175  -1.769  -0.165  0.00  0.00     0.003 A 
ATOM      8  C6  PXY d   1      -0.036  -1.141  -0.440  0.00  0.00     0.003 A 
ENDROOT
TORSDOF 0
ENDMDL
