MODEL 1
REMARK minimizedAffinity -5.0795207
REMARK minimizedRMSD -1
REMARK  0 active torsions:
REMARK  status: ('A' for Active; 'I' for Inactive)
ROOT
ATOM      1  C4' PXY d   1      -2.294   0.512   0.098  0.00  0.00     0.077 C 
ATOM      2  C1' PXY d   1       3.437  -0.102   0.536  0.00  0.00     0.077 C 
ATOM      3  C1  PXY d   1       1.933   0.046   0.423  0.00  0.00    -0.082 A 
ATOM      4  C2  PXY d   1       1.424   1.093  -0.207  0.00  0.00     0.003 A 
ATOM      5  C3  PXY d   1       0.065   1.259  -0.291  0.00  0.00     0.003 A 
ATOM      6  C4  PXY d   1      -0.781   0.317   0.229  0.00  0.00    -0.082 A 
ATOM      7  C5  PXY d   1      -0.270  -0.759   0.863  0.00  0.00     0.003 A 
ATOM      8  C6  PXY d   1       1.112  -0.888   0.974  0.00  0.00     0.003 A 
ENDROOT
TORSDOF 0
ENDMDL
