MODEL 1
REMARK minimizedAffinity -5.17881584
REMARK minimizedRMSD -1
REMARK  0 active torsions:
REMARK  status: ('A' for Active; 'I' for Inactive)
ROOT
ATOM      1  C4' PXY d   1      -2.128   0.872  -0.097  0.00  0.00     0.077 C 
ATOM      2  C1' PXY d   1       3.012  -1.699   0.522  0.00  0.00     0.077 C 
ATOM      3  C1  PXY d   1       1.661  -1.032   0.349  0.00  0.00    -0.082 A 
ATOM      4  C2  PXY d   1       1.478   0.200   0.795  0.00  0.00     0.003 A 
ATOM      5  C3  PXY d   1       0.254   0.806   0.676  0.00  0.00     0.003 A 
ATOM      6  C4  PXY d   1      -0.779   0.164   0.047  0.00  0.00    -0.082 A 
ATOM      7  C5  PXY d   1      -0.597  -1.090  -0.420  0.00  0.00     0.003 A 
ATOM      8  C6  PXY d   1       0.641  -1.703  -0.252  0.00  0.00     0.003 A 
ENDROOT
TORSDOF 0
ENDMDL
