MODEL 1
REMARK minimizedAffinity -2.97740722
REMARK minimizedRMSD -1
REMARK  0 active torsions:
REMARK  status: ('A' for Active; 'I' for Inactive)
ROOT
ATOM      1  C4' PXY d   1      -2.220   0.558   0.029  0.00  0.00     0.077 C 
ATOM      2  C1' PXY d   1       3.266  -1.253   0.228  0.00  0.00     0.077 C 
ATOM      3  C1  PXY d   1       1.827  -0.781   0.163  0.00  0.00    -0.082 A 
ATOM      4  C2  PXY d   1       1.376   0.068   1.072  0.00  0.00     0.003 A 
ATOM      5  C3  PXY d   1       0.068   0.481   1.047  0.00  0.00     0.003 A 
ATOM      6  C4  PXY d   1      -0.771   0.062   0.050  0.00  0.00    -0.082 A 
ATOM      7  C5  PXY d   1      -0.316  -0.796  -0.887  0.00  0.00     0.003 A 
ATOM      8  C6  PXY d   1       1.004  -1.235  -0.820  0.00  0.00     0.003 A 
ENDROOT
TORSDOF 0
ENDMDL
