MODEL 1
REMARK minimizedAffinity -2.01654458
REMARK minimizedRMSD -1
REMARK  0 active torsions:
REMARK  status: ('A' for Active; 'I' for Inactive)
ROOT
ATOM      1  C4' PXY d   1      -2.553   0.823  -0.537  0.00  0.00     0.077 C 
ATOM      2  C1' PXY d   1       2.693  -1.154   0.873  0.00  0.00     0.077 C 
ATOM      3  C1  PXY d   1       1.319  -0.626   0.512  0.00  0.00    -0.082 A 
ATOM      4  C2  PXY d   1       0.433  -1.435  -0.045  0.00  0.00     0.003 A 
ATOM      5  C3  PXY d   1      -0.804  -0.967  -0.407  0.00  0.00     0.003 A 
ATOM      6  C4  PXY d   1      -1.156   0.331  -0.147  0.00  0.00    -0.082 A 
ATOM      7  C5  PXY d   1      -0.262   1.160   0.431  0.00  0.00     0.003 A 
ATOM      8  C6  PXY d   1       1.003   0.675   0.753  0.00  0.00     0.003 A 
ENDROOT
TORSDOF 0
ENDMDL
