MODEL 1
REMARK minimizedAffinity -5.22762966
REMARK minimizedRMSD -1
REMARK  0 active torsions:
REMARK  status: ('A' for Active; 'I' for Inactive)
ROOT
ATOM      1  C4' PXY d   1      -2.029   0.846  -0.186  0.00  0.00     0.077 C 
ATOM      2  C1' PXY d   1       3.545  -0.230   0.903  0.00  0.00     0.077 C 
ATOM      3  C1  PXY d   1       2.086   0.065   0.617  0.00  0.00    -0.082 A 
ATOM      4  C2  PXY d   1       1.159  -0.805   0.985  0.00  0.00     0.003 A 
ATOM      5  C3  PXY d   1      -0.163  -0.569   0.705  0.00  0.00     0.003 A 
ATOM      6  C4  PXY d   1      -0.544   0.594   0.091  0.00  0.00    -0.082 A 
ATOM      7  C5  PXY d   1       0.395   1.491  -0.278  0.00  0.00     0.003 A 
ATOM      8  C6  PXY d   1       1.735   1.213  -0.022  0.00  0.00     0.003 A 
ENDROOT
TORSDOF 0
ENDMDL
