MODEL 1
REMARK minimizedAffinity -5.35831928
REMARK minimizedRMSD -1
REMARK  0 active torsions:
REMARK  status: ('A' for Active; 'I' for Inactive)
ROOT
ATOM      1  C4' PXY d   1       3.859  -0.226   0.677  0.00  0.00     0.077 C 
ATOM      2  C1' PXY d   1      -1.694   0.643  -0.671  0.00  0.00     0.077 C 
ATOM      3  C1  PXY d   1      -0.235   0.427  -0.322  0.00  0.00    -0.082 A 
ATOM      4  C2  PXY d   1       0.241  -0.805  -0.233  0.00  0.00     0.003 A 
ATOM      5  C3  PXY d   1       1.550  -1.019   0.113  0.00  0.00     0.003 A 
ATOM      6  C4  PXY d   1       2.395   0.039   0.318  0.00  0.00    -0.082 A 
ATOM      7  C5  PXY d   1       1.920   1.299   0.219  0.00  0.00     0.003 A 
ATOM      8  C6  PXY d   1       0.577   1.494  -0.093  0.00  0.00     0.003 A 
ENDROOT
TORSDOF 0
ENDMDL
