MODEL 1
REMARK minimizedAffinity -4.98108435
REMARK minimizedRMSD -1
REMARK  0 active torsions:
REMARK  status: ('A' for Active; 'I' for Inactive)
ROOT
ATOM      1  C4' PXY d   1      -1.464   0.991  -1.118  0.00  0.00     0.077 C 
ATOM      2  C1' PXY d   1       3.138  -1.497   1.342  0.00  0.00     0.077 C 
ATOM      3  C1  PXY d   1       1.932  -0.853   0.687  0.00  0.00    -0.082 A 
ATOM      4  C2  PXY d   1       1.606   0.392   0.997  0.00  0.00     0.003 A 
ATOM      5  C3  PXY d   1       0.500   0.979   0.438  0.00  0.00     0.003 A 
ATOM      6  C4  PXY d   1      -0.249   0.304  -0.488  0.00  0.00    -0.082 A 
ATOM      7  C5  PXY d   1       0.083  -0.962  -0.818  0.00  0.00     0.003 A 
ATOM      8  C6  PXY d   1       1.186  -1.555  -0.209  0.00  0.00     0.003 A 
ENDROOT
TORSDOF 0
ENDMDL
