MODEL 1
REMARK minimizedAffinity -4.981215
REMARK minimizedRMSD -1
REMARK  0 active torsions:
REMARK  status: ('A' for Active; 'I' for Inactive)
ROOT
ATOM      1  C4' PXY d   1      -1.388   0.310  -0.473  0.00  0.00     0.077 C 
ATOM      2  C1' PXY d   1       3.894  -1.204   1.323  0.00  0.00     0.077 C 
ATOM      3  C1  PXY d   1       2.509  -0.817   0.844  0.00  0.00    -0.082 A 
ATOM      4  C2  PXY d   1       2.107   0.439   0.950  0.00  0.00     0.003 A 
ATOM      5  C3  PXY d   1       0.846   0.800   0.551  0.00  0.00     0.003 A 
ATOM      6  C4  PXY d   1       0.006  -0.124  -0.011  0.00  0.00    -0.082 A 
ATOM      7  C5  PXY d   1       0.412  -1.406  -0.133  0.00  0.00     0.003 A 
ATOM      8  C6  PXY d   1       1.681  -1.760   0.316  0.00  0.00     0.003 A 
ENDROOT
TORSDOF 0
ENDMDL
