MODEL 1
REMARK minimizedAffinity -4.12943745
REMARK minimizedRMSD -1
REMARK  0 active torsions:
REMARK  status: ('A' for Active; 'I' for Inactive)
ROOT
ATOM      1  C4' PXY d   1      -2.388   0.980  -0.079  0.00  0.00     0.077 C 
ATOM      2  C1' PXY d   1       2.855  -1.390   0.482  0.00  0.00     0.077 C 
ATOM      3  C1  PXY d   1       1.482  -0.761   0.345  0.00  0.00    -0.082 A 
ATOM      4  C2  PXY d   1       0.532  -1.401  -0.317  0.00  0.00     0.003 A 
ATOM      5  C3  PXY d   1      -0.705  -0.833  -0.477  0.00  0.00     0.003 A 
ATOM      6  C4  PXY d   1      -0.990   0.379   0.092  0.00  0.00    -0.082 A 
ATOM      7  C5  PXY d   1      -0.030   1.034   0.778  0.00  0.00     0.003 A 
ATOM      8  C6  PXY d   1       1.233   0.459   0.894  0.00  0.00     0.003 A 
ENDROOT
TORSDOF 0
ENDMDL
