MODEL 1
REMARK minimizedAffinity -1.67986166
REMARK minimizedRMSD -1
REMARK  0 active torsions:
REMARK  status: ('A' for Active; 'I' for Inactive)
ROOT
ATOM      1  C4' PXY d   1      -0.356  -2.636  -1.557  0.00  0.00     0.077 C 
ATOM      2  C1' PXY d   1       2.892   0.901   1.660  0.00  0.00     0.077 C 
ATOM      3  C1  PXY d   1       2.050  -0.029   0.808  0.00  0.00    -0.082 A 
ATOM      4  C2  PXY d   1       0.732   0.086   0.822  0.00  0.00     0.003 A 
ATOM      5  C3  PXY d   1      -0.046  -0.768   0.082  0.00  0.00     0.003 A 
ATOM      6  C4  PXY d   1       0.534  -1.713  -0.720  0.00  0.00    -0.082 A 
ATOM      7  C5  PXY d   1       1.878  -1.829  -0.748  0.00  0.00     0.003 A 
ATOM      8  C6  PXY d   1       2.648  -0.980   0.042  0.00  0.00     0.003 A 
ENDROOT
TORSDOF 0
ENDMDL
