MODEL 1
REMARK minimizedAffinity -4.44346619
REMARK minimizedRMSD -1
REMARK  0 active torsions:
REMARK  status: ('A' for Active; 'I' for Inactive)
ROOT
ATOM      1  C4' PXY d   1      -1.609   0.481  -0.349  0.00  0.00     0.077 C 
ATOM      2  C1' PXY d   1       3.771  -1.315   0.769  0.00  0.00     0.077 C 
ATOM      3  C1  PXY d   1       2.359  -0.853   0.466  0.00  0.00    -0.082 A 
ATOM      4  C2  PXY d   1       1.988   0.375   0.793  0.00  0.00     0.003 A 
ATOM      5  C3  PXY d   1       0.706   0.798   0.556  0.00  0.00     0.003 A 
ATOM      6  C4  PXY d   1      -0.191  -0.025  -0.071  0.00  0.00    -0.082 A 
ATOM      7  C5  PXY d   1       0.183  -1.275  -0.417  0.00  0.00     0.003 A 
ATOM      8  C6  PXY d   1       1.477  -1.700  -0.130  0.00  0.00     0.003 A 
ENDROOT
TORSDOF 0
ENDMDL
