MODEL 1
REMARK minimizedAffinity -2.41153765
REMARK minimizedRMSD -1
REMARK  2 active torsions:
REMARK  status: ('A' for Active; 'I' for Inactive)
REMARK    1  A    between atoms: C2'_3  and  C1'_4 
REMARK    2  A    between atoms: C1'_4  and  C1_5 
ROOT
ATOM      1  C1  I4B d   1      -5.734  -4.308  -0.434  0.00  0.00    -0.075 A 
ATOM      2  C2  I4B d   1      -5.656  -3.067   0.148  0.00  0.00     0.003 A 
ATOM      3  C3  I4B d   1      -5.616  -1.904  -0.658  0.00  0.00     0.002 A 
ATOM      4  C4  I4B d   1      -5.606  -2.028  -2.032  0.00  0.00    -0.004 A 
ATOM      5  C5  I4B d   1      -5.708  -3.286  -2.620  0.00  0.00     0.002 A 
ATOM      6  C6  I4B d   1      -5.785  -4.433  -1.816  0.00  0.00     0.003 A 
ENDROOT
BRANCH   1   7
ATOM      7  C1' I4B d   1      -5.740  -5.518   0.447  0.00  0.00     0.060 C 
BRANCH   7   8
ATOM      8  C2' I4B d   1      -4.621  -5.366   1.456  0.00  0.00    -0.013 C 
ATOM      9  C4' I4B d   1      -4.986  -5.996   2.774  0.00  0.00     0.013 C 
ATOM     10  C3' I4B d   1      -3.388  -5.996   0.879  0.00  0.00     0.013 C 
ENDBRANCH   7   8
ENDBRANCH   1   7
TORSDOF 2
ENDMDL
