MODEL 1
REMARK minimizedAffinity 2.19738531
REMARK minimizedRMSD -1
REMARK  2 active torsions:
REMARK  status: ('A' for Active; 'I' for Inactive)
REMARK    1  A    between atoms: C2'_3  and  C1'_4 
REMARK    2  A    between atoms: C1'_4  and  C1_5 
ROOT
ATOM      1  C1  I4B d   1      -5.907  -4.276  -0.972  0.00  0.00    -0.075 A 
ATOM      2  C2  I4B d   1      -5.785  -4.603  -2.300  0.00  0.00     0.003 A 
ATOM      3  C3  I4B d   1      -5.755  -3.587  -3.285  0.00  0.00     0.002 A 
ATOM      4  C4  I4B d   1      -5.899  -2.268  -2.906  0.00  0.00    -0.004 A 
ATOM      5  C5  I4B d   1      -6.000  -1.936  -1.558  0.00  0.00     0.002 A 
ATOM      6  C6  I4B d   1      -5.991  -2.945  -0.583  0.00  0.00     0.003 A 
ENDROOT
BRANCH   1   7
ATOM      7  C1' I4B d   1      -5.969  -5.376   0.039  0.00  0.00     0.060 C 
BRANCH   7   8
ATOM      8  C2' I4B d   1      -5.212  -4.921   1.271  0.00  0.00    -0.013 C 
ATOM      9  C4' I4B d   1      -5.997  -5.200   2.526  0.00  0.00     0.013 C 
ATOM     10  C3' I4B d   1      -3.890  -5.629   1.290  0.00  0.00     0.013 C 
ENDBRANCH   7   8
ENDBRANCH   1   7
TORSDOF 2
ENDMDL
