MODEL 1
REMARK minimizedAffinity 4.23990631
REMARK minimizedRMSD -1
REMARK  2 active torsions:
REMARK  status: ('A' for Active; 'I' for Inactive)
REMARK    1  A    between atoms: C2'_3  and  C1'_4 
REMARK    2  A    between atoms: C1'_4  and  C1_5 
ROOT
ATOM      1  C1  I4B d   1      -5.932  -3.392  -1.473  0.00  0.00    -0.075 A 
ATOM      2  C2  I4B d   1      -5.825  -3.612  -0.123  0.00  0.00     0.003 A 
ATOM      3  C3  I4B d   1      -5.790  -4.935   0.382  0.00  0.00     0.002 A 
ATOM      4  C4  I4B d   1      -5.914  -5.998  -0.488  0.00  0.00    -0.004 A 
ATOM      5  C5  I4B d   1      -6.000  -5.773  -1.859  0.00  0.00     0.002 A 
ATOM      6  C6  I4B d   1      -5.996  -4.462  -2.356  0.00  0.00     0.003 A 
ENDROOT
BRANCH   1   7
ATOM      7  C1' I4B d   1      -5.999  -1.982  -1.970  0.00  0.00     0.060 C 
BRANCH   7   8
ATOM      8  C2' I4B d   1      -5.179  -1.895  -3.241  0.00  0.00    -0.013 C 
ATOM      9  C4' I4B d   1      -5.991  -2.302  -4.443  0.00  0.00     0.013 C 
ATOM     10  C3' I4B d   1      -4.681  -0.487  -3.375  0.00  0.00     0.013 C 
ENDBRANCH   7   8
ENDBRANCH   1   7
TORSDOF 2
ENDMDL
