MODEL 1
REMARK minimizedAffinity 4.78811789
REMARK minimizedRMSD -1
REMARK  2 active torsions:
REMARK  status: ('A' for Active; 'I' for Inactive)
REMARK    1  A    between atoms: C2'_3  and  C1'_4 
REMARK    2  A    between atoms: C1'_4  and  C1_5 
ROOT
ATOM      1  C1  I4B d   1       2.287   0.283   2.573  0.00  0.00    -0.075 A 
ATOM      2  C2  I4B d   1       2.172   1.487   1.925  0.00  0.00     0.003 A 
ATOM      3  C3  I4B d   1       0.942   2.188   1.935  0.00  0.00     0.002 A 
ATOM      4  C4  I4B d   1      -0.155   1.627   2.557  0.00  0.00    -0.004 A 
ATOM      5  C5  I4B d   1      -0.031   0.416   3.232  0.00  0.00     0.002 A 
ATOM      6  C6  I4B d   1       1.201  -0.255   3.251  0.00  0.00     0.003 A 
ENDROOT
BRANCH   1   7
ATOM      7  C1' I4B d   1       3.592  -0.446   2.515  0.00  0.00     0.060 C 
BRANCH   7   8
ATOM      8  C2' I4B d   1       4.601   0.458   1.837  0.00  0.00    -0.013 C 
ATOM      9  C4' I4B d   1       6.000   0.168   2.315  0.00  0.00     0.013 C 
ATOM     10  C3' I4B d   1       4.483   0.257   0.356  0.00  0.00     0.013 C 
ENDBRANCH   7   8
ENDBRANCH   1   7
TORSDOF 2
ENDMDL
