MODEL 1
REMARK minimizedAffinity 4.04189014
REMARK minimizedRMSD -1
REMARK  2 active torsions:
REMARK  status: ('A' for Active; 'I' for Inactive)
REMARK    1  A    between atoms: C2'_3  and  C1'_4 
REMARK    2  A    between atoms: C1'_4  and  C1_5 
ROOT
ATOM      1  C1  I4B d   1      -5.765  -4.544  -1.423  0.00  0.00    -0.075 A 
ATOM      2  C2  I4B d   1      -5.991  -3.232  -1.088  0.00  0.00     0.003 A 
ATOM      3  C3  I4B d   1      -5.752  -2.203  -2.031  0.00  0.00     0.002 A 
ATOM      4  C4  I4B d   1      -5.242  -2.525  -3.272  0.00  0.00    -0.004 A 
ATOM      5  C5  I4B d   1      -5.035  -3.857  -3.618  0.00  0.00     0.002 A 
ATOM      6  C6  I4B d   1      -5.310  -4.874  -2.693  0.00  0.00     0.003 A 
ENDROOT
BRANCH   1   7
ATOM      7  C1' I4B d   1      -5.998  -5.602  -0.392  0.00  0.00     0.060 C 
BRANCH   7   8
ATOM      8  C2' I4B d   1      -5.014  -5.376   0.738  0.00  0.00    -0.013 C 
ATOM      9  C4' I4B d   1      -5.504  -5.998   2.020  0.00  0.00     0.013 C 
ATOM     10  C3' I4B d   1      -3.694  -5.956   0.325  0.00  0.00     0.013 C 
ENDBRANCH   7   8
ENDBRANCH   1   7
TORSDOF 2
ENDMDL
