MODEL 1
REMARK minimizedAffinity 12.0591221
REMARK minimizedRMSD -1
REMARK  2 active torsions:
REMARK  status: ('A' for Active; 'I' for Inactive)
REMARK    1  A    between atoms: C2'_3  and  C1'_4 
REMARK    2  A    between atoms: C1'_4  and  C1_5 
ROOT
ATOM      1  C1  I4B d   1       2.777   2.060  -2.882  0.00  0.00    -0.075 A 
ATOM      2  C2  I4B d   1       2.025   2.716  -1.939  0.00  0.00     0.003 A 
ATOM      3  C3  I4B d   1       1.871   4.122  -2.003  0.00  0.00     0.002 A 
ATOM      4  C4  I4B d   1       2.523   4.833  -2.990  0.00  0.00    -0.004 A 
ATOM      5  C5  I4B d   1       3.267   4.164  -3.958  0.00  0.00     0.002 A 
ATOM      6  C6  I4B d   1       3.385   2.767  -3.911  0.00  0.00     0.003 A 
ENDROOT
BRANCH   1   7
ATOM      7  C1' I4B d   1       2.946   0.578  -2.765  0.00  0.00     0.060 C 
BRANCH   7   8
ATOM      8  C2' I4B d   1       2.332  -0.060  -3.995  0.00  0.00    -0.013 C 
ATOM      9  C4' I4B d   1       3.377  -0.758  -4.825  0.00  0.00     0.013 C 
ATOM     10  C3' I4B d   1       1.273  -1.019  -3.539  0.00  0.00     0.013 C 
ENDBRANCH   7   8
ENDBRANCH   1   7
TORSDOF 2
ENDMDL
