MODEL 1
REMARK minimizedAffinity 14.9958658
REMARK minimizedRMSD -1
REMARK  2 active torsions:
REMARK  status: ('A' for Active; 'I' for Inactive)
REMARK    1  A    between atoms: C2'_3  and  C1'_4 
REMARK    2  A    between atoms: C1'_4  and  C1_5 
ROOT
ATOM      1  C1  I4B d   1      -0.762   1.681   1.165  0.00  0.00    -0.075 A 
ATOM      2  C2  I4B d   1      -2.126   1.812   1.248  0.00  0.00     0.003 A 
ATOM      3  C3  I4B d   1      -2.915   1.815   0.073  0.00  0.00     0.002 A 
ATOM      4  C4  I4B d   1      -2.299   1.736  -1.160  0.00  0.00    -0.004 A 
ATOM      5  C5  I4B d   1      -0.919   1.580  -1.242  0.00  0.00     0.002 A 
ATOM      6  C6  I4B d   1      -0.146   1.540  -0.072  0.00  0.00     0.003 A 
ENDROOT
BRANCH   1   7
ATOM      7  C1' I4B d   1       0.044   1.715   2.424  0.00  0.00     0.060 C 
BRANCH   7   8
ATOM      8  C2' I4B d   1       0.791   3.033   2.465  0.00  0.00    -0.013 C 
ATOM      9  C4' I4B d   1       1.300   3.328   3.851  0.00  0.00     0.013 C 
ATOM     10  C3' I4B d   1       1.917   2.957   1.478  0.00  0.00     0.013 C 
ENDBRANCH   7   8
ENDBRANCH   1   7
TORSDOF 2
ENDMDL
