MODEL 1
REMARK minimizedAffinity 6.89179611
REMARK minimizedRMSD -1
REMARK  2 active torsions:
REMARK  status: ('A' for Active; 'I' for Inactive)
REMARK    1  A    between atoms: C2'_3  and  C1'_4 
REMARK    2  A    between atoms: C1'_4  and  C1_5 
ROOT
ATOM      1  C1  I4B d   1       0.783   1.976   3.340  0.00  0.00    -0.075 A 
ATOM      2  C2  I4B d   1      -0.578   2.150   3.338  0.00  0.00     0.003 A 
ATOM      3  C3  I4B d   1      -1.433   1.089   3.724  0.00  0.00     0.002 A 
ATOM      4  C4  I4B d   1      -0.889  -0.136   4.055  0.00  0.00    -0.004 A 
ATOM      5  C5  I4B d   1       0.493  -0.303   4.079  0.00  0.00     0.002 A 
ATOM      6  C6  I4B d   1       1.335   0.763   3.731  0.00  0.00     0.003 A 
ENDROOT
BRANCH   1   7
ATOM      7  C1' I4B d   1       1.655   3.107   2.895  0.00  0.00     0.060 C 
BRANCH   7   8
ATOM      8  C2' I4B d   1       2.478   2.627   1.717  0.00  0.00    -0.013 C 
ATOM      9  C4' I4B d   1       3.082   1.274   1.991  0.00  0.00     0.013 C 
ATOM     10  C3' I4B d   1       1.586   2.588   0.513  0.00  0.00     0.013 C 
ENDBRANCH   7   8
ENDBRANCH   1   7
TORSDOF 2
ENDMDL
