MODEL 1
REMARK minimizedAffinity 13.6484938
REMARK minimizedRMSD -1
REMARK  2 active torsions:
REMARK  status: ('A' for Active; 'I' for Inactive)
REMARK    1  A    between atoms: C2'_3  and  C1'_4 
REMARK    2  A    between atoms: C1'_4  and  C1_5 
ROOT
ATOM      1  C1  I4B d   1       2.991   1.916  -2.597  0.00  0.00    -0.075 A 
ATOM      2  C2  I4B d   1       2.440   2.552  -1.513  0.00  0.00     0.003 A 
ATOM      3  C3  I4B d   1       2.496   3.963  -1.409  0.00  0.00     0.002 A 
ATOM      4  C4  I4B d   1       3.152   4.690  -2.381  0.00  0.00    -0.004 A 
ATOM      5  C5  I4B d   1       3.690   4.046  -3.492  0.00  0.00     0.002 A 
ATOM      6  C6  I4B d   1       3.598   2.651  -3.607  0.00  0.00     0.003 A 
ENDROOT
BRANCH   1   7
ATOM      7  C1' I4B d   1       2.942   0.422  -2.659  0.00  0.00     0.060 C 
BRANCH   7   8
ATOM      8  C2' I4B d   1       2.256   0.030  -3.951  0.00  0.00    -0.013 C 
ATOM      9  C4' I4B d   1       3.214  -0.653  -4.892  0.00  0.00     0.013 C 
ATOM     10  C3' I4B d   1       1.103  -0.865  -3.610  0.00  0.00     0.013 C 
ENDBRANCH   7   8
ENDBRANCH   1   7
TORSDOF 2
ENDMDL
