MODEL 1
REMARK minimizedAffinity 13.6952753
REMARK minimizedRMSD -1
REMARK  2 active torsions:
REMARK  status: ('A' for Active; 'I' for Inactive)
REMARK    1  A    between atoms: C2'_3  and  C1'_4 
REMARK    2  A    between atoms: C1'_4  and  C1_5 
ROOT
ATOM      1  C1  I4B d   1       2.644   4.381  -3.214  0.00  0.00    -0.075 A 
ATOM      2  C2  I4B d   1       3.803   4.083  -3.887  0.00  0.00     0.003 A 
ATOM      3  C3  I4B d   1       3.837   4.130  -5.301  0.00  0.00     0.002 A 
ATOM      4  C4  I4B d   1       2.685   4.427  -6.000  0.00  0.00    -0.004 A 
ATOM      5  C5  I4B d   1       1.517   4.751  -5.315  0.00  0.00     0.002 A 
ATOM      6  C6  I4B d   1       1.499   4.739  -3.913  0.00  0.00     0.003 A 
ENDROOT
BRANCH   1   7
ATOM      7  C1' I4B d   1       2.634   4.289  -1.721  0.00  0.00     0.060 C 
BRANCH   7   8
ATOM      8  C2' I4B d   1       1.967   2.985  -1.337  0.00  0.00    -0.013 C 
ATOM      9  C4' I4B d   1       2.692   1.806  -1.930  0.00  0.00     0.013 C 
ATOM     10  C3' I4B d   1       1.935   2.903   0.160  0.00  0.00     0.013 C 
ENDBRANCH   7   8
ENDBRANCH   1   7
TORSDOF 2
ENDMDL
