MODEL 1
REMARK minimizedAffinity 13.9277754
REMARK minimizedRMSD -1
REMARK  2 active torsions:
REMARK  status: ('A' for Active; 'I' for Inactive)
REMARK    1  A    between atoms: C2'_3  and  C1'_4 
REMARK    2  A    between atoms: C1'_4  and  C1_5 
ROOT
ATOM      1  C1  I4B d   1       2.960   2.462  -4.946  0.00  0.00    -0.075 A 
ATOM      2  C2  I4B d   1       2.000   3.010  -5.761  0.00  0.00     0.003 A 
ATOM      3  C3  I4B d   1       1.970   4.407  -5.987  0.00  0.00     0.002 A 
ATOM      4  C4  I4B d   1       2.881   5.220  -5.343  0.00  0.00    -0.004 A 
ATOM      5  C5  I4B d   1       3.868   4.661  -4.536  0.00  0.00     0.002 A 
ATOM      6  C6  I4B d   1       3.915   3.272  -4.346  0.00  0.00     0.003 A 
ENDROOT
BRANCH   1   7
ATOM      7  C1' I4B d   1       2.942   0.987  -4.703  0.00  0.00     0.060 C 
BRANCH   7   8
ATOM      8  C2' I4B d   1       1.991   0.714  -3.555  0.00  0.00    -0.013 C 
ATOM      9  C4' I4B d   1       1.455  -0.692  -3.614  0.00  0.00     0.013 C 
ATOM     10  C3' I4B d   1       2.730   0.959  -2.273  0.00  0.00     0.013 C 
ENDBRANCH   7   8
ENDBRANCH   1   7
TORSDOF 2
ENDMDL
