MODEL 1
REMARK minimizedAffinity 7.73459291
REMARK minimizedRMSD -1
REMARK  2 active torsions:
REMARK  status: ('A' for Active; 'I' for Inactive)
REMARK    1  A    between atoms: C2'_3  and  C1'_4 
REMARK    2  A    between atoms: C1'_4  and  C1_5 
ROOT
ATOM      1  C1  I4B d   1       0.923   1.030   3.357  0.00  0.00    -0.075 A 
ATOM      2  C2  I4B d   1       1.025   2.357   3.691  0.00  0.00     0.003 A 
ATOM      3  C3  I4B d   1      -0.122   3.186   3.677  0.00  0.00     0.002 A 
ATOM      4  C4  I4B d   1      -1.335   2.662   3.278  0.00  0.00    -0.004 A 
ATOM      5  C5  I4B d   1      -1.442   1.311   2.962  0.00  0.00     0.002 A 
ATOM      6  C6  I4B d   1      -0.309   0.486   3.014  0.00  0.00     0.003 A 
ENDROOT
BRANCH   1   7
ATOM      7  C1' I4B d   1       2.161   0.190   3.350  0.00  0.00     0.060 C 
BRANCH   7   8
ATOM      8  C2' I4B d   1       2.902   0.463   2.057  0.00  0.00    -0.013 C 
ATOM      9  C4' I4B d   1       2.805   1.915   1.668  0.00  0.00     0.013 C 
ATOM     10  C3' I4B d   1       4.330   0.047   2.245  0.00  0.00     0.013 C 
ENDBRANCH   7   8
ENDBRANCH   1   7
TORSDOF 2
ENDMDL
