MODEL 1
REMARK minimizedAffinity 17.5858955
REMARK minimizedRMSD -1
REMARK  2 active torsions:
REMARK  status: ('A' for Active; 'I' for Inactive)
REMARK    1  A    between atoms: C1_2  and  C2_3 
REMARK    2  A    between atoms: C2_3  and  C3_4 
ROOT
ATOM      1  C3  UNL d   1      -1.062  -1.521   2.867  0.00  0.00    -0.075 A 
ATOM      2  C4  UNL d   1      -0.225  -0.411   2.684  0.00  0.00     0.002 A 
ATOM      3  C5  UNL d   1       0.333   0.244   3.783  0.00  0.00     0.002 A 
ATOM      4  C6  UNL d   1       0.054  -0.196   5.075  0.00  0.00    -0.004 A 
ATOM      5  C7  UNL d   1      -0.789  -1.288   5.269  0.00  0.00     0.002 A 
ATOM      6  C8  UNL d   1      -1.346  -1.947   4.171  0.00  0.00     0.002 A 
ENDROOT
BRANCH   1   7
ATOM      7  C2  UNL d   1      -1.646  -2.251   1.681  0.00  0.00     0.056 C 
BRANCH   7   8
ATOM      8  C1  UNL d   1      -1.083  -1.797   0.330  0.00  0.00     0.007 C 
ATOM      9  C   UNL d   1      -2.135  -1.739  -0.770  0.00  0.00     0.009 C 
ENDBRANCH   7   8
ENDBRANCH   1   7
TORSDOF 2
ENDMDL
