MODEL 1
REMARK minimizedAffinity 4.08774281
REMARK minimizedRMSD -1
REMARK  2 active torsions:
REMARK  status: ('A' for Active; 'I' for Inactive)
REMARK    1  A    between atoms: C1_2  and  C2_3 
REMARK    2  A    between atoms: C2_3  and  C3_4 
ROOT
ATOM      1  C3  UNL d   1       2.117  -0.474   2.731  0.00  0.00    -0.075 A 
ATOM      2  C4  UNL d   1       1.805   0.667   1.977  0.00  0.00     0.002 A 
ATOM      3  C5  UNL d   1       0.618   1.364   2.205  0.00  0.00     0.002 A 
ATOM      4  C6  UNL d   1      -0.275   0.925   3.181  0.00  0.00    -0.004 A 
ATOM      5  C7  UNL d   1       0.018  -0.216   3.925  0.00  0.00     0.002 A 
ATOM      6  C8  UNL d   1       1.207  -0.913   3.702  0.00  0.00     0.002 A 
ENDROOT
BRANCH   1   7
ATOM      7  C2  UNL d   1       3.414  -1.215   2.510  0.00  0.00     0.056 C 
BRANCH   7   8
ATOM      8  C1  UNL d   1       4.027  -0.999   1.122  0.00  0.00     0.007 C 
ATOM      9  C   UNL d   1       5.500  -1.379   1.051  0.00  0.00     0.009 C 
ENDBRANCH   7   8
ENDBRANCH   1   7
TORSDOF 2
ENDMDL
