MODEL 1
REMARK minimizedAffinity 12.5972528
REMARK minimizedRMSD -1
REMARK  2 active torsions:
REMARK  status: ('A' for Active; 'I' for Inactive)
REMARK    1  A    between atoms: C1_2  and  C2_3 
REMARK    2  A    between atoms: C2_3  and  C3_4 
ROOT
ATOM      1  C3  UNL d   1       3.064   3.764  -3.887  0.00  0.00    -0.075 A 
ATOM      2  C4  UNL d   1       3.899   4.888  -3.963  0.00  0.00     0.002 A 
ATOM      3  C5  UNL d   1       3.522   6.000  -4.717  0.00  0.00     0.002 A 
ATOM      4  C6  UNL d   1       2.314   5.998  -5.411  0.00  0.00    -0.004 A 
ATOM      5  C7  UNL d   1       1.485   4.880  -5.355  0.00  0.00     0.002 A 
ATOM      6  C8  UNL d   1       1.857   3.768  -4.598  0.00  0.00     0.002 A 
ENDROOT
BRANCH   1   7
ATOM      7  C2  UNL d   1       3.452   2.569  -3.049  0.00  0.00     0.056 C 
BRANCH   7   8
ATOM      8  C1  UNL d   1       3.867   2.920  -1.616  0.00  0.00     0.007 C 
ATOM      9  C   UNL d   1       3.147   2.090  -0.562  0.00  0.00     0.009 C 
ENDBRANCH   7   8
ENDBRANCH   1   7
TORSDOF 2
ENDMDL
