MODEL 1
REMARK minimizedAffinity 7.71822548
REMARK minimizedRMSD -1
REMARK  2 active torsions:
REMARK  status: ('A' for Active; 'I' for Inactive)
REMARK    1  A    between atoms: C1_2  and  C2_3 
REMARK    2  A    between atoms: C2_3  and  C3_4 
ROOT
ATOM      1  C3  UNL d   1      -3.379  -3.936  -1.209  0.00  0.00    -0.075 A 
ATOM      2  C4  UNL d   1      -4.085  -5.136  -1.369  0.00  0.00     0.002 A 
ATOM      3  C5  UNL d   1      -4.271  -5.998  -0.287  0.00  0.00     0.002 A 
ATOM      4  C6  UNL d   1      -3.745  -5.676   0.962  0.00  0.00    -0.004 A 
ATOM      5  C7  UNL d   1      -3.027  -4.494   1.128  0.00  0.00     0.002 A 
ATOM      6  C8  UNL d   1      -2.844  -3.628   0.049  0.00  0.00     0.002 A 
ENDROOT
BRANCH   1   7
ATOM      7  C2  UNL d   1      -3.199  -2.985  -2.369  0.00  0.00     0.056 C 
BRANCH   7   8
ATOM      8  C1  UNL d   1      -1.879  -2.208  -2.340  0.00  0.00     0.007 C 
ATOM      9  C   UNL d   1      -1.134  -2.241  -3.668  0.00  0.00     0.009 C 
ENDBRANCH   7   8
ENDBRANCH   1   7
TORSDOF 2
ENDMDL
