MODEL 1
REMARK minimizedAffinity 9.48407173
REMARK minimizedRMSD -1
REMARK  2 active torsions:
REMARK  status: ('A' for Active; 'I' for Inactive)
REMARK    1  A    between atoms: C1_2  and  C2_3 
REMARK    2  A    between atoms: C2_3  and  C3_4 
ROOT
ATOM      1  C3  UNL d   1       4.017  -1.426   2.950  0.00  0.00    -0.075 A 
ATOM      2  C4  UNL d   1       3.911  -0.981   1.624  0.00  0.00     0.002 A 
ATOM      3  C5  UNL d   1       2.668  -0.647   1.087  0.00  0.00     0.002 A 
ATOM      4  C6  UNL d   1       1.516  -0.763   1.863  0.00  0.00    -0.004 A 
ATOM      5  C7  UNL d   1       1.608  -1.220   3.176  0.00  0.00     0.002 A 
ATOM      6  C8  UNL d   1       2.852  -1.551   3.717  0.00  0.00     0.002 A 
ENDROOT
BRANCH   1   7
ATOM      7  C2  UNL d   1       5.363  -1.762   3.547  0.00  0.00     0.056 C 
BRANCH   7   8
ATOM      8  C1  UNL d   1       5.610  -1.133   4.922  0.00  0.00     0.007 C 
ATOM      9  C   UNL d   1       5.997  -2.150   5.987  0.00  0.00     0.009 C 
ENDBRANCH   7   8
ENDBRANCH   1   7
TORSDOF 2
ENDMDL
