MODEL 1
REMARK minimizedAffinity 6.50384235
REMARK minimizedRMSD -1
REMARK  2 active torsions:
REMARK  status: ('A' for Active; 'I' for Inactive)
REMARK    1  A    between atoms: C1_2  and  C2_3 
REMARK    2  A    between atoms: C2_3  and  C3_4 
ROOT
ATOM      1  C3  UNL d   1       3.596  -1.007  -4.833  0.00  0.00    -0.075 A 
ATOM      2  C4  UNL d   1       4.907  -1.484  -4.984  0.00  0.00     0.002 A 
ATOM      3  C5  UNL d   1       5.997  -0.662  -4.696  0.00  0.00     0.002 A 
ATOM      4  C6  UNL d   1       5.792   0.647  -4.265  0.00  0.00    -0.004 A 
ATOM      5  C7  UNL d   1       4.494   1.136  -4.127  0.00  0.00     0.002 A 
ATOM      6  C8  UNL d   1       3.402   0.315  -4.410  0.00  0.00     0.002 A 
ENDROOT
BRANCH   1   7
ATOM      7  C2  UNL d   1       2.412  -1.901  -5.114  0.00  0.00     0.056 C 
BRANCH   7   8
ATOM      8  C1  UNL d   1       2.245  -3.049  -4.113  0.00  0.00     0.007 C 
ATOM      9  C   UNL d   1       1.092  -3.982  -4.456  0.00  0.00     0.009 C 
ENDBRANCH   7   8
ENDBRANCH   1   7
TORSDOF 2
ENDMDL
