MODEL 1
REMARK minimizedAffinity 3.95613432
REMARK minimizedRMSD -1
REMARK  2 active torsions:
REMARK  status: ('A' for Active; 'I' for Inactive)
REMARK    1  A    between atoms: C1_2  and  C2_3 
REMARK    2  A    between atoms: C2_3  and  C3_4 
ROOT
ATOM      1  C3  UNL d   1       2.690   0.887   1.883  0.00  0.00    -0.075 A 
ATOM      2  C4  UNL d   1       3.670   1.321   0.979  0.00  0.00     0.002 A 
ATOM      3  C5  UNL d   1       4.904   0.673   0.907  0.00  0.00     0.002 A 
ATOM      4  C6  UNL d   1       5.176  -0.408   1.742  0.00  0.00    -0.004 A 
ATOM      5  C7  UNL d   1       4.216  -0.838   2.655  0.00  0.00     0.002 A 
ATOM      6  C8  UNL d   1       2.979  -0.194   2.727  0.00  0.00     0.002 A 
ENDROOT
BRANCH   1   7
ATOM      7  C2  UNL d   1       1.342   1.565   1.946  0.00  0.00     0.056 C 
BRANCH   7   8
ATOM      8  C1  UNL d   1       0.462   1.097   3.109  0.00  0.00     0.007 C 
ATOM      9  C   UNL d   1      -0.887   1.801   3.163  0.00  0.00     0.009 C 
ENDBRANCH   7   8
ENDBRANCH   1   7
TORSDOF 2
ENDMDL
