MODEL 1
REMARK minimizedAffinity 13.1466942
REMARK minimizedRMSD -1
REMARK  2 active torsions:
REMARK  status: ('A' for Active; 'I' for Inactive)
REMARK    1  A    between atoms: C1_2  and  C2_3 
REMARK    2  A    between atoms: C2_3  and  C3_4 
ROOT
ATOM      1  C3  UNL d   1      -3.349  -4.603  -1.892  0.00  0.00    -0.075 A 
ATOM      2  C4  UNL d   1      -3.726  -3.260  -1.741  0.00  0.00     0.002 A 
ATOM      3  C5  UNL d   1      -3.011  -2.247  -2.381  0.00  0.00     0.002 A 
ATOM      4  C6  UNL d   1      -1.906  -2.562  -3.169  0.00  0.00    -0.004 A 
ATOM      5  C7  UNL d   1      -1.512  -3.890  -3.313  0.00  0.00     0.002 A 
ATOM      6  C8  UNL d   1      -2.229  -4.906  -2.677  0.00  0.00     0.002 A 
ENDROOT
BRANCH   1   7
ATOM      7  C2  UNL d   1      -4.136  -5.706  -1.226  0.00  0.00     0.056 C 
BRANCH   7   8
ATOM      8  C1  UNL d   1      -3.704  -5.999   0.214  0.00  0.00     0.007 C 
ATOM      9  C   UNL d   1      -4.863  -5.998   1.201  0.00  0.00     0.009 C 
ENDBRANCH   7   8
ENDBRANCH   1   7
TORSDOF 2
ENDMDL
