MODEL 1
REMARK minimizedAffinity 6.34995222
REMARK minimizedRMSD -1
REMARK  2 active torsions:
REMARK  status: ('A' for Active; 'I' for Inactive)
REMARK    1  A    between atoms: C1_2  and  C2_3 
REMARK    2  A    between atoms: C2_3  and  C3_4 
ROOT
ATOM      1  C3  UNL d   1       3.770   1.554   0.817  0.00  0.00    -0.075 A 
ATOM      2  C4  UNL d   1       4.449   0.393   1.213  0.00  0.00     0.002 A 
ATOM      3  C5  UNL d   1       5.561  -0.055   0.498  0.00  0.00     0.002 A 
ATOM      4  C6  UNL d   1       6.000   0.644  -0.624  0.00  0.00    -0.004 A 
ATOM      5  C7  UNL d   1       5.322   1.790  -1.035  0.00  0.00     0.002 A 
ATOM      6  C8  UNL d   1       4.212   2.243  -0.320  0.00  0.00     0.002 A 
ENDROOT
BRANCH   1   7
ATOM      7  C2  UNL d   1       2.584   2.061   1.603  0.00  0.00     0.056 C 
BRANCH   7   8
ATOM      8  C1  UNL d   1       2.246   3.533   1.344  0.00  0.00     0.007 C 
ATOM      9  C   UNL d   1       3.368   4.484   1.739  0.00  0.00     0.009 C 
ENDBRANCH   7   8
ENDBRANCH   1   7
TORSDOF 2
ENDMDL
