MODEL 1
REMARK minimizedAffinity 14.0062685
REMARK minimizedRMSD -1
REMARK  2 active torsions:
REMARK  status: ('A' for Active; 'I' for Inactive)
REMARK    1  A    between atoms: C1_2  and  C2_3 
REMARK    2  A    between atoms: C2_3  and  C3_4 
ROOT
ATOM      1  C3  UNL d   1      -3.583  -3.770  -2.302  0.00  0.00    -0.075 A 
ATOM      2  C4  UNL d   1      -4.798  -3.324  -2.844  0.00  0.00     0.002 A 
ATOM      3  C5  UNL d   1      -5.931  -4.138  -2.806  0.00  0.00     0.002 A 
ATOM      4  C6  UNL d   1      -5.862  -5.408  -2.237  0.00  0.00    -0.004 A 
ATOM      5  C7  UNL d   1      -4.656  -5.866  -1.711  0.00  0.00     0.002 A 
ATOM      6  C8  UNL d   1      -3.522  -5.053  -1.743  0.00  0.00     0.002 A 
ENDROOT
BRANCH   1   7
ATOM      7  C2  UNL d   1      -2.361  -2.883  -2.314  0.00  0.00     0.056 C 
BRANCH   7   8
ATOM      8  C1  UNL d   1      -2.250  -1.959  -1.096  0.00  0.00     0.007 C 
ATOM      9  C   UNL d   1      -1.438  -2.562   0.042  0.00  0.00     0.009 C 
ENDBRANCH   7   8
ENDBRANCH   1   7
TORSDOF 2
ENDMDL
