MODEL 1
REMARK minimizedAffinity 11.7659302
REMARK minimizedRMSD -1
REMARK  2 active torsions:
REMARK  status: ('A' for Active; 'I' for Inactive)
REMARK    1  A    between atoms: C1_2  and  C2_3 
REMARK    2  A    between atoms: C2_3  and  C3_4 
ROOT
ATOM      1  C3  UNL d   1       2.618   3.573  -4.199  0.00  0.00    -0.075 A 
ATOM      2  C4  UNL d   1       1.850   3.541  -5.372  0.00  0.00     0.002 A 
ATOM      3  C5  UNL d   1       1.454   4.727  -5.991  0.00  0.00     0.002 A 
ATOM      4  C6  UNL d   1       1.811   5.957  -5.442  0.00  0.00    -0.004 A 
ATOM      5  C7  UNL d   1       2.560   6.000  -4.268  0.00  0.00     0.002 A 
ATOM      6  C8  UNL d   1       2.961   4.815  -3.648  0.00  0.00     0.002 A 
ENDROOT
BRANCH   1   7
ATOM      7  C2  UNL d   1       3.075   2.293  -3.540  0.00  0.00     0.056 C 
BRANCH   7   8
ATOM      8  C1  UNL d   1       3.819   2.504  -2.217  0.00  0.00     0.007 C 
ATOM      9  C   UNL d   1       4.514   1.246  -1.713  0.00  0.00     0.009 C 
ENDBRANCH   7   8
ENDBRANCH   1   7
TORSDOF 2
ENDMDL
