MODEL 1
REMARK minimizedAffinity -4.97754097
REMARK minimizedRMSD -1
REMARK  1 active torsions:
REMARK  status: ('A' for Active; 'I' for Inactive)
REMARK    1  A    between atoms: C1_2  and  C2_3 
ROOT
ATOM      1  C2  UNL d   1       0.131   0.138   0.708  0.00  0.00    -0.076 A 
ATOM      2  C3  UNL d   1       1.032   0.459   1.739  0.00  0.00     0.004 A 
ATOM      3  C4  UNL d   1       0.574   0.849   2.996  0.00  0.00    -0.003 A 
ATOM      4  C5  UNL d   1      -0.792   0.924   3.243  0.00  0.00     0.000 A 
ATOM      5  C6  UNL d   1      -1.700   0.593   2.238  0.00  0.00     0.000 A 
ATOM      6  C7  UNL d   1      -1.255   0.182   0.970  0.00  0.00    -0.073 A 
ATOM      7  C8  UNL d   1      -2.278  -0.157  -0.080  0.00  0.00     0.078 C 
ENDROOT
BRANCH   1   8
ATOM      8  C1  UNL d   1       0.686  -0.252  -0.643  0.00  0.00     0.053 C 
ATOM      9  C   UNL d   1       1.243  -1.667  -0.658  0.00  0.00     0.018 C 
ENDBRANCH   1   8
TORSDOF 1
ENDMDL
