MODEL 1
REMARK minimizedAffinity -6.15252209
REMARK minimizedRMSD -1
REMARK  1 active torsions:
REMARK  status: ('A' for Active; 'I' for Inactive)
REMARK    1  A    between atoms: C1_2  and  C2_3 
ROOT
ATOM      1  C2  UNL d   1       0.242  -0.212   0.830  0.00  0.00    -0.076 A 
ATOM      2  C3  UNL d   1       1.287   0.140   1.702  0.00  0.00     0.004 A 
ATOM      3  C4  UNL d   1       1.047   0.925   2.829  0.00  0.00    -0.003 A 
ATOM      4  C5  UNL d   1      -0.242   1.370   3.102  0.00  0.00     0.000 A 
ATOM      5  C6  UNL d   1      -1.293   1.016   2.257  0.00  0.00     0.000 A 
ATOM      6  C7  UNL d   1      -1.071   0.211   1.126  0.00  0.00    -0.073 A 
ATOM      7  C8  UNL d   1      -2.241  -0.136   0.247  0.00  0.00     0.078 C 
ENDROOT
BRANCH   1   8
ATOM      8  C1  UNL d   1       0.567  -1.043  -0.390  0.00  0.00     0.053 C 
ATOM      9  C   UNL d   1       0.784  -0.193  -1.633  0.00  0.00     0.018 C 
ENDBRANCH   1   8
TORSDOF 1
ENDMDL
