MODEL 1
REMARK minimizedAffinity -5.16959238
REMARK minimizedRMSD -1
REMARK  1 active torsions:
REMARK  status: ('A' for Active; 'I' for Inactive)
REMARK    1  A    between atoms: C1_2  and  C2_3 
ROOT
ATOM      1  C2  UNL d   1      -0.078   0.475   0.866  0.00  0.00    -0.076 A 
ATOM      2  C3  UNL d   1      -0.697   1.317   1.806  0.00  0.00     0.004 A 
ATOM      3  C4  UNL d   1      -0.350   1.263   3.155  0.00  0.00    -0.003 A 
ATOM      4  C5  UNL d   1       0.622   0.367   3.586  0.00  0.00     0.000 A 
ATOM      5  C6  UNL d   1       1.259  -0.464   2.664  0.00  0.00     0.000 A 
ATOM      6  C7  UNL d   1       0.933  -0.411   1.298  0.00  0.00    -0.073 A 
ATOM      7  C8  UNL d   1       1.647  -1.333   0.349  0.00  0.00     0.078 C 
ENDROOT
BRANCH   1   8
ATOM      8  C1  UNL d   1      -0.514   0.559  -0.579  0.00  0.00     0.053 C 
ATOM      9  C   UNL d   1      -1.665  -0.383  -0.896  0.00  0.00     0.018 C 
ENDBRANCH   1   8
TORSDOF 1
ENDMDL
