MODEL 1
REMARK minimizedAffinity -3.13843179
REMARK minimizedRMSD -1
REMARK  1 active torsions:
REMARK  status: ('A' for Active; 'I' for Inactive)
REMARK    1  A    between atoms: C1_2  and  C2_3 
ROOT
ATOM      1  C2  UNL d   1      -0.026   0.369   0.487  0.00  0.00    -0.076 A 
ATOM      2  C3  UNL d   1       0.870   0.970   1.388  0.00  0.00     0.004 A 
ATOM      3  C4  UNL d   1       0.509   1.195   2.716  0.00  0.00    -0.003 A 
ATOM      4  C5  UNL d   1      -0.754   0.821   3.163  0.00  0.00     0.000 A 
ATOM      5  C6  UNL d   1      -1.648   0.207   2.287  0.00  0.00     0.000 A 
ATOM      6  C7  UNL d   1      -1.294  -0.041   0.950  0.00  0.00    -0.073 A 
ATOM      7  C8  UNL d   1      -2.300  -0.701   0.047  0.00  0.00     0.078 C 
ENDROOT
BRANCH   1   8
ATOM      8  C1  UNL d   1       0.412   0.176  -0.948  0.00  0.00     0.053 C 
ATOM      9  C   UNL d   1       1.158  -1.132  -1.158  0.00  0.00     0.018 C 
ENDBRANCH   1   8
TORSDOF 1
ENDMDL
