MODEL 1
REMARK minimizedAffinity -5.92869997
REMARK minimizedRMSD -1
REMARK  1 active torsions:
REMARK  status: ('A' for Active; 'I' for Inactive)
REMARK    1  A    between atoms: C1_2  and  C2_3 
ROOT
ATOM      1  C2  UNL d   1       0.203  -0.257   0.606  0.00  0.00    -0.076 A 
ATOM      2  C3  UNL d   1      -1.127   0.127   0.361  0.00  0.00     0.004 A 
ATOM      3  C4  UNL d   1      -1.855   0.840   1.311  0.00  0.00    -0.003 A 
ATOM      4  C5  UNL d   1      -1.265   1.181   2.523  0.00  0.00     0.000 A 
ATOM      5  C6  UNL d   1       0.059   0.824   2.777  0.00  0.00     0.000 A 
ATOM      6  C7  UNL d   1       0.812   0.119   1.822  0.00  0.00    -0.073 A 
ATOM      7  C8  UNL d   1       2.234  -0.245   2.151  0.00  0.00     0.078 C 
ENDROOT
BRANCH   1   8
ATOM      8  C1  UNL d   1       0.934  -1.052  -0.451  0.00  0.00     0.053 C 
ATOM      9  C   UNL d   1       0.644  -0.555  -1.859  0.00  0.00     0.018 C 
ENDBRANCH   1   8
TORSDOF 1
ENDMDL
