MODEL 1
REMARK minimizedAffinity -4.27030611
REMARK minimizedRMSD -1
REMARK  1 active torsions:
REMARK  status: ('A' for Active; 'I' for Inactive)
REMARK    1  A    between atoms: C1_2  and  C2_3 
ROOT
ATOM      1  C2  UNL d   1       0.539   0.311   1.273  0.00  0.00    -0.076 A 
ATOM      2  C3  UNL d   1      -0.711   0.937   1.420  0.00  0.00     0.004 A 
ATOM      3  C4  UNL d   1      -1.121   1.439   2.654  0.00  0.00    -0.003 A 
ATOM      4  C5  UNL d   1      -0.287   1.325   3.761  0.00  0.00     0.000 A 
ATOM      5  C6  UNL d   1       0.964   0.723   3.629  0.00  0.00     0.000 A 
ATOM      6  C7  UNL d   1       1.399   0.226   2.389  0.00  0.00    -0.073 A 
ATOM      7  C8  UNL d   1       2.756  -0.419   2.306  0.00  0.00     0.078 C 
ENDROOT
BRANCH   1   8
ATOM      8  C1  UNL d   1       0.919  -0.239  -0.083  0.00  0.00     0.053 C 
ATOM      9  C   UNL d   1      -0.227  -0.982  -0.752  0.00  0.00     0.018 C 
ENDBRANCH   1   8
TORSDOF 1
ENDMDL
