MODEL 1
REMARK minimizedAffinity -4.93616199
REMARK minimizedRMSD -1
REMARK  1 active torsions:
REMARK  status: ('A' for Active; 'I' for Inactive)
REMARK    1  A    between atoms: C1_2  and  C2_3 
ROOT
ATOM      1  C2  UNL d   1       0.161   0.074   0.728  0.00  0.00    -0.076 A 
ATOM      2  C3  UNL d   1      -1.084   0.681   0.489  0.00  0.00     0.004 A 
ATOM      3  C4  UNL d   1      -1.758   1.360   1.503  0.00  0.00    -0.003 A 
ATOM      4  C5  UNL d   1      -1.196   1.444   2.772  0.00  0.00     0.000 A 
ATOM      5  C6  UNL d   1       0.047   0.863   3.022  0.00  0.00     0.000 A 
ATOM      6  C7  UNL d   1       0.746   0.188   2.007  0.00  0.00    -0.073 A 
ATOM      7  C8  UNL d   1       2.080  -0.425   2.334  0.00  0.00     0.078 C 
ENDROOT
BRANCH   1   8
ATOM      8  C1  UNL d   1       0.832  -0.672  -0.403  0.00  0.00     0.053 C 
ATOM      9  C   UNL d   1       0.392  -0.174  -1.771  0.00  0.00     0.018 C 
ENDBRANCH   1   8
TORSDOF 1
ENDMDL
