MODEL 1
REMARK minimizedAffinity -0.642523348
REMARK minimizedRMSD -1
REMARK  1 active torsions:
REMARK  status: ('A' for Active; 'I' for Inactive)
REMARK    1  A    between atoms: C1_2  and  C2_3 
ROOT
ATOM      1  C2  UNL d   1      -0.012  -0.412  -0.595  0.00  0.00    -0.076 A 
ATOM      2  C3  UNL d   1      -1.341   0.018  -0.753  0.00  0.00     0.004 A 
ATOM      3  C4  UNL d   1      -2.097   0.430   0.343  0.00  0.00    -0.003 A 
ATOM      4  C5  UNL d   1      -1.536   0.419   1.615  0.00  0.00     0.000 A 
ATOM      5  C6  UNL d   1      -0.213   0.013   1.788  0.00  0.00     0.000 A 
ATOM      6  C7  UNL d   1       0.568  -0.390   0.691  0.00  0.00    -0.073 A 
ATOM      7  C8  UNL d   1       1.987  -0.824   0.936  0.00  0.00     0.078 C 
ENDROOT
BRANCH   1   8
ATOM      8  C1  UNL d   1       0.750  -0.873  -1.817  0.00  0.00     0.053 C 
ATOM      9  C   UNL d   1       0.960   0.243  -2.829  0.00  0.00     0.018 C 
ENDBRANCH   1   8
TORSDOF 1
ENDMDL
