MODEL 1
REMARK minimizedAffinity -4.90841913
REMARK minimizedRMSD -1
REMARK  1 active torsions:
REMARK  status: ('A' for Active; 'I' for Inactive)
REMARK    1  A    between atoms: C1_2  and  C2_3 
ROOT
ATOM      1  C2  UNL d   1      -0.017  -0.048   0.779  0.00  0.00    -0.076 A 
ATOM      2  C3  UNL d   1       1.278  -0.524   1.048  0.00  0.00     0.004 A 
ATOM      3  C4  UNL d   1       1.855  -0.361   2.306  0.00  0.00    -0.003 A 
ATOM      4  C5  UNL d   1       1.147   0.280   3.316  0.00  0.00     0.000 A 
ATOM      5  C6  UNL d   1      -0.146   0.744   3.072  0.00  0.00     0.000 A 
ATOM      6  C7  UNL d   1      -0.749   0.573   1.814  0.00  0.00    -0.073 A 
ATOM      7  C8  UNL d   1      -2.143   1.097   1.605  0.00  0.00     0.078 C 
ENDROOT
BRANCH   1   8
ATOM      8  C1  UNL d   1      -0.581  -0.229  -0.612  0.00  0.00     0.053 C 
ATOM      9  C   UNL d   1       0.462  -0.009  -1.697  0.00  0.00     0.018 C 
ENDBRANCH   1   8
TORSDOF 1
ENDMDL
