MODEL 1
REMARK minimizedAffinity -5.57602549
REMARK minimizedRMSD -1
REMARK  0 active torsions:
REMARK  status: ('A' for Active; 'I' for Inactive)
ROOT
ATOM      1  C   UNL d   1      -0.254  -0.172  -0.471  0.00  0.00     0.078 C 
ATOM      2  C1  UNL d   1       0.834   0.048  -1.480  0.00  0.00    -0.077 A 
ATOM      3  C2  UNL d   1       1.845  -0.903  -1.669  0.00  0.00    -0.001 A 
ATOM      4  C3  UNL d   1       2.857  -0.681  -2.604  0.00  0.00     0.003 A 
ATOM      5  C4  UNL d   1       2.869   0.491  -3.357  0.00  0.00    -0.005 A 
ATOM      6  C5  UNL d   1       1.869   1.444  -3.174  0.00  0.00     0.003 A 
ATOM      7  C6  UNL d   1       0.856   1.224  -2.239  0.00  0.00    -0.001 A 
ENDROOT
TORSDOF 0
ENDMDL
