MODEL 1
REMARK minimizedAffinity -2.93679261
REMARK minimizedRMSD -1
REMARK  0 active torsions:
REMARK  status: ('A' for Active; 'I' for Inactive)
ROOT
ATOM      1  C   UNL d   1       1.918  -1.695  -1.538  0.00  0.00     0.078 C 
ATOM      2  C1  UNL d   1       0.780  -0.883  -0.998  0.00  0.00    -0.077 A 
ATOM      3  C2  UNL d   1      -0.308  -1.497  -0.364  0.00  0.00    -0.001 A 
ATOM      4  C3  UNL d   1      -1.365  -0.729   0.125  0.00  0.00     0.003 A 
ATOM      5  C4  UNL d   1      -1.347   0.658  -0.014  0.00  0.00    -0.005 A 
ATOM      6  C5  UNL d   1      -0.270   1.278  -0.645  0.00  0.00     0.003 A 
ATOM      7  C6  UNL d   1       0.789   0.511  -1.135  0.00  0.00    -0.001 A 
ENDROOT
TORSDOF 0
ENDMDL
