MODEL 1
REMARK minimizedAffinity -4.986022
REMARK minimizedRMSD -1
REMARK  0 active torsions:
REMARK  status: ('A' for Active; 'I' for Inactive)
ROOT
ATOM      1  C   UNL d   1      -0.060  -0.664   0.031  0.00  0.00     0.078 C 
ATOM      2  C1  UNL d   1       1.035  -0.045  -0.785  0.00  0.00    -0.077 A 
ATOM      3  C2  UNL d   1       0.808   1.118  -1.533  0.00  0.00    -0.001 A 
ATOM      4  C3  UNL d   1       1.833   1.677  -2.296  0.00  0.00     0.003 A 
ATOM      5  C4  UNL d   1       3.093   1.081  -2.321  0.00  0.00    -0.005 A 
ATOM      6  C5  UNL d   1       3.327  -0.077  -1.582  0.00  0.00     0.003 A 
ATOM      7  C6  UNL d   1       2.303  -0.638  -0.818  0.00  0.00    -0.001 A 
ENDROOT
TORSDOF 0
ENDMDL
