MODEL 1
REMARK minimizedAffinity -2.27329969
REMARK minimizedRMSD -1
REMARK  0 active torsions:
REMARK  status: ('A' for Active; 'I' for Inactive)
ROOT
ATOM      1  C   UNL d   1      -0.398   0.647   0.157  0.00  0.00     0.078 C 
ATOM      2  C1  UNL d   1      -0.980   1.014   1.489  0.00  0.00    -0.077 A 
ATOM      3  C2  UNL d   1      -1.940   0.202   2.105  0.00  0.00    -0.001 A 
ATOM      4  C3  UNL d   1      -2.480   0.561   3.341  0.00  0.00     0.003 A 
ATOM      5  C4  UNL d   1      -2.068   1.733   3.971  0.00  0.00    -0.005 A 
ATOM      6  C5  UNL d   1      -1.115   2.549   3.365  0.00  0.00     0.003 A 
ATOM      7  C6  UNL d   1      -0.573   2.192   2.129  0.00  0.00    -0.001 A 
ENDROOT
TORSDOF 0
ENDMDL
