MODEL 1
REMARK minimizedAffinity -5.46511173
REMARK minimizedRMSD -1
REMARK  0 active torsions:
REMARK  status: ('A' for Active; 'I' for Inactive)
ROOT
ATOM      1  C   UNL d   1      -0.551   0.015   0.187  0.00  0.00     0.078 C 
ATOM      2  C1  UNL d   1       0.736   0.272  -0.539  0.00  0.00    -0.077 A 
ATOM      3  C2  UNL d   1       1.940  -0.282  -0.088  0.00  0.00    -0.001 A 
ATOM      4  C3  UNL d   1       3.132  -0.027  -0.769  0.00  0.00     0.003 A 
ATOM      5  C4  UNL d   1       3.131   0.783  -1.902  0.00  0.00    -0.005 A 
ATOM      6  C5  UNL d   1       1.938   1.340  -2.357  0.00  0.00     0.003 A 
ATOM      7  C6  UNL d   1       0.745   1.086  -1.678  0.00  0.00    -0.001 A 
ENDROOT
TORSDOF 0
ENDMDL
