MODEL 1
REMARK minimizedAffinity -4.90191603
REMARK minimizedRMSD -1
REMARK  0 active torsions:
REMARK  status: ('A' for Active; 'I' for Inactive)
ROOT
ATOM      1  C   UNL d   1       2.176   1.547  -3.974  0.00  0.00     0.078 C 
ATOM      2  C1  UNL d   1       2.137   0.692  -2.743  0.00  0.00    -0.077 A 
ATOM      3  C2  UNL d   1       3.014  -0.388  -2.587  0.00  0.00    -0.001 A 
ATOM      4  C3  UNL d   1       2.960  -1.182  -1.440  0.00  0.00     0.003 A 
ATOM      5  C4  UNL d   1       2.030  -0.905  -0.441  0.00  0.00    -0.005 A 
ATOM      6  C5  UNL d   1       1.151   0.166  -0.588  0.00  0.00     0.003 A 
ATOM      7  C6  UNL d   1       1.204   0.961  -1.734  0.00  0.00    -0.001 A 
ENDROOT
TORSDOF 0
ENDMDL
