MODEL 1
REMARK minimizedAffinity -3.24487066
REMARK minimizedRMSD -1
REMARK  0 active torsions:
REMARK  status: ('A' for Active; 'I' for Inactive)
ROOT
ATOM      1  C   UNL d   1      -2.264   1.137   3.788  0.00  0.00     0.078 C 
ATOM      2  C1  UNL d   1      -1.558   0.696   2.541  0.00  0.00    -0.077 A 
ATOM      3  C2  UNL d   1      -0.199   0.357   2.563  0.00  0.00    -0.001 A 
ATOM      4  C3  UNL d   1       0.448  -0.042   1.393  0.00  0.00     0.003 A 
ATOM      5  C4  UNL d   1      -0.255  -0.106   0.191  0.00  0.00    -0.005 A 
ATOM      6  C5  UNL d   1      -1.607   0.231   0.159  0.00  0.00     0.003 A 
ATOM      7  C6  UNL d   1      -2.255   0.631   1.328  0.00  0.00    -0.001 A 
ENDROOT
TORSDOF 0
ENDMDL
