MODEL 1
REMARK minimizedAffinity -4.7882123
REMARK minimizedRMSD -1
REMARK  0 active torsions:
REMARK  status: ('A' for Active; 'I' for Inactive)
ROOT
ATOM      1  C   UNL d   1       1.140   1.532  -3.019  0.00  0.00     0.078 C 
ATOM      2  C1  UNL d   1       0.905   0.470  -1.986  0.00  0.00    -0.077 A 
ATOM      3  C2  UNL d   1      -0.091   0.618  -1.013  0.00  0.00    -0.001 A 
ATOM      4  C3  UNL d   1      -0.292  -0.374  -0.052  0.00  0.00     0.003 A 
ATOM      5  C4  UNL d   1       0.500  -1.521  -0.055  0.00  0.00    -0.005 A 
ATOM      6  C5  UNL d   1       1.495  -1.676  -1.018  0.00  0.00     0.003 A 
ATOM      7  C6  UNL d   1       1.697  -0.685  -1.979  0.00  0.00    -0.001 A 
ENDROOT
TORSDOF 0
ENDMDL
