MODEL 1
REMARK minimizedAffinity -4.71302605
REMARK minimizedRMSD -1
REMARK  0 active torsions:
REMARK  status: ('A' for Active; 'I' for Inactive)
ROOT
ATOM      1  C   UNL d   1      -1.157   0.372   0.723  0.00  0.00     0.078 C 
ATOM      2  C1  UNL d   1      -0.027  -0.269  -0.025  0.00  0.00    -0.077 A 
ATOM      3  C2  UNL d   1       0.153  -1.657  -0.009  0.00  0.00    -0.001 A 
ATOM      4  C3  UNL d   1       1.216  -2.239  -0.702  0.00  0.00     0.003 A 
ATOM      5  C4  UNL d   1       2.107  -1.440  -1.416  0.00  0.00    -0.005 A 
ATOM      6  C5  UNL d   1       1.937  -0.058  -1.436  0.00  0.00     0.003 A 
ATOM      7  C6  UNL d   1       0.875   0.526  -0.743  0.00  0.00    -0.001 A 
ENDROOT
TORSDOF 0
ENDMDL
