MODEL 1
REMARK minimizedAffinity -3.77861714
REMARK minimizedRMSD -1
REMARK  0 active torsions:
REMARK  status: ('A' for Active; 'I' for Inactive)
ROOT
ATOM      1  C   UNL d   1      -1.182  -0.639  -0.106  0.00  0.00     0.078 C 
ATOM      2  C1  UNL d   1      -1.681   0.202   1.031  0.00  0.00    -0.077 A 
ATOM      3  C2  UNL d   1      -1.244   1.521   1.199  0.00  0.00    -0.001 A 
ATOM      4  C3  UNL d   1      -1.710   2.289   2.267  0.00  0.00     0.003 A 
ATOM      5  C4  UNL d   1      -2.615   1.746   3.177  0.00  0.00    -0.005 A 
ATOM      6  C5  UNL d   1      -3.054   0.433   3.019  0.00  0.00     0.003 A 
ATOM      7  C6  UNL d   1      -2.589  -0.336   1.951  0.00  0.00    -0.001 A 
ENDROOT
TORSDOF 0
ENDMDL
