MODEL 1
REMARK minimizedAffinity -2.3908968
REMARK minimizedRMSD -1
REMARK  0 active torsions:
REMARK  status: ('A' for Active; 'I' for Inactive)
ROOT
ATOM      1  C   UNL d   1      -0.959   0.752   0.715  0.00  0.00     0.078 C 
ATOM      2  C1  UNL d   1       0.090   0.514  -0.331  0.00  0.00    -0.077 A 
ATOM      3  C2  UNL d   1       0.819  -0.681  -0.362  0.00  0.00    -0.001 A 
ATOM      4  C3  UNL d   1       1.799  -0.885  -1.335  0.00  0.00     0.003 A 
ATOM      5  C4  UNL d   1       2.059   0.102  -2.283  0.00  0.00    -0.005 A 
ATOM      6  C5  UNL d   1       1.340   1.295  -2.259  0.00  0.00     0.003 A 
ATOM      7  C6  UNL d   1       0.360   1.501  -1.287  0.00  0.00    -0.001 A 
ENDROOT
TORSDOF 0
ENDMDL
