MODEL 1
REMARK minimizedAffinity -4.80302143
REMARK minimizedRMSD -1
REMARK  0 active torsions:
REMARK  status: ('A' for Active; 'I' for Inactive)
ROOT
ATOM      1  C   UNL d   1       0.862   1.559  -2.261  0.00  0.00     0.078 C 
ATOM      2  C1  UNL d   1       0.449   0.363  -1.455  0.00  0.00    -0.077 A 
ATOM      3  C2  UNL d   1       1.183  -0.828  -1.504  0.00  0.00    -0.001 A 
ATOM      4  C3  UNL d   1       0.782  -1.937  -0.757  0.00  0.00     0.003 A 
ATOM      5  C4  UNL d   1      -0.356  -1.865   0.044  0.00  0.00    -0.005 A 
ATOM      6  C5  UNL d   1      -1.094  -0.685   0.098  0.00  0.00     0.003 A 
ATOM      7  C6  UNL d   1      -0.694   0.425  -0.649  0.00  0.00    -0.001 A 
ENDROOT
TORSDOF 0
ENDMDL
