MODEL 1
REMARK minimizedAffinity -1.85580468
REMARK minimizedRMSD -1
REMARK  0 active torsions:
REMARK  status: ('A' for Active; 'I' for Inactive)
ROOT
ATOM      1  C   UNL d   1       1.118   1.965  -2.602  0.00  0.00     0.078 C 
ATOM      2  C1  UNL d   1       0.894   0.814  -1.667  0.00  0.00    -0.077 A 
ATOM      3  C2  UNL d   1       1.647  -0.361  -1.777  0.00  0.00    -0.001 A 
ATOM      4  C3  UNL d   1       1.421  -1.428  -0.906  0.00  0.00     0.003 A 
ATOM      5  C4  UNL d   1       0.440  -1.331   0.079  0.00  0.00    -0.005 A 
ATOM      6  C5  UNL d   1      -0.316  -0.167   0.195  0.00  0.00     0.003 A 
ATOM      7  C6  UNL d   1      -0.091   0.902  -0.675  0.00  0.00    -0.001 A 
ENDROOT
TORSDOF 0
ENDMDL
