MODEL 1
REMARK minimizedAffinity -5.93617678
REMARK minimizedRMSD -1
REMARK  0 active torsions:
REMARK  status: ('A' for Active; 'I' for Inactive)
ROOT
ATOM      1  C   UNL d   1       2.402   1.246  -2.516  0.00  0.00     0.078 C 
ATOM      2  C1  UNL d   1       1.673   0.299  -1.610  0.00  0.00    -0.077 A 
ATOM      3  C2  UNL d   1       0.481   0.677  -0.981  0.00  0.00    -0.001 A 
ATOM      4  C3  UNL d   1      -0.182  -0.212  -0.133  0.00  0.00     0.003 A 
ATOM      5  C4  UNL d   1       0.341  -1.483   0.096  0.00  0.00    -0.005 A 
ATOM      6  C5  UNL d   1       1.528  -1.867  -0.524  0.00  0.00     0.003 A 
ATOM      7  C6  UNL d   1       2.192  -0.980  -1.373  0.00  0.00    -0.001 A 
ENDROOT
TORSDOF 0
ENDMDL
