MODEL 1
REMARK minimizedAffinity 21.9831924
REMARK minimizedRMSD -1
REMARK  1 active torsions:
REMARK  status: ('A' for Active; 'I' for Inactive)
REMARK    1  A    between atoms: C1_2  and  C2_3 
ROOT
ATOM      1  C2  UNL d   1      -2.970   3.002   1.337  0.00  0.00    -0.081 A 
ATOM      2  C3  UNL d   1      -2.674   4.139   0.576  0.00  0.00     0.006 A 
ATOM      3  C4  UNL d   1      -3.654   5.105   0.335  0.00  0.00     0.002 A 
ATOM      4  C5  UNL d   1      -4.943   4.953   0.857  0.00  0.00    -0.080 A 
ATOM      5  C6  UNL d   1      -5.996   5.997   0.631  0.00  0.00     0.076 C 
ATOM      6  C7  UNL d   1      -5.244   3.809   1.603  0.00  0.00     0.002 A 
ATOM      7  C8  UNL d   1      -4.265   2.842   1.844  0.00  0.00     0.006 A 
ENDROOT
BRANCH   1   8
ATOM      8  C1  UNL d   1      -1.898   1.990   1.653  0.00  0.00     0.054 C 
ATOM      9  C   UNL d   1      -1.707   1.837   3.156  0.00  0.00     0.018 C 
ENDBRANCH   1   8
TORSDOF 1
ENDMDL
