MODEL 1
REMARK minimizedAffinity 18.0738392
REMARK minimizedRMSD -1
REMARK  1 active torsions:
REMARK  status: ('A' for Active; 'I' for Inactive)
REMARK    1  A    between atoms: C1_2  and  C2_3 
ROOT
ATOM      1  C2  UNL d   1       3.779   2.124   5.936  0.00  0.00    -0.081 A 
ATOM      2  C3  UNL d   1       5.175   2.223   5.883  0.00  0.00     0.006 A 
ATOM      3  C4  UNL d   1       5.796   3.474   5.888  0.00  0.00     0.002 A 
ATOM      4  C5  UNL d   1       5.034   4.646   5.953  0.00  0.00    -0.080 A 
ATOM      5  C6  UNL d   1       5.690   5.994   5.989  0.00  0.00     0.076 C 
ATOM      6  C7  UNL d   1       3.639   4.547   5.988  0.00  0.00     0.002 A 
ATOM      7  C8  UNL d   1       3.017   3.296   5.982  0.00  0.00     0.006 A 
ENDROOT
BRANCH   1   8
ATOM      8  C1  UNL d   1       3.108   0.775   5.996  0.00  0.00     0.054 C 
ATOM      9  C   UNL d   1       3.501  -0.091   4.808  0.00  0.00     0.018 C 
ENDBRANCH   1   8
TORSDOF 1
ENDMDL
