MODEL 1
REMARK minimizedAffinity 15.2507658
REMARK minimizedRMSD -1
REMARK  1 active torsions:
REMARK  status: ('A' for Active; 'I' for Inactive)
REMARK    1  A    between atoms: C1_2  and  C2_3 
ROOT
ATOM      1  C2  UNL d   1      -1.961  -1.146  -0.731  0.00  0.00    -0.081 A 
ATOM      2  C3  UNL d   1      -3.103  -1.103   0.076  0.00  0.00     0.006 A 
ATOM      3  C4  UNL d   1      -3.020  -1.402   1.438  0.00  0.00     0.002 A 
ATOM      4  C5  UNL d   1      -1.791  -1.740   2.016  0.00  0.00    -0.080 A 
ATOM      5  C6  UNL d   1      -1.682  -2.033   3.483  0.00  0.00     0.076 C 
ATOM      6  C7  UNL d   1      -0.653  -1.800   1.206  0.00  0.00     0.002 A 
ATOM      7  C8  UNL d   1      -0.736  -1.502  -0.156  0.00  0.00     0.006 A 
ENDROOT
BRANCH   1   8
ATOM      8  C1  UNL d   1      -2.036  -0.761  -2.187  0.00  0.00     0.054 C 
ATOM      9  C   UNL d   1      -1.499  -1.870  -3.081  0.00  0.00     0.018 C 
ENDBRANCH   1   8
TORSDOF 1
ENDMDL
