MODEL 1
REMARK minimizedAffinity 14.3082495
REMARK minimizedRMSD -1
REMARK  1 active torsions:
REMARK  status: ('A' for Active; 'I' for Inactive)
REMARK    1  A    between atoms: C1_2  and  C2_3 
ROOT
ATOM      1  C2  UNL d   1       3.039   1.453  -1.117  0.00  0.00    -0.081 A 
ATOM      2  C3  UNL d   1       2.326   0.249  -1.065  0.00  0.00     0.006 A 
ATOM      3  C4  UNL d   1       2.535  -0.740  -2.029  0.00  0.00     0.002 A 
ATOM      4  C5  UNL d   1       3.465  -0.545  -3.056  0.00  0.00    -0.080 A 
ATOM      5  C6  UNL d   1       3.721  -1.611  -4.080  0.00  0.00     0.076 C 
ATOM      6  C7  UNL d   1       4.164   0.665  -3.118  0.00  0.00     0.002 A 
ATOM      7  C8  UNL d   1       3.955   1.654  -2.155  0.00  0.00     0.006 A 
ENDROOT
BRANCH   1   8
ATOM      8  C1  UNL d   1       2.863   2.495  -0.042  0.00  0.00     0.054 C 
ATOM      9  C   UNL d   1       4.195   3.119   0.347  0.00  0.00     0.018 C 
ENDBRANCH   1   8
TORSDOF 1
ENDMDL
