MODEL 1
REMARK minimizedAffinity 22.8167191
REMARK minimizedRMSD -1
REMARK  1 active torsions:
REMARK  status: ('A' for Active; 'I' for Inactive)
REMARK    1  A    between atoms: C1_2  and  C2_3 
ROOT
ATOM      1  C2  UNL d   1      -0.449  -4.022   0.768  0.00  0.00    -0.081 A 
ATOM      2  C3  UNL d   1      -0.446  -2.631   0.931  0.00  0.00     0.006 A 
ATOM      3  C4  UNL d   1      -0.758  -1.792  -0.141  0.00  0.00     0.002 A 
ATOM      4  C5  UNL d   1      -1.086  -2.328  -1.390  0.00  0.00    -0.080 A 
ATOM      5  C6  UNL d   1      -1.453  -1.439  -2.541  0.00  0.00     0.076 C 
ATOM      6  C7  UNL d   1      -1.072  -3.717  -1.558  0.00  0.00     0.002 A 
ATOM      7  C8  UNL d   1      -0.759  -4.557  -0.487  0.00  0.00     0.006 A 
ENDROOT
BRANCH   1   8
ATOM      8  C1  UNL d   1      -0.176  -4.931   1.939  0.00  0.00     0.054 C 
ATOM      9  C   UNL d   1      -1.252  -5.999   2.073  0.00  0.00     0.018 C 
ENDBRANCH   1   8
TORSDOF 1
ENDMDL
