MODEL 1
REMARK minimizedAffinity 25.2967663
REMARK minimizedRMSD -1
REMARK  1 active torsions:
REMARK  status: ('A' for Active; 'I' for Inactive)
REMARK    1  A    between atoms: C1_2  and  C2_3 
ROOT
ATOM      1  C2  UNL d   1       3.284   1.787  -0.985  0.00  0.00    -0.081 A 
ATOM      2  C3  UNL d   1       3.014   2.579   0.137  0.00  0.00     0.006 A 
ATOM      3  C4  UNL d   1       3.731   3.757   0.362  0.00  0.00     0.002 A 
ATOM      4  C5  UNL d   1       4.723   4.166  -0.536  0.00  0.00    -0.080 A 
ATOM      5  C6  UNL d   1       5.479   5.443  -0.323  0.00  0.00     0.076 C 
ATOM      6  C7  UNL d   1       5.005   3.365  -1.648  0.00  0.00     0.002 A 
ATOM      7  C8  UNL d   1       4.289   2.187  -1.873  0.00  0.00     0.006 A 
ENDROOT
BRANCH   1   8
ATOM      8  C1  UNL d   1       2.468   0.550  -1.265  0.00  0.00     0.054 C 
ATOM      9  C   UNL d   1       3.285  -0.714  -1.038  0.00  0.00     0.018 C 
ENDBRANCH   1   8
TORSDOF 1
ENDMDL
