MODEL 1
REMARK minimizedAffinity 11.2312222
REMARK minimizedRMSD -1
REMARK  1 active torsions:
REMARK  status: ('A' for Active; 'I' for Inactive)
REMARK    1  A    between atoms: C1_2  and  C2_3 
ROOT
ATOM      1  C2  UNL d   1       4.467   4.731   5.270  0.00  0.00    -0.081 A 
ATOM      2  C3  UNL d   1       5.375   4.928   4.222  0.00  0.00     0.006 A 
ATOM      3  C4  UNL d   1       5.879   3.838   3.508  0.00  0.00     0.002 A 
ATOM      4  C5  UNL d   1       5.478   2.536   3.824  0.00  0.00    -0.080 A 
ATOM      5  C6  UNL d   1       5.989   1.360   3.045  0.00  0.00     0.076 C 
ATOM      6  C7  UNL d   1       4.585   2.337   4.882  0.00  0.00     0.002 A 
ATOM      7  C8  UNL d   1       4.081   3.426   5.597  0.00  0.00     0.006 A 
ENDROOT
BRANCH   1   8
ATOM      8  C1  UNL d   1       3.872   5.908   5.999  0.00  0.00     0.054 C 
ATOM      9  C   UNL d   1       2.351   5.850   5.996  0.00  0.00     0.018 C 
ENDBRANCH   1   8
TORSDOF 1
ENDMDL
