MODEL 1
REMARK minimizedAffinity 20.2168922
REMARK minimizedRMSD -1
REMARK  1 active torsions:
REMARK  status: ('A' for Active; 'I' for Inactive)
REMARK    1  A    between atoms: C1_2  and  C2_3 
ROOT
ATOM      1  C2  UNL d   1      -1.795   0.424  -2.888  0.00  0.00    -0.081 A 
ATOM      2  C3  UNL d   1      -2.154   1.670  -3.416  0.00  0.00     0.006 A 
ATOM      3  C4  UNL d   1      -1.379   2.266  -4.414  0.00  0.00     0.002 A 
ATOM      4  C5  UNL d   1      -0.238   1.622  -4.906  0.00  0.00    -0.080 A 
ATOM      5  C6  UNL d   1       0.585   2.237  -5.999  0.00  0.00     0.076 C 
ATOM      6  C7  UNL d   1       0.130   0.386  -4.366  0.00  0.00     0.002 A 
ATOM      7  C8  UNL d   1      -0.644  -0.210  -3.367  0.00  0.00     0.006 A 
ENDROOT
BRANCH   1   8
ATOM      8  C1  UNL d   1      -2.664  -0.251  -1.857  0.00  0.00     0.054 C 
ATOM      9  C   UNL d   1      -2.016  -1.526  -1.336  0.00  0.00     0.018 C 
ENDBRANCH   1   8
TORSDOF 1
ENDMDL
