MODEL 1
REMARK minimizedAffinity 10.2769136
REMARK minimizedRMSD -1
REMARK  1 active torsions:
REMARK  status: ('A' for Active; 'I' for Inactive)
REMARK    1  A    between atoms: C1_2  and  C2_3 
ROOT
ATOM      1  C2  UNL d   1      -1.613  -2.670  -0.670  0.00  0.00    -0.081 A 
ATOM      2  C3  UNL d   1      -2.254  -1.522  -0.188  0.00  0.00     0.006 A 
ATOM      3  C4  UNL d   1      -2.196  -1.195   1.168  0.00  0.00     0.002 A 
ATOM      4  C5  UNL d   1      -1.490  -2.005   2.064  0.00  0.00    -0.080 A 
ATOM      5  C6  UNL d   1      -1.395  -1.649   3.518  0.00  0.00     0.076 C 
ATOM      6  C7  UNL d   1      -0.865  -3.162   1.586  0.00  0.00     0.002 A 
ATOM      7  C8  UNL d   1      -0.923  -3.489   0.230  0.00  0.00     0.006 A 
ENDROOT
BRANCH   1   8
ATOM      8  C1  UNL d   1      -1.620  -2.990  -2.143  0.00  0.00     0.054 C 
ATOM      9  C   UNL d   1      -2.357  -1.922  -2.938  0.00  0.00     0.018 C 
ENDBRANCH   1   8
TORSDOF 1
ENDMDL
