MODEL 1
REMARK minimizedAffinity 27.6534023
REMARK minimizedRMSD -1
REMARK  1 active torsions:
REMARK  status: ('A' for Active; 'I' for Inactive)
REMARK    1  A    between atoms: C1_2  and  C2_3 
ROOT
ATOM      1  C2  UNL d   1       0.583   1.855  -3.227  0.00  0.00    -0.081 A 
ATOM      2  C3  UNL d   1       1.581   2.497  -2.484  0.00  0.00     0.006 A 
ATOM      3  C4  UNL d   1       2.438   1.759  -1.664  0.00  0.00     0.002 A 
ATOM      4  C5  UNL d   1       2.317   0.368  -1.579  0.00  0.00    -0.080 A 
ATOM      5  C6  UNL d   1       3.250  -0.439  -0.726  0.00  0.00     0.076 C 
ATOM      6  C7  UNL d   1       1.309  -0.272  -2.308  0.00  0.00     0.002 A 
ATOM      7  C8  UNL d   1       0.451   0.465  -3.128  0.00  0.00     0.006 A 
ENDROOT
BRANCH   1   8
ATOM      8  C1  UNL d   1      -0.301   2.640  -4.162  0.00  0.00     0.054 C 
ATOM      9  C   UNL d   1      -1.764   2.256  -3.993  0.00  0.00     0.018 C 
ENDBRANCH   1   8
TORSDOF 1
ENDMDL
