MODEL 1
REMARK minimizedAffinity 2.90546393
REMARK minimizedRMSD -1
REMARK  0 active torsions:
REMARK  status: ('A' for Active; 'I' for Inactive)
ROOT
ATOM      1  O1  BZF d   1       1.104   1.252  -0.488  0.00  0.00    -0.204 OA
ATOM      2  C2  BZF d   1       1.534   2.410   0.130  0.00  0.00     0.174 A 
ATOM      3  C3  BZF d   1       2.452   2.134   1.079  0.00  0.00    -0.012 A 
ATOM      4  C3A BZF d   1       2.673   0.723   0.990  0.00  0.00    -0.107 A 
ATOM      5  C4  BZF d   1       3.486  -0.144   1.661  0.00  0.00     0.055 A 
ATOM      6  C5  BZF d   1       3.409  -1.472   1.382  0.00  0.00    -0.016 A 
ATOM      7  C6  BZF d   1       2.528  -1.967   0.443  0.00  0.00     0.022 A 
ATOM      8  C7  BZF d   1       1.705  -1.145  -0.252  0.00  0.00     0.029 A 
ATOM      9  C7A BZF d   1       1.804   0.201   0.004  0.00  0.00     0.058 A 
ENDROOT
TORSDOF 0
ENDMDL
