MODEL 1
REMARK minimizedAffinity -4.78140736
REMARK minimizedRMSD -1
REMARK  0 active torsions:
REMARK  status: ('A' for Active; 'I' for Inactive)
ROOT
ATOM      1  O1  BZF d   1      -0.039  -0.692   0.798  0.00  0.00    -0.204 OA
ATOM      2  C2  BZF d   1       0.392  -0.920  -0.495  0.00  0.00     0.174 A 
ATOM      3  C3  BZF d   1      -0.377  -0.256  -1.380  0.00  0.00    -0.012 A 
ATOM      4  C3A BZF d   1      -1.293   0.505  -0.587  0.00  0.00    -0.107 A 
ATOM      5  C4  BZF d   1      -2.298   1.378  -0.891  0.00  0.00     0.055 A 
ATOM      6  C5  BZF d   1      -3.052   1.894   0.116  0.00  0.00    -0.016 A 
ATOM      7  C6  BZF d   1      -2.832   1.555   1.435  0.00  0.00     0.022 A 
ATOM      8  C7  BZF d   1      -1.843   0.697   1.786  0.00  0.00     0.029 A 
ATOM      9  C7A BZF d   1      -1.059   0.200   0.774  0.00  0.00     0.058 A 
ENDROOT
TORSDOF 0
ENDMDL
