MODEL 1
REMARK minimizedAffinity -4.17274237
REMARK minimizedRMSD -1
REMARK  0 active torsions:
REMARK  status: ('A' for Active; 'I' for Inactive)
ROOT
ATOM      1  O1  BZF d   1      -0.865  -0.298  -1.312  0.00  0.00    -0.204 OA
ATOM      2  C2  BZF d   1      -1.252   1.013  -1.112  0.00  0.00     0.174 A 
ATOM      3  C3  BZF d   1      -0.449   1.617  -0.213  0.00  0.00    -0.012 A 
ATOM      4  C3A BZF d   1       0.555   0.648   0.106  0.00  0.00    -0.107 A 
ATOM      5  C4  BZF d   1       1.645   0.661   0.929  0.00  0.00     0.055 A 
ATOM      6  C5  BZF d   1       2.379  -0.474   1.069  0.00  0.00    -0.016 A 
ATOM      7  C6  BZF d   1       2.051  -1.638   0.407  0.00  0.00     0.022 A 
ATOM      8  C7  BZF d   1       0.982  -1.698  -0.424  0.00  0.00     0.029 A 
ATOM      9  C7A BZF d   1       0.257  -0.544  -0.594  0.00  0.00     0.058 A 
ENDROOT
TORSDOF 0
ENDMDL
