MODEL 1
REMARK minimizedAffinity -2.41868782
REMARK minimizedRMSD -1
REMARK  0 active torsions:
REMARK  status: ('A' for Active; 'I' for Inactive)
ROOT
ATOM      1  O1  BZF d   1      -0.268  -1.735  -0.415  0.00  0.00    -0.204 OA
ATOM      2  C2  BZF d   1       0.982  -2.191  -0.042  0.00  0.00     0.174 A 
ATOM      3  C3  BZF d   1       1.854  -1.167   0.059  0.00  0.00    -0.012 A 
ATOM      4  C3A BZF d   1       1.080   0.012  -0.182  0.00  0.00    -0.107 A 
ATOM      5  C4  BZF d   1       1.379   1.344  -0.204  0.00  0.00     0.055 A 
ATOM      6  C5  BZF d   1       0.410   2.234  -0.544  0.00  0.00    -0.016 A 
ATOM      7  C6  BZF d   1      -0.866   1.827  -0.873  0.00  0.00     0.022 A 
ATOM      8  C7  BZF d   1      -1.212   0.516  -0.861  0.00  0.00     0.029 A 
ATOM      9  C7A BZF d   1      -0.244  -0.383  -0.486  0.00  0.00     0.058 A 
ENDROOT
TORSDOF 0
ENDMDL
