MODEL 1
REMARK minimizedAffinity -5.40367126
REMARK minimizedRMSD -1
REMARK  0 active torsions:
REMARK  status: ('A' for Active; 'I' for Inactive)
ROOT
ATOM      1  O1  BZF d   1      -0.215   1.078  -0.541  0.00  0.00    -0.204 OA
ATOM      2  C2  BZF d   1      -0.828  -0.141  -0.755  0.00  0.00     0.174 A 
ATOM      3  C3  BZF d   1       0.080  -1.138  -0.763  0.00  0.00    -0.012 A 
ATOM      4  C3A BZF d   1       1.328  -0.513  -0.448  0.00  0.00    -0.107 A 
ATOM      5  C4  BZF d   1       2.601  -0.983  -0.293  0.00  0.00     0.055 A 
ATOM      6  C5  BZF d   1       3.607  -0.100  -0.059  0.00  0.00    -0.016 A 
ATOM      7  C6  BZF d   1       3.377   1.258   0.021  0.00  0.00     0.022 A 
ATOM      8  C7  BZF d   1       2.131   1.771  -0.121  0.00  0.00     0.029 A 
ATOM      9  C7A BZF d   1       1.107   0.878  -0.325  0.00  0.00     0.058 A 
ENDROOT
TORSDOF 0
ENDMDL
