MODEL 1
REMARK minimizedAffinity -2.78193545
REMARK minimizedRMSD -1
REMARK  0 active torsions:
REMARK  status: ('A' for Active; 'I' for Inactive)
ROOT
ATOM      1  O1  BZF d   1       2.583  -1.905   0.652  0.00  0.00    -0.204 OA
ATOM      2  C2  BZF d   1       3.042  -1.050   1.635  0.00  0.00     0.174 A 
ATOM      3  C3  BZF d   1       2.321   0.089   1.653  0.00  0.00    -0.012 A 
ATOM      4  C3A BZF d   1       1.291  -0.101   0.678  0.00  0.00    -0.107 A 
ATOM      5  C4  BZF d   1       0.252   0.672   0.246  0.00  0.00     0.055 A 
ATOM      6  C5  BZF d   1      -0.527   0.223  -0.773  0.00  0.00    -0.016 A 
ATOM      7  C6  BZF d   1      -0.292  -0.990  -1.386  0.00  0.00     0.022 A 
ATOM      8  C7  BZF d   1       0.724  -1.795  -0.989  0.00  0.00     0.029 A 
ATOM      9  C7A BZF d   1       1.492  -1.359   0.062  0.00  0.00     0.058 A 
ENDROOT
TORSDOF 0
ENDMDL
