MODEL 1
REMARK minimizedAffinity -3.55398297
REMARK minimizedRMSD -1
REMARK  0 active torsions:
REMARK  status: ('A' for Active; 'I' for Inactive)
ROOT
ATOM      1  C   UNL d   1      -1.504  -1.292   2.143  0.00  0.00     0.124 A 
ATOM      2  C1  UNL d   1      -0.522  -1.798   1.302  0.00  0.00     0.062 A 
ATOM      3  C2  UNL d   1       0.162  -0.949   0.437  0.00  0.00     0.162 A 
ATOM      4  C3  UNL d   1      -0.131   0.414   0.409  0.00  0.00    -0.034 A 
ATOM      5  C4  UNL d   1      -1.121   0.915   1.257  0.00  0.00     0.162 A 
ATOM      6  C5  UNL d   1      -1.802   0.063   2.120  0.00  0.00     0.062 A 
ATOM      7  F   UNL d   1      -2.750   0.553   2.932  0.00  0.00    -0.097 F 
ATOM      8  F1  UNL d   1      -1.428   2.220   1.256  0.00  0.00    -0.096 F 
ATOM      9  I   UNL d   1       0.890   1.686  -0.884  0.00  0.00    -0.060 I 
ATOM     10  F2  UNL d   1       1.106  -1.465  -0.365  0.00  0.00    -0.096 F 
ATOM     11  F3  UNL d   1      -0.233  -3.107   1.322  0.00  0.00    -0.097 F 
ATOM     12  F4  UNL d   1      -2.162  -2.111   2.974  0.00  0.00    -0.092 F 
ENDROOT
TORSDOF 0
ENDMDL
