MODEL 1
REMARK minimizedAffinity 1.07173514
REMARK minimizedRMSD -1
REMARK  0 active torsions:
REMARK  status: ('A' for Active; 'I' for Inactive)
ROOT
ATOM      1  C   UNL d   1      -0.737  -0.871   1.119  0.00  0.00     0.124 A 
ATOM      2  C1  UNL d   1       0.049  -1.529   0.183  0.00  0.00     0.062 A 
ATOM      3  C2  UNL d   1       0.590  -0.830  -0.892  0.00  0.00     0.162 A 
ATOM      4  C3  UNL d   1       0.347   0.536  -1.038  0.00  0.00    -0.034 A 
ATOM      5  C4  UNL d   1      -0.445   1.191  -0.093  0.00  0.00     0.162 A 
ATOM      6  C5  UNL d   1      -0.983   0.488   0.980  0.00  0.00     0.062 A 
ATOM      7  F   UNL d   1      -1.743   1.125   1.883  0.00  0.00    -0.097 F 
ATOM      8  F1  UNL d   1      -0.699   2.503  -0.203  0.00  0.00    -0.096 F 
ATOM      9  I   UNL d   1       1.154   1.584  -2.645  0.00  0.00    -0.060 I 
ATOM     10  F2  UNL d   1       1.346  -1.491  -1.781  0.00  0.00    -0.096 F 
ATOM     11  F3  UNL d   1       0.288  -2.842   0.314  0.00  0.00    -0.097 F 
ATOM     12  F4  UNL d   1      -1.257  -1.546   2.152  0.00  0.00    -0.092 F 
ENDROOT
TORSDOF 0
ENDMDL
