MODEL 1
REMARK minimizedAffinity -4.1685667
REMARK minimizedRMSD -1
REMARK  0 active torsions:
REMARK  status: ('A' for Active; 'I' for Inactive)
ROOT
ATOM      1  C   UNL d   1      -1.823  -1.646   1.632  0.00  0.00     0.124 A 
ATOM      2  C1  UNL d   1      -2.207  -0.312   1.639  0.00  0.00     0.062 A 
ATOM      3  C2  UNL d   1      -1.449   0.639   0.964  0.00  0.00     0.162 A 
ATOM      4  C3  UNL d   1      -0.297   0.260   0.274  0.00  0.00    -0.034 A 
ATOM      5  C4  UNL d   1       0.084  -1.083   0.271  0.00  0.00     0.162 A 
ATOM      6  C5  UNL d   1      -0.678  -2.030   0.948  0.00  0.00     0.062 A 
ATOM      7  F   UNL d   1      -0.305  -3.318   0.940  0.00  0.00    -0.097 F 
ATOM      8  F1  UNL d   1       1.185  -1.482  -0.382  0.00  0.00    -0.096 F 
ATOM      9  I   UNL d   1       0.840   1.679  -0.738  0.00  0.00    -0.060 I 
ATOM     10  F2  UNL d   1      -1.844   1.920   0.988  0.00  0.00    -0.096 F 
ATOM     11  F3  UNL d   1      -3.313   0.062   2.300  0.00  0.00    -0.097 F 
ATOM     12  F4  UNL d   1      -2.554  -2.559   2.284  0.00  0.00    -0.092 F 
ENDROOT
TORSDOF 0
ENDMDL
