MODEL 1
REMARK minimizedAffinity 1.21793127
REMARK minimizedRMSD -1
REMARK  0 active torsions:
REMARK  status: ('A' for Active; 'I' for Inactive)
ROOT
ATOM      1  C   UNL d   1       1.383   1.790  -2.134  0.00  0.00     0.124 A 
ATOM      2  C1  UNL d   1       2.182   1.316  -1.103  0.00  0.00     0.062 A 
ATOM      3  C2  UNL d   1       1.678   0.388  -0.196  0.00  0.00     0.162 A 
ATOM      4  C3  UNL d   1       0.367  -0.074  -0.317  0.00  0.00    -0.034 A 
ATOM      5  C4  UNL d   1      -0.431   0.408  -1.357  0.00  0.00     0.162 A 
ATOM      6  C5  UNL d   1       0.078   1.335  -2.260  0.00  0.00     0.062 A 
ATOM      7  F   UNL d   1      -0.696   1.792  -3.256  0.00  0.00    -0.097 F 
ATOM      8  F1  UNL d   1      -1.695  -0.015  -1.503  0.00  0.00    -0.096 F 
ATOM      9  I   UNL d   1      -0.390  -1.462   1.036  0.00  0.00    -0.060 I 
ATOM     10  F2  UNL d   1       2.473  -0.052   0.791  0.00  0.00    -0.096 F 
ATOM     11  F3  UNL d   1       3.443   1.755  -0.978  0.00  0.00    -0.097 F 
ATOM     12  F4  UNL d   1       1.870   2.684  -3.004  0.00  0.00    -0.092 F 
ENDROOT
TORSDOF 0
ENDMDL
