MODEL 1
REMARK minimizedAffinity 1.2092402
REMARK minimizedRMSD -1
REMARK  0 active torsions:
REMARK  status: ('A' for Active; 'I' for Inactive)
ROOT
ATOM      1  C   UNL d   1       0.528   1.528  -2.582  0.00  0.00     0.124 A 
ATOM      2  C1  UNL d   1       0.668   2.016  -1.290  0.00  0.00     0.062 A 
ATOM      3  C2  UNL d   1       0.697   1.140  -0.209  0.00  0.00     0.162 A 
ATOM      4  C3  UNL d   1       0.585  -0.236  -0.416  0.00  0.00    -0.034 A 
ATOM      5  C4  UNL d   1       0.443  -0.719  -1.717  0.00  0.00     0.162 A 
ATOM      6  C5  UNL d   1       0.415   0.161  -2.794  0.00  0.00     0.062 A 
ATOM      7  F   UNL d   1       0.280  -0.312  -4.041  0.00  0.00    -0.097 F 
ATOM      8  F1  UNL d   1       0.334  -2.035  -1.952  0.00  0.00    -0.096 F 
ATOM      9  I   UNL d   1       0.627  -1.550   1.198  0.00  0.00    -0.060 I 
ATOM     10  F2  UNL d   1       0.833   1.639   1.028  0.00  0.00    -0.096 F 
ATOM     11  F3  UNL d   1       0.776   3.336  -1.082  0.00  0.00    -0.097 F 
ATOM     12  F4  UNL d   1       0.500   2.374  -3.619  0.00  0.00    -0.092 F 
ENDROOT
TORSDOF 0
ENDMDL
