MODEL 1
REMARK minimizedAffinity -4.4965744
REMARK minimizedRMSD -1
REMARK  0 active torsions:
REMARK  status: ('A' for Active; 'I' for Inactive)
ROOT
ATOM      1  C   UNL d   1      -2.119  -1.067   2.149  0.00  0.00     0.124 A 
ATOM      2  C1  UNL d   1      -1.170  -1.819   1.470  0.00  0.00     0.062 A 
ATOM      3  C2  UNL d   1      -0.233  -1.193   0.653  0.00  0.00     0.162 A 
ATOM      4  C3  UNL d   1      -0.240   0.195   0.510  0.00  0.00    -0.034 A 
ATOM      5  C4  UNL d   1      -1.199   0.945   1.195  0.00  0.00     0.162 A 
ATOM      6  C5  UNL d   1      -2.132   0.314   2.011  0.00  0.00     0.062 A 
ATOM      7  F   UNL d   1      -3.048   1.042   2.665  0.00  0.00    -0.097 F 
ATOM      8  F1  UNL d   1      -1.234   2.281   1.081  0.00  0.00    -0.096 F 
ATOM      9  I   UNL d   1       1.158   1.136  -0.710  0.00  0.00    -0.060 I 
ATOM     10  F2  UNL d   1       0.672  -1.944   0.010  0.00  0.00    -0.096 F 
ATOM     11  F3  UNL d   1      -1.155  -3.154   1.601  0.00  0.00    -0.097 F 
ATOM     12  F4  UNL d   1      -3.019  -1.673   2.933  0.00  0.00    -0.092 F 
ENDROOT
TORSDOF 0
ENDMDL
