MODEL 1
REMARK minimizedAffinity -0.167687759
REMARK minimizedRMSD -1
REMARK  0 active torsions:
REMARK  status: ('A' for Active; 'I' for Inactive)
ROOT
ATOM      1  C   UNL d   1      -0.825  -0.924   1.556  0.00  0.00     0.124 A 
ATOM      2  C1  UNL d   1      -1.217   0.382   1.299  0.00  0.00     0.062 A 
ATOM      3  C2  UNL d   1      -0.511   1.157   0.383  0.00  0.00     0.162 A 
ATOM      4  C3  UNL d   1       0.593   0.628  -0.284  0.00  0.00    -0.034 A 
ATOM      5  C4  UNL d   1       0.982  -0.687  -0.019  0.00  0.00     0.162 A 
ATOM      6  C5  UNL d   1       0.274  -1.457   0.897  0.00  0.00     0.062 A 
ATOM      7  F   UNL d   1       0.654  -2.720   1.144  0.00  0.00    -0.097 F 
ATOM      8  F1  UNL d   1       2.039  -1.228  -0.643  0.00  0.00    -0.096 F 
ATOM      9  I   UNL d   1       1.651   1.783  -1.654  0.00  0.00    -0.060 I 
ATOM     10  F2  UNL d   1      -0.912   2.417   0.154  0.00  0.00    -0.096 F 
ATOM     11  F3  UNL d   1      -2.277   0.900   1.935  0.00  0.00    -0.097 F 
ATOM     12  F4  UNL d   1      -1.505  -1.667   2.439  0.00  0.00    -0.092 F 
ENDROOT
TORSDOF 0
ENDMDL
