MODEL 1
REMARK minimizedAffinity 23.3825703
REMARK minimizedRMSD -1
REMARK  0 active torsions:
REMARK  status: ('A' for Active; 'I' for Inactive)
ROOT
ATOM      1  C   UNL d   1      -0.199  -3.212   4.781  0.00  0.00     0.124 A 
ATOM      2  C1  UNL d   1      -1.140  -2.286   4.353  0.00  0.00     0.062 A 
ATOM      3  C2  UNL d   1      -1.036  -1.717   3.087  0.00  0.00     0.162 A 
ATOM      4  C3  UNL d   1       0.013  -2.073   2.239  0.00  0.00    -0.034 A 
ATOM      5  C4  UNL d   1       0.956  -3.004   2.677  0.00  0.00     0.162 A 
ATOM      6  C5  UNL d   1       0.848  -3.570   3.943  0.00  0.00     0.062 A 
ATOM      7  F   UNL d   1       1.758  -4.464   4.355  0.00  0.00    -0.097 F 
ATOM      8  F1  UNL d   1       1.977  -3.368   1.887  0.00  0.00    -0.096 F 
ATOM      9  I   UNL d   1       0.171  -1.224   0.345  0.00  0.00    -0.060 I 
ATOM     10  F2  UNL d   1      -1.960  -0.825   2.699  0.00  0.00    -0.096 F 
ATOM     11  F3  UNL d   1      -2.151  -1.938   5.161  0.00  0.00    -0.097 F 
ATOM     12  F4  UNL d   1      -0.300  -3.757   6.000  0.00  0.00    -0.092 F 
ENDROOT
TORSDOF 0
ENDMDL
