MODEL 1
REMARK minimizedAffinity 1.25904787
REMARK minimizedRMSD -1
REMARK  0 active torsions:
REMARK  status: ('A' for Active; 'I' for Inactive)
ROOT
ATOM      1  C   UNL d   1       0.851   2.445  -3.468  0.00  0.00     0.124 A 
ATOM      2  C1  UNL d   1       0.436   1.124  -3.566  0.00  0.00     0.062 A 
ATOM      3  C2  UNL d   1       0.286   0.351  -2.419  0.00  0.00     0.162 A 
ATOM      4  C3  UNL d   1       0.549   0.896  -1.162  0.00  0.00    -0.034 A 
ATOM      5  C4  UNL d   1       0.967   2.225  -1.072  0.00  0.00     0.162 A 
ATOM      6  C5  UNL d   1       1.116   2.994  -2.221  0.00  0.00     0.062 A 
ATOM      7  F   UNL d   1       1.517   4.270  -2.125  0.00  0.00    -0.097 F 
ATOM      8  F1  UNL d   1       1.229   2.782   0.120  0.00  0.00    -0.096 F 
ATOM      9  I   UNL d   1       0.325  -0.257   0.556  0.00  0.00    -0.060 I 
ATOM     10  F2  UNL d   1      -0.117  -0.923  -2.543  0.00  0.00    -0.096 F 
ATOM     11  F3  UNL d   1       0.180   0.591  -4.769  0.00  0.00    -0.097 F 
ATOM     12  F4  UNL d   1       0.996   3.187  -4.574  0.00  0.00    -0.092 F 
ENDROOT
TORSDOF 0
ENDMDL
