MODEL 1
REMARK minimizedAffinity -2.20197129
REMARK minimizedRMSD -1
REMARK  0 active torsions:
REMARK  status: ('A' for Active; 'I' for Inactive)
ROOT
ATOM      1  C   UNL d   1      -1.620  -1.717   1.792  0.00  0.00     0.124 A 
ATOM      2  C1  UNL d   1      -0.488  -2.025   1.050  0.00  0.00     0.062 A 
ATOM      3  C2  UNL d   1       0.207  -1.019   0.385  0.00  0.00     0.162 A 
ATOM      4  C3  UNL d   1      -0.227   0.305   0.460  0.00  0.00    -0.034 A 
ATOM      5  C4  UNL d   1      -1.367   0.606   1.208  0.00  0.00     0.162 A 
ATOM      6  C5  UNL d   1      -2.058  -0.403   1.871  0.00  0.00     0.062 A 
ATOM      7  F   UNL d   1      -3.152  -0.104   2.587  0.00  0.00    -0.097 F 
ATOM      8  F1  UNL d   1      -1.812   1.868   1.301  0.00  0.00    -0.096 F 
ATOM      9  I   UNL d   1       0.809   1.811  -0.533  0.00  0.00    -0.060 I 
ATOM     10  F2  UNL d   1       1.297  -1.345  -0.325  0.00  0.00    -0.096 F 
ATOM     11  F3  UNL d   1      -0.063  -3.294   0.972  0.00  0.00    -0.097 F 
ATOM     12  F4  UNL d   1      -2.288  -2.687   2.431  0.00  0.00    -0.092 F 
ENDROOT
TORSDOF 0
ENDMDL
