MODEL 1
REMARK minimizedAffinity -2.53746867
REMARK minimizedRMSD -1
REMARK  0 active torsions:
REMARK  status: ('A' for Active; 'I' for Inactive)
ROOT
ATOM      1  C   UNL d   1      -1.457  -1.197   1.518  0.00  0.00     0.124 A 
ATOM      2  C1  UNL d   1      -0.536  -1.799   0.673  0.00  0.00     0.062 A 
ATOM      3  C2  UNL d   1       0.265  -1.021  -0.157  0.00  0.00     0.162 A 
ATOM      4  C3  UNL d   1       0.149   0.369  -0.146  0.00  0.00    -0.034 A 
ATOM      5  C4  UNL d   1      -0.781   0.967   0.706  0.00  0.00     0.162 A 
ATOM      6  C5  UNL d   1      -1.579   0.185   1.534  0.00  0.00     0.062 A 
ATOM      7  F   UNL d   1      -2.469   0.768   2.350  0.00  0.00    -0.097 F 
ATOM      8  F1  UNL d   1      -0.919   2.301   0.742  0.00  0.00    -0.096 F 
ATOM      9  I   UNL d   1       1.345   1.537  -1.387  0.00  0.00    -0.060 I 
ATOM     10  F2  UNL d   1       1.148  -1.630  -0.964  0.00  0.00    -0.096 F 
ATOM     11  F3  UNL d   1      -0.416  -3.135   0.656  0.00  0.00    -0.097 F 
ATOM     12  F4  UNL d   1      -2.227  -1.949   2.316  0.00  0.00    -0.092 F 
ENDROOT
TORSDOF 0
ENDMDL
