MODEL 1
REMARK minimizedAffinity -2.17852783
REMARK minimizedRMSD -1
REMARK  0 active torsions:
REMARK  status: ('A' for Active; 'I' for Inactive)
ROOT
ATOM      1  C   UNL d   1       0.281   2.784  -2.688  0.00  0.00     0.124 A 
ATOM      2  C1  UNL d   1       0.779   1.623  -3.264  0.00  0.00     0.062 A 
ATOM      3  C2  UNL d   1       1.034   0.505  -2.476  0.00  0.00     0.162 A 
ATOM      4  C3  UNL d   1       0.791   0.541  -1.103  0.00  0.00    -0.034 A 
ATOM      5  C4  UNL d   1       0.291   1.712  -0.531  0.00  0.00     0.162 A 
ATOM      6  C5  UNL d   1       0.037   2.827  -1.323  0.00  0.00     0.062 A 
ATOM      7  F   UNL d   1      -0.444   3.948  -0.765  0.00  0.00    -0.097 F 
ATOM      8  F1  UNL d   1       0.045   1.781   0.786  0.00  0.00    -0.096 F 
ATOM      9  I   UNL d   1       1.171  -1.129   0.079  0.00  0.00    -0.060 I 
ATOM     10  F2  UNL d   1       1.515  -0.603  -3.059  0.00  0.00    -0.096 F 
ATOM     11  F3  UNL d   1       1.016   1.579  -4.583  0.00  0.00    -0.097 F 
ATOM     12  F4  UNL d   1       0.037   3.859  -3.449  0.00  0.00    -0.092 F 
ENDROOT
TORSDOF 0
ENDMDL
