MODEL 1
REMARK minimizedAffinity -1.04629099
REMARK minimizedRMSD -1
REMARK  0 active torsions:
REMARK  status: ('A' for Active; 'I' for Inactive)
ROOT
ATOM      1  C   UNL d   1      -0.986  -1.363   1.579  0.00  0.00     0.124 A 
ATOM      2  C1  UNL d   1       0.217  -1.820   1.058  0.00  0.00     0.062 A 
ATOM      3  C2  UNL d   1       0.975  -1.001   0.226  0.00  0.00     0.162 A 
ATOM      4  C3  UNL d   1       0.533   0.284  -0.090  0.00  0.00    -0.034 A 
ATOM      5  C4  UNL d   1      -0.679   0.736   0.437  0.00  0.00     0.162 A 
ATOM      6  C5  UNL d   1      -1.433  -0.086   1.268  0.00  0.00     0.062 A 
ATOM      7  F   UNL d   1      -2.594   0.356   1.771  0.00  0.00    -0.097 F 
ATOM      8  F1  UNL d   1      -1.133   1.965   0.154  0.00  0.00    -0.096 F 
ATOM      9  I   UNL d   1       1.663   1.511  -1.334  0.00  0.00    -0.060 I 
ATOM     10  F2  UNL d   1       2.133  -1.468  -0.263  0.00  0.00    -0.096 F 
ATOM     11  F3  UNL d   1       0.650  -3.053   1.356  0.00  0.00    -0.097 F 
ATOM     12  F4  UNL d   1      -1.714  -2.153   2.379  0.00  0.00    -0.092 F 
ENDROOT
TORSDOF 0
ENDMDL
