MODEL 1
REMARK minimizedAffinity 1.43320274
REMARK minimizedRMSD -1
REMARK  0 active torsions:
REMARK  status: ('A' for Active; 'I' for Inactive)
ROOT
ATOM      1  C   UNL d   1       2.047   1.735  -2.941  0.00  0.00     0.124 A 
ATOM      2  C1  UNL d   1       1.945   0.352  -2.982  0.00  0.00     0.062 A 
ATOM      3  C2  UNL d   1       1.424  -0.344  -1.896  0.00  0.00     0.162 A 
ATOM      4  C3  UNL d   1       0.999   0.342  -0.758  0.00  0.00    -0.034 A 
ATOM      5  C4  UNL d   1       1.105   1.734  -0.724  0.00  0.00     0.162 A 
ATOM      6  C5  UNL d   1       1.627   2.425  -1.812  0.00  0.00     0.062 A 
ATOM      7  F   UNL d   1       1.724   3.762  -1.770  0.00  0.00    -0.097 F 
ATOM      8  F1  UNL d   1       0.705   2.425   0.354  0.00  0.00    -0.096 F 
ATOM      9  I   UNL d   1       0.218  -0.696   0.869  0.00  0.00    -0.060 I 
ATOM     10  F2  UNL d   1       1.337  -1.681  -1.963  0.00  0.00    -0.096 F 
ATOM     11  F3  UNL d   1       2.351  -0.317  -4.071  0.00  0.00    -0.097 F 
ATOM     12  F4  UNL d   1       2.550   2.403  -3.987  0.00  0.00    -0.092 F 
ENDROOT
TORSDOF 0
ENDMDL
