MODEL 1
REMARK minimizedAffinity 3.48092961
REMARK minimizedRMSD -1
REMARK  0 active torsions:
REMARK  status: ('A' for Active; 'I' for Inactive)
ROOT
ATOM      1  C   UNL d   1      -0.493  -0.976   1.385  0.00  0.00     0.124 A 
ATOM      2  C1  UNL d   1      -0.824   0.357   1.179  0.00  0.00     0.062 A 
ATOM      3  C2  UNL d   1      -0.198   1.086   0.172  0.00  0.00     0.162 A 
ATOM      4  C3  UNL d   1       0.765   0.484  -0.638  0.00  0.00    -0.034 A 
ATOM      5  C4  UNL d   1       1.093  -0.856  -0.424  0.00  0.00     0.162 A 
ATOM      6  C5  UNL d   1       0.465  -1.581   0.584  0.00  0.00     0.062 A 
ATOM      7  F   UNL d   1       0.786  -2.868   0.781  0.00  0.00    -0.097 F 
ATOM      8  F1  UNL d   1       2.015  -1.466  -1.184  0.00  0.00    -0.096 F 
ATOM      9  I   UNL d   1       1.704   1.570  -2.145  0.00  0.00    -0.060 I 
ATOM     10  F2  UNL d   1      -0.537   2.371  -0.005  0.00  0.00    -0.096 F 
ATOM     11  F3  UNL d   1      -1.748   0.944   1.953  0.00  0.00    -0.097 F 
ATOM     12  F4  UNL d   1      -1.096  -1.674   2.355  0.00  0.00    -0.092 F 
ENDROOT
TORSDOF 0
ENDMDL
