MODEL 1
REMARK minimizedAffinity 5.5150609
REMARK minimizedRMSD -1
REMARK  2 active torsions:
REMARK  status: ('A' for Active; 'I' for Inactive)
REMARK    1  A    between atoms: C2'_3  and  C1'_4 
REMARK    2  A    between atoms: C1'_4  and  C1_5 
ROOT
ATOM      1  C1  I4B d   1      -4.304  -2.931   3.794  0.00  0.00    -0.075 A 
ATOM      2  C2  I4B d   1      -4.501  -2.684   5.130  0.00  0.00     0.003 A 
ATOM      3  C3  I4B d   1      -4.894  -3.732   5.998  0.00  0.00     0.002 A 
ATOM      4  C4  I4B d   1      -5.125  -4.991   5.483  0.00  0.00    -0.004 A 
ATOM      5  C5  I4B d   1      -4.903  -5.244   4.132  0.00  0.00     0.002 A 
ATOM      6  C6  I4B d   1      -4.478  -4.211   3.285  0.00  0.00     0.003 A 
ENDROOT
BRANCH   1   7
ATOM      7  C1' I4B d   1      -3.922  -1.794   2.900  0.00  0.00     0.060 C 
BRANCH   7   8
ATOM      8  C2' I4B d   1      -2.548  -1.313   3.319  0.00  0.00    -0.013 C 
ATOM      9  C4' I4B d   1      -1.568  -1.400   2.178  0.00  0.00     0.013 C 
ATOM     10  C3' I4B d   1      -2.682   0.097   3.812  0.00  0.00     0.013 C 
ENDBRANCH   7   8
ENDBRANCH   1   7
TORSDOF 2
ENDMDL
