MODEL 1
REMARK minimizedAffinity 17.698288
REMARK minimizedRMSD -1
REMARK  2 active torsions:
REMARK  status: ('A' for Active; 'I' for Inactive)
REMARK    1  A    between atoms: C2'_3  and  C1'_4 
REMARK    2  A    between atoms: C1'_4  and  C1_5 
ROOT
ATOM      1  C1  I4B d   1      -0.434  -0.489   3.165  0.00  0.00    -0.075 A 
ATOM      2  C2  I4B d   1      -0.466  -0.318   4.526  0.00  0.00     0.003 A 
ATOM      3  C3  I4B d   1      -1.261   0.705   5.098  0.00  0.00     0.002 A 
ATOM      4  C4  I4B d   1      -1.964   1.560   4.274  0.00  0.00    -0.004 A 
ATOM      5  C5  I4B d   1      -1.949   1.370   2.895  0.00  0.00     0.002 A 
ATOM      6  C6  I4B d   1      -1.189   0.332   2.337  0.00  0.00     0.003 A 
ENDROOT
BRANCH   1   7
ATOM      7  C1' I4B d   1       0.442  -1.558   2.593  0.00  0.00     0.060 C 
BRANCH   7   8
ATOM      8  C2' I4B d   1       1.610  -1.759   3.537  0.00  0.00    -0.013 C 
ATOM      9  C4' I4B d   1       1.680  -3.183   4.022  0.00  0.00     0.013 C 
ATOM     10  C3' I4B d   1       2.864  -1.371   2.812  0.00  0.00     0.013 C 
ENDBRANCH   7   8
ENDBRANCH   1   7
TORSDOF 2
ENDMDL
