MODEL 1
REMARK minimizedAffinity 13.1405745
REMARK minimizedRMSD -1
REMARK  2 active torsions:
REMARK  status: ('A' for Active; 'I' for Inactive)
REMARK    1  A    between atoms: C2'_3  and  C1'_4 
REMARK    2  A    between atoms: C1'_4  and  C1_5 
ROOT
ATOM      1  C1  I4B d   1       4.165   2.182   1.896  0.00  0.00    -0.075 A 
ATOM      2  C2  I4B d   1       4.241   0.947   2.489  0.00  0.00     0.003 A 
ATOM      3  C3  I4B d   1       3.391  -0.102   2.065  0.00  0.00     0.002 A 
ATOM      4  C4  I4B d   1       2.450   0.140   1.084  0.00  0.00    -0.004 A 
ATOM      5  C5  I4B d   1       2.389   1.386   0.468  0.00  0.00     0.002 A 
ATOM      6  C6  I4B d   1       3.260   2.411   0.867  0.00  0.00     0.003 A 
ENDROOT
BRANCH   1   7
ATOM      7  C1' I4B d   1       5.055   3.277   2.392  0.00  0.00     0.060 C 
BRANCH   7   8
ATOM      8  C2' I4B d   1       5.989   3.666   1.264  0.00  0.00    -0.013 C 
ATOM      9  C4' I4B d   1       5.914   2.679   0.129  0.00  0.00     0.013 C 
ATOM     10  C3' I4B d   1       5.616   5.045   0.808  0.00  0.00     0.013 C 
ENDBRANCH   7   8
ENDBRANCH   1   7
TORSDOF 2
ENDMDL
