MODEL 1
REMARK minimizedAffinity 3.07992291
REMARK minimizedRMSD -1
REMARK  2 active torsions:
REMARK  status: ('A' for Active; 'I' for Inactive)
REMARK    1  A    between atoms: C2'_3  and  C1'_4 
REMARK    2  A    between atoms: C1'_4  and  C1_5 
ROOT
ATOM      1  C1  I4B d   1       4.215  -3.086  -0.794  0.00  0.00    -0.075 A 
ATOM      2  C2  I4B d   1       5.524  -3.348  -1.115  0.00  0.00     0.003 A 
ATOM      3  C3  I4B d   1       6.000  -4.682  -1.131  0.00  0.00     0.002 A 
ATOM      4  C4  I4B d   1       5.153  -5.710  -0.773  0.00  0.00    -0.004 A 
ATOM      5  C5  I4B d   1       3.821  -5.444  -0.470  0.00  0.00     0.002 A 
ATOM      6  C6  I4B d   1       3.345  -4.125  -0.492  0.00  0.00     0.003 A 
ENDROOT
BRANCH   1   7
ATOM      7  C1' I4B d   1       3.754  -1.663  -0.755  0.00  0.00     0.060 C 
BRANCH   7   8
ATOM      8  C2' I4B d   1       3.420  -1.320   0.682  0.00  0.00    -0.013 C 
ATOM      9  C4' I4B d   1       3.386   0.171   0.893  0.00  0.00     0.013 C 
ATOM     10  C3' I4B d   1       2.098  -1.944   1.012  0.00  0.00     0.013 C 
ENDBRANCH   7   8
ENDBRANCH   1   7
TORSDOF 2
ENDMDL
