MODEL 1
REMARK minimizedAffinity 14.9567747
REMARK minimizedRMSD -1
REMARK  2 active torsions:
REMARK  status: ('A' for Active; 'I' for Inactive)
REMARK    1  A    between atoms: C2'_3  and  C1'_4 
REMARK    2  A    between atoms: C1'_4  and  C1_5 
ROOT
ATOM      1  C1  I4B d   1      -3.301  -0.286   1.399  0.00  0.00    -0.075 A 
ATOM      2  C2  I4B d   1      -2.544  -1.364   1.015  0.00  0.00     0.003 A 
ATOM      3  C3  I4B d   1      -1.231  -1.530   1.520  0.00  0.00     0.002 A 
ATOM      4  C4  I4B d   1      -0.701  -0.573   2.361  0.00  0.00    -0.004 A 
ATOM      5  C5  I4B d   1      -1.479   0.508   2.768  0.00  0.00     0.002 A 
ATOM      6  C6  I4B d   1      -2.791   0.646   2.294  0.00  0.00     0.003 A 
ENDROOT
BRANCH   1   7
ATOM      7  C1' I4B d   1      -4.671  -0.125   0.821  0.00  0.00     0.060 C 
BRANCH   7   8
ATOM      8  C2' I4B d   1      -4.543   0.646  -0.477  0.00  0.00    -0.013 C 
ATOM      9  C4' I4B d   1      -5.215  -0.080  -1.612  0.00  0.00     0.013 C 
ATOM     10  C3' I4B d   1      -5.145   2.004  -0.270  0.00  0.00     0.013 C 
ENDBRANCH   7   8
ENDBRANCH   1   7
TORSDOF 2
ENDMDL
