MODEL 1
REMARK minimizedAffinity 14.3063583
REMARK minimizedRMSD -1
REMARK  2 active torsions:
REMARK  status: ('A' for Active; 'I' for Inactive)
REMARK    1  A    between atoms: C2'_3  and  C1'_4 
REMARK    2  A    between atoms: C1'_4  and  C1_5 
ROOT
ATOM      1  C1  I4B d   1       0.673   2.515  -2.749  0.00  0.00    -0.075 A 
ATOM      2  C2  I4B d   1       0.441   1.751  -1.633  0.00  0.00     0.003 A 
ATOM      3  C3  I4B d   1       1.525   1.271  -0.859  0.00  0.00     0.002 A 
ATOM      4  C4  I4B d   1       2.818   1.535  -1.264  0.00  0.00    -0.004 A 
ATOM      5  C5  I4B d   1       3.051   2.329  -2.383  0.00  0.00     0.002 A 
ATOM      6  C6  I4B d   1       1.972   2.833  -3.123  0.00  0.00     0.003 A 
ENDROOT
BRANCH   1   7
ATOM      7  C1' I4B d   1      -0.495   2.978  -3.561  0.00  0.00     0.060 C 
BRANCH   7   8
ATOM      8  C2' I4B d   1      -0.544   4.491  -3.488  0.00  0.00    -0.013 C 
ATOM      9  C4' I4B d   1      -1.429   5.060  -4.566  0.00  0.00     0.013 C 
ATOM     10  C3' I4B d   1      -1.038   4.873  -2.125  0.00  0.00     0.013 C 
ENDBRANCH   7   8
ENDBRANCH   1   7
TORSDOF 2
ENDMDL
