MODEL 1
REMARK minimizedAffinity 12.9922686
REMARK minimizedRMSD -1
REMARK  2 active torsions:
REMARK  status: ('A' for Active; 'I' for Inactive)
REMARK    1  A    between atoms: C2'_3  and  C1'_4 
REMARK    2  A    between atoms: C1'_4  and  C1_5 
ROOT
ATOM      1  C1  I4B d   1      -0.170   4.373  -3.163  0.00  0.00    -0.075 A 
ATOM      2  C2  I4B d   1       0.177   3.048  -3.257  0.00  0.00     0.003 A 
ATOM      3  C3  I4B d   1       1.395   2.589  -2.702  0.00  0.00     0.002 A 
ATOM      4  C4  I4B d   1       2.255   3.492  -2.109  0.00  0.00    -0.004 A 
ATOM      5  C5  I4B d   1       1.891   4.830  -1.994  0.00  0.00     0.002 A 
ATOM      6  C6  I4B d   1       0.665   5.272  -2.513  0.00  0.00     0.003 A 
ENDROOT
BRANCH   1   7
ATOM      7  C1' I4B d   1      -1.450   4.829  -3.790  0.00  0.00     0.060 C 
BRANCH   7   8
ATOM      8  C2' I4B d   1      -1.309   4.690  -5.292  0.00  0.00    -0.013 C 
ATOM      9  C4' I4B d   1      -2.564   5.129  -6.000  0.00  0.00     0.013 C 
ATOM     10  C3' I4B d   1      -0.129   5.508  -5.724  0.00  0.00     0.013 C 
ENDBRANCH   7   8
ENDBRANCH   1   7
TORSDOF 2
ENDMDL
