MODEL 1
REMARK minimizedAffinity 18.0862522
REMARK minimizedRMSD -1
REMARK  2 active torsions:
REMARK  status: ('A' for Active; 'I' for Inactive)
REMARK    1  A    between atoms: C2'_3  and  C1'_4 
REMARK    2  A    between atoms: C1'_4  and  C1_5 
ROOT
ATOM      1  C1  I4B d   1       4.130   3.931  -3.668  0.00  0.00    -0.075 A 
ATOM      2  C2  I4B d   1       4.929   4.165  -4.760  0.00  0.00     0.003 A 
ATOM      3  C3  I4B d   1       5.897   5.198  -4.726  0.00  0.00     0.002 A 
ATOM      4  C4  I4B d   1       5.997   5.999  -3.607  0.00  0.00    -0.004 A 
ATOM      5  C5  I4B d   1       5.202   5.746  -2.493  0.00  0.00     0.002 A 
ATOM      6  C6  I4B d   1       4.272   4.697  -2.519  0.00  0.00     0.003 A 
ENDROOT
BRANCH   1   7
ATOM      7  C1' I4B d   1       3.096   2.853  -3.750  0.00  0.00     0.060 C 
BRANCH   7   8
ATOM      8  C2' I4B d   1       2.098   3.078  -2.632  0.00  0.00    -0.013 C 
ATOM      9  C4' I4B d   1       0.839   3.725  -3.146  0.00  0.00     0.013 C 
ATOM     10  C3' I4B d   1       1.805   1.750  -1.999  0.00  0.00     0.013 C 
ENDBRANCH   7   8
ENDBRANCH   1   7
TORSDOF 2
ENDMDL
