MODEL 1
REMARK minimizedAffinity 13.1462507
REMARK minimizedRMSD -1
REMARK  2 active torsions:
REMARK  status: ('A' for Active; 'I' for Inactive)
REMARK    1  A    between atoms: C2'_3  and  C1'_4 
REMARK    2  A    between atoms: C1'_4  and  C1_5 
ROOT
ATOM      1  C1  I4B d   1      -0.400   4.655  -3.117  0.00  0.00    -0.075 A 
ATOM      2  C2  I4B d   1       0.067   5.393  -4.175  0.00  0.00     0.003 A 
ATOM      3  C3  I4B d   1      -0.813   5.785  -5.214  0.00  0.00     0.002 A 
ATOM      4  C4  I4B d   1      -2.131   5.376  -5.178  0.00  0.00    -0.004 A 
ATOM      5  C5  I4B d   1      -2.607   4.647  -4.092  0.00  0.00     0.002 A 
ATOM      6  C6  I4B d   1      -1.739   4.294  -3.049  0.00  0.00     0.003 A 
ENDROOT
BRANCH   1   7
ATOM      7  C1' I4B d   1       0.564   4.230  -2.054  0.00  0.00     0.060 C 
BRANCH   7   8
ATOM      8  C2' I4B d   1       1.324   3.024  -2.568  0.00  0.00    -0.013 C 
ATOM      9  C4' I4B d   1       2.755   3.375  -2.882  0.00  0.00     0.013 C 
ATOM     10  C3' I4B d   1       1.246   1.949  -1.526  0.00  0.00     0.013 C 
ENDBRANCH   7   8
ENDBRANCH   1   7
TORSDOF 2
ENDMDL
