MODEL 1
REMARK minimizedAffinity 17.9822426
REMARK minimizedRMSD -1
REMARK  2 active torsions:
REMARK  status: ('A' for Active; 'I' for Inactive)
REMARK    1  A    between atoms: C2'_3  and  C1'_4 
REMARK    2  A    between atoms: C1'_4  and  C1_5 
ROOT
ATOM      1  C1  I4B d   1      -1.173  -3.467   0.322  0.00  0.00    -0.075 A 
ATOM      2  C2  I4B d   1       0.073  -3.590   0.884  0.00  0.00     0.003 A 
ATOM      3  C3  I4B d   1       0.549  -2.606   1.784  0.00  0.00     0.002 A 
ATOM      4  C4  I4B d   1      -0.229  -1.499   2.054  0.00  0.00    -0.004 A 
ATOM      5  C5  I4B d   1      -1.502  -1.388   1.502  0.00  0.00     0.002 A 
ATOM      6  C6  I4B d   1      -1.982  -2.384   0.640  0.00  0.00     0.003 A 
ENDROOT
BRANCH   1   7
ATOM      7  C1' I4B d   1      -1.631  -4.507  -0.650  0.00  0.00     0.060 C 
BRANCH   7   8
ATOM      8  C2' I4B d   1      -1.865  -3.828  -1.984  0.00  0.00    -0.013 C 
ATOM      9  C4' I4B d   1      -0.566  -3.578  -2.704  0.00  0.00     0.013 C 
ATOM     10  C3' I4B d   1      -2.774  -4.703  -2.796  0.00  0.00     0.013 C 
ENDBRANCH   7   8
ENDBRANCH   1   7
TORSDOF 2
ENDMDL
