MODEL 1
REMARK minimizedAffinity 10.7721195
REMARK minimizedRMSD -1
REMARK  2 active torsions:
REMARK  status: ('A' for Active; 'I' for Inactive)
REMARK    1  A    between atoms: C2'_3  and  C1'_4 
REMARK    2  A    between atoms: C1'_4  and  C1_5 
ROOT
ATOM      1  C1  I4B d   1       5.311   4.425  -2.627  0.00  0.00    -0.075 A 
ATOM      2  C2  I4B d   1       5.999   4.466  -3.814  0.00  0.00     0.003 A 
ATOM      3  C3  I4B d   1       5.425   3.923  -4.990  0.00  0.00     0.002 A 
ATOM      4  C4  I4B d   1       4.191   3.309  -4.922  0.00  0.00    -0.004 A 
ATOM      5  C5  I4B d   1       3.486   3.289  -3.723  0.00  0.00     0.002 A 
ATOM      6  C6  I4B d   1       4.043   3.861  -2.570  0.00  0.00     0.003 A 
ENDROOT
BRANCH   1   7
ATOM      7  C1' I4B d   1       5.961   4.978  -1.399  0.00  0.00     0.060 C 
BRANCH   7   8
ATOM      8  C2' I4B d   1       5.165   4.509  -0.198  0.00  0.00    -0.013 C 
ATOM      9  C4' I4B d   1       5.993   3.620   0.693  0.00  0.00     0.013 C 
ATOM     10  C3' I4B d   1       4.685   5.722   0.542  0.00  0.00     0.013 C 
ENDBRANCH   7   8
ENDBRANCH   1   7
TORSDOF 2
ENDMDL
