MODEL 1
REMARK minimizedAffinity 4.46273708
REMARK minimizedRMSD -1
REMARK  2 active torsions:
REMARK  status: ('A' for Active; 'I' for Inactive)
REMARK    1  A    between atoms: C2'_3  and  C1'_4 
REMARK    2  A    between atoms: C1'_4  and  C1_5 
ROOT
ATOM      1  C1  I4B d   1      -1.750  -0.596   3.120  0.00  0.00    -0.075 A 
ATOM      2  C2  I4B d   1      -0.403  -0.862   3.102  0.00  0.00     0.003 A 
ATOM      3  C3  I4B d   1       0.085  -2.027   2.463  0.00  0.00     0.002 A 
ATOM      4  C4  I4B d   1      -0.806  -2.918   1.902  0.00  0.00    -0.004 A 
ATOM      5  C5  I4B d   1      -2.169  -2.636   1.901  0.00  0.00     0.002 A 
ATOM      6  C6  I4B d   1      -2.643  -1.462   2.503  0.00  0.00     0.003 A 
ENDROOT
BRANCH   1   7
ATOM      7  C1' I4B d   1      -2.234   0.627   3.833  0.00  0.00     0.060 C 
BRANCH   7   8
ATOM      8  C2' I4B d   1      -2.477   0.256   5.282  0.00  0.00    -0.013 C 
ATOM      9  C4' I4B d   1      -1.182  -0.020   5.999  0.00  0.00     0.013 C 
ATOM     10  C3' I4B d   1      -3.224   1.384   5.929  0.00  0.00     0.013 C 
ENDBRANCH   7   8
ENDBRANCH   1   7
TORSDOF 2
ENDMDL
