MODEL 1
REMARK minimizedAffinity 12.6243906
REMARK minimizedRMSD -1
REMARK  2 active torsions:
REMARK  status: ('A' for Active; 'I' for Inactive)
REMARK    1  A    between atoms: C2'_3  and  C1'_4 
REMARK    2  A    between atoms: C1'_4  and  C1_5 
ROOT
ATOM      1  C1  I4B d   1       2.810   4.324  -2.090  0.00  0.00    -0.075 A 
ATOM      2  C2  I4B d   1       1.504   4.735  -2.177  0.00  0.00     0.003 A 
ATOM      3  C3  I4B d   1       0.487   3.812  -2.523  0.00  0.00     0.002 A 
ATOM      4  C4  I4B d   1       0.826   2.508  -2.820  0.00  0.00    -0.004 A 
ATOM      5  C5  I4B d   1       2.148   2.087  -2.709  0.00  0.00     0.002 A 
ATOM      6  C6  I4B d   1       3.145   2.998  -2.330  0.00  0.00     0.003 A 
ENDROOT
BRANCH   1   7
ATOM      7  C1' I4B d   1       3.863   5.333  -1.755  0.00  0.00     0.060 C 
BRANCH   7   8
ATOM      8  C2' I4B d   1       5.198   4.618  -1.717  0.00  0.00    -0.013 C 
ATOM      9  C4' I4B d   1       5.997   4.888  -2.965  0.00  0.00     0.013 C 
ATOM     10  C3' I4B d   1       5.934   5.077  -0.494  0.00  0.00     0.013 C 
ENDBRANCH   7   8
ENDBRANCH   1   7
TORSDOF 2
ENDMDL
