MODEL 1
REMARK minimizedAffinity 16.8211594
REMARK minimizedRMSD -1
REMARK  2 active torsions:
REMARK  status: ('A' for Active; 'I' for Inactive)
REMARK    1  A    between atoms: C2'_3  and  C1'_4 
REMARK    2  A    between atoms: C1'_4  and  C1_5 
ROOT
ATOM      1  C1  I4B d   1      -5.609   1.748  -0.769  0.00  0.00    -0.075 A 
ATOM      2  C2  I4B d   1      -5.181   1.053   0.335  0.00  0.00     0.003 A 
ATOM      3  C3  I4B d   1      -5.144  -0.363   0.316  0.00  0.00     0.002 A 
ATOM      4  C4  I4B d   1      -5.587  -1.039  -0.802  0.00  0.00    -0.004 A 
ATOM      5  C5  I4B d   1      -5.999  -0.333  -1.928  0.00  0.00     0.002 A 
ATOM      6  C6  I4B d   1      -5.998   1.069  -1.917  0.00  0.00     0.003 A 
ENDROOT
BRANCH   1   7
ATOM      7  C1' I4B d   1      -5.667   3.241  -0.703  0.00  0.00     0.060 C 
BRANCH   7   8
ATOM      8  C2' I4B d   1      -4.314   3.779  -1.120  0.00  0.00    -0.013 C 
ATOM      9  C4' I4B d   1      -4.124   3.681  -2.611  0.00  0.00     0.013 C 
ATOM     10  C3' I4B d   1      -4.218   5.202  -0.655  0.00  0.00     0.013 C 
ENDBRANCH   7   8
ENDBRANCH   1   7
TORSDOF 2
ENDMDL
