MODEL 1
REMARK minimizedAffinity -2.95338392
REMARK minimizedRMSD -1
REMARK  1 active torsions:
REMARK  status: ('A' for Active; 'I' for Inactive)
REMARK    1  A    between atoms: C1_2  and  C2_3 
ROOT
ATOM      1  C2  UNL d   1       0.087  -0.155   0.027  0.00  0.00    -0.076 A 
ATOM      2  C3  UNL d   1      -1.043   0.317   0.717  0.00  0.00     0.004 A 
ATOM      3  C4  UNL d   1      -0.917   1.243   1.752  0.00  0.00    -0.003 A 
ATOM      4  C5  UNL d   1       0.342   1.711   2.113  0.00  0.00     0.000 A 
ATOM      5  C6  UNL d   1       1.472   1.267   1.428  0.00  0.00     0.000 A 
ATOM      6  C7  UNL d   1       1.360   0.346   0.371  0.00  0.00    -0.073 A 
ATOM      7  C8  UNL d   1       2.613  -0.104  -0.329  0.00  0.00     0.078 C 
ENDROOT
BRANCH   1   8
ATOM      8  C1  UNL d   1      -0.109  -1.179  -1.068  0.00  0.00     0.053 C 
ATOM      9  C   UNL d   1      -1.503  -1.123  -1.675  0.00  0.00     0.018 C 
ENDBRANCH   1   8
TORSDOF 1
ENDMDL
