MODEL 1
REMARK minimizedAffinity -3.75538659
REMARK minimizedRMSD -1
REMARK  1 active torsions:
REMARK  status: ('A' for Active; 'I' for Inactive)
REMARK    1  A    between atoms: C1_2  and  C2_3 
ROOT
ATOM      1  C2  UNL d   1       0.662   0.902   1.295  0.00  0.00    -0.076 A 
ATOM      2  C3  UNL d   1      -0.687   0.524   1.414  0.00  0.00     0.004 A 
ATOM      3  C4  UNL d   1      -1.272  -0.346   0.495  0.00  0.00    -0.003 A 
ATOM      4  C5  UNL d   1      -0.517  -0.854  -0.556  0.00  0.00     0.000 A 
ATOM      5  C6  UNL d   1       0.828  -0.504  -0.679  0.00  0.00     0.000 A 
ATOM      6  C7  UNL d   1       1.437   0.359   0.248  0.00  0.00    -0.073 A 
ATOM      7  C8  UNL d   1       2.889   0.708   0.064  0.00  0.00     0.078 C 
ENDROOT
BRANCH   1   8
ATOM      8  C1  UNL d   1       1.235   1.870   2.305  0.00  0.00     0.053 C 
ATOM      9  C   UNL d   1       1.290   1.285   3.708  0.00  0.00     0.018 C 
ENDBRANCH   1   8
TORSDOF 1
ENDMDL
