MODEL 1
REMARK minimizedAffinity -2.95449996
REMARK minimizedRMSD -1
REMARK  1 active torsions:
REMARK  status: ('A' for Active; 'I' for Inactive)
REMARK    1  A    between atoms: C1_2  and  C2_3 
ROOT
ATOM      1  C2  UNL d   1      -0.817  -0.803  -0.862  0.00  0.00    -0.076 A 
ATOM      2  C3  UNL d   1      -2.096  -0.443  -1.321  0.00  0.00     0.004 A 
ATOM      3  C4  UNL d   1      -2.713  -1.147  -2.354  0.00  0.00    -0.003 A 
ATOM      4  C5  UNL d   1      -2.060  -2.224  -2.944  0.00  0.00     0.000 A 
ATOM      5  C6  UNL d   1      -0.799  -2.607  -2.490  0.00  0.00     0.000 A 
ATOM      6  C7  UNL d   1      -0.170  -1.917  -1.438  0.00  0.00    -0.073 A 
ATOM      7  C8  UNL d   1       1.194  -2.369  -0.993  0.00  0.00     0.078 C 
ENDROOT
BRANCH   1   8
ATOM      8  C1  UNL d   1      -0.187   0.014   0.243  0.00  0.00     0.053 C 
ATOM      9  C   UNL d   1      -1.199   0.460   1.287  0.00  0.00     0.018 C 
ENDBRANCH   1   8
TORSDOF 1
ENDMDL
