MODEL 1
REMARK minimizedAffinity -4.36152077
REMARK minimizedRMSD -1
REMARK  1 active torsions:
REMARK  status: ('A' for Active; 'I' for Inactive)
REMARK    1  A    between atoms: C1_2  and  C2_3 
ROOT
ATOM      1  C2  UNL d   1       0.376  -0.298   0.214  0.00  0.00    -0.076 A 
ATOM      2  C3  UNL d   1      -0.806   0.040   0.896  0.00  0.00     0.004 A 
ATOM      3  C4  UNL d   1      -0.864   1.166   1.716  0.00  0.00    -0.003 A 
ATOM      4  C5  UNL d   1       0.259   1.972   1.867  0.00  0.00     0.000 A 
ATOM      5  C6  UNL d   1       1.434   1.661   1.184  0.00  0.00     0.000 A 
ATOM      6  C7  UNL d   1       1.505   0.539   0.340  0.00  0.00    -0.073 A 
ATOM      7  C8  UNL d   1       2.800   0.248  -0.367  0.00  0.00     0.078 C 
ENDROOT
BRANCH   1   8
ATOM      8  C1  UNL d   1       0.387  -1.546  -0.640  0.00  0.00     0.053 C 
ATOM      9  C   UNL d   1      -0.925  -1.759  -1.378  0.00  0.00     0.018 C 
ENDBRANCH   1   8
TORSDOF 1
ENDMDL
