MODEL 1
REMARK minimizedAffinity -3.29680657
REMARK minimizedRMSD -1
REMARK  1 active torsions:
REMARK  status: ('A' for Active; 'I' for Inactive)
REMARK    1  A    between atoms: C1_2  and  C2_3 
ROOT
ATOM      1  C2  UNL d   1      -0.550  -0.195  -0.558  0.00  0.00    -0.076 A 
ATOM      2  C3  UNL d   1      -1.413   0.660   0.148  0.00  0.00     0.004 A 
ATOM      3  C4  UNL d   1      -0.971   1.357   1.272  0.00  0.00    -0.003 A 
ATOM      4  C5  UNL d   1       0.341   1.210   1.707  0.00  0.00     0.000 A 
ATOM      5  C6  UNL d   1       1.216   0.379   1.008  0.00  0.00     0.000 A 
ATOM      6  C7  UNL d   1       0.791  -0.318  -0.136  0.00  0.00    -0.073 A 
ATOM      7  C8  UNL d   1       1.776  -1.205  -0.848  0.00  0.00     0.078 C 
ENDROOT
BRANCH   1   8
ATOM      8  C1  UNL d   1      -1.093  -0.946  -1.753  0.00  0.00     0.053 C 
ATOM      9  C   UNL d   1      -2.328  -0.285  -2.344  0.00  0.00     0.018 C 
ENDBRANCH   1   8
TORSDOF 1
ENDMDL
