MODEL 1
REMARK minimizedAffinity -1.45827162
REMARK minimizedRMSD -1
REMARK  1 active torsions:
REMARK  status: ('A' for Active; 'I' for Inactive)
REMARK    1  A    between atoms: C1_2  and  C2_3 
ROOT
ATOM      1  C2  UNL d   1       0.793   0.246   0.254  0.00  0.00    -0.076 A 
ATOM      2  C3  UNL d   1      -0.149   0.790   1.144  0.00  0.00     0.004 A 
ATOM      3  C4  UNL d   1       0.246   1.644   2.173  0.00  0.00    -0.003 A 
ATOM      4  C5  UNL d   1       1.589   1.967   2.328  0.00  0.00     0.000 A 
ATOM      5  C6  UNL d   1       2.535   1.450   1.443  0.00  0.00     0.000 A 
ATOM      6  C7  UNL d   1       2.151   0.601   0.391  0.00  0.00    -0.073 A 
ATOM      7  C8  UNL d   1       3.214   0.068  -0.530  0.00  0.00     0.078 C 
ENDROOT
BRANCH   1   8
ATOM      8  C1  UNL d   1       0.309  -0.696  -0.825  0.00  0.00     0.053 C 
ATOM      9  C   UNL d   1      -1.002  -1.376  -0.461  0.00  0.00     0.018 C 
ENDBRANCH   1   8
TORSDOF 1
ENDMDL
