MODEL 1
REMARK minimizedAffinity 0.822113514
REMARK minimizedRMSD -1
REMARK  1 active torsions:
REMARK  status: ('A' for Active; 'I' for Inactive)
REMARK    1  A    between atoms: C1_2  and  C2_3 
ROOT
ATOM      1  C2  UNL d   1      -1.093  -1.042  -0.364  0.00  0.00    -0.076 A 
ATOM      2  C3  UNL d   1      -2.385  -1.512  -0.656  0.00  0.00     0.004 A 
ATOM      3  C4  UNL d   1      -2.753  -1.837  -1.960  0.00  0.00    -0.003 A 
ATOM      4  C5  UNL d   1      -1.835  -1.698  -2.995  0.00  0.00     0.000 A 
ATOM      5  C6  UNL d   1      -0.543  -1.249  -2.721  0.00  0.00     0.000 A 
ATOM      6  C7  UNL d   1      -0.151  -0.933  -1.409  0.00  0.00    -0.073 A 
ATOM      7  C8  UNL d   1       1.254  -0.449  -1.173  0.00  0.00     0.078 C 
ENDROOT
BRANCH   1   8
ATOM      8  C1  UNL d   1      -0.759  -0.679   1.065  0.00  0.00     0.053 C 
ATOM      9  C   UNL d   1      -0.935   0.805   1.346  0.00  0.00     0.018 C 
ENDBRANCH   1   8
TORSDOF 1
ENDMDL
