MODEL 1
REMARK minimizedAffinity -2.30796218
REMARK minimizedRMSD -1
REMARK  1 active torsions:
REMARK  status: ('A' for Active; 'I' for Inactive)
REMARK    1  A    between atoms: C1_2  and  C2_3 
ROOT
ATOM      1  C2  UNL d   1      -0.127  -0.747   0.097  0.00  0.00    -0.076 A 
ATOM      2  C3  UNL d   1      -1.042   0.085   0.766  0.00  0.00     0.004 A 
ATOM      3  C4  UNL d   1      -0.604   1.164   1.532  0.00  0.00    -0.003 A 
ATOM      4  C5  UNL d   1       0.757   1.430   1.640  0.00  0.00     0.000 A 
ATOM      5  C6  UNL d   1       1.678   0.626   0.968  0.00  0.00     0.000 A 
ATOM      6  C7  UNL d   1       1.251  -0.457   0.179  0.00  0.00    -0.073 A 
ATOM      7  C8  UNL d   1       2.288  -1.294  -0.518  0.00  0.00     0.078 C 
ENDROOT
BRANCH   1   8
ATOM      8  C1  UNL d   1      -0.660  -1.919  -0.696  0.00  0.00     0.053 C 
ATOM      9  C   UNL d   1      -1.464  -1.483  -1.911  0.00  0.00     0.018 C 
ENDBRANCH   1   8
TORSDOF 1
ENDMDL
