MODEL 1
REMARK minimizedAffinity -4.60333586
REMARK minimizedRMSD -1
REMARK  1 active torsions:
REMARK  status: ('A' for Active; 'I' for Inactive)
REMARK    1  A    between atoms: C1_2  and  C2_3 
ROOT
ATOM      1  C2  UNL d   1       0.711  -0.231   0.216  0.00  0.00    -0.076 A 
ATOM      2  C3  UNL d   1       2.073  -0.282  -0.128  0.00  0.00     0.004 A 
ATOM      3  C4  UNL d   1       3.005   0.534   0.510  0.00  0.00    -0.003 A 
ATOM      4  C5  UNL d   1       2.591   1.414   1.503  0.00  0.00     0.000 A 
ATOM      5  C6  UNL d   1       1.246   1.466   1.870  0.00  0.00     0.000 A 
ATOM      6  C7  UNL d   1       0.296   0.638   1.248  0.00  0.00    -0.073 A 
ATOM      7  C8  UNL d   1      -1.141   0.739   1.679  0.00  0.00     0.078 C 
ENDROOT
BRANCH   1   8
ATOM      8  C1  UNL d   1      -0.258  -1.121  -0.529  0.00  0.00     0.053 C 
ATOM      9  C   UNL d   1      -1.066  -0.360  -1.569  0.00  0.00     0.018 C 
ENDBRANCH   1   8
TORSDOF 1
ENDMDL
