MODEL 1
REMARK minimizedAffinity -1.81731582
REMARK minimizedRMSD -1
REMARK  1 active torsions:
REMARK  status: ('A' for Active; 'I' for Inactive)
REMARK    1  A    between atoms: C1_2  and  C2_3 
ROOT
ATOM      1  C2  UNL d   1      -1.613  -1.967  -1.291  0.00  0.00    -0.076 A 
ATOM      2  C3  UNL d   1      -2.642  -2.499  -0.495  0.00  0.00     0.004 A 
ATOM      3  C4  UNL d   1      -3.949  -2.579  -0.973  0.00  0.00    -0.003 A 
ATOM      4  C5  UNL d   1      -4.248  -2.129  -2.254  0.00  0.00     0.000 A 
ATOM      5  C6  UNL d   1      -3.236  -1.614  -3.063  0.00  0.00     0.000 A 
ATOM      6  C7  UNL d   1      -1.910  -1.541  -2.603  0.00  0.00    -0.073 A 
ATOM      7  C8  UNL d   1      -0.859  -0.971  -3.516  0.00  0.00     0.078 C 
ENDROOT
BRANCH   1   8
ATOM      8  C1  UNL d   1      -0.220  -1.880  -0.709  0.00  0.00     0.053 C 
ATOM      9  C   UNL d   1      -0.037  -0.664   0.186  0.00  0.00     0.018 C 
ENDBRANCH   1   8
TORSDOF 1
ENDMDL
