MODEL 1
REMARK minimizedAffinity -3.82220387
REMARK minimizedRMSD -1
REMARK  1 active torsions:
REMARK  status: ('A' for Active; 'I' for Inactive)
REMARK    1  A    between atoms: C1_2  and  C2_3 
ROOT
ATOM      1  C2  UNL d   1      -0.496  -0.419   0.345  0.00  0.00    -0.076 A 
ATOM      2  C3  UNL d   1      -1.457   0.289   1.087  0.00  0.00     0.004 A 
ATOM      3  C4  UNL d   1      -1.118   1.451   1.777  0.00  0.00    -0.003 A 
ATOM      4  C5  UNL d   1       0.189   1.926   1.735  0.00  0.00     0.000 A 
ATOM      5  C6  UNL d   1       1.151   1.246   0.989  0.00  0.00     0.000 A 
ATOM      6  C7  UNL d   1       0.822   0.082   0.275  0.00  0.00    -0.073 A 
ATOM      7  C8  UNL d   1       1.902  -0.614  -0.508  0.00  0.00     0.078 C 
ENDROOT
BRANCH   1   8
ATOM      8  C1  UNL d   1      -0.916  -1.688  -0.361  0.00  0.00     0.053 C 
ATOM      9  C   UNL d   1      -2.085  -1.469  -1.309  0.00  0.00     0.018 C 
ENDBRANCH   1   8
TORSDOF 1
ENDMDL
