MODEL 1
REMARK minimizedAffinity -2.60497046
REMARK minimizedRMSD -1
REMARK  0 active torsions:
REMARK  status: ('A' for Active; 'I' for Inactive)
ROOT
ATOM      1  C   UNL d   1      -5.980   5.955   4.730  0.00  0.00     0.172 C 
ATOM      2  N   UNL d   1      -5.523   5.447   3.457  0.00  0.00    -0.070 N 
ATOM      3  C1  UNL d   1      -5.809   5.988   2.232  0.00  0.00    -0.004 A 
ATOM      4  C2  UNL d   1      -5.189   5.216   1.275  0.00  0.00    -0.047 A 
ATOM      5  C3  UNL d   1      -4.507   4.174   1.947  0.00  0.00    -0.047 A 
ATOM      6  C4  UNL d   1      -4.731   4.341   3.297  0.00  0.00    -0.004 A 
ENDROOT
TORSDOF 0
ENDMDL
