MODEL 1
REMARK minimizedAffinity -0.973234892
REMARK minimizedRMSD -1
REMARK  0 active torsions:
REMARK  status: ('A' for Active; 'I' for Inactive)
ROOT
ATOM      1  C   UNL d   1      -5.862   4.151   2.369  0.00  0.00     0.172 C 
ATOM      2  N   UNL d   1      -5.916   4.618   3.734  0.00  0.00    -0.070 N 
ATOM      3  C1  UNL d   1      -5.940   3.824   4.849  0.00  0.00    -0.004 A 
ATOM      4  C2  UNL d   1      -5.991   4.647   5.953  0.00  0.00    -0.047 A 
ATOM      5  C3  UNL d   1      -6.000   5.983   5.485  0.00  0.00    -0.047 A 
ATOM      6  C4  UNL d   1      -5.953   5.936   4.108  0.00  0.00    -0.004 A 
ENDROOT
TORSDOF 0
ENDMDL
