MODEL 1
REMARK minimizedAffinity 5.62411165
REMARK minimizedRMSD -1
REMARK  0 active torsions:
REMARK  status: ('A' for Active; 'I' for Inactive)
ROOT
ATOM      1  C   UNL d   1       2.056  -0.717   3.039  0.00  0.00     0.172 C 
ATOM      2  N   UNL d   1       2.239   0.590   3.624  0.00  0.00    -0.070 N 
ATOM      3  C1  UNL d   1       3.134   1.536   3.201  0.00  0.00    -0.004 A 
ATOM      4  C2  UNL d   1       2.999   2.639   4.016  0.00  0.00    -0.047 A 
ATOM      5  C3  UNL d   1       1.987   2.346   4.961  0.00  0.00    -0.047 A 
ATOM      6  C4  UNL d   1       1.534   1.071   4.696  0.00  0.00    -0.004 A 
ENDROOT
TORSDOF 0
ENDMDL
