MODEL 1
REMARK minimizedAffinity -2.45281816
REMARK minimizedRMSD -1
REMARK  0 active torsions:
REMARK  status: ('A' for Active; 'I' for Inactive)
ROOT
ATOM      1  C   UNL d   1      -4.899   4.196   2.581  0.00  0.00     0.172 C 
ATOM      2  N   UNL d   1      -4.891   3.766   3.960  0.00  0.00    -0.070 N 
ATOM      3  C1  UNL d   1      -3.786   3.372   4.667  0.00  0.00    -0.004 A 
ATOM      4  C2  UNL d   1      -4.196   3.040   5.940  0.00  0.00    -0.047 A 
ATOM      5  C3  UNL d   1      -5.596   3.240   6.000  0.00  0.00    -0.047 A 
ATOM      6  C4  UNL d   1      -6.000   3.689   4.760  0.00  0.00    -0.004 A 
ENDROOT
TORSDOF 0
ENDMDL
