MODEL 1
REMARK minimizedAffinity -1.02731776
REMARK minimizedRMSD -1
REMARK  0 active torsions:
REMARK  status: ('A' for Active; 'I' for Inactive)
ROOT
ATOM      1  C   UNL d   1      -4.057   3.265   2.910  0.00  0.00     0.172 C 
ATOM      2  N   UNL d   1      -3.937   1.876   2.534  0.00  0.00    -0.070 N 
ATOM      3  C1  UNL d   1      -4.649   1.252   1.545  0.00  0.00    -0.004 A 
ATOM      4  C2  UNL d   1      -4.244  -0.065   1.499  0.00  0.00    -0.047 A 
ATOM      5  C3  UNL d   1      -3.255  -0.238   2.496  0.00  0.00    -0.047 A 
ATOM      6  C4  UNL d   1      -3.084   0.979   3.121  0.00  0.00    -0.004 A 
ENDROOT
TORSDOF 0
ENDMDL
