MODEL 1
REMARK minimizedAffinity 5.45018482
REMARK minimizedRMSD -1
REMARK  0 active torsions:
REMARK  status: ('A' for Active; 'I' for Inactive)
ROOT
ATOM      1  C   UNL d   1       2.962   2.421   2.821  0.00  0.00     0.172 C 
ATOM      2  N   UNL d   1       2.500   1.248   3.525  0.00  0.00    -0.070 N 
ATOM      3  C1  UNL d   1       2.417  -0.016   3.003  0.00  0.00    -0.004 A 
ATOM      4  C2  UNL d   1       1.933  -0.848   3.988  0.00  0.00    -0.047 A 
ATOM      5  C3  UNL d   1       1.715  -0.058   5.142  0.00  0.00    -0.047 A 
ATOM      6  C4  UNL d   1       2.075   1.236   4.827  0.00  0.00    -0.004 A 
ENDROOT
TORSDOF 0
ENDMDL
