MODEL 1
REMARK minimizedAffinity 3.15514469
REMARK minimizedRMSD -1
REMARK  0 active torsions:
REMARK  status: ('A' for Active; 'I' for Inactive)
ROOT
ATOM      1  C   UNL d   1       2.991  -0.738  -2.645  0.00  0.00     0.172 C 
ATOM      2  N   UNL d   1       2.311  -0.345  -3.856  0.00  0.00    -0.070 N 
ATOM      3  C1  UNL d   1       2.813  -0.454  -5.125  0.00  0.00    -0.004 A 
ATOM      4  C2  UNL d   1       1.862   0.027  -5.999  0.00  0.00    -0.047 A 
ATOM      5  C3  UNL d   1       0.750   0.442  -5.228  0.00  0.00    -0.047 A 
ATOM      6  C4  UNL d   1       1.055   0.200  -3.905  0.00  0.00    -0.004 A 
ENDROOT
TORSDOF 0
ENDMDL
