MODEL 1
REMARK minimizedAffinity -2.34790635
REMARK minimizedRMSD -1
REMARK  0 active torsions:
REMARK  status: ('A' for Active; 'I' for Inactive)
ROOT
ATOM      1  C   UNL d   1      -5.454   4.476   5.491  0.00  0.00     0.172 C 
ATOM      2  N   UNL d   1      -5.313   4.800   4.090  0.00  0.00    -0.070 N 
ATOM      3  C1  UNL d   1      -4.885   5.999   3.588  0.00  0.00    -0.004 A 
ATOM      4  C2  UNL d   1      -4.889   5.907   2.213  0.00  0.00    -0.047 A 
ATOM      5  C3  UNL d   1      -5.336   4.606   1.877  0.00  0.00    -0.047 A 
ATOM      6  C4  UNL d   1      -5.591   3.942   3.059  0.00  0.00    -0.004 A 
ENDROOT
TORSDOF 0
ENDMDL
