MODEL 1
REMARK minimizedAffinity -2.49051571
REMARK minimizedRMSD -1
REMARK  0 active torsions:
REMARK  status: ('A' for Active; 'I' for Inactive)
ROOT
ATOM      1  C   UNL d   1      -5.331   5.998   1.279  0.00  0.00     0.172 C 
ATOM      2  N   UNL d   1      -5.522   5.335   2.548  0.00  0.00    -0.070 N 
ATOM      3  C1  UNL d   1      -5.947   5.933   3.705  0.00  0.00    -0.004 A 
ATOM      4  C2  UNL d   1      -6.000   4.965   4.685  0.00  0.00    -0.047 A 
ATOM      5  C3  UNL d   1      -5.592   3.744   4.097  0.00  0.00    -0.047 A 
ATOM      6  C4  UNL d   1      -5.302   4.002   2.774  0.00  0.00    -0.004 A 
ENDROOT
TORSDOF 0
ENDMDL
