MODEL 1
REMARK minimizedAffinity 0.357311666
REMARK minimizedRMSD -1
REMARK  0 active torsions:
REMARK  status: ('A' for Active; 'I' for Inactive)
ROOT
ATOM      1  C   UNL d   1      -5.676   5.731   0.741  0.00  0.00     0.172 C 
ATOM      2  N   UNL d   1      -5.803   5.227   2.088  0.00  0.00    -0.070 N 
ATOM      3  C1  UNL d   1      -5.889   5.991   3.221  0.00  0.00    -0.004 A 
ATOM      4  C2  UNL d   1      -6.000   5.138   4.298  0.00  0.00    -0.047 A 
ATOM      5  C3  UNL d   1      -5.979   3.815   3.794  0.00  0.00    -0.047 A 
ATOM      6  C4  UNL d   1      -5.856   3.900   2.424  0.00  0.00    -0.004 A 
ENDROOT
TORSDOF 0
ENDMDL
