MODEL 1
REMARK minimizedAffinity -2.73935461
REMARK minimizedRMSD -1
REMARK  0 active torsions:
REMARK  status: ('A' for Active; 'I' for Inactive)
ROOT
ATOM      1  C   UNL d   1      -4.834   6.000   1.568  0.00  0.00     0.172 C 
ATOM      2  N   UNL d   1      -5.179   5.133   2.670  0.00  0.00    -0.070 N 
ATOM      3  C1  UNL d   1      -5.669   3.859   2.560  0.00  0.00    -0.004 A 
ATOM      4  C2  UNL d   1      -5.868   3.372   3.834  0.00  0.00    -0.047 A 
ATOM      5  C3  UNL d   1      -5.486   4.389   4.740  0.00  0.00    -0.047 A 
ATOM      6  C4  UNL d   1      -5.063   5.468   3.993  0.00  0.00    -0.004 A 
ENDROOT
TORSDOF 0
ENDMDL
