MODEL 1
REMARK minimizedAffinity -1.60996556
REMARK minimizedRMSD -1
REMARK  0 active torsions:
REMARK  status: ('A' for Active; 'I' for Inactive)
ROOT
ATOM      1  C   UNL d   1      -5.999   4.311   4.684  0.00  0.00     0.172 C 
ATOM      2  N   UNL d   1      -5.663   4.768   3.356  0.00  0.00    -0.070 N 
ATOM      3  C1  UNL d   1      -4.996   5.924   3.054  0.00  0.00    -0.004 A 
ATOM      4  C2  UNL d   1      -4.873   5.996   1.683  0.00  0.00    -0.047 A 
ATOM      5  C3  UNL d   1      -5.489   4.843   1.142  0.00  0.00    -0.047 A 
ATOM      6  C4  UNL d   1      -5.970   4.100   2.200  0.00  0.00    -0.004 A 
ENDROOT
TORSDOF 0
ENDMDL
