MODEL 1
REMARK minimizedAffinity -0.999244213
REMARK minimizedRMSD -1
REMARK  0 active torsions:
REMARK  status: ('A' for Active; 'I' for Inactive)
ROOT
ATOM      1  C   UNL d   1      -5.990   3.370   4.956  0.00  0.00     0.172 C 
ATOM      2  N   UNL d   1      -5.637   3.732   3.603  0.00  0.00    -0.070 N 
ATOM      3  C1  UNL d   1      -4.896   2.970   2.740  0.00  0.00    -0.004 A 
ATOM      4  C2  UNL d   1      -4.782   3.664   1.555  0.00  0.00    -0.047 A 
ATOM      5  C3  UNL d   1      -5.477   4.887   1.712  0.00  0.00    -0.047 A 
ATOM      6  C4  UNL d   1      -5.996   4.903   2.989  0.00  0.00    -0.004 A 
ENDROOT
TORSDOF 0
ENDMDL
