MODEL 1
REMARK minimizedAffinity -2.23224354
REMARK minimizedRMSD -1
REMARK  0 active torsions:
REMARK  status: ('A' for Active; 'I' for Inactive)
ROOT
ATOM      1  C   UNL d   1      -5.145   4.590   5.659  0.00  0.00     0.172 C 
ATOM      2  N   UNL d   1      -5.340   4.606   4.228  0.00  0.00    -0.070 N 
ATOM      3  C1  UNL d   1      -6.000   3.651   3.502  0.00  0.00    -0.004 A 
ATOM      4  C2  UNL d   1      -5.969   4.031   2.178  0.00  0.00    -0.047 A 
ATOM      5  C3  UNL d   1      -5.265   5.257   2.106  0.00  0.00    -0.047 A 
ATOM      6  C4  UNL d   1      -4.888   5.589   3.389  0.00  0.00    -0.004 A 
ENDROOT
TORSDOF 0
ENDMDL
