MODEL 1
REMARK minimizedAffinity -2.71445131
REMARK minimizedRMSD -1
REMARK  0 active torsions:
REMARK  status: ('A' for Active; 'I' for Inactive)
ROOT
ATOM      1  C   UNL d   1      -5.252   2.694   4.866  0.00  0.00     0.172 C 
ATOM      2  N   UNL d   1      -5.156   3.877   4.044  0.00  0.00    -0.070 N 
ATOM      3  C1  UNL d   1      -5.320   5.166   4.476  0.00  0.00    -0.004 A 
ATOM      4  C2  UNL d   1      -5.150   6.000   3.392  0.00  0.00    -0.047 A 
ATOM      5  C3  UNL d   1      -4.875   5.184   2.269  0.00  0.00    -0.047 A 
ATOM      6  C4  UNL d   1      -4.884   3.874   2.701  0.00  0.00    -0.004 A 
ENDROOT
TORSDOF 0
ENDMDL
