MODEL 1
REMARK minimizedAffinity -2.60150719
REMARK minimizedRMSD -1
REMARK  0 active torsions:
REMARK  status: ('A' for Active; 'I' for Inactive)
ROOT
ATOM      1  C   UNL d   1      -4.392   4.607   2.921  0.00  0.00     0.172 C 
ATOM      2  N   UNL d   1      -4.469   3.878   4.165  0.00  0.00    -0.070 N 
ATOM      3  C1  UNL d   1      -5.611   3.640   4.881  0.00  0.00    -0.004 A 
ATOM      4  C2  UNL d   1      -5.264   2.913   6.000  0.00  0.00    -0.047 A 
ATOM      5  C3  UNL d   1      -3.865   2.708   5.955  0.00  0.00    -0.047 A 
ATOM      6  C4  UNL d   1      -3.398   3.316   4.808  0.00  0.00    -0.004 A 
ENDROOT
TORSDOF 0
ENDMDL
