MODEL 1
REMARK minimizedAffinity -3.11582184
REMARK minimizedRMSD -1
REMARK  0 active torsions:
REMARK  status: ('A' for Active; 'I' for Inactive)
ROOT
ATOM      1  C   UNL d   1      -5.984   5.458   2.921  0.00  0.00     0.172 C 
ATOM      2  N   UNL d   1      -5.775   4.686   1.719  0.00  0.00    -0.070 N 
ATOM      3  C1  UNL d   1      -6.000   5.122   0.440  0.00  0.00    -0.004 A 
ATOM      4  C2  UNL d   1      -5.681   4.093  -0.419  0.00  0.00    -0.047 A 
ATOM      5  C3  UNL d   1      -5.250   3.000   0.370  0.00  0.00    -0.047 A 
ATOM      6  C4  UNL d   1      -5.319   3.394   1.690  0.00  0.00    -0.004 A 
ENDROOT
TORSDOF 0
ENDMDL
