MODEL 1
REMARK minimizedAffinity 8.05816269
REMARK minimizedRMSD -1
REMARK  0 active torsions:
REMARK  status: ('A' for Active; 'I' for Inactive)
ROOT
ATOM      1  C   UNL d   1       0.026   0.109   1.326  0.00  0.00     0.124 A 
ATOM      2  C1  UNL d   1      -0.755  -0.910   0.800  0.00  0.00     0.062 A 
ATOM      3  C2  UNL d   1      -0.157  -2.053   0.278  0.00  0.00     0.162 A 
ATOM      4  C3  UNL d   1       1.232  -2.184   0.281  0.00  0.00    -0.034 A 
ATOM      5  C4  UNL d   1       2.012  -1.154   0.811  0.00  0.00     0.162 A 
ATOM      6  C5  UNL d   1       1.409  -0.014   1.331  0.00  0.00     0.062 A 
ATOM      7  F   UNL d   1       2.165   0.970   1.838  0.00  0.00    -0.097 F 
ATOM      8  F1  UNL d   1       3.349  -1.248   0.829  0.00  0.00    -0.096 F 
ATOM      9  I   UNL d   1       2.131  -3.892  -0.498  0.00  0.00    -0.060 I 
ATOM     10  F2  UNL d   1      -0.937  -3.022  -0.223  0.00  0.00    -0.096 F 
ATOM     11  F3  UNL d   1      -2.091  -0.793   0.793  0.00  0.00    -0.097 F 
ATOM     12  F4  UNL d   1      -0.552   1.208   1.826  0.00  0.00    -0.092 F 
ENDROOT
TORSDOF 0
ENDMDL
