MODEL 1
REMARK minimizedAffinity 4.12977839
REMARK minimizedRMSD -1
REMARK  0 active torsions:
REMARK  status: ('A' for Active; 'I' for Inactive)
ROOT
ATOM      1  C   UNL d   1       1.697  -0.997   0.923  0.00  0.00     0.124 A 
ATOM      2  C1  UNL d   1       0.952  -1.415  -0.171  0.00  0.00     0.062 A 
ATOM      3  C2  UNL d   1      -0.334  -0.920  -0.372  0.00  0.00     0.162 A 
ATOM      4  C3  UNL d   1      -0.882  -0.001   0.522  0.00  0.00    -0.034 A 
ATOM      5  C4  UNL d   1      -0.127   0.414   1.621  0.00  0.00     0.162 A 
ATOM      6  C5  UNL d   1       1.157  -0.083   1.817  0.00  0.00     0.062 A 
ATOM      7  F   UNL d   1       1.876   0.321   2.875  0.00  0.00    -0.097 F 
ATOM      8  F1  UNL d   1      -0.623   1.297   2.500  0.00  0.00    -0.096 F 
ATOM      9  I   UNL d   1      -2.803   0.741   0.225  0.00  0.00    -0.060 I 
ATOM     10  F2  UNL d   1      -1.031  -1.341  -1.438  0.00  0.00    -0.096 F 
ATOM     11  F3  UNL d   1       1.470  -2.298  -1.036  0.00  0.00    -0.097 F 
ATOM     12  F4  UNL d   1       2.933  -1.475   1.115  0.00  0.00    -0.092 F 
ENDROOT
TORSDOF 0
ENDMDL
