MODEL 1
REMARK minimizedAffinity -1.87704313
REMARK minimizedRMSD -1
REMARK  0 active torsions:
REMARK  status: ('A' for Active; 'I' for Inactive)
ROOT
ATOM      1  C   UNL d   1       1.684  -2.895  -0.105  0.00  0.00     0.124 A 
ATOM      2  C1  UNL d   1       0.302  -3.006  -0.045  0.00  0.00     0.062 A 
ATOM      3  C2  UNL d   1      -0.455  -2.009   0.564  0.00  0.00     0.162 A 
ATOM      4  C3  UNL d   1       0.169  -0.892   1.119  0.00  0.00    -0.034 A 
ATOM      5  C4  UNL d   1       1.560  -0.788   1.056  0.00  0.00     0.162 A 
ATOM      6  C5  UNL d   1       2.312  -1.787   0.446  0.00  0.00     0.062 A 
ATOM      7  F   UNL d   1       3.647  -1.678   0.389  0.00  0.00    -0.097 F 
ATOM      8  F1  UNL d   1       2.193   0.273   1.579  0.00  0.00    -0.096 F 
ATOM      9  I   UNL d   1      -0.958   0.601   2.031  0.00  0.00    -0.060 I 
ATOM     10  F2  UNL d   1      -1.789  -2.142   0.607  0.00  0.00    -0.096 F 
ATOM     11  F3  UNL d   1      -0.307  -4.076  -0.575  0.00  0.00    -0.097 F 
ATOM     12  F4  UNL d   1       2.410  -3.856  -0.691  0.00  0.00    -0.092 F 
ENDROOT
TORSDOF 0
ENDMDL
