MODEL 1
REMARK minimizedAffinity 8.992486
REMARK minimizedRMSD -1
REMARK  0 active torsions:
REMARK  status: ('A' for Active; 'I' for Inactive)
ROOT
ATOM      1  C   UNL d   1      -1.046  -1.855   0.889  0.00  0.00     0.124 A 
ATOM      2  C1  UNL d   1      -0.278  -2.766   0.177  0.00  0.00     0.062 A 
ATOM      3  C2  UNL d   1       1.065  -2.501  -0.078  0.00  0.00     0.162 A 
ATOM      4  C3  UNL d   1       1.648  -1.320   0.381  0.00  0.00    -0.034 A 
ATOM      5  C4  UNL d   1       0.869  -0.408   1.095  0.00  0.00     0.162 A 
ATOM      6  C5  UNL d   1      -0.472  -0.678   1.347  0.00  0.00     0.062 A 
ATOM      7  F   UNL d   1      -1.213   0.204   2.035  0.00  0.00    -0.097 F 
ATOM      8  F1  UNL d   1       1.399   0.737   1.551  0.00  0.00    -0.096 F 
ATOM      9  I   UNL d   1       3.656  -0.920   0.002  0.00  0.00    -0.060 I 
ATOM     10  F2  UNL d   1       1.783  -3.399  -0.768  0.00  0.00    -0.096 F 
ATOM     11  F3  UNL d   1      -0.830  -3.904  -0.267  0.00  0.00    -0.097 F 
ATOM     12  F4  UNL d   1      -2.338  -2.112   1.132  0.00  0.00    -0.092 F 
ENDROOT
TORSDOF 0
ENDMDL
