MODEL 1
REMARK minimizedAffinity 18.5932503
REMARK minimizedRMSD -1
REMARK  0 active torsions:
REMARK  status: ('A' for Active; 'I' for Inactive)
ROOT
ATOM      1  C   UNL d   1      -0.337  -2.088   0.678  0.00  0.00     0.124 A 
ATOM      2  C1  UNL d   1       0.213  -1.018   1.370  0.00  0.00     0.062 A 
ATOM      3  C2  UNL d   1       1.586  -0.959   1.592  0.00  0.00     0.162 A 
ATOM      4  C3  UNL d   1       2.419  -1.973   1.120  0.00  0.00    -0.034 A 
ATOM      5  C4  UNL d   1       1.859  -3.047   0.425  0.00  0.00     0.162 A 
ATOM      6  C5  UNL d   1       0.486  -3.101   0.206  0.00  0.00     0.062 A 
ATOM      7  F   UNL d   1      -0.043  -4.136  -0.463  0.00  0.00    -0.097 F 
ATOM      8  F1  UNL d   1       2.631  -4.039  -0.042  0.00  0.00    -0.096 F 
ATOM      9  I   UNL d   1       4.472  -1.889   1.450  0.00  0.00    -0.060 I 
ATOM     10  F2  UNL d   1       2.089   0.087   2.264  0.00  0.00    -0.096 F 
ATOM     11  F3  UNL d   1      -0.580  -0.039   1.828  0.00  0.00    -0.097 F 
ATOM     12  F4  UNL d   1      -1.658  -2.143   0.467  0.00  0.00    -0.092 F 
ENDROOT
TORSDOF 0
ENDMDL
