MODEL 1
REMARK minimizedAffinity 0.974836767
REMARK minimizedRMSD -1
REMARK  0 active torsions:
REMARK  status: ('A' for Active; 'I' for Inactive)
ROOT
ATOM      1  C   UNL d   1       1.245  -2.212  -0.086  0.00  0.00     0.124 A 
ATOM      2  C1  UNL d   1      -0.109  -2.509  -0.012  0.00  0.00     0.062 A 
ATOM      3  C2  UNL d   1      -0.995  -1.601   0.561  0.00  0.00     0.162 A 
ATOM      4  C3  UNL d   1      -0.529  -0.386   1.064  0.00  0.00    -0.034 A 
ATOM      5  C4  UNL d   1       0.834  -0.095   0.987  0.00  0.00     0.162 A 
ATOM      6  C5  UNL d   1       1.715  -1.006   0.414  0.00  0.00     0.062 A 
ATOM      7  F   UNL d   1       3.023  -0.717   0.343  0.00  0.00    -0.097 F 
ATOM      8  F1  UNL d   1       1.315   1.064   1.462  0.00  0.00    -0.096 F 
ATOM      9  I   UNL d   1      -1.850   0.975   1.922  0.00  0.00    -0.060 I 
ATOM     10  F2  UNL d   1      -2.298  -1.914   0.619  0.00  0.00    -0.096 F 
ATOM     11  F3  UNL d   1      -0.566  -3.674  -0.493  0.00  0.00    -0.097 F 
ATOM     12  F4  UNL d   1       2.095  -3.088  -0.637  0.00  0.00    -0.092 F 
ENDROOT
TORSDOF 0
ENDMDL
