MODEL 1
REMARK minimizedAffinity 8.51892662
REMARK minimizedRMSD -1
REMARK  0 active torsions:
REMARK  status: ('A' for Active; 'I' for Inactive)
ROOT
ATOM      1  C   UNL d   1       1.179  -2.915  -0.289  0.00  0.00     0.124 A 
ATOM      2  C1  UNL d   1      -0.182  -3.044  -0.050  0.00  0.00     0.062 A 
ATOM      3  C2  UNL d   1      -0.863  -2.064   0.668  0.00  0.00     0.162 A 
ATOM      4  C3  UNL d   1      -0.183  -0.945   1.150  0.00  0.00    -0.034 A 
ATOM      5  C4  UNL d   1       1.186  -0.823   0.906  0.00  0.00     0.162 A 
ATOM      6  C5  UNL d   1       1.861  -1.805   0.188  0.00  0.00     0.062 A 
ATOM      7  F   UNL d   1       3.176  -1.679  -0.043  0.00  0.00    -0.097 F 
ATOM      8  F1  UNL d   1       1.870   0.239   1.355  0.00  0.00    -0.096 F 
ATOM      9  I   UNL d   1      -1.196   0.522   2.223  0.00  0.00    -0.060 I 
ATOM     10  F2  UNL d   1      -2.178  -2.215   0.885  0.00  0.00    -0.096 F 
ATOM     11  F3  UNL d   1      -0.844  -4.116  -0.509  0.00  0.00    -0.097 F 
ATOM     12  F4  UNL d   1       1.831  -3.860  -0.979  0.00  0.00    -0.092 F 
ENDROOT
TORSDOF 0
ENDMDL
