MODEL 1
REMARK minimizedAffinity 11.9029083
REMARK minimizedRMSD -1
REMARK  0 active torsions:
REMARK  status: ('A' for Active; 'I' for Inactive)
ROOT
ATOM      1  C   UNL d   1       0.168  -3.377  -0.243  0.00  0.00     0.124 A 
ATOM      2  C1  UNL d   1      -0.340  -2.335   0.521  0.00  0.00     0.062 A 
ATOM      3  C2  UNL d   1       0.522  -1.416   1.113  0.00  0.00     0.162 A 
ATOM      4  C3  UNL d   1       1.901  -1.535   0.944  0.00  0.00    -0.034 A 
ATOM      5  C4  UNL d   1       2.405  -2.586   0.176  0.00  0.00     0.162 A 
ATOM      6  C5  UNL d   1       1.540  -3.501  -0.414  0.00  0.00     0.062 A 
ATOM      7  F   UNL d   1       2.032  -4.508  -1.151  0.00  0.00    -0.097 F 
ATOM      8  F1  UNL d   1       3.726  -2.730  -0.007  0.00  0.00    -0.096 F 
ATOM      9  I   UNL d   1       3.193  -0.164   1.829  0.00  0.00    -0.060 I 
ATOM     10  F2  UNL d   1       0.003  -0.419   1.846  0.00  0.00    -0.096 F 
ATOM     11  F3  UNL d   1      -1.664  -2.212   0.689  0.00  0.00    -0.097 F 
ATOM     12  F4  UNL d   1      -0.663  -4.260  -0.811  0.00  0.00    -0.092 F 
ENDROOT
TORSDOF 0
ENDMDL
