MODEL 1
REMARK minimizedAffinity 9.2664156
REMARK minimizedRMSD -1
REMARK  0 active torsions:
REMARK  status: ('A' for Active; 'I' for Inactive)
ROOT
ATOM      1  C   UNL d   1      -0.459  -2.144   0.582  0.00  0.00     0.124 A 
ATOM      2  C1  UNL d   1       0.222  -1.167   1.295  0.00  0.00     0.062 A 
ATOM      3  C2  UNL d   1       1.605  -1.054   1.184  0.00  0.00     0.162 A 
ATOM      4  C3  UNL d   1       2.317  -1.922   0.356  0.00  0.00    -0.034 A 
ATOM      5  C4  UNL d   1       1.626  -2.903  -0.357  0.00  0.00     0.162 A 
ATOM      6  C5  UNL d   1       0.244  -3.011  -0.243  0.00  0.00     0.062 A 
ATOM      7  F   UNL d   1      -0.412  -3.956  -0.933  0.00  0.00    -0.097 F 
ATOM      8  F1  UNL d   1       2.280  -3.753  -1.163  0.00  0.00    -0.096 F 
ATOM      9  I   UNL d   1       4.385  -1.757   0.188  0.00  0.00    -0.060 I 
ATOM     10  F2  UNL d   1       2.236  -0.101   1.885  0.00  0.00    -0.096 F 
ATOM     11  F3  UNL d   1      -0.455  -0.329   2.094  0.00  0.00    -0.097 F 
ATOM     12  F4  UNL d   1      -1.789  -2.250   0.691  0.00  0.00    -0.092 F 
ENDROOT
TORSDOF 0
ENDMDL
