MODEL 1
REMARK minimizedAffinity 6.50408411
REMARK minimizedRMSD -1
REMARK  0 active torsions:
REMARK  status: ('A' for Active; 'I' for Inactive)
ROOT
ATOM      1  C   UNL d   1       1.476  -2.543  -0.199  0.00  0.00     0.124 A 
ATOM      2  C1  UNL d   1       2.082  -1.416   0.338  0.00  0.00     0.062 A 
ATOM      3  C2  UNL d   1       1.315  -0.447   0.978  0.00  0.00     0.162 A 
ATOM      4  C3  UNL d   1      -0.067  -0.601   1.086  0.00  0.00    -0.034 A 
ATOM      5  C4  UNL d   1      -0.669  -1.737   0.542  0.00  0.00     0.162 A 
ATOM      6  C5  UNL d   1       0.102  -2.703  -0.097  0.00  0.00     0.062 A 
ATOM      7  F   UNL d   1      -0.486  -3.791  -0.615  0.00  0.00    -0.097 F 
ATOM      8  F1  UNL d   1      -1.996  -1.917   0.628  0.00  0.00    -0.096 F 
ATOM      9  I   UNL d   1      -1.217   0.846   2.042  0.00  0.00    -0.060 I 
ATOM     10  F2  UNL d   1       1.928   0.632   1.488  0.00  0.00    -0.096 F 
ATOM     11  F3  UNL d   1       3.410  -1.259   0.239  0.00  0.00    -0.097 F 
ATOM     12  F4  UNL d   1       2.216  -3.474  -0.816  0.00  0.00    -0.092 F 
ENDROOT
TORSDOF 0
ENDMDL
