MODEL 1
REMARK minimizedAffinity 5.07042074
REMARK minimizedRMSD -1
REMARK  0 active torsions:
REMARK  status: ('A' for Active; 'I' for Inactive)
ROOT
ATOM      1  C   UNL d   1      -0.219  -0.759   1.043  0.00  0.00     0.124 A 
ATOM      2  C1  UNL d   1      -0.690  -2.056   0.889  0.00  0.00     0.062 A 
ATOM      3  C2  UNL d   1       0.131  -3.038   0.342  0.00  0.00     0.162 A 
ATOM      4  C3  UNL d   1       1.432  -2.728  -0.054  0.00  0.00    -0.034 A 
ATOM      5  C4  UNL d   1       1.898  -1.421   0.103  0.00  0.00     0.162 A 
ATOM      6  C5  UNL d   1       1.074  -0.443   0.649  0.00  0.00     0.062 A 
ATOM      7  F   UNL d   1       1.530   0.809   0.797  0.00  0.00    -0.097 F 
ATOM      8  F1  UNL d   1       3.143  -1.088  -0.268  0.00  0.00    -0.096 F 
ATOM      9  I   UNL d   1       2.662  -4.194  -0.872  0.00  0.00    -0.060 I 
ATOM     10  F2  UNL d   1      -0.350  -4.282   0.205  0.00  0.00    -0.096 F 
ATOM     11  F3  UNL d   1      -1.939  -2.363   1.267  0.00  0.00    -0.097 F 
ATOM     12  F4  UNL d   1      -1.011   0.185   1.568  0.00  0.00    -0.092 F 
ENDROOT
TORSDOF 0
ENDMDL
