MODEL 1
REMARK minimizedAffinity 0.834724486
REMARK minimizedRMSD -1
REMARK  0 active torsions:
REMARK  status: ('A' for Active; 'I' for Inactive)
ROOT
ATOM      1  C   UNL d   1       0.087  -0.580   0.583  0.00  0.00     0.124 A 
ATOM      2  C1  UNL d   1      -0.461  -1.813   0.260  0.00  0.00     0.062 A 
ATOM      3  C2  UNL d   1       0.367  -2.879  -0.079  0.00  0.00     0.162 A 
ATOM      4  C3  UNL d   1       1.753  -2.717  -0.096  0.00  0.00    -0.034 A 
ATOM      5  C4  UNL d   1       2.296  -1.473   0.229  0.00  0.00     0.162 A 
ATOM      6  C5  UNL d   1       1.464  -0.410   0.568  0.00  0.00     0.062 A 
ATOM      7  F   UNL d   1       1.995   0.781   0.880  0.00  0.00    -0.097 F 
ATOM      8  F1  UNL d   1       3.623  -1.282   0.223  0.00  0.00    -0.096 F 
ATOM      9  I   UNL d   1       2.994  -4.308  -0.603  0.00  0.00    -0.060 I 
ATOM     10  F2  UNL d   1      -0.189  -4.060  -0.387  0.00  0.00    -0.096 F 
ATOM     11  F3  UNL d   1      -1.791  -1.979   0.273  0.00  0.00    -0.097 F 
ATOM     12  F4  UNL d   1      -0.713   0.445   0.908  0.00  0.00    -0.092 F 
ENDROOT
TORSDOF 0
ENDMDL
