MODEL 1
REMARK minimizedAffinity 11.7997789
REMARK minimizedRMSD -1
REMARK  0 active torsions:
REMARK  status: ('A' for Active; 'I' for Inactive)
ROOT
ATOM      1  C   UNL d   1       1.213  -2.180  -0.229  0.00  0.00     0.124 A 
ATOM      2  C1  UNL d   1       1.757  -0.971   0.182  0.00  0.00     0.062 A 
ATOM      3  C2  UNL d   1       1.010  -0.098   0.967  0.00  0.00     0.162 A 
ATOM      4  C3  UNL d   1      -0.290  -0.431   1.348  0.00  0.00    -0.034 A 
ATOM      5  C4  UNL d   1      -0.831  -1.648   0.930  0.00  0.00     0.162 A 
ATOM      6  C5  UNL d   1      -0.080  -2.517   0.145  0.00  0.00     0.062 A 
ATOM      7  F   UNL d   1      -0.607  -3.685  -0.251  0.00  0.00    -0.097 F 
ATOM      8  F1  UNL d   1      -2.077  -2.000   1.278  0.00  0.00    -0.096 F 
ATOM      9  I   UNL d   1      -1.410   0.871   2.522  0.00  0.00    -0.060 I 
ATOM     10  F2  UNL d   1       1.561   1.063   1.350  0.00  0.00    -0.096 F 
ATOM     11  F3  UNL d   1       3.006  -0.642  -0.179  0.00  0.00    -0.097 F 
ATOM     12  F4  UNL d   1       1.934  -3.017  -0.986  0.00  0.00    -0.092 F 
ENDROOT
TORSDOF 0
ENDMDL
