MODEL 1
REMARK minimizedAffinity 7.99018717
REMARK minimizedRMSD -1
REMARK  0 active torsions:
REMARK  status: ('A' for Active; 'I' for Inactive)
ROOT
ATOM      1  C   UNL d   1       1.578  -2.637  -0.214  0.00  0.00     0.124 A 
ATOM      2  C1  UNL d   1       2.230  -1.507   0.259  0.00  0.00     0.062 A 
ATOM      3  C2  UNL d   1       1.525  -0.536   0.964  0.00  0.00     0.162 A 
ATOM      4  C3  UNL d   1       0.159  -0.691   1.201  0.00  0.00    -0.034 A 
ATOM      5  C4  UNL d   1      -0.491  -1.829   0.720  0.00  0.00     0.162 A 
ATOM      6  C5  UNL d   1       0.219  -2.797   0.017  0.00  0.00     0.062 A 
ATOM      7  F   UNL d   1      -0.413  -3.888  -0.440  0.00  0.00    -0.097 F 
ATOM      8  F1  UNL d   1      -1.803  -2.010   0.930  0.00  0.00    -0.096 F 
ATOM      9  I   UNL d   1      -0.899   0.759   2.254  0.00  0.00    -0.060 I 
ATOM     10  F2  UNL d   1       2.180   0.546   1.410  0.00  0.00    -0.096 F 
ATOM     11  F3  UNL d   1       3.542  -1.350   0.037  0.00  0.00    -0.097 F 
ATOM     12  F4  UNL d   1       2.258  -3.570  -0.893  0.00  0.00    -0.092 F 
ENDROOT
TORSDOF 0
ENDMDL
