MODEL 1
REMARK minimizedAffinity 8.75594807
REMARK minimizedRMSD -1
REMARK  0 active torsions:
REMARK  status: ('A' for Active; 'I' for Inactive)
ROOT
ATOM      1  C   UNL d   1       0.292  -0.895   0.865  0.00  0.00     0.124 A 
ATOM      2  C1  UNL d   1      -0.267  -2.103   0.472  0.00  0.00     0.062 A 
ATOM      3  C2  UNL d   1       0.529  -3.088  -0.105  0.00  0.00     0.162 A 
ATOM      4  C3  UNL d   1       1.894  -2.869  -0.293  0.00  0.00    -0.034 A 
ATOM      5  C4  UNL d   1       2.449  -1.651   0.104  0.00  0.00     0.162 A 
ATOM      6  C5  UNL d   1       1.648  -0.670   0.681  0.00  0.00     0.062 A 
ATOM      7  F   UNL d   1       2.190   0.497   1.059  0.00  0.00    -0.097 F 
ATOM      8  F1  UNL d   1       3.757  -1.407  -0.062  0.00  0.00    -0.096 F 
ATOM      9  I   UNL d   1       3.088  -4.339  -1.156  0.00  0.00    -0.060 I 
ATOM     10  F2  UNL d   1      -0.038  -4.246  -0.475  0.00  0.00    -0.096 F 
ATOM     11  F3  UNL d   1      -1.578  -2.322   0.649  0.00  0.00    -0.097 F 
ATOM     12  F4  UNL d   1      -0.477   0.051   1.420  0.00  0.00    -0.092 F 
ENDROOT
TORSDOF 0
ENDMDL
