MODEL 1
REMARK minimizedAffinity 10.8152781
REMARK minimizedRMSD -1
REMARK  0 active torsions:
REMARK  status: ('A' for Active; 'I' for Inactive)
ROOT
ATOM      1  C   UNL d   1      -0.018  -2.067   0.506  0.00  0.00     0.124 A 
ATOM      2  C1  UNL d   1       0.740  -3.034  -0.140  0.00  0.00     0.062 A 
ATOM      3  C2  UNL d   1       2.128  -2.935  -0.165  0.00  0.00     0.162 A 
ATOM      4  C3  UNL d   1       2.768  -1.864   0.460  0.00  0.00    -0.034 A 
ATOM      5  C4  UNL d   1       2.000  -0.895   1.107  0.00  0.00     0.162 A 
ATOM      6  C5  UNL d   1       0.613  -0.999   1.129  0.00  0.00     0.062 A 
ATOM      7  F   UNL d   1      -0.118  -0.064   1.754  0.00  0.00    -0.097 F 
ATOM      8  F1  UNL d   1       2.583   0.147   1.718  0.00  0.00    -0.096 F 
ATOM      9  I   UNL d   1       4.844  -1.712   0.425  0.00  0.00    -0.060 I 
ATOM     10  F2  UNL d   1       2.835  -3.883  -0.797  0.00  0.00    -0.096 F 
ATOM     11  F3  UNL d   1       0.133  -4.066  -0.744  0.00  0.00    -0.097 F 
ATOM     12  F4  UNL d   1      -1.353  -2.165   0.527  0.00  0.00    -0.092 F 
ENDROOT
TORSDOF 0
ENDMDL
