MODEL 1
REMARK minimizedAffinity 4.63433933
REMARK minimizedRMSD -1
REMARK  0 active torsions:
REMARK  status: ('A' for Active; 'I' for Inactive)
ROOT
ATOM      1  C   UNL d   1      -2.243   0.810   3.451  0.00  0.00     0.124 A 
ATOM      2  C1  UNL d   1      -1.171   0.146   4.032  0.00  0.00     0.062 A 
ATOM      3  C2  UNL d   1      -0.334  -0.648   3.254  0.00  0.00     0.162 A 
ATOM      4  C3  UNL d   1      -0.566  -0.784   1.885  0.00  0.00    -0.034 A 
ATOM      5  C4  UNL d   1      -1.646  -0.115   1.308  0.00  0.00     0.162 A 
ATOM      6  C5  UNL d   1      -2.479   0.679   2.090  0.00  0.00     0.062 A 
ATOM      7  F   UNL d   1      -3.515   1.318   1.527  0.00  0.00    -0.097 F 
ATOM      8  F1  UNL d   1      -1.898  -0.223  -0.005  0.00  0.00    -0.096 F 
ATOM      9  I   UNL d   1       0.683  -1.971   0.718  0.00  0.00    -0.060 I 
ATOM     10  F2  UNL d   1       0.694  -1.278   3.842  0.00  0.00    -0.096 F 
ATOM     11  F3  UNL d   1      -0.940   0.271   5.347  0.00  0.00    -0.097 F 
ATOM     12  F4  UNL d   1      -3.046   1.573   4.203  0.00  0.00    -0.092 F 
ENDROOT
TORSDOF 0
ENDMDL
