MODEL 1
REMARK minimizedAffinity -1.47079742
REMARK minimizedRMSD -1
REMARK  0 active torsions:
REMARK  status: ('A' for Active; 'I' for Inactive)
ROOT
ATOM      1  C   UNL d   1      -2.019   1.201   2.258  0.00  0.00     0.124 A 
ATOM      2  C1  UNL d   1      -1.215   0.265   2.893  0.00  0.00     0.062 A 
ATOM      3  C2  UNL d   1      -0.916  -0.941   2.265  0.00  0.00     0.162 A 
ATOM      4  C3  UNL d   1      -1.421  -1.218   0.995  0.00  0.00    -0.034 A 
ATOM      5  C4  UNL d   1      -2.231  -0.271   0.363  0.00  0.00     0.162 A 
ATOM      6  C5  UNL d   1      -2.526   0.932   0.995  0.00  0.00     0.062 A 
ATOM      7  F   UNL d   1      -3.304   1.836   0.380  0.00  0.00    -0.097 F 
ATOM      8  F1  UNL d   1      -2.733  -0.505  -0.858  0.00  0.00    -0.096 F 
ATOM      9  I   UNL d   1      -0.977  -3.020   0.053  0.00  0.00    -0.060 I 
ATOM     10  F2  UNL d   1      -0.136  -1.827   2.902  0.00  0.00    -0.096 F 
ATOM     11  F3  UNL d   1      -0.725   0.522   4.114  0.00  0.00    -0.097 F 
ATOM     12  F4  UNL d   1      -2.306   2.360   2.865  0.00  0.00    -0.092 F 
ENDROOT
TORSDOF 0
ENDMDL
