MODEL 1
REMARK minimizedAffinity 19.9701595
REMARK minimizedRMSD -1
REMARK  0 active torsions:
REMARK  status: ('A' for Active; 'I' for Inactive)
ROOT
ATOM      1  C   UNL d   1       2.777  -1.430   0.464  0.00  0.00     0.124 A 
ATOM      2  C1  UNL d   1       4.056  -1.864   0.146  0.00  0.00     0.062 A 
ATOM      3  C2  UNL d   1       4.263  -3.168  -0.294  0.00  0.00     0.162 A 
ATOM      4  C3  UNL d   1       3.188  -4.049  -0.418  0.00  0.00    -0.034 A 
ATOM      5  C4  UNL d   1       1.905  -3.605  -0.095  0.00  0.00     0.162 A 
ATOM      6  C5  UNL d   1       1.703  -2.300   0.344  0.00  0.00     0.062 A 
ATOM      7  F   UNL d   1       0.466  -1.883   0.651  0.00  0.00    -0.097 F 
ATOM      8  F1  UNL d   1       0.849  -4.425  -0.203  0.00  0.00    -0.096 F 
ATOM      9  I   UNL d   1       3.494  -6.000  -1.074  0.00  0.00    -0.060 I 
ATOM     10  F2  UNL d   1       5.510  -3.561  -0.595  0.00  0.00    -0.096 F 
ATOM     11  F3  UNL d   1       5.095  -1.025   0.262  0.00  0.00    -0.097 F 
ATOM     12  F4  UNL d   1       2.580  -0.175   0.888  0.00  0.00    -0.092 F 
ENDROOT
TORSDOF 0
ENDMDL
