MODEL 1
REMARK minimizedAffinity 1.48299325
REMARK minimizedRMSD -1
REMARK  0 active torsions:
REMARK  status: ('A' for Active; 'I' for Inactive)
ROOT
ATOM      1  C   UNL d   1       1.344  -2.773  -0.194  0.00  0.00     0.124 A 
ATOM      2  C1  UNL d   1      -0.030  -2.969  -0.171  0.00  0.00     0.062 A 
ATOM      3  C2  UNL d   1      -0.863  -2.015   0.407  0.00  0.00     0.162 A 
ATOM      4  C3  UNL d   1      -0.324  -0.856   0.966  0.00  0.00    -0.034 A 
ATOM      5  C4  UNL d   1       1.059  -0.667   0.939  0.00  0.00     0.162 A 
ATOM      6  C5  UNL d   1       1.887  -1.623   0.361  0.00  0.00     0.062 A 
ATOM      7  F   UNL d   1       3.214  -1.432   0.339  0.00  0.00    -0.097 F 
ATOM      8  F1  UNL d   1       1.610   0.436   1.467  0.00  0.00    -0.096 F 
ATOM      9  I   UNL d   1      -1.567   0.572   1.830  0.00  0.00    -0.060 I 
ATOM     10  F2  UNL d   1      -2.187  -2.230   0.415  0.00  0.00    -0.096 F 
ATOM     11  F3  UNL d   1      -0.556  -4.080  -0.706  0.00  0.00    -0.097 F 
ATOM     12  F4  UNL d   1       2.144  -3.693  -0.750  0.00  0.00    -0.092 F 
ENDROOT
TORSDOF 0
ENDMDL
