MODEL 1
REMARK minimizedAffinity -3.28199482
REMARK minimizedRMSD -1
REMARK  0 active torsions:
REMARK  status: ('A' for Active; 'I' for Inactive)
ROOT
ATOM      1  C   UNL d   1       2.347   1.942  -3.399  0.00  0.00    -0.002 A 
ATOM      2  C1  UNL d   1       1.256   1.306  -3.974  0.00  0.00     0.010 A 
ATOM      3  C2  UNL d   1       0.481   0.413  -3.231  0.00  0.00     0.041 A 
ATOM      4  C3  UNL d   1       0.823   0.170  -1.886  0.00  0.00    -0.075 A 
ATOM      5  S   UNL d   1       0.019  -0.883  -0.783  0.00  0.00     0.015 SA
ATOM      6  C4  UNL d   1       1.103  -0.512   0.478  0.00  0.00     0.022 A 
ATOM      7  C5  UNL d   1       2.062   0.391   0.085  0.00  0.00     0.026 A 
ATOM      8  C6  UNL d   1       1.916   0.799  -1.284  0.00  0.00    -0.082 A 
ATOM      9  C7  UNL d   1       2.683   1.698  -2.065  0.00  0.00     0.045 A 
ENDROOT
TORSDOF 0
ENDMDL
