MODEL 1
REMARK minimizedAffinity 6.41999912
REMARK minimizedRMSD -1
REMARK  0 active torsions:
REMARK  status: ('A' for Active; 'I' for Inactive)
ROOT
ATOM      1  C   UNL d   1      -2.468  -0.352  -0.123  0.00  0.00    -0.002 A 
ATOM      2  C1  UNL d   1      -2.359   1.012  -0.354  0.00  0.00     0.010 A 
ATOM      3  C2  UNL d   1      -1.104   1.617  -0.461  0.00  0.00     0.041 A 
ATOM      4  C3  UNL d   1       0.049   0.819  -0.333  0.00  0.00    -0.075 A 
ATOM      5  S   UNL d   1       1.690   1.340  -0.430  0.00  0.00     0.015 SA
ATOM      6  C4  UNL d   1       2.285  -0.235  -0.168  0.00  0.00     0.022 A 
ATOM      7  C5  UNL d   1       1.270  -1.149  -0.008  0.00  0.00     0.026 A 
ATOM      8  C6  UNL d   1      -0.035  -0.557  -0.102  0.00  0.00    -0.082 A 
ATOM      9  C7  UNL d   1      -1.321  -1.140   0.003  0.00  0.00     0.045 A 
ENDROOT
TORSDOF 0
ENDMDL
