MODEL 1
REMARK minimizedAffinity 10.0891743
REMARK minimizedRMSD -1
REMARK  0 active torsions:
REMARK  status: ('A' for Active; 'I' for Inactive)
ROOT
ATOM      1  C   UNL d   1      -1.712   0.129  -0.632  0.00  0.00    -0.002 A 
ATOM      2  C1  UNL d   1      -2.341   0.178   0.604  0.00  0.00     0.010 A 
ATOM      3  C2  UNL d   1      -1.637  -0.119   1.772  0.00  0.00     0.041 A 
ATOM      4  C3  UNL d   1      -0.276  -0.469   1.676  0.00  0.00    -0.075 A 
ATOM      5  S   UNL d   1       0.787  -0.873   2.972  0.00  0.00     0.015 SA
ATOM      6  C4  UNL d   1       2.102  -1.119   1.916  0.00  0.00     0.022 A 
ATOM      7  C5  UNL d   1       1.756  -0.903   0.603  0.00  0.00     0.026 A 
ATOM      8  C6  UNL d   1       0.380  -0.525   0.443  0.00  0.00    -0.082 A 
ATOM      9  C7  UNL d   1      -0.362  -0.218  -0.723  0.00  0.00     0.045 A 
ENDROOT
TORSDOF 0
ENDMDL
