MODEL 1
REMARK minimizedAffinity -2.07508874
REMARK minimizedRMSD -1
REMARK  0 active torsions:
REMARK  status: ('A' for Active; 'I' for Inactive)
ROOT
ATOM      1  C   UNL d   1      -1.517   0.393   3.412  0.00  0.00    -0.002 A 
ATOM      2  C1  UNL d   1      -0.151   0.387   3.659  0.00  0.00     0.010 A 
ATOM      3  C2  UNL d   1       0.750   0.022   2.657  0.00  0.00     0.041 A 
ATOM      4  C3  UNL d   1       0.251  -0.337   1.389  0.00  0.00    -0.075 A 
ATOM      5  S   UNL d   1       1.167  -0.817   0.010  0.00  0.00     0.015 SA
ATOM      6  C4  UNL d   1      -0.233  -1.024  -0.940  0.00  0.00     0.022 A 
ATOM      7  C5  UNL d   1      -1.379  -0.739  -0.238  0.00  0.00     0.026 A 
ATOM      8  C6  UNL d   1      -1.119  -0.337   1.116  0.00  0.00    -0.082 A 
ATOM      9  C7  UNL d   1      -2.008   0.036   2.153  0.00  0.00     0.045 A 
ENDROOT
TORSDOF 0
ENDMDL
