MODEL 1
REMARK minimizedAffinity 5.17836905
REMARK minimizedRMSD -1
REMARK  0 active torsions:
REMARK  status: ('A' for Active; 'I' for Inactive)
ROOT
ATOM      1  C   UNL d   1      -4.992  -2.378  -1.112  0.00  0.00    -0.002 A 
ATOM      2  C1  UNL d   1      -5.532  -1.101  -1.050  0.00  0.00     0.010 A 
ATOM      3  C2  UNL d   1      -4.765  -0.028  -0.591  0.00  0.00     0.041 A 
ATOM      4  C3  UNL d   1      -3.434  -0.261  -0.195  0.00  0.00    -0.075 A 
ATOM      5  S   UNL d   1      -2.307   0.901   0.399  0.00  0.00     0.015 SA
ATOM      6  C4  UNL d   1      -1.082  -0.270   0.583  0.00  0.00     0.022 A 
ATOM      7  C5  UNL d   1      -1.506  -1.522   0.206  0.00  0.00     0.026 A 
ATOM      8  C6  UNL d   1      -2.868  -1.538  -0.249  0.00  0.00    -0.082 A 
ATOM      9  C7  UNL d   1      -3.671  -2.606  -0.718  0.00  0.00     0.045 A 
ENDROOT
TORSDOF 0
ENDMDL
