MODEL 1
REMARK minimizedAffinity 0.17131041
REMARK minimizedRMSD -1
REMARK  0 active torsions:
REMARK  status: ('A' for Active; 'I' for Inactive)
ROOT
ATOM      1  C   UNL d   1       1.259  -0.684   0.572  0.00  0.00    -0.002 A 
ATOM      2  C1  UNL d   1       0.060  -0.993  -0.055  0.00  0.00     0.010 A 
ATOM      3  C2  UNL d   1      -0.199  -0.544  -1.351  0.00  0.00     0.041 A 
ATOM      4  C3  UNL d   1       0.777   0.225  -2.014  0.00  0.00    -0.075 A 
ATOM      5  S   UNL d   1       0.679   0.882  -3.606  0.00  0.00     0.015 SA
ATOM      6  C4  UNL d   1       2.227   1.586  -3.491  0.00  0.00     0.022 A 
ATOM      7  C5  UNL d   1       2.818   1.337  -2.275  0.00  0.00     0.026 A 
ATOM      8  C6  UNL d   1       1.992   0.548  -1.404  0.00  0.00    -0.082 A 
ATOM      9  C7  UNL d   1       2.225   0.079  -0.089  0.00  0.00     0.045 A 
ENDROOT
TORSDOF 0
ENDMDL
