MODEL 1
REMARK minimizedAffinity -4.54841614
REMARK minimizedRMSD -1
REMARK  0 active torsions:
REMARK  status: ('A' for Active; 'I' for Inactive)
ROOT
ATOM      1  C1  BNZ d   1       1.834   0.911  -0.909  0.00  0.00     0.000 A 
ATOM      2  C2  BNZ d   1       0.502   0.826  -0.604  0.00  0.00     0.000 A 
ATOM      3  C3  BNZ d   1      -0.100  -0.388  -0.427  0.00  0.00     0.000 A 
ATOM      4  C4  BNZ d   1       0.621  -1.516  -0.595  0.00  0.00     0.000 A 
ATOM      5  C5  BNZ d   1       1.962  -1.448  -0.912  0.00  0.00     0.000 A 
ATOM      6  C6  BNZ d   1       2.574  -0.223  -1.051  0.00  0.00     0.000 A 
ENDROOT
TORSDOF 0
ENDMDL
