MODEL 1
REMARK minimizedAffinity 0.287336677
REMARK minimizedRMSD -1
REMARK  0 active torsions:
REMARK  status: ('A' for Active; 'I' for Inactive)
ROOT
ATOM      1  C1  BNZ d   1       1.323  -1.859  -0.014  0.00  0.00     0.000 A 
ATOM      2  C2  BNZ d   1       1.106  -0.509  -0.086  0.00  0.00     0.000 A 
ATOM      3  C3  BNZ d   1      -0.164  -0.003  -0.082  0.00  0.00     0.000 A 
ATOM      4  C4  BNZ d   1      -1.214  -0.848  -0.048  0.00  0.00     0.000 A 
ATOM      5  C5  BNZ d   1      -1.012  -2.212   0.015  0.00  0.00     0.000 A 
ATOM      6  C6  BNZ d   1       0.268  -2.716   0.050  0.00  0.00     0.000 A 
ENDROOT
TORSDOF 0
ENDMDL
