MODEL 1
REMARK minimizedAffinity -3.37485242
REMARK minimizedRMSD -1
REMARK  0 active torsions:
REMARK  status: ('A' for Active; 'I' for Inactive)
ROOT
ATOM      1  C1  BNZ d   1       0.721  -1.834  -0.487  0.00  0.00     0.000 A 
ATOM      2  C2  BNZ d   1       1.931  -1.948  -1.119  0.00  0.00     0.000 A 
ATOM      3  C3  BNZ d   1       2.670  -0.839  -1.421  0.00  0.00     0.000 A 
ATOM      4  C4  BNZ d   1       2.181   0.384  -1.128  0.00  0.00     0.000 A 
ATOM      5  C5  BNZ d   1       0.959   0.516  -0.500  0.00  0.00     0.000 A 
ATOM      6  C6  BNZ d   1       0.236  -0.605  -0.162  0.00  0.00     0.000 A 
ENDROOT
TORSDOF 0
ENDMDL
