MODEL 1
REMARK minimizedAffinity -5.2941246
REMARK minimizedRMSD -1
REMARK  0 active torsions:
REMARK  status: ('A' for Active; 'I' for Inactive)
ROOT
ATOM      1  C1  BNZ d   1       1.895   0.455  -0.837  0.00  0.00     0.000 A 
ATOM      2  C2  BNZ d   1       2.339  -0.840  -0.868  0.00  0.00     0.000 A 
ATOM      3  C3  BNZ d   1       1.497  -1.876  -0.576  0.00  0.00     0.000 A 
ATOM      4  C4  BNZ d   1       0.224  -1.614  -0.214  0.00  0.00     0.000 A 
ATOM      5  C5  BNZ d   1      -0.236  -0.313  -0.169  0.00  0.00     0.000 A 
ATOM      6  C6  BNZ d   1       0.604   0.725  -0.501  0.00  0.00     0.000 A 
ENDROOT
TORSDOF 0
ENDMDL
