MODEL 1
REMARK minimizedAffinity -3.69133091
REMARK minimizedRMSD -1
REMARK  0 active torsions:
REMARK  status: ('A' for Active; 'I' for Inactive)
ROOT
ATOM      1  C1  BNZ d   1       1.621   0.292  -0.578  0.00  0.00     0.000 A 
ATOM      2  C2  BNZ d   1       0.499   1.064  -0.438  0.00  0.00     0.000 A 
ATOM      3  C3  BNZ d   1      -0.717   0.492  -0.189  0.00  0.00     0.000 A 
ATOM      4  C4  BNZ d   1      -0.817  -0.851  -0.122  0.00  0.00     0.000 A 
ATOM      5  C5  BNZ d   1       0.304  -1.644  -0.272  0.00  0.00     0.000 A 
ATOM      6  C6  BNZ d   1       1.533  -1.063  -0.483  0.00  0.00     0.000 A 
ENDROOT
TORSDOF 0
ENDMDL
