MODEL 1
REMARK minimizedAffinity -4.69876432
REMARK minimizedRMSD -1
REMARK  0 active torsions:
REMARK  status: ('A' for Active; 'I' for Inactive)
ROOT
ATOM      1  C1  BNZ d   1       1.738   0.596  -0.935  0.00  0.00     0.000 A 
ATOM      2  C2  BNZ d   1       0.450   0.699  -0.483  0.00  0.00     0.000 A 
ATOM      3  C3  BNZ d   1      -0.261  -0.415  -0.134  0.00  0.00     0.000 A 
ATOM      4  C4  BNZ d   1       0.303  -1.632  -0.275  0.00  0.00     0.000 A 
ATOM      5  C5  BNZ d   1       1.598  -1.754  -0.738  0.00  0.00     0.000 A 
ATOM      6  C6  BNZ d   1       2.324  -0.627  -1.052  0.00  0.00     0.000 A 
ENDROOT
TORSDOF 0
ENDMDL
