MODEL 1
REMARK minimizedAffinity -4.7055316
REMARK minimizedRMSD -1
REMARK  0 active torsions:
REMARK  status: ('A' for Active; 'I' for Inactive)
ROOT
ATOM      1  C1  BNZ d   1       1.367   1.235  -0.634  0.00  0.00     0.000 A 
ATOM      2  C2  BNZ d   1       0.159   0.721  -0.244  0.00  0.00     0.000 A 
ATOM      3  C3  BNZ d   1      -0.016  -0.627  -0.103  0.00  0.00     0.000 A 
ATOM      4  C4  BNZ d   1       1.004  -1.461  -0.391  0.00  0.00     0.000 A 
ATOM      5  C5  BNZ d   1       2.226  -0.959  -0.794  0.00  0.00     0.000 A 
ATOM      6  C6  BNZ d   1       2.409   0.401  -0.898  0.00  0.00     0.000 A 
ENDROOT
TORSDOF 0
ENDMDL
