MODEL 1
REMARK minimizedAffinity -5.29618597
REMARK minimizedRMSD -1
REMARK  0 active torsions:
REMARK  status: ('A' for Active; 'I' for Inactive)
ROOT
ATOM      1  C1  BNZ d   1       3.579   0.512  -2.632  0.00  0.00     0.000 A 
ATOM      2  C2  BNZ d   1       2.581   1.313  -3.122  0.00  0.00     0.000 A 
ATOM      3  C3  BNZ d   1       1.374   1.396  -2.485  0.00  0.00     0.000 A 
ATOM      4  C4  BNZ d   1       1.152   0.649  -1.385  0.00  0.00     0.000 A 
ATOM      5  C5  BNZ d   1       2.145  -0.170  -0.884  0.00  0.00     0.000 A 
ATOM      6  C6  BNZ d   1       3.372  -0.222  -1.505  0.00  0.00     0.000 A 
ENDROOT
TORSDOF 0
ENDMDL
