MODEL 1
REMARK minimizedAffinity -4.98665905
REMARK minimizedRMSD -1
REMARK  0 active torsions:
REMARK  status: ('A' for Active; 'I' for Inactive)
ROOT
ATOM      1  C1  BNZ d   1      -0.032  -1.489  -0.409  0.00  0.00     0.000 A 
ATOM      2  C2  BNZ d   1       1.198  -1.687  -0.977  0.00  0.00     0.000 A 
ATOM      3  C3  BNZ d   1       1.968  -0.627  -1.367  0.00  0.00     0.000 A 
ATOM      4  C4  BNZ d   1       1.490   0.627  -1.226  0.00  0.00     0.000 A 
ATOM      5  C5  BNZ d   1       0.248   0.842  -0.664  0.00  0.00     0.000 A 
ATOM      6  C6  BNZ d   1      -0.508  -0.226  -0.237  0.00  0.00     0.000 A 
ENDROOT
TORSDOF 0
ENDMDL
