MODEL 1
REMARK minimizedAffinity -4.95074177
REMARK minimizedRMSD -1
REMARK  0 active torsions:
REMARK  status: ('A' for Active; 'I' for Inactive)
ROOT
ATOM      1  C1  BNZ d   1       0.428   0.740  -0.733  0.00  0.00     0.000 A 
ATOM      2  C2  BNZ d   1       0.904   1.498  -1.769  0.00  0.00     0.000 A 
ATOM      3  C3  BNZ d   1       2.006   1.104  -2.476  0.00  0.00     0.000 A 
ATOM      4  C4  BNZ d   1       2.653  -0.025  -2.121  0.00  0.00     0.000 A 
ATOM      5  C5  BNZ d   1       2.190  -0.795  -1.072  0.00  0.00     0.000 A 
ATOM      6  C6  BNZ d   1       1.058  -0.416  -0.388  0.00  0.00     0.000 A 
ENDROOT
TORSDOF 0
ENDMDL
