MODEL 1
REMARK minimizedAffinity -2.25246882
REMARK minimizedRMSD -1
REMARK  0 active torsions:
REMARK  status: ('A' for Active; 'I' for Inactive)
ROOT
ATOM      1  C1  BNZ d   1       0.020   1.279   2.691  0.00  0.00     0.000 A 
ATOM      2  C2  BNZ d   1      -0.585   1.610   3.874  0.00  0.00     0.000 A 
ATOM      3  C3  BNZ d   1      -1.889   1.277   4.111  0.00  0.00     0.000 A 
ATOM      4  C4  BNZ d   1      -2.598   0.650   3.151  0.00  0.00     0.000 A 
ATOM      5  C5  BNZ d   1      -2.006   0.318   1.949  0.00  0.00     0.000 A 
ATOM      6  C6  BNZ d   1      -0.681   0.620   1.729  0.00  0.00     0.000 A 
ENDROOT
TORSDOF 0
ENDMDL
