MODEL 1
REMARK minimizedAffinity -3.07230496
REMARK minimizedRMSD -1
REMARK  0 active torsions:
REMARK  status: ('A' for Active; 'I' for Inactive)
ROOT
ATOM      1  C1  BNZ d   1       2.260  -1.019  -0.838  0.00  0.00     0.000 A 
ATOM      2  C2  BNZ d   1       1.802   0.272  -0.832  0.00  0.00     0.000 A 
ATOM      3  C3  BNZ d   1       0.503   0.553  -0.516  0.00  0.00     0.000 A 
ATOM      4  C4  BNZ d   1      -0.347  -0.459  -0.246  0.00  0.00     0.000 A 
ATOM      5  C5  BNZ d   1       0.096  -1.767  -0.257  0.00  0.00     0.000 A 
ATOM      6  C6  BNZ d   1       1.415  -2.043  -0.537  0.00  0.00     0.000 A 
ENDROOT
TORSDOF 0
ENDMDL
