MODEL 1
REMARK minimizedAffinity -4.91021156
REMARK minimizedRMSD -1
REMARK  0 active torsions:
REMARK  status: ('A' for Active; 'I' for Inactive)
ROOT
ATOM      1  C1  BNZ d   1       2.412   0.358  -0.629  0.00  0.00     0.000 A 
ATOM      2  C2  BNZ d   1       2.615  -0.773  -1.375  0.00  0.00     0.000 A 
ATOM      3  C3  BNZ d   1       1.614  -1.687  -1.547  0.00  0.00     0.000 A 
ATOM      4  C4  BNZ d   1       0.425  -1.490  -0.942  0.00  0.00     0.000 A 
ATOM      5  C5  BNZ d   1       0.207  -0.360  -0.179  0.00  0.00     0.000 A 
ATOM      6  C6  BNZ d   1       1.205   0.577  -0.040  0.00  0.00     0.000 A 
ENDROOT
TORSDOF 0
ENDMDL
