MODEL 1
REMARK minimizedAffinity -4.7865634
REMARK minimizedRMSD -1
REMARK  0 active torsions:
REMARK  status: ('A' for Active; 'I' for Inactive)
ROOT
ATOM      1  C1  BNZ d   1       1.876  -1.747  -1.080  0.00  0.00     0.000 A 
ATOM      2  C2  BNZ d   1       2.864  -0.842  -1.365  0.00  0.00     0.000 A 
ATOM      3  C3  BNZ d   1       2.702   0.484  -1.076  0.00  0.00     0.000 A 
ATOM      4  C4  BNZ d   1       1.539   0.909  -0.541  0.00  0.00     0.000 A 
ATOM      5  C5  BNZ d   1       0.530   0.010  -0.257  0.00  0.00     0.000 A 
ATOM      6  C6  BNZ d   1       0.712  -1.329  -0.512  0.00  0.00     0.000 A 
ENDROOT
TORSDOF 0
ENDMDL
