MODEL 1
REMARK minimizedAffinity -1.89461339
REMARK minimizedRMSD -1
REMARK  0 active torsions:
REMARK  status: ('A' for Active; 'I' for Inactive)
ROOT
ATOM      1  C1  BNZ d   1      -0.519  -0.612   0.467  0.00  0.00     0.000 A 
ATOM      2  C2  BNZ d   1       0.473  -1.514   0.184  0.00  0.00     0.000 A 
ATOM      3  C3  BNZ d   1       1.538  -1.161  -0.597  0.00  0.00     0.000 A 
ATOM      4  C4  BNZ d   1       1.590   0.078  -1.126  0.00  0.00     0.000 A 
ATOM      5  C5  BNZ d   1       0.594   0.996  -0.858  0.00  0.00     0.000 A 
ATOM      6  C6  BNZ d   1      -0.457   0.649  -0.040  0.00  0.00     0.000 A 
ENDROOT
TORSDOF 0
ENDMDL
