MODEL 1
REMARK minimizedAffinity 0.324495822
REMARK minimizedRMSD -1
REMARK  0 active torsions:
REMARK  status: ('A' for Active; 'I' for Inactive)
ROOT
ATOM      1  C2' OXE d   1       4.528   3.189   3.727  0.00  0.00     0.078 C 
ATOM      2  C1' OXE d   1       4.523   5.997   3.738  0.00  0.00     0.078 C 
ATOM      3  C1  OXE d   1       3.465   5.288   4.546  0.00  0.00    -0.078 A 
ATOM      4  C2  OXE d   1       3.446   3.915   4.497  0.00  0.00    -0.078 A 
ATOM      5  C3  OXE d   1       2.525   3.210   5.267  0.00  0.00     0.003 A 
ATOM      6  C4  OXE d   1       1.522   3.889   5.969  0.00  0.00    -0.002 A 
ATOM      7  C5  OXE d   1       1.498   5.287   6.000  0.00  0.00    -0.002 A 
ATOM      8  C6  OXE d   1       2.486   6.000   5.330  0.00  0.00     0.003 A 
ENDROOT
TORSDOF 0
ENDMDL
