MODEL 1
REMARK minimizedAffinity -3.59721684
REMARK minimizedRMSD -1
REMARK  0 active torsions:
REMARK  status: ('A' for Active; 'I' for Inactive)
ROOT
ATOM      1  C2' OXE d   1       4.380   3.856   2.966  0.00  0.00     0.078 C 
ATOM      2  C1' OXE d   1       5.651   5.235   5.054  0.00  0.00     0.078 C 
ATOM      3  C1  OXE d   1       4.144   5.266   5.006  0.00  0.00    -0.078 A 
ATOM      4  C2  OXE d   1       3.532   4.628   3.954  0.00  0.00    -0.078 A 
ATOM      5  C3  OXE d   1       2.143   4.579   3.891  0.00  0.00     0.003 A 
ATOM      6  C4  OXE d   1       1.366   5.304   4.804  0.00  0.00    -0.002 A 
ATOM      7  C5  OXE d   1       1.971   5.994   5.860  0.00  0.00    -0.002 A 
ATOM      8  C6  OXE d   1       3.354   5.950   5.999  0.00  0.00     0.003 A 
ENDROOT
TORSDOF 0
ENDMDL
