MODEL 1
REMARK minimizedAffinity 1.68771219
REMARK minimizedRMSD -1
REMARK  0 active torsions:
REMARK  status: ('A' for Active; 'I' for Inactive)
ROOT
ATOM      1  C2' OXE d   1       4.561   3.049   1.790  0.00  0.00     0.078 C 
ATOM      2  C1' OXE d   1       5.259   3.493  -0.892  0.00  0.00     0.078 C 
ATOM      3  C1  OXE d   1       4.442   2.267  -0.572  0.00  0.00    -0.078 A 
ATOM      4  C2  OXE d   1       4.145   2.032   0.749  0.00  0.00    -0.078 A 
ATOM      5  C3  OXE d   1       3.348   0.944   1.094  0.00  0.00     0.003 A 
ATOM      6  C4  OXE d   1       2.976   0.003   0.126  0.00  0.00    -0.002 A 
ATOM      7  C5  OXE d   1       3.302   0.202  -1.220  0.00  0.00    -0.002 A 
ATOM      8  C6  OXE d   1       3.997   1.348  -1.590  0.00  0.00     0.003 A 
ENDROOT
TORSDOF 0
ENDMDL
