MODEL 1
REMARK minimizedAffinity 4.69505453
REMARK minimizedRMSD -1
REMARK  0 active torsions:
REMARK  status: ('A' for Active; 'I' for Inactive)
ROOT
ATOM      1  C2' OXE d   1       3.036   5.341   2.581  0.00  0.00     0.078 C 
ATOM      2  C1' OXE d   1       4.200   2.819   2.179  0.00  0.00     0.078 C 
ATOM      3  C1  OXE d   1       3.582   3.102   3.525  0.00  0.00    -0.078 A 
ATOM      4  C2  OXE d   1       3.056   4.355   3.728  0.00  0.00    -0.078 A 
ATOM      5  C3  OXE d   1       2.425   4.650   4.933  0.00  0.00     0.003 A 
ATOM      6  C4  OXE d   1       2.456   3.735   5.993  0.00  0.00    -0.002 A 
ATOM      7  C5  OXE d   1       3.022   2.468   5.820  0.00  0.00    -0.002 A 
ATOM      8  C6  OXE d   1       3.550   2.120   4.581  0.00  0.00     0.003 A 
ENDROOT
TORSDOF 0
ENDMDL
