MODEL 1
REMARK minimizedAffinity -4.76826477
REMARK minimizedRMSD -1
REMARK  0 active torsions:
REMARK  status: ('A' for Active; 'I' for Inactive)
ROOT
ATOM      1  C2' OXE d   1       1.496   5.998   3.379  0.00  0.00     0.078 C 
ATOM      2  C1' OXE d   1      -0.371   4.916   5.174  0.00  0.00     0.078 C 
ATOM      3  C1  OXE d   1       1.005   4.301   5.136  0.00  0.00    -0.078 A 
ATOM      4  C2  OXE d   1       1.898   4.806   4.221  0.00  0.00    -0.078 A 
ATOM      5  C3  OXE d   1       3.198   4.311   4.182  0.00  0.00     0.003 A 
ATOM      6  C4  OXE d   1       3.559   3.202   4.957  0.00  0.00    -0.002 A 
ATOM      7  C5  OXE d   1       2.653   2.647   5.866  0.00  0.00    -0.002 A 
ATOM      8  C6  OXE d   1       1.388   3.210   5.998  0.00  0.00     0.003 A 
ENDROOT
TORSDOF 0
ENDMDL
