MODEL 1
REMARK minimizedAffinity 1.7092557
REMARK minimizedRMSD -1
REMARK  0 active torsions:
REMARK  status: ('A' for Active; 'I' for Inactive)
ROOT
ATOM      1  C2' OXE d   1       4.727   1.567  -1.016  0.00  0.00     0.078 C 
ATOM      2  C1' OXE d   1       2.137   2.357  -0.278  0.00  0.00     0.078 C 
ATOM      3  C1  OXE d   1       2.468   0.887  -0.218  0.00  0.00    -0.078 A 
ATOM      4  C2  OXE d   1       3.723   0.504  -0.625  0.00  0.00    -0.078 A 
ATOM      5  C3  OXE d   1       4.098  -0.833  -0.538  0.00  0.00     0.003 A 
ATOM      6  C4  OXE d   1       3.160  -1.811  -0.185  0.00  0.00    -0.002 A 
ATOM      7  C5  OXE d   1       1.864  -1.447   0.196  0.00  0.00    -0.002 A 
ATOM      8  C6  OXE d   1       1.515  -0.101   0.226  0.00  0.00     0.003 A 
ENDROOT
TORSDOF 0
ENDMDL
