MODEL 1
REMARK minimizedAffinity 7.74393129
REMARK minimizedRMSD -1
REMARK  0 active torsions:
REMARK  status: ('A' for Active; 'I' for Inactive)
ROOT
ATOM      1  C2' OXE d   1      -1.895  -1.117   1.226  0.00  0.00     0.078 C 
ATOM      2  C1' OXE d   1       0.174   0.341   2.439  0.00  0.00     0.078 C 
ATOM      3  C1  OXE d   1       0.523  -0.520   1.251  0.00  0.00    -0.078 A 
ATOM      4  C2  OXE d   1      -0.487  -1.266   0.693  0.00  0.00    -0.078 A 
ATOM      5  C3  OXE d   1      -0.230  -2.036  -0.439  0.00  0.00     0.003 A 
ATOM      6  C4  OXE d   1       1.077  -2.176  -0.919  0.00  0.00    -0.002 A 
ATOM      7  C5  OXE d   1       2.127  -1.456  -0.341  0.00  0.00    -0.002 A 
ATOM      8  C6  OXE d   1       1.860  -0.592   0.716  0.00  0.00     0.003 A 
ENDROOT
TORSDOF 0
ENDMDL
