MODEL 1
REMARK minimizedAffinity 6.17078018
REMARK minimizedRMSD -1
REMARK  2 active torsions:
REMARK  status: ('A' for Active; 'I' for Inactive)
REMARK    1  A    between atoms: C1_2  and  C2_3 
REMARK    2  A    between atoms: C2_3  and  C3_4 
ROOT
ATOM      1  C3  UNL d   1      -2.610  -1.796  -3.188  0.00  0.00    -0.075 A 
ATOM      2  C4  UNL d   1      -3.905  -2.279  -2.952  0.00  0.00     0.002 A 
ATOM      3  C5  UNL d   1      -4.102  -3.453  -2.225  0.00  0.00     0.002 A 
ATOM      4  C6  UNL d   1      -3.010  -4.163  -1.733  0.00  0.00    -0.004 A 
ATOM      5  C7  UNL d   1      -1.717  -3.702  -1.975  0.00  0.00     0.002 A 
ATOM      6  C8  UNL d   1      -1.517  -2.525  -2.699  0.00  0.00     0.002 A 
ENDROOT
BRANCH   1   7
ATOM      7  C2  UNL d   1      -2.390  -0.511  -3.949  0.00  0.00     0.056 C 
BRANCH   7   8
ATOM      8  C1  UNL d   1      -2.135   0.707  -3.056  0.00  0.00     0.007 C 
ATOM      9  C   UNL d   1      -3.346   1.621  -2.925  0.00  0.00     0.009 C 
ENDBRANCH   7   8
ENDBRANCH   1   7
TORSDOF 2
ENDMDL
