MODEL 1
REMARK minimizedAffinity -3.28642869
REMARK minimizedRMSD -1
REMARK  2 active torsions:
REMARK  status: ('A' for Active; 'I' for Inactive)
REMARK    1  A    between atoms: C1_2  and  C2_3 
REMARK    2  A    between atoms: C2_3  and  C3_4 
ROOT
ATOM      1  C3  UNL d   1       3.462  -5.468  -3.617  0.00  0.00    -0.075 A 
ATOM      2  C4  UNL d   1       3.172  -5.987  -4.887  0.00  0.00     0.002 A 
ATOM      3  C5  UNL d   1       3.917  -5.596  -6.000  0.00  0.00     0.002 A 
ATOM      4  C6  UNL d   1       4.953  -4.675  -5.859  0.00  0.00    -0.004 A 
ATOM      5  C7  UNL d   1       5.239  -4.140  -4.605  0.00  0.00     0.002 A 
ATOM      6  C8  UNL d   1       4.498  -4.533  -3.489  0.00  0.00     0.002 A 
ENDROOT
BRANCH   1   7
ATOM      7  C2  UNL d   1       2.678  -5.910  -2.404  0.00  0.00     0.056 C 
BRANCH   7   8
ATOM      8  C1  UNL d   1       3.001  -5.120  -1.132  0.00  0.00     0.007 C 
ATOM      9  C   UNL d   1       3.120  -5.999   0.106  0.00  0.00     0.009 C 
ENDBRANCH   7   8
ENDBRANCH   1   7
TORSDOF 2
ENDMDL
