MODEL 1
REMARK minimizedAffinity 0.637817681
REMARK minimizedRMSD -1
REMARK  2 active torsions:
REMARK  status: ('A' for Active; 'I' for Inactive)
REMARK    1  A    between atoms: C1_2  and  C2_3 
REMARK    2  A    between atoms: C2_3  and  C3_4 
ROOT
ATOM      1  C3  UNL d   1       0.467  -1.753  -0.453  0.00  0.00    -0.075 A 
ATOM      2  C4  UNL d   1       1.402  -2.798  -0.498  0.00  0.00     0.002 A 
ATOM      3  C5  UNL d   1       1.207  -3.885  -1.350  0.00  0.00     0.002 A 
ATOM      4  C6  UNL d   1       0.074  -3.947  -2.158  0.00  0.00    -0.004 A 
ATOM      5  C7  UNL d   1      -0.869  -2.923  -2.109  0.00  0.00     0.002 A 
ATOM      6  C8  UNL d   1      -0.675  -1.831  -1.261  0.00  0.00     0.002 A 
ENDROOT
BRANCH   1   7
ATOM      7  C2  UNL d   1       0.687  -0.559   0.445  0.00  0.00     0.056 C 
BRANCH   7   8
ATOM      8  C1  UNL d   1       1.080   0.720  -0.302  0.00  0.00     0.007 C 
ATOM      9  C   UNL d   1       2.255   1.450   0.336  0.00  0.00     0.009 C 
ENDBRANCH   7   8
ENDBRANCH   1   7
TORSDOF 2
ENDMDL
