MODEL 1
REMARK minimizedAffinity -3.66348815
REMARK minimizedRMSD -1
REMARK  2 active torsions:
REMARK  status: ('A' for Active; 'I' for Inactive)
REMARK    1  A    between atoms: C1_2  and  C2_3 
REMARK    2  A    between atoms: C2_3  and  C3_4 
ROOT
ATOM      1  C3  UNL d   1       4.293  -2.942  -4.545  0.00  0.00    -0.075 A 
ATOM      2  C4  UNL d   1       4.884  -1.869  -3.862  0.00  0.00     0.002 A 
ATOM      3  C5  UNL d   1       4.611  -0.553  -4.237  0.00  0.00     0.002 A 
ATOM      4  C6  UNL d   1       3.753  -0.294  -5.303  0.00  0.00    -0.004 A 
ATOM      5  C7  UNL d   1       3.173  -1.352  -6.000  0.00  0.00     0.002 A 
ATOM      6  C8  UNL d   1       3.441  -2.669  -5.624  0.00  0.00     0.002 A 
ENDROOT
BRANCH   1   7
ATOM      7  C2  UNL d   1       4.561  -4.367  -4.125  0.00  0.00     0.056 C 
BRANCH   7   8
ATOM      8  C1  UNL d   1       4.357  -4.626  -2.629  0.00  0.00     0.007 C 
ATOM      9  C   UNL d   1       4.842  -6.000  -2.186  0.00  0.00     0.009 C 
ENDBRANCH   7   8
ENDBRANCH   1   7
TORSDOF 2
ENDMDL
