MODEL 1
REMARK minimizedAffinity -4.40951109
REMARK minimizedRMSD -1
REMARK  2 active torsions:
REMARK  status: ('A' for Active; 'I' for Inactive)
REMARK    1  A    between atoms: C1_2  and  C2_3 
REMARK    2  A    between atoms: C2_3  and  C3_4 
ROOT
ATOM      1  C3  UNL d   1       4.125  -3.087  -4.883  0.00  0.00    -0.075 A 
ATOM      2  C4  UNL d   1       4.685  -2.473  -3.754  0.00  0.00     0.002 A 
ATOM      3  C5  UNL d   1       4.912  -1.096  -3.736  0.00  0.00     0.002 A 
ATOM      4  C6  UNL d   1       4.592  -0.320  -4.848  0.00  0.00    -0.004 A 
ATOM      5  C7  UNL d   1       4.049  -0.922  -5.981  0.00  0.00     0.002 A 
ATOM      6  C8  UNL d   1       3.817  -2.299  -6.000  0.00  0.00     0.002 A 
ENDROOT
BRANCH   1   7
ATOM      7  C2  UNL d   1       3.849  -4.572  -4.898  0.00  0.00     0.056 C 
BRANCH   7   8
ATOM      8  C1  UNL d   1       4.955  -5.418  -4.257  0.00  0.00     0.007 C 
ATOM      9  C   UNL d   1       4.560  -5.999  -2.906  0.00  0.00     0.009 C 
ENDBRANCH   7   8
ENDBRANCH   1   7
TORSDOF 2
ENDMDL
