MODEL 1
REMARK minimizedAffinity 3.12401986
REMARK minimizedRMSD -1
REMARK  2 active torsions:
REMARK  status: ('A' for Active; 'I' for Inactive)
REMARK    1  A    between atoms: C1_2  and  C2_3 
REMARK    2  A    between atoms: C2_3  and  C3_4 
ROOT
ATOM      1  C3  UNL d   1      -1.475   0.422  -1.540  0.00  0.00    -0.075 A 
ATOM      2  C4  UNL d   1      -1.463  -0.222  -2.786  0.00  0.00     0.002 A 
ATOM      3  C5  UNL d   1      -2.228   0.270  -3.844  0.00  0.00     0.002 A 
ATOM      4  C6  UNL d   1      -3.021   1.402  -3.668  0.00  0.00    -0.004 A 
ATOM      5  C7  UNL d   1      -3.053   2.039  -2.430  0.00  0.00     0.002 A 
ATOM      6  C8  UNL d   1      -2.286   1.553  -1.370  0.00  0.00     0.002 A 
ENDROOT
BRANCH   1   7
ATOM      7  C2  UNL d   1      -0.627  -0.087  -0.399  0.00  0.00     0.056 C 
BRANCH   7   8
ATOM      8  C1  UNL d   1      -0.021   1.020   0.470  0.00  0.00     0.007 C 
ATOM      9  C   UNL d   1       1.103   1.779  -0.223  0.00  0.00     0.009 C 
ENDBRANCH   7   8
ENDBRANCH   1   7
TORSDOF 2
ENDMDL
