MODEL 1
REMARK minimizedAffinity 3.13522625
REMARK minimizedRMSD -1
REMARK  2 active torsions:
REMARK  status: ('A' for Active; 'I' for Inactive)
REMARK    1  A    between atoms: C1_2  and  C2_3 
REMARK    2  A    between atoms: C2_3  and  C3_4 
ROOT
ATOM      1  C3  UNL d   1       0.070  -0.178   0.656  0.00  0.00    -0.075 A 
ATOM      2  C4  UNL d   1       1.392   0.277   0.768  0.00  0.00     0.002 A 
ATOM      3  C5  UNL d   1       1.712   1.603   0.474  0.00  0.00     0.002 A 
ATOM      4  C6  UNL d   1       0.719   2.486   0.057  0.00  0.00    -0.004 A 
ATOM      5  C7  UNL d   1      -0.595   2.041  -0.074  0.00  0.00     0.002 A 
ATOM      6  C8  UNL d   1      -0.919   0.716   0.223  0.00  0.00     0.002 A 
ENDROOT
BRANCH   1   7
ATOM      7  C2  UNL d   1      -0.288  -1.604   1.000  0.00  0.00     0.056 C 
BRANCH   7   8
ATOM      8  C1  UNL d   1       0.403  -2.650   0.120  0.00  0.00     0.007 C 
ATOM      9  C   UNL d   1      -0.548  -3.344  -0.847  0.00  0.00     0.009 C 
ENDBRANCH   7   8
ENDBRANCH   1   7
TORSDOF 2
ENDMDL
