MODEL 1
REMARK minimizedAffinity 14.1538496
REMARK minimizedRMSD -1
REMARK  0 active torsions:
REMARK  status: ('A' for Active; 'I' for Inactive)
ROOT
ATOM      1  C   UNL d   1      -0.305   5.999  -1.076  0.00  0.00     0.077 C 
ATOM      2  C1  UNL d   1      -0.463   4.549  -0.728  0.00  0.00    -0.074 A 
ATOM      3  C2  UNL d   1      -0.694   3.592  -1.721  0.00  0.00    -0.005 A 
ATOM      4  C3  UNL d   1      -0.829   2.246  -1.384  0.00  0.00     0.006 A 
ATOM      5  C4  UNL d   1      -0.735   1.843  -0.051  0.00  0.00    -0.005 A 
ATOM      6  C5  UNL d   1      -0.503   2.785   0.956  0.00  0.00    -0.074 A 
ATOM      7  C6  UNL d   1      -0.389   2.368   2.392  0.00  0.00     0.077 C 
ATOM      8  C7  UNL d   1      -0.362   4.135   0.608  0.00  0.00    -0.001 A 
ENDROOT
TORSDOF 0
ENDMDL
