MODEL 1
REMARK minimizedAffinity 5.08111763
REMARK minimizedRMSD -1
REMARK  0 active torsions:
REMARK  status: ('A' for Active; 'I' for Inactive)
ROOT
ATOM      1  C   UNL d   1      -2.695  -1.589  -2.853  0.00  0.00     0.077 C 
ATOM      2  C1  UNL d   1      -3.294  -0.503  -2.010  0.00  0.00    -0.074 A 
ATOM      3  C2  UNL d   1      -3.788   0.669  -2.591  0.00  0.00    -0.005 A 
ATOM      4  C3  UNL d   1      -4.351   1.666  -1.795  0.00  0.00     0.006 A 
ATOM      5  C4  UNL d   1      -4.426   1.502  -0.411  0.00  0.00    -0.005 A 
ATOM      6  C5  UNL d   1      -3.938   0.337   0.188  0.00  0.00    -0.074 A 
ATOM      7  C6  UNL d   1      -4.019   0.140   1.673  0.00  0.00     0.077 C 
ATOM      8  C7  UNL d   1      -3.380  -0.664  -0.619  0.00  0.00    -0.001 A 
ENDROOT
TORSDOF 0
ENDMDL
