MODEL 1
REMARK minimizedAffinity 5.98937559
REMARK minimizedRMSD -1
REMARK  0 active torsions:
REMARK  status: ('A' for Active; 'I' for Inactive)
ROOT
ATOM      1  C   UNL d   1       2.060   2.728   3.044  0.00  0.00     0.077 C 
ATOM      2  C1  UNL d   1       0.751   2.760   2.314  0.00  0.00    -0.074 A 
ATOM      3  C2  UNL d   1      -0.402   2.206   2.880  0.00  0.00    -0.005 A 
ATOM      4  C3  UNL d   1      -1.615   2.252   2.193  0.00  0.00     0.006 A 
ATOM      5  C4  UNL d   1      -1.687   2.851   0.934  0.00  0.00    -0.005 A 
ATOM      6  C5  UNL d   1      -0.545   3.410   0.353  0.00  0.00    -0.074 A 
ATOM      7  C6  UNL d   1      -0.608   4.066  -0.995  0.00  0.00     0.077 C 
ATOM      8  C7  UNL d   1       0.668   3.367   1.053  0.00  0.00    -0.001 A 
ENDROOT
TORSDOF 0
ENDMDL
