MODEL 1
REMARK minimizedAffinity 5.16242599
REMARK minimizedRMSD -1
REMARK  0 active torsions:
REMARK  status: ('A' for Active; 'I' for Inactive)
ROOT
ATOM      1  C   UNL d   1       1.547  -5.198  -0.361  0.00  0.00     0.077 C 
ATOM      2  C1  UNL d   1       1.716  -3.726  -0.593  0.00  0.00    -0.074 A 
ATOM      3  C2  UNL d   1       2.842  -3.047  -0.116  0.00  0.00    -0.005 A 
ATOM      4  C3  UNL d   1       2.989  -1.680  -0.348  0.00  0.00     0.006 A 
ATOM      5  C4  UNL d   1       2.014  -0.978  -1.058  0.00  0.00    -0.005 A 
ATOM      6  C5  UNL d   1       0.882  -1.640  -1.543  0.00  0.00    -0.074 A 
ATOM      7  C6  UNL d   1      -0.171  -0.903  -2.317  0.00  0.00     0.077 C 
ATOM      8  C7  UNL d   1       0.744  -3.016  -1.313  0.00  0.00    -0.001 A 
ENDROOT
TORSDOF 0
ENDMDL
