MODEL 1
REMARK minimizedAffinity 7.0382762
REMARK minimizedRMSD -1
REMARK  0 active torsions:
REMARK  status: ('A' for Active; 'I' for Inactive)
ROOT
ATOM      1  C   UNL d   1      -3.373  -1.410  -1.607  0.00  0.00     0.077 C 
ATOM      2  C1  UNL d   1      -1.964  -0.919  -1.451  0.00  0.00    -0.074 A 
ATOM      3  C2  UNL d   1      -0.880  -1.708  -1.847  0.00  0.00    -0.005 A 
ATOM      4  C3  UNL d   1       0.424  -1.235  -1.704  0.00  0.00     0.006 A 
ATOM      5  C4  UNL d   1       0.657   0.031  -1.164  0.00  0.00    -0.005 A 
ATOM      6  C5  UNL d   1      -0.415   0.834  -0.763  0.00  0.00    -0.074 A 
ATOM      7  C6  UNL d   1      -0.183   2.201  -0.189  0.00  0.00     0.077 C 
ATOM      8  C7  UNL d   1      -1.723   0.354  -0.916  0.00  0.00    -0.001 A 
ENDROOT
TORSDOF 0
ENDMDL
