MODEL 1
REMARK minimizedAffinity 10.5365486
REMARK minimizedRMSD -1
REMARK  0 active torsions:
REMARK  status: ('A' for Active; 'I' for Inactive)
ROOT
ATOM      1  C   UNL d   1      -0.387   2.080   2.408  0.00  0.00     0.077 C 
ATOM      2  C1  UNL d   1      -0.356   2.493   0.966  0.00  0.00    -0.074 A 
ATOM      3  C2  UNL d   1      -0.310   1.538  -0.054  0.00  0.00    -0.005 A 
ATOM      4  C3  UNL d   1      -0.291   1.937  -1.391  0.00  0.00     0.006 A 
ATOM      5  C4  UNL d   1      -0.318   3.293  -1.720  0.00  0.00    -0.005 A 
ATOM      6  C5  UNL d   1      -0.365   4.262  -0.713  0.00  0.00    -0.074 A 
ATOM      7  C6  UNL d   1      -0.405   5.723  -1.050  0.00  0.00     0.077 C 
ATOM      8  C7  UNL d   1      -0.391   3.853   0.627  0.00  0.00    -0.001 A 
ENDROOT
TORSDOF 0
ENDMDL
