MODEL 1
REMARK minimizedAffinity 5.58487129
REMARK minimizedRMSD -1
REMARK  0 active torsions:
REMARK  status: ('A' for Active; 'I' for Inactive)
ROOT
ATOM      1  C   UNL d   1      -0.011   4.520  -0.086  0.00  0.00     0.077 C 
ATOM      2  C1  UNL d   1       0.141   3.719   1.173  0.00  0.00    -0.074 A 
ATOM      3  C2  UNL d   1      -0.696   2.631   1.438  0.00  0.00    -0.005 A 
ATOM      4  C3  UNL d   1      -0.537   1.889   2.608  0.00  0.00     0.006 A 
ATOM      5  C4  UNL d   1       0.460   2.228   3.524  0.00  0.00    -0.005 A 
ATOM      6  C5  UNL d   1       1.308   3.312   3.276  0.00  0.00    -0.074 A 
ATOM      7  C6  UNL d   1       2.391   3.684   4.245  0.00  0.00     0.077 C 
ATOM      8  C7  UNL d   1       1.145   4.048   2.094  0.00  0.00    -0.001 A 
ENDROOT
TORSDOF 0
ENDMDL
