MODEL 1
REMARK minimizedAffinity 5.75534821
REMARK minimizedRMSD -1
REMARK  0 active torsions:
REMARK  status: ('A' for Active; 'I' for Inactive)
ROOT
ATOM      1  C   UNL d   1      -0.809   5.521  -0.508  0.00  0.00     0.077 C 
ATOM      2  C1  UNL d   1      -0.707   4.040  -0.298  0.00  0.00    -0.074 A 
ATOM      3  C2  UNL d   1      -0.776   3.154  -1.379  0.00  0.00    -0.005 A 
ATOM      4  C3  UNL d   1      -0.669   1.780  -1.169  0.00  0.00     0.006 A 
ATOM      5  C4  UNL d   1      -0.493   1.277   0.120  0.00  0.00    -0.005 A 
ATOM      6  C5  UNL d   1      -0.421   2.147   1.213  0.00  0.00    -0.074 A 
ATOM      7  C6  UNL d   1      -0.223   1.623   2.604  0.00  0.00     0.077 C 
ATOM      8  C7  UNL d   1      -0.522   3.527   0.994  0.00  0.00    -0.001 A 
ENDROOT
TORSDOF 0
ENDMDL
