MODEL 1
REMARK minimizedAffinity 5.24087095
REMARK minimizedRMSD -1
REMARK  0 active torsions:
REMARK  status: ('A' for Active; 'I' for Inactive)
ROOT
ATOM      1  C   UNL d   1       5.301  -3.494  -4.231  0.00  0.00     0.077 C 
ATOM      2  C1  UNL d   1       5.011  -3.021  -2.837  0.00  0.00    -0.074 A 
ATOM      3  C2  UNL d   1       5.597  -1.854  -2.337  0.00  0.00    -0.005 A 
ATOM      4  C3  UNL d   1       5.310  -1.422  -1.042  0.00  0.00     0.006 A 
ATOM      5  C4  UNL d   1       4.435  -2.152  -0.236  0.00  0.00    -0.005 A 
ATOM      6  C5  UNL d   1       3.839  -3.320  -0.719  0.00  0.00    -0.074 A 
ATOM      7  C6  UNL d   1       2.888  -4.110   0.130  0.00  0.00     0.077 C 
ATOM      8  C7  UNL d   1       4.127  -3.744  -2.024  0.00  0.00    -0.001 A 
ENDROOT
TORSDOF 0
ENDMDL
