MODEL 1
REMARK minimizedAffinity -3.20012021
REMARK minimizedRMSD -1
REMARK  1 active torsions:
REMARK  status: ('A' for Active; 'I' for Inactive)
REMARK    1  A    between atoms: C1_2  and  C2_3 
ROOT
ATOM      1  C2  UNL d   1       0.529  -0.132   0.068  0.00  0.00    -0.076 A 
ATOM      2  C3  UNL d   1       0.104  -0.961   1.121  0.00  0.00     0.004 A 
ATOM      3  C4  UNL d   1      -0.750  -0.481   2.113  0.00  0.00    -0.003 A 
ATOM      4  C5  UNL d   1      -1.194   0.836   2.067  0.00  0.00     0.000 A 
ATOM      5  C6  UNL d   1      -0.797   1.667   1.020  0.00  0.00     0.000 A 
ATOM      6  C7  UNL d   1       0.051   1.195   0.004  0.00  0.00    -0.073 A 
ATOM      7  C8  UNL d   1       0.452   2.136  -1.098  0.00  0.00     0.078 C 
ENDROOT
BRANCH   1   8
ATOM      8  C1  UNL d   1       1.477  -0.700  -0.963  0.00  0.00     0.053 C 
ATOM      9  C   UNL d   1       1.019  -2.049  -1.496  0.00  0.00     0.018 C 
ENDBRANCH   1   8
TORSDOF 1
ENDMDL
