MODEL 1
REMARK minimizedAffinity -1.27530754
REMARK minimizedRMSD -1
REMARK  1 active torsions:
REMARK  status: ('A' for Active; 'I' for Inactive)
REMARK    1  A    between atoms: C1_2  and  C2_3 
ROOT
ATOM      1  C2  UNL d   1       0.228  -0.359   0.117  0.00  0.00    -0.076 A 
ATOM      2  C3  UNL d   1      -0.336  -0.927   1.272  0.00  0.00     0.004 A 
ATOM      3  C4  UNL d   1      -1.087  -0.156   2.158  0.00  0.00    -0.003 A 
ATOM      4  C5  UNL d   1      -1.286   1.196   1.903  0.00  0.00     0.000 A 
ATOM      5  C6  UNL d   1      -0.748   1.773   0.753  0.00  0.00     0.000 A 
ATOM      6  C7  UNL d   1      -0.002   1.006  -0.159  0.00  0.00    -0.073 A 
ATOM      7  C8  UNL d   1       0.560   1.681  -1.379  0.00  0.00     0.078 C 
ENDROOT
BRANCH   1   8
ATOM      8  C1  UNL d   1       1.056  -1.238  -0.792  0.00  0.00     0.053 C 
ATOM      9  C   UNL d   1       0.205  -2.211  -1.594  0.00  0.00     0.018 C 
ENDBRANCH   1   8
TORSDOF 1
ENDMDL
