MODEL 1
REMARK minimizedAffinity -3.47775221
REMARK minimizedRMSD -1
REMARK  1 active torsions:
REMARK  status: ('A' for Active; 'I' for Inactive)
REMARK    1  A    between atoms: C1_2  and  C2_3 
ROOT
ATOM      1  C2  UNL d   1      -0.145  -0.011  -0.094  0.00  0.00    -0.076 A 
ATOM      2  C3  UNL d   1      -0.788  -0.741   0.920  0.00  0.00     0.004 A 
ATOM      3  C4  UNL d   1      -1.433  -0.094   1.973  0.00  0.00    -0.003 A 
ATOM      4  C5  UNL d   1      -1.445   1.296   2.028  0.00  0.00     0.000 A 
ATOM      5  C6  UNL d   1      -0.827   2.037   1.021  0.00  0.00     0.000 A 
ATOM      6  C7  UNL d   1      -0.187   1.399  -0.056  0.00  0.00    -0.073 A 
ATOM      7  C8  UNL d   1       0.468   2.248  -1.111  0.00  0.00     0.078 C 
ENDROOT
BRANCH   1   8
ATOM      8  C1  UNL d   1       0.561  -0.768  -1.196  0.00  0.00     0.053 C 
ATOM      9  C   UNL d   1      -0.310  -1.857  -1.805  0.00  0.00     0.018 C 
ENDBRANCH   1   8
TORSDOF 1
ENDMDL
