MODEL 1
REMARK minimizedAffinity -1.04712307
REMARK minimizedRMSD -1
REMARK  1 active torsions:
REMARK  status: ('A' for Active; 'I' for Inactive)
REMARK    1  A    between atoms: C1_2  and  C2_3 
ROOT
ATOM      1  C2  UNL d   1      -0.496   0.706   0.878  0.00  0.00    -0.076 A 
ATOM      2  C3  UNL d   1      -0.291   1.444  -0.301  0.00  0.00     0.004 A 
ATOM      3  C4  UNL d   1       0.469   0.926  -1.349  0.00  0.00    -0.003 A 
ATOM      4  C5  UNL d   1       1.036  -0.338  -1.235  0.00  0.00     0.000 A 
ATOM      5  C6  UNL d   1       0.828  -1.091  -0.080  0.00  0.00     0.000 A 
ATOM      6  C7  UNL d   1       0.052  -0.591   0.979  0.00  0.00    -0.073 A 
ATOM      7  C8  UNL d   1      -0.135  -1.443   2.204  0.00  0.00     0.078 C 
ENDROOT
BRANCH   1   8
ATOM      8  C1  UNL d   1      -1.306   1.331   1.991  0.00  0.00     0.053 C 
ATOM      9  C   UNL d   1      -1.065   2.827   2.119  0.00  0.00     0.018 C 
ENDBRANCH   1   8
TORSDOF 1
ENDMDL
