MODEL 1
REMARK minimizedAffinity -3.14178824
REMARK minimizedRMSD -1
REMARK  1 active torsions:
REMARK  status: ('A' for Active; 'I' for Inactive)
REMARK    1  A    between atoms: C1_2  and  C2_3 
ROOT
ATOM      1  C2  UNL d   1      -0.381  -1.356  -0.819  0.00  0.00    -0.076 A 
ATOM      2  C3  UNL d   1      -1.353  -2.301  -1.189  0.00  0.00     0.004 A 
ATOM      3  C4  UNL d   1      -1.036  -3.364  -2.034  0.00  0.00    -0.003 A 
ATOM      4  C5  UNL d   1       0.259  -3.499  -2.521  0.00  0.00     0.000 A 
ATOM      5  C6  UNL d   1       1.241  -2.581  -2.150  0.00  0.00     0.000 A 
ATOM      6  C7  UNL d   1       0.942  -1.513  -1.286  0.00  0.00    -0.073 A 
ATOM      7  C8  UNL d   1       2.038  -0.549  -0.924  0.00  0.00     0.078 C 
ENDROOT
BRANCH   1   8
ATOM      8  C1  UNL d   1      -0.789  -0.210   0.078  0.00  0.00     0.053 C 
ATOM      9  C   UNL d   1      -0.830  -0.605   1.547  0.00  0.00     0.018 C 
ENDBRANCH   1   8
TORSDOF 1
ENDMDL
