MODEL 1
REMARK minimizedAffinity -3.72585154
REMARK minimizedRMSD -1
REMARK  1 active torsions:
REMARK  status: ('A' for Active; 'I' for Inactive)
REMARK    1  A    between atoms: C1_2  and  C2_3 
ROOT
ATOM      1  C2  UNL d   1      -0.036  -0.199  -0.208  0.00  0.00    -0.076 A 
ATOM      2  C3  UNL d   1      -0.536   0.739  -1.129  0.00  0.00     0.004 A 
ATOM      3  C4  UNL d   1      -1.500   1.672  -0.750  0.00  0.00    -0.003 A 
ATOM      4  C5  UNL d   1      -1.979   1.683   0.555  0.00  0.00     0.000 A 
ATOM      5  C6  UNL d   1      -1.481   0.772   1.486  0.00  0.00     0.000 A 
ATOM      6  C7  UNL d   1      -0.497  -0.165   1.125  0.00  0.00    -0.073 A 
ATOM      7  C8  UNL d   1       0.000  -1.128   2.168  0.00  0.00     0.078 C 
ENDROOT
BRANCH   1   8
ATOM      8  C1  UNL d   1       0.989  -1.204  -0.683  0.00  0.00     0.053 C 
ATOM      9  C   UNL d   1       0.375  -2.303  -1.537  0.00  0.00     0.018 C 
ENDBRANCH   1   8
TORSDOF 1
ENDMDL
