MODEL 1
REMARK minimizedAffinity -4.39643335
REMARK minimizedRMSD -1
REMARK  1 active torsions:
REMARK  status: ('A' for Active; 'I' for Inactive)
REMARK    1  A    between atoms: C1_2  and  C2_3 
ROOT
ATOM      1  C2  UNL d   1       0.520  -0.892  -0.666  0.00  0.00    -0.076 A 
ATOM      2  C3  UNL d   1       0.460   0.509  -0.765  0.00  0.00     0.004 A 
ATOM      3  C4  UNL d   1       0.462   1.142  -2.007  0.00  0.00    -0.003 A 
ATOM      4  C5  UNL d   1       0.525   0.383  -3.171  0.00  0.00     0.000 A 
ATOM      5  C6  UNL d   1       0.567  -1.008  -3.092  0.00  0.00     0.000 A 
ATOM      6  C7  UNL d   1       0.549  -1.662  -1.848  0.00  0.00    -0.073 A 
ATOM      7  C8  UNL d   1       0.603  -3.165  -1.822  0.00  0.00     0.078 C 
ENDROOT
BRANCH   1   8
ATOM      8  C1  UNL d   1       0.542  -1.521   0.709  0.00  0.00     0.053 C 
ATOM      9  C   UNL d   1      -0.362  -0.797   1.695  0.00  0.00     0.018 C 
ENDBRANCH   1   8
TORSDOF 1
ENDMDL
