MODEL 1
REMARK minimizedAffinity -4.86414719
REMARK minimizedRMSD -1
REMARK  1 active torsions:
REMARK  status: ('A' for Active; 'I' for Inactive)
REMARK    1  A    between atoms: C1_2  and  C2_3 
ROOT
ATOM      1  C2  UNL d   1       0.692   0.718  -0.122  0.00  0.00    -0.076 A 
ATOM      2  C3  UNL d   1       0.847   1.915  -0.843  0.00  0.00     0.004 A 
ATOM      3  C4  UNL d   1       0.288   3.107  -0.382  0.00  0.00    -0.003 A 
ATOM      4  C5  UNL d   1      -0.433   3.120   0.806  0.00  0.00     0.000 A 
ATOM      5  C6  UNL d   1      -0.581   1.946   1.543  0.00  0.00     0.000 A 
ATOM      6  C7  UNL d   1      -0.011   0.739   1.101  0.00  0.00    -0.073 A 
ATOM      7  C8  UNL d   1      -0.207  -0.499   1.932  0.00  0.00     0.078 C 
ENDROOT
BRANCH   1   8
ATOM      8  C1  UNL d   1       1.297  -0.548  -0.685  0.00  0.00     0.053 C 
ATOM      9  C   UNL d   1       0.255  -1.466  -1.305  0.00  0.00     0.018 C 
ENDBRANCH   1   8
TORSDOF 1
ENDMDL
