MODEL 1
REMARK minimizedAffinity -1.98796189
REMARK minimizedRMSD -1
REMARK  1 active torsions:
REMARK  status: ('A' for Active; 'I' for Inactive)
REMARK    1  A    between atoms: C1_2  and  C2_3 
ROOT
ATOM      1  C2  UNL d   1       0.003  -0.731  -1.069  0.00  0.00    -0.076 A 
ATOM      2  C3  UNL d   1      -0.385  -1.182  -2.342  0.00  0.00     0.004 A 
ATOM      3  C4  UNL d   1       0.018  -2.430  -2.816  0.00  0.00    -0.003 A 
ATOM      4  C5  UNL d   1       0.816  -3.247  -2.023  0.00  0.00     0.000 A 
ATOM      5  C6  UNL d   1       1.196  -2.824  -0.749  0.00  0.00     0.000 A 
ATOM      6  C7  UNL d   1       0.785  -1.576  -0.251  0.00  0.00    -0.073 A 
ATOM      7  C8  UNL d   1       1.229  -1.167   1.127  0.00  0.00     0.078 C 
ENDROOT
BRANCH   1   8
ATOM      8  C1  UNL d   1      -0.442   0.642  -0.620  0.00  0.00     0.053 C 
ATOM      9  C   UNL d   1       0.536   1.734  -1.028  0.00  0.00     0.018 C 
ENDBRANCH   1   8
TORSDOF 1
ENDMDL
