MODEL 1
REMARK minimizedAffinity -3.0359726
REMARK minimizedRMSD -1
REMARK  1 active torsions:
REMARK  status: ('A' for Active; 'I' for Inactive)
REMARK    1  A    between atoms: C1_2  and  C2_3 
ROOT
ATOM      1  C2  UNL d   1      -0.515  -0.368   0.436  0.00  0.00    -0.076 A 
ATOM      2  C3  UNL d   1       0.885  -0.382   0.314  0.00  0.00     0.004 A 
ATOM      3  C4  UNL d   1       1.515  -1.192  -0.629  0.00  0.00    -0.003 A 
ATOM      4  C5  UNL d   1       0.755  -2.001  -1.466  0.00  0.00     0.000 A 
ATOM      5  C6  UNL d   1      -0.636  -1.986  -1.372  0.00  0.00     0.000 A 
ATOM      6  C7  UNL d   1      -1.288  -1.163  -0.437  0.00  0.00    -0.073 A 
ATOM      7  C8  UNL d   1      -2.791  -1.191  -0.375  0.00  0.00     0.078 C 
ENDROOT
BRANCH   1   8
ATOM      8  C1  UNL d   1      -1.142   0.511   1.495  0.00  0.00     0.053 C 
ATOM      9  C   UNL d   1      -0.800   1.981   1.309  0.00  0.00     0.018 C 
ENDBRANCH   1   8
TORSDOF 1
ENDMDL
