MODEL 1
REMARK minimizedAffinity -4.9234724
REMARK minimizedRMSD -1
REMARK  1 active torsions:
REMARK  status: ('A' for Active; 'I' for Inactive)
REMARK    1  A    between atoms: C1_2  and  C2_3 
ROOT
ATOM      1  C2  UNL d   1      -0.711   1.318   0.913  0.00  0.00    -0.076 A 
ATOM      2  C3  UNL d   1      -1.130   2.606   1.289  0.00  0.00     0.004 A 
ATOM      3  C4  UNL d   1      -0.792   3.722   0.524  0.00  0.00    -0.003 A 
ATOM      4  C5  UNL d   1      -0.031   3.567  -0.629  0.00  0.00     0.000 A 
ATOM      5  C6  UNL d   1       0.378   2.295  -1.027  0.00  0.00     0.000 A 
ATOM      6  C7  UNL d   1       0.032   1.158  -0.276  0.00  0.00    -0.073 A 
ATOM      7  C8  UNL d   1       0.505  -0.190  -0.748  0.00  0.00     0.078 C 
ENDROOT
BRANCH   1   8
ATOM      8  C1  UNL d   1      -1.084   0.149   1.796  0.00  0.00     0.053 C 
ATOM      9  C   UNL d   1       0.109  -0.415   2.551  0.00  0.00     0.018 C 
ENDBRANCH   1   8
TORSDOF 1
ENDMDL
