MODEL 1
REMARK minimizedAffinity -3.37622023
REMARK minimizedRMSD -1
REMARK  1 active torsions:
REMARK  status: ('A' for Active; 'I' for Inactive)
REMARK    1  A    between atoms: C1_2  and  C2_3 
ROOT
ATOM      1  C2  UNL d   1       0.273   0.083  -0.139  0.00  0.00    -0.076 A 
ATOM      2  C3  UNL d   1      -0.274  -0.775   0.830  0.00  0.00     0.004 A 
ATOM      3  C4  UNL d   1      -1.015  -0.271   1.898  0.00  0.00    -0.003 A 
ATOM      4  C5  UNL d   1      -1.220   1.099   2.014  0.00  0.00     0.000 A 
ATOM      5  C6  UNL d   1      -0.699   1.964   1.051  0.00  0.00     0.000 A 
ATOM      6  C7  UNL d   1       0.036   1.471  -0.040  0.00  0.00    -0.073 A 
ATOM      7  C8  UNL d   1       0.580   2.449  -1.045  0.00  0.00     0.078 C 
ENDROOT
BRANCH   1   8
ATOM      8  C1  UNL d   1       1.090  -0.518  -1.260  0.00  0.00     0.053 C 
ATOM      9  C   UNL d   1       0.706  -1.961  -1.552  0.00  0.00     0.018 C 
ENDBRANCH   1   8
TORSDOF 1
ENDMDL
