MODEL 1
REMARK minimizedAffinity -0.471425623
REMARK minimizedRMSD -1
REMARK  0 active torsions:
REMARK  status: ('A' for Active; 'I' for Inactive)
ROOT
ATOM      1  C1  DEN d   1       5.681  -5.998  -2.374  0.00  0.00     0.130 A 
ATOM      2  C2  DEN d   1       4.733  -5.960  -1.264  0.00  0.00    -0.031 A 
ATOM      3  C3  DEN d   1       3.369  -5.944  -1.829  0.00  0.00     0.027 A 
ATOM      4  C4  DEN d   1       2.636  -5.979  -4.301  0.00  0.00     0.027 A 
ATOM      5  C5  DEN d   1       3.082  -6.000  -5.604  0.00  0.00    -0.003 A 
ATOM      6  C6  DEN d   1       4.415  -5.987  -5.920  0.00  0.00     0.001 A 
ATOM      7  C7  DEN d   1       5.350  -5.998  -4.919  0.00  0.00     0.017 A 
ATOM      8  C8  DEN d   1       4.908  -5.970  -3.602  0.00  0.00    -0.094 A 
ATOM      9  C9  DEN d   1       3.556  -5.995  -3.304  0.00  0.00    -0.072 A 
ENDROOT
TORSDOF 0
ENDMDL
