MODEL 1
REMARK minimizedAffinity 3.28222203
REMARK minimizedRMSD -1
REMARK  0 active torsions:
REMARK  status: ('A' for Active; 'I' for Inactive)
ROOT
ATOM      1  C1  DEN d   1       1.155  -5.996  -4.407  0.00  0.00     0.130 A 
ATOM      2  C2  DEN d   1       1.575  -5.955  -5.805  0.00  0.00    -0.031 A 
ATOM      3  C3  DEN d   1       3.051  -5.938  -5.839  0.00  0.00     0.027 A 
ATOM      4  C4  DEN d   1       4.719  -5.975  -3.872  0.00  0.00     0.027 A 
ATOM      5  C5  DEN d   1       4.836  -5.998  -2.499  0.00  0.00    -0.003 A 
ATOM      6  C6  DEN d   1       3.744  -5.988  -1.673  0.00  0.00     0.001 A 
ATOM      7  C7  DEN d   1       2.485  -5.999  -2.213  0.00  0.00     0.017 A 
ATOM      8  C8  DEN d   1       2.358  -5.968  -3.595  0.00  0.00    -0.094 A 
ATOM      9  C9  DEN d   1       3.475  -5.992  -4.414  0.00  0.00    -0.072 A 
ENDROOT
TORSDOF 0
ENDMDL
