MODEL 1
REMARK minimizedAffinity 6.29947329
REMARK minimizedRMSD -1
REMARK  0 active torsions:
REMARK  status: ('A' for Active; 'I' for Inactive)
ROOT
ATOM      1  C1  DEN d   1       2.289  -5.988  -2.493  0.00  0.00     0.130 A 
ATOM      2  C2  DEN d   1       3.596  -5.820  -3.121  0.00  0.00    -0.031 A 
ATOM      3  C3  DEN d   1       4.600  -5.656  -2.051  0.00  0.00     0.027 A 
ATOM      4  C4  DEN d   1       4.259  -5.650   0.506  0.00  0.00     0.027 A 
ATOM      5  C5  DEN d   1       3.325  -5.746   1.514  0.00  0.00    -0.003 A 
ATOM      6  C6  DEN d   1       1.988  -5.894   1.259  0.00  0.00     0.001 A 
ATOM      7  C7  DEN d   1       1.551  -5.996  -0.035  0.00  0.00     0.017 A 
ATOM      8  C8  DEN d   1       2.485  -5.892  -1.057  0.00  0.00    -0.094 A 
ATOM      9  C9  DEN d   1       3.835  -5.755  -0.779  0.00  0.00    -0.072 A 
ENDROOT
TORSDOF 0
ENDMDL
