MODEL 1
REMARK minimizedAffinity 8.83638
REMARK minimizedRMSD -1
REMARK  0 active torsions:
REMARK  status: ('A' for Active; 'I' for Inactive)
ROOT
ATOM      1  C1  DEN d   1       1.795  -6.000  -2.140  0.00  0.00     0.130 A 
ATOM      2  C2  DEN d   1       3.033  -5.989  -1.364  0.00  0.00    -0.031 A 
ATOM      3  C3  DEN d   1       4.165  -5.946  -2.312  0.00  0.00     0.027 A 
ATOM      4  C4  DEN d   1       4.122  -5.892  -4.890  0.00  0.00     0.027 A 
ATOM      5  C5  DEN d   1       3.306  -5.899  -5.999  0.00  0.00    -0.003 A 
ATOM      6  C6  DEN d   1       1.942  -5.974  -5.902  0.00  0.00     0.001 A 
ATOM      7  C7  DEN d   1       1.350  -5.999  -4.667  0.00  0.00     0.017 A 
ATOM      8  C8  DEN d   1       2.167  -6.000  -3.544  0.00  0.00    -0.094 A 
ATOM      9  C9  DEN d   1       3.543  -5.912  -3.663  0.00  0.00    -0.072 A 
ENDROOT
TORSDOF 0
ENDMDL
