MODEL 1
REMARK minimizedAffinity 11.4346857
REMARK minimizedRMSD -1
REMARK  0 active torsions:
REMARK  status: ('A' for Active; 'I' for Inactive)
ROOT
ATOM      1  C1  DEN d   1       0.966  -1.868   2.132  0.00  0.00     0.130 A 
ATOM      2  C2  DEN d   1       1.888  -0.737   2.073  0.00  0.00    -0.031 A 
ATOM      3  C3  DEN d   1       3.057  -1.056   2.918  0.00  0.00     0.027 A 
ATOM      4  C4  DEN d   1       3.529  -3.182   4.299  0.00  0.00     0.027 A 
ATOM      5  C5  DEN d   1       3.033  -4.413   4.670  0.00  0.00    -0.003 A 
ATOM      6  C6  DEN d   1       1.809  -4.863   4.252  0.00  0.00     0.001 A 
ATOM      7  C7  DEN d   1       1.058  -4.096   3.401  0.00  0.00     0.017 A 
ATOM      8  C8  DEN d   1       1.547  -2.851   3.028  0.00  0.00    -0.094 A 
ATOM      9  C9  DEN d   1       2.793  -2.419   3.452  0.00  0.00    -0.072 A 
ENDROOT
TORSDOF 0
ENDMDL
