MODEL 1
REMARK minimizedAffinity 1.0282433
REMARK minimizedRMSD -1
REMARK  0 active torsions:
REMARK  status: ('A' for Active; 'I' for Inactive)
ROOT
ATOM      1  C1  DEN d   1       1.173  -5.998  -4.169  0.00  0.00     0.130 A 
ATOM      2  C2  DEN d   1       2.008  -5.959  -5.367  0.00  0.00    -0.031 A 
ATOM      3  C3  DEN d   1       3.421  -5.941  -4.938  0.00  0.00     0.027 A 
ATOM      4  C4  DEN d   1       4.392  -5.975  -2.549  0.00  0.00     0.027 A 
ATOM      5  C5  DEN d   1       4.076  -5.997  -1.209  0.00  0.00    -0.003 A 
ATOM      6  C6  DEN d   1       2.780  -5.986  -0.764  0.00  0.00     0.001 A 
ATOM      7  C7  DEN d   1       1.752  -5.999  -1.669  0.00  0.00     0.017 A 
ATOM      8  C8  DEN d   1       2.063  -5.969  -3.022  0.00  0.00    -0.094 A 
ATOM      9  C9  DEN d   1       3.379  -5.993  -3.452  0.00  0.00    -0.072 A 
ENDROOT
TORSDOF 0
ENDMDL
