MODEL 1
REMARK minimizedAffinity -6.39588833
REMARK minimizedRMSD -1
REMARK  0 active torsions:
REMARK  status: ('A' for Active; 'I' for Inactive)
ROOT
ATOM      1  C2' OXE d   1      -0.357   0.267   0.695  0.00  0.00     0.078 C 
ATOM      2  C1' OXE d   1      -0.144  -2.513   0.365  0.00  0.00     0.078 C 
ATOM      3  C1  OXE d   1       0.764  -1.635  -0.459  0.00  0.00    -0.078 A 
ATOM      4  C2  OXE d   1       0.620  -0.275  -0.325  0.00  0.00    -0.078 A 
ATOM      5  C3  OXE d   1       1.470   0.580  -1.022  0.00  0.00     0.003 A 
ATOM      6  C4  OXE d   1       2.365   0.071  -1.971  0.00  0.00    -0.002 A 
ATOM      7  C5  OXE d   1       2.499  -1.309  -2.152  0.00  0.00    -0.002 A 
ATOM      8  C6  OXE d   1       1.738  -2.176  -1.375  0.00  0.00     0.003 A 
ENDROOT
TORSDOF 0
ENDMDL
