MODEL 1
REMARK minimizedAffinity -3.38693285
REMARK minimizedRMSD -1
REMARK  0 active torsions:
REMARK  status: ('A' for Active; 'I' for Inactive)
ROOT
ATOM      1  C2' OXE d   1       1.966  -2.459  -1.422  0.00  0.00     0.078 C 
ATOM      2  C1' OXE d   1       2.303   0.317  -1.659  0.00  0.00     0.078 C 
ATOM      3  C1  OXE d   1       1.180  -0.183  -0.785  0.00  0.00    -0.078 A 
ATOM      4  C2  OXE d   1       0.993  -1.542  -0.712  0.00  0.00    -0.078 A 
ATOM      5  C3  OXE d   1       0.006  -2.059   0.123  0.00  0.00     0.003 A 
ATOM      6  C4  OXE d   1      -0.895  -1.203   0.768  0.00  0.00    -0.002 A 
ATOM      7  C5  OXE d   1      -0.748   0.185   0.675  0.00  0.00    -0.002 A 
ATOM      8  C6  OXE d   1       0.308   0.710  -0.061  0.00  0.00     0.003 A 
ENDROOT
TORSDOF 0
ENDMDL
