MODEL 1
REMARK minimizedAffinity -5.89756632
REMARK minimizedRMSD -1
REMARK  0 active torsions:
REMARK  status: ('A' for Active; 'I' for Inactive)
ROOT
ATOM      1  C2' OXE d   1       0.391   1.359  -0.607  0.00  0.00     0.078 C 
ATOM      2  C1' OXE d   1      -0.856  -0.798   0.686  0.00  0.00     0.078 C 
ATOM      3  C1  OXE d   1       0.275  -1.105  -0.264  0.00  0.00    -0.078 A 
ATOM      4  C2  OXE d   1       0.848  -0.047  -0.927  0.00  0.00    -0.078 A 
ATOM      5  C3  OXE d   1       1.931  -0.270  -1.773  0.00  0.00     0.003 A 
ATOM      6  C4  OXE d   1       2.341  -1.575  -2.071  0.00  0.00    -0.002 A 
ATOM      7  C5  OXE d   1       1.744  -2.669  -1.437  0.00  0.00    -0.002 A 
ATOM      8  C6  OXE d   1       0.740  -2.449  -0.500  0.00  0.00     0.003 A 
ENDROOT
TORSDOF 0
ENDMDL
