MODEL 1
REMARK minimizedAffinity 0.145913795
REMARK minimizedRMSD -1
REMARK  0 active torsions:
REMARK  status: ('A' for Active; 'I' for Inactive)
ROOT
ATOM      1  C2' OXE d   1      -1.084   0.644   1.080  0.00  0.00     0.078 C 
ATOM      2  C1' OXE d   1       0.341  -1.619   0.227  0.00  0.00     0.078 C 
ATOM      3  C1  OXE d   1       0.839  -0.266  -0.216  0.00  0.00    -0.078 A 
ATOM      4  C2  OXE d   1       0.109   0.833   0.168  0.00  0.00    -0.078 A 
ATOM      5  C3  OXE d   1       0.555   2.108  -0.168  0.00  0.00     0.003 A 
ATOM      6  C4  OXE d   1       1.653   2.274  -1.021  0.00  0.00    -0.002 A 
ATOM      7  C5  OXE d   1       2.388   1.165  -1.455  0.00  0.00    -0.002 A 
ATOM      8  C6  OXE d   1       2.020  -0.106  -1.028  0.00  0.00     0.003 A 
ENDROOT
TORSDOF 0
ENDMDL
