MODEL 1
REMARK minimizedAffinity -0.560557187
REMARK minimizedRMSD -1
REMARK  0 active torsions:
REMARK  status: ('A' for Active; 'I' for Inactive)
ROOT
ATOM      1  C2' OXE d   1      -0.959   1.225  -5.019  0.00  0.00     0.078 C 
ATOM      2  C1' OXE d   1      -3.665   0.590  -5.416  0.00  0.00     0.078 C 
ATOM      3  C1  OXE d   1      -3.267   2.044  -5.474  0.00  0.00    -0.078 A 
ATOM      4  C2  OXE d   1      -1.949   2.349  -5.232  0.00  0.00    -0.078 A 
ATOM      5  C3  OXE d   1      -1.519   3.669  -5.327  0.00  0.00     0.003 A 
ATOM      6  C4  OXE d   1      -2.443   4.705  -5.514  0.00  0.00    -0.002 A 
ATOM      7  C5  OXE d   1      -3.796   4.419  -5.723  0.00  0.00    -0.002 A 
ATOM      8  C6  OXE d   1      -4.217   3.094  -5.748  0.00  0.00     0.003 A 
ENDROOT
TORSDOF 0
ENDMDL
