MODEL 1
REMARK minimizedAffinity 5.33709764
REMARK minimizedRMSD -1
REMARK  0 active torsions:
REMARK  status: ('A' for Active; 'I' for Inactive)
ROOT
ATOM      1  C2' OXE d   1       1.279   4.220  -2.253  0.00  0.00     0.078 C 
ATOM      2  C1' OXE d   1       1.116   3.319   0.400  0.00  0.00     0.078 C 
ATOM      3  C1  OXE d   1       1.411   2.300  -0.672  0.00  0.00    -0.078 A 
ATOM      4  C2  OXE d   1       1.443   2.742  -1.973  0.00  0.00    -0.078 A 
ATOM      5  C3  OXE d   1       1.765   1.854  -2.995  0.00  0.00     0.003 A 
ATOM      6  C4  OXE d   1       1.905   0.487  -2.728  0.00  0.00    -0.002 A 
ATOM      7  C5  OXE d   1       1.837   0.009  -1.415  0.00  0.00    -0.002 A 
ATOM      8  C6  OXE d   1       1.634   0.907  -0.373  0.00  0.00     0.003 A 
ENDROOT
TORSDOF 0
ENDMDL
