MODEL 1
REMARK minimizedAffinity 1.53103423
REMARK minimizedRMSD -1
REMARK  0 active torsions:
REMARK  status: ('A' for Active; 'I' for Inactive)
ROOT
ATOM      1  C2' OXE d   1       2.452   1.409   0.429  0.00  0.00     0.078 C 
ATOM      2  C1' OXE d   1       1.377   3.315  -1.329  0.00  0.00     0.078 C 
ATOM      3  C1  OXE d   1       1.441   1.882  -1.798  0.00  0.00    -0.078 A 
ATOM      4  C2  OXE d   1       2.012   0.964  -0.949  0.00  0.00    -0.078 A 
ATOM      5  C3  OXE d   1       2.046  -0.380  -1.310  0.00  0.00     0.003 A 
ATOM      6  C4  OXE d   1       1.646  -0.780  -2.590  0.00  0.00    -0.002 A 
ATOM      7  C5  OXE d   1       1.098   0.145  -3.485  0.00  0.00    -0.002 A 
ATOM      8  C6  OXE d   1       0.950   1.470  -3.089  0.00  0.00     0.003 A 
ENDROOT
TORSDOF 0
ENDMDL
