MODEL 1
REMARK minimizedAffinity 6.90784597
REMARK minimizedRMSD -1
REMARK  0 active torsions:
REMARK  status: ('A' for Active; 'I' for Inactive)
ROOT
ATOM      1  C2' OXE d   1       1.170   3.988  -1.528  0.00  0.00     0.078 C 
ATOM      2  C1' OXE d   1      -0.337   2.370  -3.257  0.00  0.00     0.078 C 
ATOM      3  C1  OXE d   1       0.765   1.715  -2.463  0.00  0.00    -0.078 A 
ATOM      4  C2  OXE d   1       1.527   2.522  -1.654  0.00  0.00    -0.078 A 
ATOM      5  C3  OXE d   1       2.521   1.960  -0.858  0.00  0.00     0.003 A 
ATOM      6  C4  OXE d   1       2.852   0.606  -0.989  0.00  0.00    -0.002 A 
ATOM      7  C5  OXE d   1       2.114  -0.227  -1.836  0.00  0.00    -0.002 A 
ATOM      8  C6  OXE d   1       1.042   0.302  -2.547  0.00  0.00     0.003 A 
ENDROOT
TORSDOF 0
ENDMDL
