MODEL 1
REMARK minimizedAffinity 2.65641141
REMARK minimizedRMSD -1
REMARK  0 active torsions:
REMARK  status: ('A' for Active; 'I' for Inactive)
ROOT
ATOM      1  C2' OXE d   1       2.498  -0.294  -2.672  0.00  0.00     0.078 C 
ATOM      2  C1' OXE d   1       0.972  -0.529  -0.328  0.00  0.00     0.078 C 
ATOM      3  C1  OXE d   1       1.270   0.859  -0.837  0.00  0.00    -0.078 A 
ATOM      4  C2  OXE d   1       2.057   0.966  -1.958  0.00  0.00    -0.078 A 
ATOM      5  C3  OXE d   1       2.317   2.221  -2.501  0.00  0.00     0.003 A 
ATOM      6  C4  OXE d   1       1.914   3.381  -1.829  0.00  0.00    -0.002 A 
ATOM      7  C5  OXE d   1       1.145   3.295  -0.663  0.00  0.00    -0.002 A 
ATOM      8  C6  OXE d   1       0.780   2.044  -0.178  0.00  0.00     0.003 A 
ENDROOT
TORSDOF 0
ENDMDL
