MODEL 1
REMARK minimizedAffinity 5.09756231
REMARK minimizedRMSD -1
REMARK  0 active torsions:
REMARK  status: ('A' for Active; 'I' for Inactive)
ROOT
ATOM      1  C2' OXE d   1       2.862  -0.479  -2.034  0.00  0.00     0.078 C 
ATOM      2  C1' OXE d   1       1.322  -0.168   0.292  0.00  0.00     0.078 C 
ATOM      3  C1  OXE d   1       1.376   0.988  -0.676  0.00  0.00    -0.078 A 
ATOM      4  C2  OXE d   1       2.169   0.844  -1.789  0.00  0.00    -0.078 A 
ATOM      5  C3  OXE d   1       2.212   1.859  -2.741  0.00  0.00     0.003 A 
ATOM      6  C4  OXE d   1       1.576   3.083  -2.501  0.00  0.00    -0.002 A 
ATOM      7  C5  OXE d   1       0.794   3.265  -1.355  0.00  0.00    -0.002 A 
ATOM      8  C6  OXE d   1       0.650   2.214  -0.455  0.00  0.00     0.003 A 
ENDROOT
TORSDOF 0
ENDMDL
