MODEL 1
REMARK minimizedAffinity -4.91695023
REMARK minimizedRMSD -1
REMARK  0 active torsions:
REMARK  status: ('A' for Active; 'I' for Inactive)
ROOT
ATOM      1  C2' OXE d   1       0.327   0.552   0.029  0.00  0.00     0.078 C 
ATOM      2  C1' OXE d   1      -0.458  -2.047   0.745  0.00  0.00     0.078 C 
ATOM      3  C1  OXE d   1      -1.532  -0.994   0.629  0.00  0.00    -0.078 A 
ATOM      4  C2  OXE d   1      -1.134   0.285   0.324  0.00  0.00    -0.078 A 
ATOM      5  C3  OXE d   1      -2.089   1.282   0.151  0.00  0.00     0.003 A 
ATOM      6  C4  OXE d   1      -3.437   1.029   0.435  0.00  0.00    -0.002 A 
ATOM      7  C5  OXE d   1      -3.859  -0.258   0.786  0.00  0.00    -0.002 A 
ATOM      8  C6  OXE d   1      -2.927  -1.288   0.846  0.00  0.00     0.003 A 
ENDROOT
TORSDOF 0
ENDMDL
