MODEL 1
REMARK minimizedAffinity -1.04198849
REMARK minimizedRMSD -1
REMARK  0 active torsions:
REMARK  status: ('A' for Active; 'I' for Inactive)
ROOT
ATOM      1  C2' OXE d   1      -4.397   1.888  -5.679  0.00  0.00     0.078 C 
ATOM      2  C1' OXE d   1      -1.759   2.423  -4.881  0.00  0.00     0.078 C 
ATOM      3  C1  OXE d   1      -2.634   3.595  -5.251  0.00  0.00    -0.078 A 
ATOM      4  C2  OXE d   1      -3.908   3.320  -5.685  0.00  0.00    -0.078 A 
ATOM      5  C3  OXE d   1      -4.774   4.367  -5.987  0.00  0.00     0.003 A 
ATOM      6  C4  OXE d   1      -4.311   5.689  -6.000  0.00  0.00    -0.002 A 
ATOM      7  C5  OXE d   1      -3.004   5.987  -5.599  0.00  0.00    -0.002 A 
ATOM      8  C6  OXE d   1      -2.168   4.958  -5.182  0.00  0.00     0.003 A 
ENDROOT
TORSDOF 0
ENDMDL
