MODEL 1
REMARK minimizedAffinity -1.86842048
REMARK minimizedRMSD -1
REMARK  0 active torsions:
REMARK  status: ('A' for Active; 'I' for Inactive)
ROOT
ATOM      1  C2' OXE d   1      -4.853   5.774  -5.839  0.00  0.00     0.078 C 
ATOM      2  C1' OXE d   1      -2.369   4.467  -5.814  0.00  0.00     0.078 C 
ATOM      3  C1  OXE d   1      -3.611   3.615  -5.895  0.00  0.00    -0.078 A 
ATOM      4  C2  OXE d   1      -4.824   4.261  -5.859  0.00  0.00    -0.078 A 
ATOM      5  C3  OXE d   1      -6.000   3.527  -5.986  0.00  0.00     0.003 A 
ATOM      6  C4  OXE d   1      -5.964   2.127  -5.994  0.00  0.00    -0.002 A 
ATOM      7  C5  OXE d   1      -4.741   1.448  -5.991  0.00  0.00    -0.002 A 
ATOM      8  C6  OXE d   1      -3.557   2.177  -5.984  0.00  0.00     0.003 A 
ENDROOT
TORSDOF 0
ENDMDL
