MODEL 1
REMARK minimizedAffinity 5.20461845
REMARK minimizedRMSD -1
REMARK  0 active torsions:
REMARK  status: ('A' for Active; 'I' for Inactive)
ROOT
ATOM      1  C2' OXE d   1       4.133  -2.376  -1.714  0.00  0.00     0.078 C 
ATOM      2  C1' OXE d   1       5.240  -4.653  -2.927  0.00  0.00     0.078 C 
ATOM      3  C1  OXE d   1       4.898  -3.480  -3.812  0.00  0.00    -0.078 A 
ATOM      4  C2  OXE d   1       4.314  -2.388  -3.216  0.00  0.00    -0.078 A 
ATOM      5  C3  OXE d   1       4.029  -1.258  -3.978  0.00  0.00     0.003 A 
ATOM      6  C4  OXE d   1       4.190  -1.281  -5.368  0.00  0.00    -0.002 A 
ATOM      7  C5  OXE d   1       4.747  -2.398  -6.000  0.00  0.00    -0.002 A 
ATOM      8  C6  OXE d   1       5.145  -3.487  -5.232  0.00  0.00     0.003 A 
ENDROOT
TORSDOF 0
ENDMDL
