MODEL 1
REMARK minimizedAffinity -1.41023707
REMARK minimizedRMSD -1
REMARK  0 active torsions:
REMARK  status: ('A' for Active; 'I' for Inactive)
ROOT
ATOM      1  C2' OXE d   1      -4.248   0.057  -6.000  0.00  0.00     0.078 C 
ATOM      2  C1' OXE d   1      -5.363   2.634  -5.996  0.00  0.00     0.078 C 
ATOM      3  C1  OXE d   1      -3.859   2.517  -5.979  0.00  0.00    -0.078 A 
ATOM      4  C2  OXE d   1      -3.323   1.253  -5.934  0.00  0.00    -0.078 A 
ATOM      5  C3  OXE d   1      -1.941   1.088  -5.972  0.00  0.00     0.003 A 
ATOM      6  C4  OXE d   1      -1.093   2.199  -5.900  0.00  0.00    -0.002 A 
ATOM      7  C5  OXE d   1      -1.618   3.496  -5.905  0.00  0.00    -0.002 A 
ATOM      8  C6  OXE d   1      -2.995   3.672  -5.987  0.00  0.00     0.003 A 
ENDROOT
TORSDOF 0
ENDMDL
