MODEL 1
REMARK minimizedAffinity 0.216951132
REMARK minimizedRMSD -1
REMARK  0 active torsions:
REMARK  status: ('A' for Active; 'I' for Inactive)
ROOT
ATOM      1  C2' OXE d   1      -2.278  -2.347  -3.707  0.00  0.00     0.078 C 
ATOM      2  C1' OXE d   1      -1.337  -4.811  -4.666  0.00  0.00     0.078 C 
ATOM      3  C1  OXE d   1      -2.759  -4.427  -4.990  0.00  0.00    -0.078 A 
ATOM      4  C2  OXE d   1      -3.226  -3.241  -4.477  0.00  0.00    -0.078 A 
ATOM      5  C3  OXE d   1      -4.513  -2.814  -4.791  0.00  0.00     0.003 A 
ATOM      6  C4  OXE d   1      -5.386  -3.651  -5.495  0.00  0.00    -0.002 A 
ATOM      7  C5  OXE d   1      -4.943  -4.881  -5.993  0.00  0.00    -0.002 A 
ATOM      8  C6  OXE d   1      -3.622  -5.264  -5.786  0.00  0.00     0.003 A 
ENDROOT
TORSDOF 0
ENDMDL
