MODEL 1
REMARK minimizedAffinity -1.28762364
REMARK minimizedRMSD -1
REMARK  0 active torsions:
REMARK  status: ('A' for Active; 'I' for Inactive)
ROOT
ATOM      1  C2' OXE d   1       2.255   0.861  -1.208  0.00  0.00     0.078 C 
ATOM      2  C1' OXE d   1       0.560   2.698   0.069  0.00  0.00     0.078 C 
ATOM      3  C1  OXE d   1       0.205   1.235   0.158  0.00  0.00    -0.078 A 
ATOM      4  C2  OXE d   1       1.015   0.347  -0.509  0.00  0.00    -0.078 A 
ATOM      5  C3  OXE d   1       0.765  -1.019  -0.415  0.00  0.00     0.003 A 
ATOM      6  C4  OXE d   1      -0.390  -1.486   0.225  0.00  0.00    -0.002 A 
ATOM      7  C5  OXE d   1      -1.249  -0.595   0.877  0.00  0.00    -0.002 A 
ATOM      8  C6  OXE d   1      -0.944   0.761   0.889  0.00  0.00     0.003 A 
ENDROOT
TORSDOF 0
ENDMDL
