MODEL 1
REMARK minimizedAffinity -4.13509607
REMARK minimizedRMSD -1
REMARK  0 active torsions:
REMARK  status: ('A' for Active; 'I' for Inactive)
ROOT
ATOM      1  C2' OXE d   1      -0.475  -1.628   0.409  0.00  0.00     0.078 C 
ATOM      2  C1' OXE d   1      -3.262  -1.891   0.206  0.00  0.00     0.078 C 
ATOM      3  C1  OXE d   1      -2.721  -0.790   1.084  0.00  0.00    -0.078 A 
ATOM      4  C2  OXE d   1      -1.357  -0.698   1.214  0.00  0.00    -0.078 A 
ATOM      5  C3  OXE d   1      -0.804   0.334   1.968  0.00  0.00     0.003 A 
ATOM      6  C4  OXE d   1      -1.627   1.183   2.718  0.00  0.00    -0.002 A 
ATOM      7  C5  OXE d   1      -3.019   1.081   2.631  0.00  0.00    -0.002 A 
ATOM      8  C6  OXE d   1      -3.582   0.129   1.787  0.00  0.00     0.003 A 
ENDROOT
TORSDOF 0
ENDMDL
