MODEL 1
REMARK minimizedAffinity 9.9235363
REMARK minimizedRMSD -1
REMARK  2 active torsions:
REMARK  status: ('A' for Active; 'I' for Inactive)
REMARK    1  A    between atoms: C2'_3  and  C1'_4 
REMARK    2  A    between atoms: C1'_4  and  C1_5 
ROOT
ATOM      1  C1  I4B d   1       0.905  -1.941   1.785  0.00  0.00    -0.075 A 
ATOM      2  C2  I4B d   1       0.852  -0.655   2.263  0.00  0.00     0.003 A 
ATOM      3  C3  I4B d   1      -0.268  -0.217   3.009  0.00  0.00     0.002 A 
ATOM      4  C4  I4B d   1      -1.329  -1.077   3.211  0.00  0.00    -0.004 A 
ATOM      5  C5  I4B d   1      -1.264  -2.387   2.745  0.00  0.00     0.002 A 
ATOM      6  C6  I4B d   1      -0.135  -2.826   2.039  0.00  0.00     0.003 A 
ENDROOT
BRANCH   1   7
ATOM      7  C1' I4B d   1       2.089  -2.360   0.972  0.00  0.00     0.060 C 
BRANCH   7   8
ATOM      8  C2' I4B d   1       2.552  -1.161   0.170  0.00  0.00    -0.013 C 
ATOM      9  C4' I4B d   1       4.045  -0.986   0.264  0.00  0.00     0.013 C 
ATOM     10  C3' I4B d   1       2.119  -1.359  -1.251  0.00  0.00     0.013 C 
ENDBRANCH   7   8
ENDBRANCH   1   7
TORSDOF 2
ENDMDL
