MODEL 1
REMARK minimizedAffinity 3.0820024
REMARK minimizedRMSD -1
REMARK  2 active torsions:
REMARK  status: ('A' for Active; 'I' for Inactive)
REMARK    1  A    between atoms: C2'_3  and  C1'_4 
REMARK    2  A    between atoms: C1'_4  and  C1_5 
ROOT
ATOM      1  C1  I4B d   1       1.259  -0.978   1.148  0.00  0.00    -0.075 A 
ATOM      2  C2  I4B d   1       1.719  -0.901   2.438  0.00  0.00     0.003 A 
ATOM      3  C3  I4B d   1       0.876  -1.257   3.519  0.00  0.00     0.002 A 
ATOM      4  C4  I4B d   1      -0.428  -1.633   3.268  0.00  0.00    -0.004 A 
ATOM      5  C5  I4B d   1      -0.886  -1.733   1.957  0.00  0.00     0.002 A 
ATOM      6  C6  I4B d   1      -0.034  -1.415   0.889  0.00  0.00     0.003 A 
ENDROOT
BRANCH   1   7
ATOM      7  C1' I4B d   1       2.166  -0.564   0.033  0.00  0.00     0.060 C 
BRANCH   7   8
ATOM      8  C2' I4B d   1       1.452  -0.837  -1.276  0.00  0.00    -0.013 C 
ATOM      9  C4' I4B d   1       0.966   0.439  -1.909  0.00  0.00     0.013 C 
ATOM     10  C3' I4B d   1       2.405  -1.562  -2.179  0.00  0.00     0.013 C 
ENDBRANCH   7   8
ENDBRANCH   1   7
TORSDOF 2
ENDMDL
