MODEL 1
REMARK minimizedAffinity 8.53075027
REMARK minimizedRMSD -1
REMARK  2 active torsions:
REMARK  status: ('A' for Active; 'I' for Inactive)
REMARK    1  A    between atoms: C2'_3  and  C1'_4 
REMARK    2  A    between atoms: C1'_4  and  C1_5 
ROOT
ATOM      1  C1  I4B d   1       0.513  -1.153   1.396  0.00  0.00    -0.075 A 
ATOM      2  C2  I4B d   1       0.865  -1.317   2.712  0.00  0.00     0.003 A 
ATOM      3  C3  I4B d   1       0.001  -0.873   3.742  0.00  0.00     0.002 A 
ATOM      4  C4  I4B d   1      -1.176  -0.231   3.412  0.00  0.00    -0.004 A 
ATOM      5  C5  I4B d   1      -1.542  -0.087   2.077  0.00  0.00     0.002 A 
ATOM      6  C6  I4B d   1      -0.699  -0.562   1.062  0.00  0.00     0.003 A 
ENDROOT
BRANCH   1   7
ATOM      7  C1' I4B d   1       1.465  -1.603   0.333  0.00  0.00     0.060 C 
BRANCH   7   8
ATOM      8  C2' I4B d   1       1.640  -0.464  -0.650  0.00  0.00    -0.013 C 
ATOM      9  C4' I4B d   1       2.970   0.218  -0.462  0.00  0.00     0.013 C 
ATOM     10  C3' I4B d   1       1.509  -1.023  -2.035  0.00  0.00     0.013 C 
ENDBRANCH   7   8
ENDBRANCH   1   7
TORSDOF 2
ENDMDL
