MODEL 1
REMARK minimizedAffinity 3.69597769
REMARK minimizedRMSD -1
REMARK  2 active torsions:
REMARK  status: ('A' for Active; 'I' for Inactive)
REMARK    1  A    between atoms: C2'_3  and  C1'_4 
REMARK    2  A    between atoms: C1'_4  and  C1_5 
ROOT
ATOM      1  C1  I4B d   1      -3.942  -0.284  -4.316  0.00  0.00    -0.075 A 
ATOM      2  C2  I4B d   1      -2.891  -0.834  -3.625  0.00  0.00     0.003 A 
ATOM      3  C3  I4B d   1      -3.094  -1.968  -2.803  0.00  0.00     0.002 A 
ATOM      4  C4  I4B d   1      -4.365  -2.487  -2.661  0.00  0.00    -0.004 A 
ATOM      5  C5  I4B d   1      -5.425  -1.942  -3.381  0.00  0.00     0.002 A 
ATOM      6  C6  I4B d   1      -5.211  -0.842  -4.223  0.00  0.00     0.003 A 
ENDROOT
BRANCH   1   7
ATOM      7  C1' I4B d   1      -3.699   0.933  -5.150  0.00  0.00     0.060 C 
BRANCH   7   8
ATOM      8  C2' I4B d   1      -3.889   2.150  -4.267  0.00  0.00    -0.013 C 
ATOM      9  C4' I4B d   1      -2.565   2.746  -3.867  0.00  0.00     0.013 C 
ATOM     10  C3' I4B d   1      -4.725   3.142  -5.019  0.00  0.00     0.013 C 
ENDBRANCH   7   8
ENDBRANCH   1   7
TORSDOF 2
ENDMDL
