MODEL 1
REMARK minimizedAffinity 9.75506973
REMARK minimizedRMSD -1
REMARK  2 active torsions:
REMARK  status: ('A' for Active; 'I' for Inactive)
REMARK    1  A    between atoms: C2'_3  and  C1'_4 
REMARK    2  A    between atoms: C1'_4  and  C1_5 
ROOT
ATOM      1  C1  I4B d   1      -1.574   0.148   2.194  0.00  0.00    -0.075 A 
ATOM      2  C2  I4B d   1      -2.373   0.749   3.134  0.00  0.00     0.003 A 
ATOM      3  C3  I4B d   1      -3.726   1.044   2.836  0.00  0.00     0.002 A 
ATOM      4  C4  I4B d   1      -4.220   0.767   1.578  0.00  0.00    -0.004 A 
ATOM      5  C5  I4B d   1      -3.415   0.136   0.634  0.00  0.00     0.002 A 
ATOM      6  C6  I4B d   1      -2.087  -0.187   0.948  0.00  0.00     0.003 A 
ENDROOT
BRANCH   1   7
ATOM      7  C1' I4B d   1      -0.141  -0.119   2.531  0.00  0.00     0.060 C 
BRANCH   7   8
ATOM      8  C2' I4B d   1       0.259  -1.423   1.870  0.00  0.00    -0.013 C 
ATOM      9  C4' I4B d   1       1.147  -1.180   0.678  0.00  0.00     0.013 C 
ATOM     10  C3' I4B d   1       0.951  -2.269   2.897  0.00  0.00     0.013 C 
ENDBRANCH   7   8
ENDBRANCH   1   7
TORSDOF 2
ENDMDL
