MODEL 1
REMARK minimizedAffinity 8.48276615
REMARK minimizedRMSD -1
REMARK  0 active torsions:
REMARK  status: ('A' for Active; 'I' for Inactive)
ROOT
ATOM      1  N1  IND d   1       4.871   4.132  -5.019  0.00  0.00    -0.196 N 
ATOM      2  C2  IND d   1       4.780   3.080  -4.150  0.00  0.00     0.054 A 
ATOM      3  C3  IND d   1       3.497   2.902  -3.761  0.00  0.00    -0.031 A 
ATOM      4  C4  IND d   1       1.374   4.155  -4.501  0.00  0.00     0.051 A 
ATOM      5  C5  IND d   1       0.957   5.218  -5.253  0.00  0.00    -0.031 A 
ATOM      6  C6  IND d   1       1.842   5.987  -5.982  0.00  0.00     0.015 A 
ATOM      7  C7  IND d   1       3.180   5.713  -5.996  0.00  0.00    -0.016 A 
ATOM      8  C8  IND d   1       3.608   4.639  -5.228  0.00  0.00    -0.047 A 
ATOM      9  C9  IND d   1       2.721   3.882  -4.452  0.00  0.00    -0.096 A 
ATOM     10  HN1 IND d   1       5.596   4.427  -5.375  0.00  0.00     0.298 HD
ENDROOT
TORSDOF 0
ENDMDL
