MODEL 1
REMARK minimizedAffinity 6.83081055
REMARK minimizedRMSD -1
REMARK  0 active torsions:
REMARK  status: ('A' for Active; 'I' for Inactive)
ROOT
ATOM      1  N1  IND d   1       2.261   0.509   2.189  0.00  0.00    -0.196 N 
ATOM      2  C2  IND d   1       3.328   1.246   1.756  0.00  0.00     0.054 A 
ATOM      3  C3  IND d   1       3.093   1.731   0.516  0.00  0.00    -0.031 A 
ATOM      4  C4  IND d   1       0.987   1.523  -0.950  0.00  0.00     0.051 A 
ATOM      5  C5  IND d   1      -0.236   0.915  -0.998  0.00  0.00    -0.031 A 
ATOM      6  C6  IND d   1      -0.700   0.127   0.035  0.00  0.00     0.015 A 
ATOM      7  C7  IND d   1       0.041  -0.074   1.165  0.00  0.00    -0.016 A 
ATOM      8  C8  IND d   1       1.286   0.536   1.215  0.00  0.00    -0.047 A 
ATOM      9  C9  IND d   1       1.780   1.302   0.152  0.00  0.00    -0.096 A 
ATOM     10  HN1 IND d   1       2.207   0.098   2.942  0.00  0.00     0.298 HD
ENDROOT
TORSDOF 0
ENDMDL
