MODEL 1
REMARK minimizedAffinity -0.235148087
REMARK minimizedRMSD -1
REMARK  0 active torsions:
REMARK  status: ('A' for Active; 'I' for Inactive)
ROOT
ATOM      1  N1  IND d   1      -1.609   5.984  -4.443  0.00  0.00    -0.196 N 
ATOM      2  C2  IND d   1      -1.729   5.999  -3.081  0.00  0.00     0.054 A 
ATOM      3  C3  IND d   1      -0.509   5.969  -2.501  0.00  0.00    -0.031 A 
ATOM      4  C4  IND d   1       1.823   5.997  -3.592  0.00  0.00     0.051 A 
ATOM      5  C5  IND d   1       2.443   5.948  -4.809  0.00  0.00    -0.031 A 
ATOM      6  C6  IND d   1       1.730   5.910  -5.990  0.00  0.00     0.015 A 
ATOM      7  C7  IND d   1       0.364   5.932  -5.998  0.00  0.00    -0.016 A 
ATOM      8  C8  IND d   1      -0.269   5.975  -4.764  0.00  0.00    -0.047 A 
ATOM      9  C9  IND d   1       0.448   5.971  -3.561  0.00  0.00    -0.096 A 
ATOM     10  HN1 IND d   1      -2.260   5.982  -5.004  0.00  0.00     0.298 HD
ENDROOT
TORSDOF 0
ENDMDL
