MODEL 1
REMARK minimizedAffinity -3.69344759
REMARK minimizedRMSD -1
REMARK  0 active torsions:
REMARK  status: ('A' for Active; 'I' for Inactive)
ROOT
ATOM      1  N1  IND d   1      -3.556   5.969  -3.391  0.00  0.00    -0.196 N 
ATOM      2  C2  IND d   1      -3.735   5.941  -2.036  0.00  0.00     0.054 A 
ATOM      3  C3  IND d   1      -2.540   5.910  -1.405  0.00  0.00    -0.031 A 
ATOM      4  C4  IND d   1      -0.165   5.999  -2.393  0.00  0.00     0.051 A 
ATOM      5  C5  IND d   1       0.508   5.993  -3.583  0.00  0.00    -0.031 A 
ATOM      6  C6  IND d   1      -0.153   5.982  -4.794  0.00  0.00     0.015 A 
ATOM      7  C7  IND d   1      -1.518   5.987  -4.861  0.00  0.00    -0.016 A 
ATOM      8  C8  IND d   1      -2.204   5.985  -3.655  0.00  0.00    -0.047 A 
ATOM      9  C9  IND d   1      -1.539   5.954  -2.422  0.00  0.00    -0.096 A 
ATOM     10  HN1 IND d   1      -4.183   5.974  -3.980  0.00  0.00     0.298 HD
ENDROOT
TORSDOF 0
ENDMDL
