MODEL 1
REMARK minimizedAffinity 7.51110697
REMARK minimizedRMSD -1
REMARK  0 active torsions:
REMARK  status: ('A' for Active; 'I' for Inactive)
ROOT
ATOM      1  N1  IND d   1       0.424  -1.141   0.681  0.00  0.00    -0.196 N 
ATOM      2  C2  IND d   1       0.166  -0.863   1.995  0.00  0.00     0.054 A 
ATOM      3  C3  IND d   1       0.350   0.454   2.242  0.00  0.00    -0.031 A 
ATOM      4  C4  IND d   1       0.973   2.351   0.617  0.00  0.00     0.051 A 
ATOM      5  C5  IND d   1       1.343   2.582  -0.678  0.00  0.00    -0.031 A 
ATOM      6  C6  IND d   1       1.424   1.564  -1.606  0.00  0.00     0.015 A 
ATOM      7  C7  IND d   1       1.126   0.273  -1.274  0.00  0.00    -0.016 A 
ATOM      8  C8  IND d   1       0.757   0.033   0.042  0.00  0.00    -0.047 A 
ATOM      9  C9  IND d   1       0.714   1.056   0.998  0.00  0.00    -0.096 A 
ATOM     10  HN1 IND d   1       0.384  -1.918   0.316  0.00  0.00     0.298 HD
ENDROOT
TORSDOF 0
ENDMDL
