MODEL 1
REMARK minimizedAffinity -0.342890471
REMARK minimizedRMSD -1
REMARK  0 active torsions:
REMARK  status: ('A' for Active; 'I' for Inactive)
ROOT
ATOM      1  N1  IND d   1      -3.507   5.976  -4.431  0.00  0.00    -0.196 N 
ATOM      2  C2  IND d   1      -3.899   5.922  -3.123  0.00  0.00     0.054 A 
ATOM      3  C3  IND d   1      -2.820   5.860  -2.310  0.00  0.00    -0.031 A 
ATOM      4  C4  IND d   1      -0.317   5.940  -2.907  0.00  0.00     0.051 A 
ATOM      5  C5  IND d   1       0.536   5.952  -3.974  0.00  0.00    -0.031 A 
ATOM      6  C6  IND d   1       0.076   5.975  -5.275  0.00  0.00     0.015 A 
ATOM      7  C7  IND d   1      -1.261   6.000  -5.558  0.00  0.00    -0.016 A 
ATOM      8  C8  IND d   1      -2.130   5.981  -4.476  0.00  0.00    -0.047 A 
ATOM      9  C9  IND d   1      -1.669   5.914  -3.155  0.00  0.00    -0.096 A 
ATOM     10  HN1 IND d   1      -4.032   6.003  -5.112  0.00  0.00     0.298 HD
ENDROOT
TORSDOF 0
ENDMDL
