MODEL 1
REMARK minimizedAffinity -1.32378805
REMARK minimizedRMSD -1
REMARK  0 active torsions:
REMARK  status: ('A' for Active; 'I' for Inactive)
ROOT
ATOM      1  N1  IND d   1       2.844   0.866   2.633  0.00  0.00    -0.196 N 
ATOM      2  C2  IND d   1       3.942   1.563   2.213  0.00  0.00     0.054 A 
ATOM      3  C3  IND d   1       3.638   2.311   1.129  0.00  0.00    -0.031 A 
ATOM      4  C4  IND d   1       1.377   2.622  -0.062  0.00  0.00     0.051 A 
ATOM      5  C5  IND d   1       0.089   2.163  -0.065  0.00  0.00    -0.031 A 
ATOM      6  C6  IND d   1      -0.355   1.232   0.851  0.00  0.00     0.015 A 
ATOM      7  C7  IND d   1       0.472   0.731   1.816  0.00  0.00    -0.016 A 
ATOM      8  C8  IND d   1       1.782   1.189   1.818  0.00  0.00    -0.047 A 
ATOM      9  C9  IND d   1       2.250   2.102   0.864  0.00  0.00    -0.096 A 
ATOM     10  HN1 IND d   1       2.821   0.317   3.295  0.00  0.00     0.298 HD
ENDROOT
TORSDOF 0
ENDMDL
