MODEL 1
REMARK minimizedAffinity 2.02532792
REMARK minimizedRMSD -1
REMARK  0 active torsions:
REMARK  status: ('A' for Active; 'I' for Inactive)
ROOT
ATOM      1  N1  IND d   1      -3.913  -1.612  -0.926  0.00  0.00    -0.196 N 
ATOM      2  C2  IND d   1      -3.343  -1.769  -2.159  0.00  0.00     0.054 A 
ATOM      3  C3  IND d   1      -3.429  -3.058  -2.556  0.00  0.00    -0.031 A 
ATOM      4  C4  IND d   1      -4.553  -5.058  -1.388  0.00  0.00     0.051 A 
ATOM      5  C5  IND d   1      -5.176  -5.416  -0.226  0.00  0.00    -0.031 A 
ATOM      6  C6  IND d   1      -5.417  -4.505   0.782  0.00  0.00     0.015 A 
ATOM      7  C7  IND d   1      -5.053  -3.194   0.660  0.00  0.00    -0.016 A 
ATOM      8  C8  IND d   1      -4.414  -2.829  -0.517  0.00  0.00    -0.047 A 
ATOM      9  C9  IND d   1      -4.128  -3.758  -1.526  0.00  0.00    -0.096 A 
ATOM     10  HN1 IND d   1      -3.953  -0.877  -0.481  0.00  0.00     0.298 HD
ENDROOT
TORSDOF 0
ENDMDL
