MODEL 1
REMARK minimizedAffinity 3.64458132
REMARK minimizedRMSD -1
REMARK  0 active torsions:
REMARK  status: ('A' for Active; 'I' for Inactive)
ROOT
ATOM      1  N1  IND d   1       1.111  -1.069  -1.194  0.00  0.00    -0.196 N 
ATOM      2  C2  IND d   1       1.421  -0.560  -2.425  0.00  0.00     0.054 A 
ATOM      3  C3  IND d   1       1.680   0.764  -2.335  0.00  0.00    -0.031 A 
ATOM      4  C4  IND d   1       1.754   2.278  -0.254  0.00  0.00     0.051 A 
ATOM      5  C5  IND d   1       1.508   2.274   1.090  0.00  0.00    -0.031 A 
ATOM      6  C6  IND d   1       1.111   1.132   1.756  0.00  0.00     0.015 A 
ATOM      7  C7  IND d   1       0.956  -0.057   1.100  0.00  0.00    -0.016 A 
ATOM      8  C8  IND d   1       1.199  -0.055  -0.266  0.00  0.00    -0.047 A 
ATOM      9  C9  IND d   1       1.561   1.111  -0.954  0.00  0.00    -0.096 A 
ATOM     10  HN1 IND d   1       0.897  -1.885  -1.028  0.00  0.00     0.298 HD
ENDROOT
TORSDOF 0
ENDMDL
