MODEL 1
REMARK minimizedAffinity 0.907963037
REMARK minimizedRMSD -1
REMARK  0 active torsions:
REMARK  status: ('A' for Active; 'I' for Inactive)
ROOT
ATOM      1  N1  IND d   1      -2.315   5.921  -4.482  0.00  0.00    -0.196 N 
ATOM      2  C2  IND d   1      -1.162   5.932  -3.747  0.00  0.00     0.054 A 
ATOM      3  C3  IND d   1      -1.447   5.986  -2.426  0.00  0.00    -0.031 A 
ATOM      4  C4  IND d   1      -3.734   5.960  -1.244  0.00  0.00     0.051 A 
ATOM      5  C5  IND d   1      -5.077   5.992  -1.496  0.00  0.00    -0.031 A 
ATOM      6  C6  IND d   1      -5.578   6.000  -2.781  0.00  0.00     0.015 A 
ATOM      7  C7  IND d   1      -4.751   5.964  -3.868  0.00  0.00    -0.016 A 
ATOM      8  C8  IND d   1      -3.387   5.938  -3.617  0.00  0.00    -0.047 A 
ATOM      9  C9  IND d   1      -2.871   5.974  -2.315  0.00  0.00    -0.096 A 
ATOM     10  HN1 IND d   1      -2.362   5.906  -5.340  0.00  0.00     0.298 HD
ENDROOT
TORSDOF 0
ENDMDL
