MODEL 1
REMARK minimizedAffinity 1.75829017
REMARK minimizedRMSD -1
REMARK  0 active torsions:
REMARK  status: ('A' for Active; 'I' for Inactive)
ROOT
ATOM      1  N1  IND d   1      -1.060   0.522   3.841  0.00  0.00    -0.196 N 
ATOM      2  C2  IND d   1      -2.124  -0.331   3.737  0.00  0.00     0.054 A 
ATOM      3  C3  IND d   1      -2.252  -0.771   2.465  0.00  0.00    -0.031 A 
ATOM      4  C4  IND d   1      -0.769  -0.299   0.414  0.00  0.00     0.051 A 
ATOM      5  C5  IND d   1       0.299   0.450   0.006  0.00  0.00    -0.031 A 
ATOM      6  C6  IND d   1       0.984   1.276   0.874  0.00  0.00     0.015 A 
ATOM      7  C7  IND d   1       0.632   1.375   2.190  0.00  0.00    -0.016 A 
ATOM      8  C8  IND d   1      -0.457   0.622   2.606  0.00  0.00    -0.047 A 
ATOM      9  C9  IND d   1      -1.182  -0.186   1.721  0.00  0.00    -0.096 A 
ATOM     10  HN1 IND d   1      -0.811   0.928   4.556  0.00  0.00     0.298 HD
ENDROOT
TORSDOF 0
ENDMDL
