MODEL 1
REMARK minimizedAffinity -3.7322793
REMARK minimizedRMSD -1
REMARK  0 active torsions:
REMARK  status: ('A' for Active; 'I' for Inactive)
ROOT
ATOM      1  N1  IND d   1      -3.369   5.970  -4.129  0.00  0.00    -0.196 N 
ATOM      2  C2  IND d   1      -3.878   5.999  -2.861  0.00  0.00     0.054 A 
ATOM      3  C3  IND d   1      -2.877   5.977  -1.952  0.00  0.00    -0.031 A 
ATOM      4  C4  IND d   1      -0.330   5.997  -2.324  0.00  0.00     0.051 A 
ATOM      5  C5  IND d   1       0.616   5.936  -3.308  0.00  0.00    -0.031 A 
ATOM      6  C6  IND d   1       0.274   5.885  -4.645  0.00  0.00     0.015 A 
ATOM      7  C7  IND d   1      -1.031   5.904  -5.048  0.00  0.00    -0.016 A 
ATOM      8  C8  IND d   1      -1.994   5.959  -4.050  0.00  0.00    -0.047 A 
ATOM      9  C9  IND d   1      -1.655   5.969  -2.691  0.00  0.00    -0.096 A 
ATOM     10  HN1 IND d   1      -3.830   5.960  -4.855  0.00  0.00     0.298 HD
ENDROOT
TORSDOF 0
ENDMDL
