MODEL 1
REMARK minimizedAffinity -3.47324085
REMARK minimizedRMSD -1
REMARK  0 active torsions:
REMARK  status: ('A' for Active; 'I' for Inactive)
ROOT
ATOM      1  N1  IND d   1      -2.293   5.999  -4.820  0.00  0.00    -0.196 N 
ATOM      2  C2  IND d   1      -2.682   5.991  -3.510  0.00  0.00     0.054 A 
ATOM      3  C3  IND d   1      -1.601   5.953  -2.698  0.00  0.00    -0.031 A 
ATOM      4  C4  IND d   1       0.900   6.000  -3.303  0.00  0.00     0.051 A 
ATOM      5  C5  IND d   1       1.751   5.970  -4.373  0.00  0.00    -0.031 A 
ATOM      6  C6  IND d   1       1.287   5.951  -5.672  0.00  0.00     0.015 A 
ATOM      7  C7  IND d   1      -0.050   5.972  -5.952  0.00  0.00    -0.016 A 
ATOM      8  C8  IND d   1      -0.916   5.995  -4.869  0.00  0.00    -0.047 A 
ATOM      9  C9  IND d   1      -0.452   5.972  -3.547  0.00  0.00    -0.096 A 
ATOM     10  HN1 IND d   1      -2.819   6.005  -5.500  0.00  0.00     0.298 HD
ENDROOT
TORSDOF 0
ENDMDL
