MODEL 1
REMARK minimizedAffinity -0.0488957167
REMARK minimizedRMSD -1
REMARK  0 active torsions:
REMARK  status: ('A' for Active; 'I' for Inactive)
ROOT
ATOM      1  N1  IND d   1      -2.762   5.974  -3.754  0.00  0.00    -0.196 N 
ATOM      2  C2  IND d   1      -3.298   5.937  -2.497  0.00  0.00     0.054 A 
ATOM      3  C3  IND d   1      -2.317   5.898  -1.568  0.00  0.00    -0.031 A 
ATOM      4  C4  IND d   1       0.236   5.989  -1.880  0.00  0.00     0.051 A 
ATOM      5  C5  IND d   1       1.204   5.991  -2.845  0.00  0.00    -0.031 A 
ATOM      6  C6  IND d   1       0.893   5.989  -4.190  0.00  0.00     0.015 A 
ATOM      7  C7  IND d   1      -0.403   5.998  -4.621  0.00  0.00    -0.016 A 
ATOM      8  C8  IND d   1      -1.388   5.989  -3.644  0.00  0.00    -0.047 A 
ATOM      9  C9  IND d   1      -1.079   5.948  -2.278  0.00  0.00    -0.096 A 
ATOM     10  HN1 IND d   1      -3.207   5.985  -4.490  0.00  0.00     0.298 HD
ENDROOT
TORSDOF 0
ENDMDL
