MODEL 1
REMARK minimizedAffinity 6.96343994
REMARK minimizedRMSD -1
REMARK  3 active torsions:
REMARK  status: ('A' for Active; 'I' for Inactive)
REMARK    1  A    between atoms: C3'_2  and  C2'_3 
REMARK    2  A    between atoms: C2'_3  and  C1'_4 
REMARK    3  A    between atoms: C1'_4  and  C1_5 
ROOT
ATOM      1  C1  N4B d   1       1.805  -2.310   1.590  0.00  0.00    -0.075 A 
ATOM      2  C2  N4B d   1       2.490  -1.339   0.828  0.00  0.00     0.002 A 
ATOM      3  C3  N4B d   1       3.850  -1.432   0.660  0.00  0.00     0.002 A 
ATOM      4  C4  N4B d   1       4.546  -2.472   1.259  0.00  0.00    -0.004 A 
ATOM      5  C5  N4B d   1       3.873  -3.420   1.973  0.00  0.00     0.002 A 
ATOM      6  C6  N4B d   1       2.506  -3.341   2.146  0.00  0.00     0.002 A 
ENDROOT
BRANCH   1   7
ATOM      7  C1' N4B d   1       0.331  -2.203   1.872  0.00  0.00     0.057 C 
BRANCH   7   8
ATOM      8  C2' N4B d   1       0.125  -1.417   3.164  0.00  0.00     0.009 C 
BRANCH   8   9
ATOM      9  C3' N4B d   1      -1.318  -1.472   3.638  0.00  0.00     0.004 C 
ATOM     10  C4' N4B d   1      -2.163  -0.380   3.053  0.00  0.00     0.003 C 
ENDBRANCH   8   9
ENDBRANCH   7   8
ENDBRANCH   1   7
TORSDOF 3
ENDMDL
