MODEL 1
REMARK minimizedAffinity -0.249992177
REMARK minimizedRMSD -1
REMARK  3 active torsions:
REMARK  status: ('A' for Active; 'I' for Inactive)
REMARK    1  A    between atoms: C3'_2  and  C2'_3 
REMARK    2  A    between atoms: C2'_3  and  C1'_4 
REMARK    3  A    between atoms: C1'_4  and  C1_5 
ROOT
ATOM      1  C1  N4B d   1       0.482  -1.907   2.401  0.00  0.00    -0.075 A 
ATOM      2  C2  N4B d   1       1.029  -0.970   3.305  0.00  0.00     0.002 A 
ATOM      3  C3  N4B d   1       0.233   0.012   3.840  0.00  0.00     0.002 A 
ATOM      4  C4  N4B d   1      -1.102   0.088   3.474  0.00  0.00    -0.004 A 
ATOM      5  C5  N4B d   1      -1.629  -0.836   2.621  0.00  0.00     0.002 A 
ATOM      6  C6  N4B d   1      -0.841  -1.831   2.077  0.00  0.00     0.002 A 
ENDROOT
BRANCH   1   7
ATOM      7  C1' N4B d   1       1.333  -2.947   1.723  0.00  0.00     0.057 C 
BRANCH   7   8
ATOM      8  C2' N4B d   1       2.793  -2.729   2.109  0.00  0.00     0.009 C 
BRANCH   8   9
ATOM      9  C3' N4B d   1       3.515  -1.834   1.117  0.00  0.00     0.004 C 
ATOM     10  C4' N4B d   1       4.992  -2.092   1.070  0.00  0.00     0.003 C 
ENDBRANCH   8   9
ENDBRANCH   7   8
ENDBRANCH   1   7
TORSDOF 3
ENDMDL
