MODEL 1
REMARK minimizedAffinity 6.46039009
REMARK minimizedRMSD -1
REMARK  3 active torsions:
REMARK  status: ('A' for Active; 'I' for Inactive)
REMARK    1  A    between atoms: C3'_2  and  C2'_3 
REMARK    2  A    between atoms: C2'_3  and  C1'_4 
REMARK    3  A    between atoms: C1'_4  and  C1_5 
ROOT
ATOM      1  C1  N4B d   1       1.135  -2.228   2.388  0.00  0.00    -0.075 A 
ATOM      2  C2  N4B d   1       1.483  -3.578   2.612  0.00  0.00     0.002 A 
ATOM      3  C3  N4B d   1       2.079  -4.308   1.614  0.00  0.00     0.002 A 
ATOM      4  C4  N4B d   1       2.319  -3.719   0.382  0.00  0.00    -0.004 A 
ATOM      5  C5  N4B d   1       2.003  -2.407   0.181  0.00  0.00     0.002 A 
ATOM      6  C6  N4B d   1       1.407  -1.659   1.177  0.00  0.00     0.002 A 
ENDROOT
BRANCH   1   7
ATOM      7  C1' N4B d   1       0.404  -1.414   3.420  0.00  0.00     0.057 C 
BRANCH   7   8
ATOM      8  C2' N4B d   1      -1.076  -1.783   3.393  0.00  0.00     0.009 C 
BRANCH   8   9
ATOM      9  C3' N4B d   1      -1.302  -3.186   2.855  0.00  0.00     0.004 C 
ATOM     10  C4' N4B d   1      -1.950  -4.095   3.857  0.00  0.00     0.003 C 
ENDBRANCH   8   9
ENDBRANCH   7   8
ENDBRANCH   1   7
TORSDOF 3
ENDMDL
