MODEL 1
REMARK minimizedAffinity 6.16563129
REMARK minimizedRMSD -1
REMARK  3 active torsions:
REMARK  status: ('A' for Active; 'I' for Inactive)
REMARK    1  A    between atoms: C3'_2  and  C2'_3 
REMARK    2  A    between atoms: C2'_3  and  C1'_4 
REMARK    3  A    between atoms: C1'_4  and  C1_5 
ROOT
ATOM      1  C1  N4B d   1       0.785  -1.477  -0.145  0.00  0.00    -0.075 A 
ATOM      2  C2  N4B d   1       0.032  -1.822   0.998  0.00  0.00     0.002 A 
ATOM      3  C3  N4B d   1       0.660  -2.339   2.104  0.00  0.00     0.002 A 
ATOM      4  C4  N4B d   1       2.033  -2.536   2.084  0.00  0.00    -0.004 A 
ATOM      5  C5  N4B d   1       2.757  -2.177   0.985  0.00  0.00     0.002 A 
ATOM      6  C6  N4B d   1       2.139  -1.652  -0.133  0.00  0.00     0.002 A 
ENDROOT
BRANCH   1   7
ATOM      7  C1' N4B d   1       0.132  -0.989  -1.409  0.00  0.00     0.057 C 
BRANCH   7   8
ATOM      8  C2' N4B d   1       0.023   0.532  -1.362  0.00  0.00     0.009 C 
BRANCH   8   9
ATOM      9  C3' N4B d   1      -0.397   1.114  -2.701  0.00  0.00     0.004 C 
ATOM     10  C4' N4B d   1      -0.686   2.584  -2.630  0.00  0.00     0.003 C 
ENDBRANCH   8   9
ENDBRANCH   7   8
ENDBRANCH   1   7
TORSDOF 3
ENDMDL
