MODEL 1
REMARK minimizedAffinity 7.3391223
REMARK minimizedRMSD -1
REMARK  1 active torsions:
REMARK  status: ('A' for Active; 'I' for Inactive)
REMARK    1  A    between atoms: N_2  and  C1_3 
ROOT
ATOM      1  C1  UNL d   1      -2.811  -4.996  -4.862  0.00  0.00     0.143 A 
ATOM      2  C2  UNL d   1      -3.133  -3.766  -5.444  0.00  0.00    -0.057 A 
ATOM      3  C3  UNL d   1      -4.402  -3.529  -5.987  0.00  0.00     0.033 A 
ATOM      4  C4  UNL d   1      -5.365  -4.533  -5.984  0.00  0.00    -0.042 A 
ATOM      5  C5  UNL d   1      -5.058  -5.772  -5.432  0.00  0.00     0.033 A 
ATOM      6  C6  UNL d   1      -3.792  -6.000  -4.885  0.00  0.00    -0.057 A 
ENDROOT
BRANCH   1   7
ATOM      7  N   UNL d   1      -1.537  -5.325  -4.393  0.00  0.00    -0.732 N 
ATOM      8  C   UNL d   1      -1.014  -4.717  -3.189  0.00  0.00     0.284 C 
ATOM      9  H3  UNL d   1      -1.337  -6.319  -4.478  0.00  0.00     0.395 HD
ENDBRANCH   1   7
TORSDOF 1
ENDMDL
