MODEL 1
REMARK minimizedAffinity 4.4446106
REMARK minimizedRMSD -1
REMARK  1 active torsions:
REMARK  status: ('A' for Active; 'I' for Inactive)
REMARK    1  A    between atoms: N_2  and  C1_3 
ROOT
ATOM      1  C1  UNL d   1       0.300   2.867   0.020  0.00  0.00     0.143 A 
ATOM      2  C2  UNL d   1      -1.024   3.025   0.445  0.00  0.00    -0.057 A 
ATOM      3  C3  UNL d   1      -1.448   2.549   1.691  0.00  0.00     0.033 A 
ATOM      4  C4  UNL d   1      -0.560   1.879   2.525  0.00  0.00    -0.042 A 
ATOM      5  C5  UNL d   1       0.754   1.688   2.113  0.00  0.00     0.033 A 
ATOM      6  C6  UNL d   1       1.174   2.172   0.870  0.00  0.00    -0.057 A 
ENDROOT
BRANCH   1   7
ATOM      7  N   UNL d   1       0.759   3.231  -1.248  0.00  0.00    -0.732 N 
ATOM      8  C   UNL d   1       1.554   4.427  -1.430  0.00  0.00     0.284 C 
ATOM      9  H3  UNL d   1       1.080   2.432  -1.789  0.00  0.00     0.395 HD
ENDBRANCH   1   7
TORSDOF 1
ENDMDL
