MODEL 1
REMARK minimizedAffinity 8.24669075
REMARK minimizedRMSD -1
REMARK  1 active torsions:
REMARK  status: ('A' for Active; 'I' for Inactive)
REMARK    1  A    between atoms: N_2  and  C1_3 
ROOT
ATOM      1  C1  UNL d   1       2.316  -4.949  -2.015  0.00  0.00     0.143 A 
ATOM      2  C2  UNL d   1       3.363  -5.497  -1.267  0.00  0.00    -0.057 A 
ATOM      3  C3  UNL d   1       4.592  -5.811  -1.860  0.00  0.00     0.033 A 
ATOM      4  C4  UNL d   1       4.787  -5.609  -3.222  0.00  0.00    -0.042 A 
ATOM      5  C5  UNL d   1       3.751  -5.088  -3.990  0.00  0.00     0.033 A 
ATOM      6  C6  UNL d   1       2.529  -4.770  -3.391  0.00  0.00    -0.057 A 
ENDROOT
BRANCH   1   7
ATOM      7  N   UNL d   1       1.039  -4.707  -1.505  0.00  0.00    -0.732 N 
ATOM      8  C   UNL d   1      -0.052  -4.347  -2.386  0.00  0.00     0.284 C 
ATOM      9  H3  UNL d   1       0.782  -5.366  -0.773  0.00  0.00     0.395 HD
ENDBRANCH   1   7
TORSDOF 1
ENDMDL
