MODEL 1
REMARK minimizedAffinity 4.68450642
REMARK minimizedRMSD -1
REMARK  1 active torsions:
REMARK  status: ('A' for Active; 'I' for Inactive)
REMARK    1  A    between atoms: N_2  and  C1_3 
ROOT
ATOM      1  C1  UNL d   1      -0.202   2.349   1.979  0.00  0.00     0.143 A 
ATOM      2  C2  UNL d   1      -1.516   2.759   2.228  0.00  0.00    -0.057 A 
ATOM      3  C3  UNL d   1      -2.385   3.089   1.181  0.00  0.00     0.033 A 
ATOM      4  C4  UNL d   1      -1.943   3.043  -0.138  0.00  0.00    -0.042 A 
ATOM      5  C5  UNL d   1      -0.634   2.662  -0.407  0.00  0.00     0.033 A 
ATOM      6  C6  UNL d   1       0.227   2.327   0.643  0.00  0.00    -0.057 A 
ENDROOT
BRANCH   1   7
ATOM      7  N   UNL d   1       0.739   2.102   2.982  0.00  0.00    -0.732 N 
ATOM      8  C   UNL d   1       2.056   2.699   2.920  0.00  0.00     0.284 C 
ATOM      9  H3  UNL d   1       0.325   2.103   3.911  0.00  0.00     0.395 HD
ENDBRANCH   1   7
TORSDOF 1
ENDMDL
