MODEL 1
REMARK minimizedAffinity 7.97644281
REMARK minimizedRMSD -1
REMARK  1 active torsions:
REMARK  status: ('A' for Active; 'I' for Inactive)
REMARK    1  A    between atoms: N_2  and  C1_3 
ROOT
ATOM      1  C1  UNL d   1       3.511  -5.154  -1.094  0.00  0.00     0.143 A 
ATOM      2  C2  UNL d   1       3.688  -5.783  -2.331  0.00  0.00    -0.057 A 
ATOM      3  C3  UNL d   1       4.870  -5.622  -3.065  0.00  0.00     0.033 A 
ATOM      4  C4  UNL d   1       5.886  -4.802  -2.586  0.00  0.00    -0.042 A 
ATOM      5  C5  UNL d   1       5.722  -4.147  -1.371  0.00  0.00     0.033 A 
ATOM      6  C6  UNL d   1       4.542  -4.318  -0.640  0.00  0.00    -0.057 A 
ENDROOT
BRANCH   1   7
ATOM      7  N   UNL d   1       2.321  -5.196  -0.364  0.00  0.00    -0.732 N 
ATOM      8  C   UNL d   1       1.188  -4.384  -0.752  0.00  0.00     0.284 C 
ATOM      9  H3  UNL d   1       2.075  -6.141  -0.075  0.00  0.00     0.395 HD
ENDBRANCH   1   7
TORSDOF 1
ENDMDL
