MODEL 1
REMARK minimizedAffinity 5.33016348
REMARK minimizedRMSD -1
REMARK  1 active torsions:
REMARK  status: ('A' for Active; 'I' for Inactive)
REMARK    1  A    between atoms: N_2  and  C1_3 
ROOT
ATOM      1  C1  UNL d   1       0.909   1.853  -0.607  0.00  0.00     0.143 A 
ATOM      2  C2  UNL d   1       1.363   3.166  -0.445  0.00  0.00    -0.057 A 
ATOM      3  C3  UNL d   1       0.493   4.192  -0.055  0.00  0.00     0.033 A 
ATOM      4  C4  UNL d   1      -0.856   3.927   0.152  0.00  0.00    -0.042 A 
ATOM      5  C5  UNL d   1      -1.335   2.634  -0.028  0.00  0.00     0.033 A 
ATOM      6  C6  UNL d   1      -0.460   1.612  -0.411  0.00  0.00    -0.057 A 
ENDROOT
BRANCH   1   7
ATOM      7  N   UNL d   1       1.704   0.810  -1.088  0.00  0.00    -0.732 N 
ATOM      8  C   UNL d   1       1.957  -0.360  -0.274  0.00  0.00     0.284 C 
ATOM      9  H3  UNL d   1       1.523   0.603  -2.068  0.00  0.00     0.395 HD
ENDBRANCH   1   7
TORSDOF 1
ENDMDL
