MODEL 1
REMARK minimizedAffinity -5.74991322
REMARK minimizedRMSD -1
REMARK  1 active torsions:
REMARK  status: ('A' for Active; 'I' for Inactive)
REMARK    1  A    between atoms: C1_2  and  C2_3 
ROOT
ATOM      1  C2  UNL d   1      -0.015   1.006   0.085  0.00  0.00    -0.073 A 
ATOM      2  C3  UNL d   1      -0.524   2.290  -0.143  0.00  0.00    -0.002 A 
ATOM      3  C4  UNL d   1       0.321   3.400  -0.102  0.00  0.00     0.004 A 
ATOM      4  C5  UNL d   1       1.681   3.237   0.161  0.00  0.00    -0.004 A 
ATOM      5  C6  UNL d   1       2.210   1.961   0.380  0.00  0.00    -0.075 A 
ATOM      6  C7  UNL d   1       3.671   1.770   0.666  0.00  0.00     0.076 C 
ATOM      7  C8  UNL d   1       1.355   0.852   0.339  0.00  0.00     0.001 A 
ENDROOT
BRANCH   1   8
ATOM      8  C1  UNL d   1      -0.922  -0.196   0.035  0.00  0.00     0.053 C 
ATOM      9  C   UNL d   1      -0.146  -1.488  -0.169  0.00  0.00     0.018 C 
ENDBRANCH   1   8
TORSDOF 1
ENDMDL
