MODEL 1
REMARK minimizedAffinity -2.00442982
REMARK minimizedRMSD -1
REMARK  1 active torsions:
REMARK  status: ('A' for Active; 'I' for Inactive)
REMARK    1  A    between atoms: C1_2  and  C2_3 
ROOT
ATOM      1  C2  UNL d   1      -0.646  -1.354  -0.748  0.00  0.00    -0.073 A 
ATOM      2  C3  UNL d   1      -1.669  -0.447  -0.449  0.00  0.00    -0.002 A 
ATOM      3  C4  UNL d   1      -1.397   0.701   0.296  0.00  0.00     0.004 A 
ATOM      4  C5  UNL d   1      -0.101   0.957   0.744  0.00  0.00    -0.004 A 
ATOM      5  C6  UNL d   1       0.937   0.068   0.445  0.00  0.00    -0.075 A 
ATOM      6  C7  UNL d   1       2.336   0.327   0.921  0.00  0.00     0.076 C 
ATOM      7  C8  UNL d   1       0.655  -1.084  -0.302  0.00  0.00     0.001 A 
ENDROOT
BRANCH   1   8
ATOM      8  C1  UNL d   1      -0.934  -2.592  -1.559  0.00  0.00     0.053 C 
ATOM      9  C   UNL d   1      -0.161  -2.608  -2.868  0.00  0.00     0.018 C 
ENDBRANCH   1   8
TORSDOF 1
ENDMDL
