MODEL 1
REMARK minimizedAffinity -4.31082153
REMARK minimizedRMSD -1
REMARK  1 active torsions:
REMARK  status: ('A' for Active; 'I' for Inactive)
REMARK    1  A    between atoms: C1_2  and  C2_3 
ROOT
ATOM      1  C2  UNL d   1      -0.305  -2.254  -0.357  0.00  0.00    -0.073 A 
ATOM      2  C3  UNL d   1       0.329  -2.452  -1.589  0.00  0.00    -0.002 A 
ATOM      3  C4  UNL d   1      -0.193  -3.356  -2.514  0.00  0.00     0.004 A 
ATOM      4  C5  UNL d   1      -1.357  -4.067  -2.220  0.00  0.00    -0.004 A 
ATOM      5  C6  UNL d   1      -2.012  -3.875  -1.000  0.00  0.00    -0.075 A 
ATOM      6  C7  UNL d   1      -3.264  -4.633  -0.668  0.00  0.00     0.076 C 
ATOM      7  C8  UNL d   1      -1.480  -2.966  -0.075  0.00  0.00     0.001 A 
ENDROOT
BRANCH   1   8
ATOM      8  C1  UNL d   1       0.252  -1.274   0.642  0.00  0.00     0.053 C 
ATOM      9  C   UNL d   1      -0.054   0.166   0.260  0.00  0.00     0.018 C 
ENDBRANCH   1   8
TORSDOF 1
ENDMDL
