MODEL 1
REMARK minimizedAffinity -3.42204309
REMARK minimizedRMSD -1
REMARK  1 active torsions:
REMARK  status: ('A' for Active; 'I' for Inactive)
REMARK    1  A    between atoms: C1_2  and  C2_3 
ROOT
ATOM      1  C2  UNL d   1       0.059  -0.754   0.275  0.00  0.00    -0.073 A 
ATOM      2  C3  UNL d   1      -1.173  -0.846   0.932  0.00  0.00    -0.002 A 
ATOM      3  C4  UNL d   1      -1.930   0.301   1.175  0.00  0.00     0.004 A 
ATOM      4  C5  UNL d   1      -1.466   1.549   0.759  0.00  0.00    -0.004 A 
ATOM      5  C6  UNL d   1      -0.242   1.660   0.090  0.00  0.00    -0.075 A 
ATOM      6  C7  UNL d   1       0.272   2.995  -0.362  0.00  0.00     0.076 C 
ATOM      7  C8  UNL d   1       0.513   0.503  -0.148  0.00  0.00     0.001 A 
ENDROOT
BRANCH   1   8
ATOM      8  C1  UNL d   1       0.876  -1.991   0.004  0.00  0.00     0.053 C 
ATOM      9  C   UNL d   1       0.082  -3.045  -0.750  0.00  0.00     0.018 C 
ENDBRANCH   1   8
TORSDOF 1
ENDMDL
