MODEL 1
REMARK minimizedAffinity -3.44906712
REMARK minimizedRMSD -1
REMARK  1 active torsions:
REMARK  status: ('A' for Active; 'I' for Inactive)
REMARK    1  A    between atoms: C1_2  and  C2_3 
ROOT
ATOM      1  C2  UNL d   1      -0.655  -2.510  -0.719  0.00  0.00    -0.073 A 
ATOM      2  C3  UNL d   1       0.219  -3.232  -1.539  0.00  0.00    -0.002 A 
ATOM      3  C4  UNL d   1      -0.141  -4.493  -2.016  0.00  0.00     0.004 A 
ATOM      4  C5  UNL d   1      -1.380  -5.041  -1.685  0.00  0.00    -0.004 A 
ATOM      5  C6  UNL d   1      -2.272  -4.330  -0.875  0.00  0.00    -0.075 A 
ATOM      6  C7  UNL d   1      -3.608  -4.907  -0.507  0.00  0.00     0.076 C 
ATOM      7  C8  UNL d   1      -1.902  -3.066  -0.398  0.00  0.00     0.001 A 
ENDROOT
BRANCH   1   8
ATOM      8  C1  UNL d   1      -0.272  -1.145  -0.206  0.00  0.00     0.053 C 
ATOM      9  C   UNL d   1      -1.476  -0.373   0.311  0.00  0.00     0.018 C 
ENDBRANCH   1   8
TORSDOF 1
ENDMDL
