MODEL 1
REMARK minimizedAffinity 3.60604191
REMARK minimizedRMSD -1
REMARK  1 active torsions:
REMARK  status: ('A' for Active; 'I' for Inactive)
REMARK    1  A    between atoms: C1_2  and  C2_3 
ROOT
ATOM      1  C2  UNL d   1      -2.988  -4.483  -1.089  0.00  0.00    -0.073 A 
ATOM      2  C3  UNL d   1      -2.247  -4.856  -2.216  0.00  0.00    -0.002 A 
ATOM      3  C4  UNL d   1      -1.192  -4.060  -2.661  0.00  0.00     0.004 A 
ATOM      4  C5  UNL d   1      -0.862  -2.887  -1.981  0.00  0.00    -0.004 A 
ATOM      5  C6  UNL d   1      -1.583  -2.503  -0.846  0.00  0.00    -0.075 A 
ATOM      6  C7  UNL d   1      -1.243  -1.244  -0.105  0.00  0.00     0.076 C 
ATOM      7  C8  UNL d   1      -2.644  -3.307  -0.407  0.00  0.00     0.001 A 
ENDROOT
BRANCH   1   8
ATOM      8  C1  UNL d   1      -4.125  -5.344  -0.601  0.00  0.00     0.053 C 
ATOM      9  C   UNL d   1      -3.811  -5.999   0.735  0.00  0.00     0.018 C 
ENDBRANCH   1   8
TORSDOF 1
ENDMDL
