MODEL 1
REMARK minimizedAffinity -5.94858074
REMARK minimizedRMSD -1
REMARK  1 active torsions:
REMARK  status: ('A' for Active; 'I' for Inactive)
REMARK    1  A    between atoms: C1_2  and  C2_3 
ROOT
ATOM      1  C2  UNL d   1       0.043   0.687   0.136  0.00  0.00    -0.073 A 
ATOM      2  C3  UNL d   1      -0.571   1.944   0.189  0.00  0.00    -0.002 A 
ATOM      3  C4  UNL d   1       0.195   3.095   0.379  0.00  0.00     0.004 A 
ATOM      4  C5  UNL d   1       1.581   3.002   0.511  0.00  0.00    -0.004 A 
ATOM      5  C6  UNL d   1       2.214   1.757   0.449  0.00  0.00    -0.075 A 
ATOM      6  C7  UNL d   1       3.703   1.640   0.592  0.00  0.00     0.076 C 
ATOM      7  C8  UNL d   1       1.437   0.605   0.261  0.00  0.00     0.001 A 
ENDROOT
BRANCH   1   8
ATOM      8  C1  UNL d   1      -0.779  -0.558  -0.075  0.00  0.00     0.053 C 
ATOM      9  C   UNL d   1       0.073  -1.817  -0.037  0.00  0.00     0.018 C 
ENDBRANCH   1   8
TORSDOF 1
ENDMDL
