MODEL 1
REMARK minimizedAffinity -3.87609911
REMARK minimizedRMSD -1
REMARK  1 active torsions:
REMARK  status: ('A' for Active; 'I' for Inactive)
REMARK    1  A    between atoms: C1_2  and  C2_3 
ROOT
ATOM      1  C2  UNL d   1       0.155  -1.385  -0.174  0.00  0.00    -0.073 A 
ATOM      2  C3  UNL d   1       1.452  -1.558   0.322  0.00  0.00    -0.002 A 
ATOM      3  C4  UNL d   1       2.204  -0.454   0.729  0.00  0.00     0.004 A 
ATOM      4  C5  UNL d   1       1.665   0.830   0.650  0.00  0.00    -0.004 A 
ATOM      5  C6  UNL d   1       0.366   1.021   0.168  0.00  0.00    -0.075 A 
ATOM      6  C7  UNL d   1      -0.227   2.396   0.074  0.00  0.00     0.076 C 
ATOM      7  C8  UNL d   1      -0.381  -0.091  -0.241  0.00  0.00     0.001 A 
ENDROOT
BRANCH   1   8
ATOM      8  C1  UNL d   1      -0.662  -2.574  -0.609  0.00  0.00     0.053 C 
ATOM      9  C   UNL d   1       0.003  -3.340  -1.741  0.00  0.00     0.018 C 
ENDBRANCH   1   8
TORSDOF 1
ENDMDL
