MODEL 1
REMARK minimizedAffinity -2.9280045
REMARK minimizedRMSD -1
REMARK  1 active torsions:
REMARK  status: ('A' for Active; 'I' for Inactive)
REMARK    1  A    between atoms: C1_2  and  C2_3 
ROOT
ATOM      1  C2  UNL d   1       0.032   1.960   0.308  0.00  0.00    -0.073 A 
ATOM      2  C3  UNL d   1       1.372   2.069  -0.083  0.00  0.00    -0.002 A 
ATOM      3  C4  UNL d   1       2.096   0.932  -0.442  0.00  0.00     0.004 A 
ATOM      4  C5  UNL d   1       1.488  -0.323  -0.421  0.00  0.00    -0.004 A 
ATOM      5  C6  UNL d   1       0.147  -0.451  -0.045  0.00  0.00    -0.075 A 
ATOM      6  C7  UNL d   1      -0.522  -1.794  -0.016  0.00  0.00     0.076 C 
ATOM      7  C8  UNL d   1      -0.573   0.696   0.316  0.00  0.00     0.001 A 
ENDROOT
BRANCH   1   8
ATOM      8  C1  UNL d   1      -0.755   3.187   0.690  0.00  0.00     0.053 C 
ATOM      9  C   UNL d   1      -0.741   3.428   2.191  0.00  0.00     0.018 C 
ENDBRANCH   1   8
TORSDOF 1
ENDMDL
