MODEL 1
REMARK minimizedAffinity -2.7183938
REMARK minimizedRMSD -1
REMARK  1 active torsions:
REMARK  status: ('A' for Active; 'I' for Inactive)
REMARK    1  A    between atoms: C1_2  and  C2_3 
ROOT
ATOM      1  C2  UNL d   1      -0.398  -1.578  -0.375  0.00  0.00    -0.073 A 
ATOM      2  C3  UNL d   1      -1.368  -0.786   0.250  0.00  0.00    -0.002 A 
ATOM      3  C4  UNL d   1      -1.076   0.530   0.613  0.00  0.00     0.004 A 
ATOM      4  C5  UNL d   1       0.183   1.068   0.348  0.00  0.00    -0.004 A 
ATOM      5  C6  UNL d   1       1.161   0.296  -0.287  0.00  0.00    -0.075 A 
ATOM      6  C7  UNL d   1       2.521   0.860  -0.577  0.00  0.00     0.076 C 
ATOM      7  C8  UNL d   1       0.862  -1.025  -0.646  0.00  0.00     0.001 A 
ENDROOT
BRANCH   1   8
ATOM      8  C1  UNL d   1      -0.711  -2.997  -0.775  0.00  0.00     0.053 C 
ATOM      9  C   UNL d   1      -0.591  -3.206  -2.276  0.00  0.00     0.018 C 
ENDBRANCH   1   8
TORSDOF 1
ENDMDL
