MODEL 1
REMARK minimizedAffinity -4.26377869
REMARK minimizedRMSD -1
REMARK  1 active torsions:
REMARK  status: ('A' for Active; 'I' for Inactive)
REMARK    1  A    between atoms: C1_2  and  C2_3 
ROOT
ATOM      1  C2  UNL d   1       3.200  -3.636   3.107  0.00  0.00    -0.073 A 
ATOM      2  C3  UNL d   1       3.735  -3.546   1.817  0.00  0.00    -0.002 A 
ATOM      3  C4  UNL d   1       3.101  -2.771   0.844  0.00  0.00     0.004 A 
ATOM      4  C5  UNL d   1       1.933  -2.075   1.153  0.00  0.00    -0.004 A 
ATOM      5  C6  UNL d   1       1.390  -2.143   2.440  0.00  0.00    -0.075 A 
ATOM      6  C7  UNL d   1       0.132  -1.402   2.787  0.00  0.00     0.076 C 
ATOM      7  C8  UNL d   1       2.030  -2.925   3.410  0.00  0.00     0.001 A 
ENDROOT
BRANCH   1   8
ATOM      8  C1  UNL d   1       3.884  -4.466   4.163  0.00  0.00     0.053 C 
ATOM      9  C   UNL d   1       4.077  -3.694   5.458  0.00  0.00     0.018 C 
ENDBRANCH   1   8
TORSDOF 1
ENDMDL
