MODEL 1
REMARK minimizedAffinity 2.65288758
REMARK minimizedRMSD -1
REMARK  1 active torsions:
REMARK  status: ('A' for Active; 'I' for Inactive)
REMARK    1  A    between atoms: C1_2  and  C2_3 
ROOT
ATOM      1  C2  UNL d   1       1.279  -0.436   0.774  0.00  0.00    -0.073 A 
ATOM      2  C3  UNL d   1       0.034   0.147   1.032  0.00  0.00    -0.002 A 
ATOM      3  C4  UNL d   1      -0.858  -0.458   1.919  0.00  0.00     0.004 A 
ATOM      4  C5  UNL d   1      -0.511  -1.647   2.561  0.00  0.00    -0.004 A 
ATOM      5  C6  UNL d   1       0.734  -2.239   2.325  0.00  0.00    -0.075 A 
ATOM      6  C7  UNL d   1       1.121  -3.519   3.006  0.00  0.00     0.076 C 
ATOM      7  C8  UNL d   1       1.622  -1.627   1.431  0.00  0.00     0.001 A 
ENDROOT
BRANCH   1   8
ATOM      8  C1  UNL d   1       2.248   0.217  -0.178  0.00  0.00     0.053 C 
ATOM      9  C   UNL d   1       1.571   0.656  -1.467  0.00  0.00     0.018 C 
ENDBRANCH   1   8
TORSDOF 1
ENDMDL
