MODEL 1
REMARK minimizedAffinity 14.0315094
REMARK minimizedRMSD -1
REMARK  1 active torsions:
REMARK  status: ('A' for Active; 'I' for Inactive)
REMARK    1  A    between atoms: C1_2  and  C2_3 
ROOT
ATOM      1  C2  UNL d   1      -1.356   3.339  -3.774  0.00  0.00    -0.073 A 
ATOM      2  C3  UNL d   1      -1.036   2.193  -4.511  0.00  0.00    -0.002 A 
ATOM      3  C4  UNL d   1      -0.194   2.282  -5.621  0.00  0.00     0.004 A 
ATOM      4  C5  UNL d   1       0.340   3.513  -6.000  0.00  0.00    -0.004 A 
ATOM      5  C6  UNL d   1       0.042   4.667  -5.268  0.00  0.00    -0.075 A 
ATOM      6  C7  UNL d   1       0.607   6.000  -5.664  0.00  0.00     0.076 C 
ATOM      7  C8  UNL d   1      -0.807   4.571  -4.157  0.00  0.00     0.001 A 
ENDROOT
BRANCH   1   8
ATOM      8  C1  UNL d   1      -2.260   3.247  -2.571  0.00  0.00     0.053 C 
ATOM      9  C   UNL d   1      -3.714   3.045  -2.965  0.00  0.00     0.018 C 
ENDBRANCH   1   8
TORSDOF 1
ENDMDL
