MODEL 1
REMARK minimizedAffinity -4.18500757
REMARK minimizedRMSD -1
REMARK  1 active torsions:
REMARK  status: ('A' for Active; 'I' for Inactive)
REMARK    1  A    between atoms: C1_2  and  C2_3 
ROOT
ATOM      1  C2  UNL d   1       4.200  -3.647   2.922  0.00  0.00    -0.073 A 
ATOM      2  C3  UNL d   1       5.060  -4.099   1.915  0.00  0.00    -0.002 A 
ATOM      3  C4  UNL d   1       4.751  -3.879   0.572  0.00  0.00     0.004 A 
ATOM      4  C5  UNL d   1       3.584  -3.200   0.222  0.00  0.00    -0.004 A 
ATOM      5  C6  UNL d   1       2.718  -2.729   1.214  0.00  0.00    -0.075 A 
ATOM      6  C7  UNL d   1       1.457  -1.999   0.855  0.00  0.00     0.076 C 
ATOM      7  C8  UNL d   1       3.034  -2.956   2.561  0.00  0.00     0.001 A 
ENDROOT
BRANCH   1   8
ATOM      8  C1  UNL d   1       4.533  -3.876   4.373  0.00  0.00     0.053 C 
ATOM      9  C   UNL d   1       4.459  -2.592   5.185  0.00  0.00     0.018 C 
ENDBRANCH   1   8
TORSDOF 1
ENDMDL
