MODEL 1
REMARK minimizedAffinity 6.64113522
REMARK minimizedRMSD -1
REMARK  1 active torsions:
REMARK  status: ('A' for Active; 'I' for Inactive)
REMARK    1  A    between atoms: C1_2  and  C2_3 
ROOT
ATOM      1  C2  UNL d   1      -3.514  -0.528   1.182  0.00  0.00    -0.073 A 
ATOM      2  C3  UNL d   1      -3.428   0.418   2.210  0.00  0.00    -0.002 A 
ATOM      3  C4  UNL d   1      -2.191   0.952   2.575  0.00  0.00     0.004 A 
ATOM      4  C5  UNL d   1      -1.031   0.552   1.913  0.00  0.00    -0.004 A 
ATOM      5  C6  UNL d   1      -1.098  -0.383   0.875  0.00  0.00    -0.075 A 
ATOM      6  C7  UNL d   1       0.141  -0.826   0.154  0.00  0.00     0.076 C 
ATOM      7  C8  UNL d   1      -2.343  -0.917   0.516  0.00  0.00     0.001 A 
ENDROOT
BRANCH   1   8
ATOM      8  C1  UNL d   1      -4.848  -1.102   0.780  0.00  0.00     0.053 C 
ATOM      9  C   UNL d   1      -5.999  -0.447   1.527  0.00  0.00     0.018 C 
ENDBRANCH   1   8
TORSDOF 1
ENDMDL
