MODEL 1
REMARK minimizedAffinity -1.94074488
REMARK minimizedRMSD -1
REMARK  1 active torsions:
REMARK  status: ('A' for Active; 'I' for Inactive)
REMARK    1  A    between atoms: C1_2  and  C2_3 
ROOT
ATOM      1  C2  UNL d   1      -1.517   0.293  -1.432  0.00  0.00    -0.073 A 
ATOM      2  C3  UNL d   1      -2.304   0.151  -0.283  0.00  0.00    -0.002 A 
ATOM      3  C4  UNL d   1      -1.757  -0.383   0.884  0.00  0.00     0.004 A 
ATOM      4  C5  UNL d   1      -0.418  -0.774   0.917  0.00  0.00    -0.004 A 
ATOM      5  C6  UNL d   1       0.387  -0.629  -0.217  0.00  0.00    -0.075 A 
ATOM      6  C7  UNL d   1       1.828  -1.047  -0.198  0.00  0.00     0.076 C 
ATOM      7  C8  UNL d   1      -0.170  -0.094  -1.386  0.00  0.00     0.001 A 
ENDROOT
BRANCH   1   8
ATOM      8  C1  UNL d   1      -2.101   0.876  -2.693  0.00  0.00     0.053 C 
ATOM      9  C   UNL d   1      -1.823   2.366  -2.814  0.00  0.00     0.018 C 
ENDBRANCH   1   8
TORSDOF 1
ENDMDL
