MODEL 1
REMARK minimizedAffinity -0.65472734
REMARK minimizedRMSD -1
REMARK  1 active torsions:
REMARK  status: ('A' for Active; 'I' for Inactive)
REMARK    1  A    between atoms: C1_2  and  C2_3 
ROOT
ATOM      1  C2  UNL d   1       0.672  -1.180   1.618  0.00  0.00    -0.073 A 
ATOM      2  C3  UNL d   1       1.006  -0.335   0.554  0.00  0.00    -0.002 A 
ATOM      3  C4  UNL d   1       1.992  -0.710  -0.361  0.00  0.00     0.004 A 
ATOM      4  C5  UNL d   1       2.647  -1.934  -0.225  0.00  0.00    -0.004 A 
ATOM      5  C6  UNL d   1       2.318  -2.797   0.825  0.00  0.00    -0.075 A 
ATOM      6  C7  UNL d   1       3.014  -4.116   0.987  0.00  0.00     0.076 C 
ATOM      7  C8  UNL d   1       1.329  -2.412   1.741  0.00  0.00     0.001 A 
ENDROOT
BRANCH   1   8
ATOM      8  C1  UNL d   1      -0.396  -0.782   2.604  0.00  0.00     0.053 C 
ATOM      9  C   UNL d   1      -1.532  -0.022   1.939  0.00  0.00     0.018 C 
ENDBRANCH   1   8
TORSDOF 1
ENDMDL
