MODEL 1
REMARK minimizedAffinity 1.02660608
REMARK minimizedRMSD -1
REMARK  1 active torsions:
REMARK  status: ('A' for Active; 'I' for Inactive)
REMARK    1  A    between atoms: C1_2  and  C2_3 
ROOT
ATOM      1  C2  UNL d   1       1.545  -1.462   0.212  0.00  0.00    -0.073 A 
ATOM      2  C3  UNL d   1       2.191  -2.696   0.348  0.00  0.00    -0.002 A 
ATOM      3  C4  UNL d   1       1.887  -3.537   1.419  0.00  0.00     0.004 A 
ATOM      4  C5  UNL d   1       0.931  -3.156   2.361  0.00  0.00    -0.004 A 
ATOM      5  C6  UNL d   1       0.266  -1.932   2.236  0.00  0.00    -0.075 A 
ATOM      6  C7  UNL d   1      -0.764  -1.507   3.241  0.00  0.00     0.076 C 
ATOM      7  C8  UNL d   1       0.578  -1.093   1.158  0.00  0.00     0.001 A 
ENDROOT
BRANCH   1   8
ATOM      8  C1  UNL d   1       1.865  -0.554  -0.947  0.00  0.00     0.053 C 
ATOM      9  C   UNL d   1       3.013   0.391  -0.631  0.00  0.00     0.018 C 
ENDBRANCH   1   8
TORSDOF 1
ENDMDL
