MODEL 1
REMARK minimizedAffinity -2.52722859
REMARK minimizedRMSD -1
REMARK  0 active torsions:
REMARK  status: ('A' for Active; 'I' for Inactive)
ROOT
ATOM      1  C   UNL d   1      -0.637   0.830   0.238  0.00  0.00     0.020 A 
ATOM      2  C1  UNL d   1      -1.153   0.067   1.284  0.00  0.00     0.020 A 
ATOM      3  C2  UNL d   1      -0.883  -1.302   1.349  0.00  0.00     0.034 A 
ATOM      4  C3  UNL d   1      -0.096  -1.912   0.365  0.00  0.00     0.017 A 
ATOM      5  C4  UNL d   1       0.421  -1.144  -0.685  0.00  0.00     0.017 A 
ATOM      6  C5  UNL d   1       0.148   0.226  -0.745  0.00  0.00     0.034 A 
ATOM      7 Cl   UNL d   1       1.401  -1.826  -1.935  0.00  0.00    -0.070 Cl
ATOM      8 Cl1  UNL d   1       0.197  -3.608   0.508  0.00  0.00    -0.070 Cl
ENDROOT
TORSDOF 0
ENDMDL
