MODEL 1
REMARK minimizedAffinity -3.33263516
REMARK minimizedRMSD -1
REMARK  0 active torsions:
REMARK  status: ('A' for Active; 'I' for Inactive)
ROOT
ATOM      1  C   UNL d   1      -0.257  -3.861  -0.655  0.00  0.00     0.020 A 
ATOM      2  C1  UNL d   1       0.197  -3.346  -1.868  0.00  0.00     0.020 A 
ATOM      3  C2  UNL d   1       0.389  -1.971  -2.015  0.00  0.00     0.034 A 
ATOM      4  C3  UNL d   1       0.126  -1.106  -0.946  0.00  0.00     0.017 A 
ATOM      5  C4  UNL d   1      -0.330  -1.624   0.271  0.00  0.00     0.017 A 
ATOM      6  C5  UNL d   1      -0.520  -3.002   0.412  0.00  0.00     0.034 A 
ATOM      7 Cl   UNL d   1      -0.676  -0.620   1.635  0.00  0.00    -0.070 Cl
ATOM      8 Cl1  UNL d   1       0.385   0.584  -1.198  0.00  0.00    -0.070 Cl
ENDROOT
TORSDOF 0
ENDMDL
