MODEL 1
REMARK minimizedAffinity -3.42361522
REMARK minimizedRMSD -1
REMARK  0 active torsions:
REMARK  status: ('A' for Active; 'I' for Inactive)
ROOT
ATOM      1  C   UNL d   1      -1.288   0.091   1.389  0.00  0.00     0.020 A 
ATOM      2  C1  UNL d   1      -0.930   1.002   0.396  0.00  0.00     0.020 A 
ATOM      3  C2  UNL d   1      -0.283   0.557  -0.759  0.00  0.00     0.034 A 
ATOM      4  C3  UNL d   1       0.008  -0.802  -0.924  0.00  0.00     0.017 A 
ATOM      5  C4  UNL d   1      -0.352  -1.715   0.074  0.00  0.00     0.017 A 
ATOM      6  C5  UNL d   1      -0.999  -1.264   1.228  0.00  0.00     0.034 A 
ATOM      7 Cl   UNL d   1      -0.026  -3.407  -0.058  0.00  0.00    -0.070 Cl
ATOM      8 Cl1  UNL d   1       0.809  -1.281  -2.378  0.00  0.00    -0.070 Cl
ENDROOT
TORSDOF 0
ENDMDL
