MODEL 1
REMARK minimizedAffinity -3.87122059
REMARK minimizedRMSD -1
REMARK  0 active torsions:
REMARK  status: ('A' for Active; 'I' for Inactive)
ROOT
ATOM      1  C   UNL d   1       0.279   1.094  -0.667  0.00  0.00     0.020 A 
ATOM      2  C1  UNL d   1       0.827   0.036  -1.391  0.00  0.00     0.020 A 
ATOM      3  C2  UNL d   1       0.725  -1.270  -0.906  0.00  0.00     0.034 A 
ATOM      4  C3  UNL d   1       0.072  -1.521   0.306  0.00  0.00     0.017 A 
ATOM      5  C4  UNL d   1      -0.478  -0.458   1.032  0.00  0.00     0.017 A 
ATOM      6  C5  UNL d   1      -0.373   0.847   0.542  0.00  0.00     0.034 A 
ATOM      7 Cl   UNL d   1      -1.298  -0.690   2.536  0.00  0.00    -0.070 Cl
ATOM      8 Cl1  UNL d   1      -0.018  -3.160   0.846  0.00  0.00    -0.070 Cl
ENDROOT
TORSDOF 0
ENDMDL
