MODEL 1
REMARK minimizedAffinity -1.55036461
REMARK minimizedRMSD -1
REMARK  0 active torsions:
REMARK  status: ('A' for Active; 'I' for Inactive)
ROOT
ATOM      1  C   UNL d   1      -0.571  -3.082   0.605  0.00  0.00     0.020 A 
ATOM      2  C1  UNL d   1       0.621  -2.713  -0.019  0.00  0.00     0.020 A 
ATOM      3  C2  UNL d   1       0.984  -1.366  -0.090  0.00  0.00     0.034 A 
ATOM      4  C3  UNL d   1       0.155  -0.384   0.465  0.00  0.00     0.017 A 
ATOM      5  C4  UNL d   1      -1.040  -0.755   1.091  0.00  0.00     0.017 A 
ATOM      6  C5  UNL d   1      -1.399  -2.105   1.158  0.00  0.00     0.034 A 
ATOM      7 Cl   UNL d   1      -2.114   0.400   1.798  0.00  0.00    -0.070 Cl
ATOM      8 Cl1  UNL d   1       0.667   1.262   0.341  0.00  0.00    -0.070 Cl
ENDROOT
TORSDOF 0
ENDMDL
