MODEL 1
REMARK minimizedAffinity -3.06751466
REMARK minimizedRMSD -1
REMARK  0 active torsions:
REMARK  status: ('A' for Active; 'I' for Inactive)
ROOT
ATOM      1  C   UNL d   1      -0.133   1.292   0.285  0.00  0.00     0.020 A 
ATOM      2  C1  UNL d   1      -0.816   0.635   1.307  0.00  0.00     0.020 A 
ATOM      3  C2  UNL d   1      -0.772  -0.758   1.393  0.00  0.00     0.034 A 
ATOM      4  C3  UNL d   1      -0.043  -1.498   0.454  0.00  0.00     0.017 A 
ATOM      5  C4  UNL d   1       0.642  -0.837  -0.572  0.00  0.00     0.017 A 
ATOM      6  C5  UNL d   1       0.594   0.558  -0.652  0.00  0.00     0.034 A 
ATOM      7 Cl   UNL d   1       1.561  -1.682  -1.766  0.00  0.00    -0.070 Cl
ATOM      8 Cl1  UNL d   1      -0.033  -3.218   0.621  0.00  0.00    -0.070 Cl
ENDROOT
TORSDOF 0
ENDMDL
