MODEL 1
REMARK minimizedAffinity -4.34845018
REMARK minimizedRMSD -1
REMARK  0 active torsions:
REMARK  status: ('A' for Active; 'I' for Inactive)
ROOT
ATOM      1  C   UNL d   1       0.535   0.065  -1.776  0.00  0.00     0.020 A 
ATOM      2  C1  UNL d   1      -0.183   1.009  -1.042  0.00  0.00     0.020 A 
ATOM      3  C2  UNL d   1      -0.774   0.648   0.170  0.00  0.00     0.034 A 
ATOM      4  C3  UNL d   1      -0.649  -0.660   0.653  0.00  0.00     0.017 A 
ATOM      5  C4  UNL d   1       0.072  -1.607  -0.085  0.00  0.00     0.017 A 
ATOM      6  C5  UNL d   1       0.662  -1.240  -1.298  0.00  0.00     0.034 A 
ATOM      7 Cl   UNL d   1       0.270  -3.239   0.446  0.00  0.00    -0.070 Cl
ATOM      8 Cl1  UNL d   1      -1.406  -1.037   2.160  0.00  0.00    -0.070 Cl
ENDROOT
TORSDOF 0
ENDMDL
