MODEL 1
REMARK minimizedAffinity -3.96755385
REMARK minimizedRMSD -1
REMARK  0 active torsions:
REMARK  status: ('A' for Active; 'I' for Inactive)
ROOT
ATOM      1  C   UNL d   1       2.039   3.045   2.126  0.00  0.00     0.020 A 
ATOM      2  C1  UNL d   1       1.699   3.957   1.128  0.00  0.00     0.020 A 
ATOM      3  C2  UNL d   1       1.057   3.517  -0.031  0.00  0.00     0.034 A 
ATOM      4  C3  UNL d   1       0.753   2.160  -0.195  0.00  0.00     0.017 A 
ATOM      5  C4  UNL d   1       1.095   1.245   0.808  0.00  0.00     0.017 A 
ATOM      6  C5  UNL d   1       1.738   1.692   1.966  0.00  0.00     0.034 A 
ATOM      7 Cl   UNL d   1       0.752  -0.444   0.677  0.00  0.00    -0.070 Cl
ATOM      8 Cl1  UNL d   1      -0.043   1.686  -1.654  0.00  0.00    -0.070 Cl
ENDROOT
TORSDOF 0
ENDMDL
