MODEL 1
REMARK minimizedAffinity -1.09119618
REMARK minimizedRMSD -1
REMARK  0 active torsions:
REMARK  status: ('A' for Active; 'I' for Inactive)
ROOT
ATOM      1  C   UNL d   1      -0.528   0.725   0.487  0.00  0.00     0.020 A 
ATOM      2  C1  UNL d   1       0.066   1.213  -0.676  0.00  0.00     0.020 A 
ATOM      3  C2  UNL d   1       0.654   0.330  -1.584  0.00  0.00     0.034 A 
ATOM      4  C3  UNL d   1       0.650  -1.047  -1.329  0.00  0.00     0.017 A 
ATOM      5  C4  UNL d   1       0.054  -1.536  -0.161  0.00  0.00     0.017 A 
ATOM      6  C5  UNL d   1      -0.534  -0.646   0.744  0.00  0.00     0.034 A 
ATOM      7 Cl   UNL d   1       0.010  -3.220   0.222  0.00  0.00    -0.070 Cl
ATOM      8 Cl1  UNL d   1       1.395  -2.082  -2.495  0.00  0.00    -0.070 Cl
ENDROOT
TORSDOF 0
ENDMDL
