MODEL 1
REMARK minimizedAffinity -4.89931345
REMARK minimizedRMSD -1
REMARK  0 active torsions:
REMARK  status: ('A' for Active; 'I' for Inactive)
ROOT
ATOM      1  C   UNL d   1       0.594  -3.041  -1.062  0.00  0.00     0.020 A 
ATOM      2  C1  UNL d   1       0.318  -3.543   0.210  0.00  0.00     0.020 A 
ATOM      3  C2  UNL d   1      -0.200  -2.700   1.195  0.00  0.00     0.034 A 
ATOM      4  C3  UNL d   1      -0.445  -1.352   0.912  0.00  0.00     0.017 A 
ATOM      5  C4  UNL d   1      -0.167  -0.849  -0.365  0.00  0.00     0.017 A 
ATOM      6  C5  UNL d   1       0.352  -1.697  -1.348  0.00  0.00     0.034 A 
ATOM      7 Cl   UNL d   1      -0.443   0.804  -0.790  0.00  0.00    -0.070 Cl
ATOM      8 Cl1  UNL d   1      -1.087  -0.368   2.178  0.00  0.00    -0.070 Cl
ENDROOT
TORSDOF 0
ENDMDL
