MODEL 1
REMARK minimizedAffinity -1.7325182
REMARK minimizedRMSD -1
REMARK  0 active torsions:
REMARK  status: ('A' for Active; 'I' for Inactive)
ROOT
ATOM      1  C   UNL d   1      -0.879   0.463   0.115  0.00  0.00     0.020 A 
ATOM      2  C1  UNL d   1      -0.457   0.941  -1.125  0.00  0.00     0.020 A 
ATOM      3  C2  UNL d   1       0.298   0.123  -1.968  0.00  0.00     0.034 A 
ATOM      4  C3  UNL d   1       0.635  -1.177  -1.572  0.00  0.00     0.017 A 
ATOM      5  C4  UNL d   1       0.211  -1.655  -0.327  0.00  0.00     0.017 A 
ATOM      6  C5  UNL d   1      -0.545  -0.833   0.513  0.00  0.00     0.034 A 
ATOM      7 Cl   UNL d   1       0.587  -3.248   0.230  0.00  0.00    -0.070 Cl
ATOM      8 Cl1  UNL d   1       1.571  -2.132  -2.665  0.00  0.00    -0.070 Cl
ENDROOT
TORSDOF 0
ENDMDL
