MODEL 1
REMARK minimizedAffinity -3.27338028
REMARK minimizedRMSD -1
REMARK  0 active torsions:
REMARK  status: ('A' for Active; 'I' for Inactive)
ROOT
ATOM      1  C   UNL d   1      -0.416   1.204  -0.035  0.00  0.00     0.020 A 
ATOM      2  C1  UNL d   1      -0.919   0.529   1.076  0.00  0.00     0.020 A 
ATOM      3  C2  UNL d   1      -0.805  -0.860   1.160  0.00  0.00     0.034 A 
ATOM      4  C3  UNL d   1      -0.187  -1.579   0.130  0.00  0.00     0.017 A 
ATOM      5  C4  UNL d   1       0.317  -0.900  -0.986  0.00  0.00     0.017 A 
ATOM      6  C5  UNL d   1       0.201   0.491  -1.064  0.00  0.00     0.034 A 
ATOM      7 Cl   UNL d   1       1.093  -1.718  -2.296  0.00  0.00    -0.070 Cl
ATOM      8 Cl1  UNL d   1      -0.080  -3.295   0.299  0.00  0.00    -0.070 Cl
ENDROOT
TORSDOF 0
ENDMDL
