MODEL 1
REMARK minimizedAffinity -2.91965556
REMARK minimizedRMSD -1
REMARK  0 active torsions:
REMARK  status: ('A' for Active; 'I' for Inactive)
ROOT
ATOM      1  C   UNL d   1      -0.338   0.957  -0.759  0.00  0.00     0.020 A 
ATOM      2  C1  UNL d   1      -0.803   0.451   0.454  0.00  0.00     0.020 A 
ATOM      3  C2  UNL d   1      -0.685  -0.913   0.732  0.00  0.00     0.034 A 
ATOM      4  C3  UNL d   1      -0.100  -1.774  -0.203  0.00  0.00     0.017 A 
ATOM      5  C4  UNL d   1       0.367  -1.265  -1.420  0.00  0.00     0.017 A 
ATOM      6  C5  UNL d   1       0.246   0.101  -1.694  0.00  0.00     0.034 A 
ATOM      7 Cl   UNL d   1       1.101  -2.266  -2.623  0.00  0.00    -0.070 Cl
ATOM      8 Cl1  UNL d   1       0.014  -3.448   0.209  0.00  0.00    -0.070 Cl
ENDROOT
TORSDOF 0
ENDMDL
