MODEL 1
REMARK minimizedAffinity -2.86888695
REMARK minimizedRMSD -1
REMARK  0 active torsions:
REMARK  status: ('A' for Active; 'I' for Inactive)
ROOT
ATOM      1  C   UNL d   1      -1.144  -1.829   1.299  0.00  0.00     0.020 A 
ATOM      2  C1  UNL d   1      -1.227  -2.649   0.174  0.00  0.00     0.020 A 
ATOM      3  C2  UNL d   1      -0.793  -2.178  -1.067  0.00  0.00     0.034 A 
ATOM      4  C3  UNL d   1      -0.275  -0.883  -1.186  0.00  0.00     0.017 A 
ATOM      5  C4  UNL d   1      -0.192  -0.061  -0.056  0.00  0.00     0.017 A 
ATOM      6  C5  UNL d   1      -0.628  -0.538   1.184  0.00  0.00     0.034 A 
ATOM      7 Cl   UNL d   1       0.435   1.548  -0.125  0.00  0.00    -0.070 Cl
ATOM      8 Cl1  UNL d   1       0.243  -0.366  -2.751  0.00  0.00    -0.070 Cl
ENDROOT
TORSDOF 0
ENDMDL
