MODEL 1
REMARK minimizedAffinity -4.07659769
REMARK minimizedRMSD -1
REMARK  0 active torsions:
REMARK  status: ('A' for Active; 'I' for Inactive)
ROOT
ATOM      1  C   UNL d   1      -0.611   0.566   0.017  0.00  0.00     0.020 A 
ATOM      2  C1  UNL d   1      -1.011  -0.200   1.111  0.00  0.00     0.020 A 
ATOM      3  C2  UNL d   1      -0.727  -1.567   1.147  0.00  0.00     0.034 A 
ATOM      4  C3  UNL d   1      -0.042  -2.172   0.087  0.00  0.00     0.017 A 
ATOM      5  C4  UNL d   1       0.359  -1.401  -1.011  0.00  0.00     0.017 A 
ATOM      6  C5  UNL d   1       0.072  -0.033  -1.041  0.00  0.00     0.034 A 
ATOM      7 Cl   UNL d   1       1.208  -2.077  -2.356  0.00  0.00    -0.070 Cl
ATOM      8 Cl1  UNL d   1       0.275  -3.867   0.198  0.00  0.00    -0.070 Cl
ENDROOT
TORSDOF 0
ENDMDL
