MODEL 1
REMARK minimizedAffinity -3.84676814
REMARK minimizedRMSD -1
REMARK  0 active torsions:
REMARK  status: ('A' for Active; 'I' for Inactive)
ROOT
ATOM      1  C   UNL d   1      -0.972   0.687   0.972  0.00  0.00     0.020 A 
ATOM      2  C1  UNL d   1      -0.362   1.351  -0.091  0.00  0.00     0.020 A 
ATOM      3  C2  UNL d   1       0.353   0.628  -1.048  0.00  0.00     0.034 A 
ATOM      4  C3  UNL d   1       0.460  -0.764  -0.944  0.00  0.00     0.017 A 
ATOM      5  C4  UNL d   1      -0.153  -1.429   0.124  0.00  0.00     0.017 A 
ATOM      6  C5  UNL d   1      -0.867  -0.700   1.080  0.00  0.00     0.034 A 
ATOM      7 Cl   UNL d   1      -0.065  -3.144   0.321  0.00  0.00    -0.070 Cl
ATOM      8 Cl1  UNL d   1       1.359  -1.594  -2.163  0.00  0.00    -0.070 Cl
ENDROOT
TORSDOF 0
ENDMDL
