MODEL 1
REMARK minimizedAffinity -5.20514584
REMARK minimizedRMSD -1
REMARK  1 active torsions:
REMARK  status: ('A' for Active; 'I' for Inactive)
REMARK    1  A    between atoms: C1_2  and  C2_3 
ROOT
ATOM      1  C2  UNL d   1       1.535   0.455  -0.730  0.00  0.00    -0.077 A 
ATOM      2  C3  UNL d   1       1.733   1.267  -1.856  0.00  0.00     0.002 A 
ATOM      3  C4  UNL d   1       1.415   2.625  -1.813  0.00  0.00     0.002 A 
ATOM      4  C5  UNL d   1       0.901   3.185  -0.645  0.00  0.00    -0.004 A 
ATOM      5  C6  UNL d   1       0.699   2.386   0.480  0.00  0.00     0.002 A 
ATOM      6  C7  UNL d   1       1.015   1.028   0.438  0.00  0.00     0.002 A 
ENDROOT
BRANCH   1   7
ATOM      7  C1  UNL d   1       1.924  -1.000  -0.760  0.00  0.00     0.055 C 
ATOM      8  C   UNL d   1       0.722  -1.889  -1.041  0.00  0.00     0.019 C 
ENDBRANCH   1   7
TORSDOF 1
ENDMDL
