MODEL 1
REMARK minimizedAffinity -0.872577548
REMARK minimizedRMSD -1
REMARK  1 active torsions:
REMARK  status: ('A' for Active; 'I' for Inactive)
REMARK    1  A    between atoms: C1_2  and  C2_3 
ROOT
ATOM      1  C2  UNL d   1       0.995   2.305   0.394  0.00  0.00    -0.077 A 
ATOM      2  C3  UNL d   1       1.476   1.205   1.118  0.00  0.00     0.002 A 
ATOM      3  C4  UNL d   1       1.782   0.009   0.465  0.00  0.00     0.002 A 
ATOM      4  C5  UNL d   1       1.614  -0.096  -0.914  0.00  0.00    -0.004 A 
ATOM      5  C6  UNL d   1       1.135   0.991  -1.642  0.00  0.00     0.002 A 
ATOM      6  C7  UNL d   1       0.827   2.187  -0.991  0.00  0.00     0.002 A 
ENDROOT
BRANCH   1   7
ATOM      7  C1  UNL d   1       0.711   3.611   1.089  0.00  0.00     0.055 C 
ATOM      8  C   UNL d   1       1.081   4.797   0.210  0.00  0.00     0.019 C 
ENDBRANCH   1   7
TORSDOF 1
ENDMDL
