MODEL 1
REMARK minimizedAffinity -1.95298815
REMARK minimizedRMSD -1
REMARK  1 active torsions:
REMARK  status: ('A' for Active; 'I' for Inactive)
REMARK    1  A    between atoms: C1_2  and  C2_3 
ROOT
ATOM      1  C2  UNL d   1       0.847   1.271   0.200  0.00  0.00    -0.077 A 
ATOM      2  C3  UNL d   1       0.764  -0.121   0.054  0.00  0.00     0.002 A 
ATOM      3  C4  UNL d   1       0.923  -0.709  -1.202  0.00  0.00     0.002 A 
ATOM      4  C5  UNL d   1       1.169   0.085  -2.320  0.00  0.00    -0.004 A 
ATOM      5  C6  UNL d   1       1.251   1.470  -2.185  0.00  0.00     0.002 A 
ATOM      6  C7  UNL d   1       1.091   2.061  -0.930  0.00  0.00     0.002 A 
ENDROOT
BRANCH   1   7
ATOM      7  C1  UNL d   1       0.724   1.904   1.562  0.00  0.00     0.055 C 
ATOM      8  C   UNL d   1       1.471   3.229   1.625  0.00  0.00     0.019 C 
ENDBRANCH   1   7
TORSDOF 1
ENDMDL
