MODEL 1
REMARK minimizedAffinity -2.08862209
REMARK minimizedRMSD -1
REMARK  1 active torsions:
REMARK  status: ('A' for Active; 'I' for Inactive)
REMARK    1  A    between atoms: C1_2  and  C2_3 
ROOT
ATOM      1  C2  UNL d   1       0.769   1.892  -0.092  0.00  0.00    -0.077 A 
ATOM      2  C3  UNL d   1       1.158   0.618   0.346  0.00  0.00     0.002 A 
ATOM      3  C4  UNL d   1       1.619  -0.332  -0.567  0.00  0.00     0.002 A 
ATOM      4  C5  UNL d   1       1.699  -0.018  -1.922  0.00  0.00    -0.004 A 
ATOM      5  C6  UNL d   1       1.312   1.245  -2.368  0.00  0.00     0.002 A 
ATOM      6  C7  UNL d   1       0.850   2.196  -1.457  0.00  0.00     0.002 A 
ENDROOT
BRANCH   1   7
ATOM      7  C1  UNL d   1       0.319   2.935   0.897  0.00  0.00     0.055 C 
ATOM      8  C   UNL d   1       1.058   4.249   0.691  0.00  0.00     0.019 C 
ENDBRANCH   1   7
TORSDOF 1
ENDMDL
