MODEL 1
REMARK minimizedAffinity -1.00984049
REMARK minimizedRMSD -1
REMARK  1 active torsions:
REMARK  status: ('A' for Active; 'I' for Inactive)
REMARK    1  A    between atoms: C1_2  and  C2_3 
ROOT
ATOM      1  C2  UNL d   1       1.037   2.416  -0.979  0.00  0.00    -0.077 A 
ATOM      2  C3  UNL d   1       1.504   2.386   0.342  0.00  0.00     0.002 A 
ATOM      3  C4  UNL d   1       1.599   1.175   1.031  0.00  0.00     0.002 A 
ATOM      4  C5  UNL d   1       1.233  -0.015   0.405  0.00  0.00    -0.004 A 
ATOM      5  C6  UNL d   1       0.765   0.004  -0.908  0.00  0.00     0.002 A 
ATOM      6  C7  UNL d   1       0.668   1.214  -1.597  0.00  0.00     0.002 A 
ENDROOT
BRANCH   1   7
ATOM      7  C1  UNL d   1       0.980   3.715  -1.740  0.00  0.00     0.055 C 
ATOM      8  C   UNL d   1       1.481   4.875  -0.892  0.00  0.00     0.019 C 
ENDBRANCH   1   7
TORSDOF 1
ENDMDL
