MODEL 1
REMARK minimizedAffinity 3.75143909
REMARK minimizedRMSD -1
REMARK  1 active torsions:
REMARK  status: ('A' for Active; 'I' for Inactive)
REMARK    1  A    between atoms: C1_2  and  C2_3 
ROOT
ATOM      1  C2  UNL d   1       1.427   1.721  -1.244  0.00  0.00    -0.077 A 
ATOM      2  C3  UNL d   1       1.024   2.212   0.006  0.00  0.00     0.002 A 
ATOM      3  C4  UNL d   1       0.901   1.349   1.097  0.00  0.00     0.002 A 
ATOM      4  C5  UNL d   1       1.182  -0.007   0.951  0.00  0.00    -0.004 A 
ATOM      5  C6  UNL d   1       1.581  -0.506  -0.289  0.00  0.00     0.002 A 
ATOM      6  C7  UNL d   1       1.704   0.354  -1.381  0.00  0.00     0.002 A 
ENDROOT
BRANCH   1   7
ATOM      7  C1  UNL d   1       1.608   2.657  -2.410  0.00  0.00     0.055 C 
ATOM      8  C   UNL d   1       1.032   4.033  -2.109  0.00  0.00     0.019 C 
ENDBRANCH   1   7
TORSDOF 1
ENDMDL
