MODEL 1
REMARK minimizedAffinity -0.415051609
REMARK minimizedRMSD -1
REMARK  1 active torsions:
REMARK  status: ('A' for Active; 'I' for Inactive)
REMARK    1  A    between atoms: C1_2  and  C2_3 
ROOT
ATOM      1  C2  UNL d   1       0.802   1.990  -0.180  0.00  0.00    -0.077 A 
ATOM      2  C3  UNL d   1       1.029   0.648   0.156  0.00  0.00     0.002 A 
ATOM      3  C4  UNL d   1       1.608  -0.223  -0.768  0.00  0.00     0.002 A 
ATOM      4  C5  UNL d   1       1.969   0.238  -2.032  0.00  0.00    -0.004 A 
ATOM      5  C6  UNL d   1       1.746   1.570  -2.377  0.00  0.00     0.002 A 
ATOM      6  C7  UNL d   1       1.166   2.443  -1.455  0.00  0.00     0.002 A 
ENDROOT
BRANCH   1   7
ATOM      7  C1  UNL d   1       0.223   2.944   0.832  0.00  0.00     0.055 C 
ATOM      8  C   UNL d   1       0.721   4.363   0.603  0.00  0.00     0.019 C 
ENDBRANCH   1   7
TORSDOF 1
ENDMDL
