MODEL 1
REMARK minimizedAffinity 0.154287532
REMARK minimizedRMSD -1
REMARK  1 active torsions:
REMARK  status: ('A' for Active; 'I' for Inactive)
REMARK    1  A    between atoms: C1_2  and  C2_3 
ROOT
ATOM      1  C2  UNL d   1       0.706   1.883  -1.144  0.00  0.00    -0.077 A 
ATOM      2  C3  UNL d   1       1.185   2.268   0.116  0.00  0.00     0.002 A 
ATOM      3  C4  UNL d   1       1.524   1.303   1.067  0.00  0.00     0.002 A 
ATOM      4  C5  UNL d   1       1.391  -0.051   0.767  0.00  0.00    -0.004 A 
ATOM      5  C6  UNL d   1       0.913  -0.443  -0.483  0.00  0.00     0.002 A 
ATOM      6  C7  UNL d   1       0.573   0.519  -1.434  0.00  0.00     0.002 A 
ENDROOT
BRANCH   1   7
ATOM      7  C1  UNL d   1       0.387   2.921  -2.189  0.00  0.00     0.055 C 
ATOM      8  C   UNL d   1       1.072   4.244  -1.881  0.00  0.00     0.019 C 
ENDBRANCH   1   7
TORSDOF 1
ENDMDL
