MODEL 1
REMARK minimizedAffinity 1.42036235
REMARK minimizedRMSD -1
REMARK  1 active torsions:
REMARK  status: ('A' for Active; 'I' for Inactive)
REMARK    1  A    between atoms: C1_2  and  C2_3 
ROOT
ATOM      1  C2  UNL d   1      -2.528   1.283   4.333  0.00  0.00    -0.077 A 
ATOM      2  C3  UNL d   1      -3.475   0.645   3.520  0.00  0.00     0.002 A 
ATOM      3  C4  UNL d   1      -3.826   1.190   2.283  0.00  0.00     0.002 A 
ATOM      4  C5  UNL d   1      -3.231   2.372   1.847  0.00  0.00    -0.004 A 
ATOM      5  C6  UNL d   1      -2.289   3.015   2.650  0.00  0.00     0.002 A 
ATOM      6  C7  UNL d   1      -1.939   2.473   3.887  0.00  0.00     0.002 A 
ENDROOT
BRANCH   1   7
ATOM      7  C1  UNL d   1      -2.113   0.670   5.645  0.00  0.00     0.055 C 
ATOM      8  C   UNL d   1      -2.986  -0.524   6.000  0.00  0.00     0.019 C 
ENDBRANCH   1   7
TORSDOF 1
ENDMDL
