MODEL 1
REMARK minimizedAffinity -3.01350498
REMARK minimizedRMSD -1
REMARK  2 active torsions:
REMARK  status: ('A' for Active; 'I' for Inactive)
REMARK    1  A    between atoms: C1_2  and  C2_3 
REMARK    2  A    between atoms: C2_3  and  C3_4 
ROOT
ATOM      1  C3  UNL d   1      -1.019  -0.087   1.246  0.00  0.00    -0.075 A 
ATOM      2  C4  UNL d   1      -0.481   0.997   0.536  0.00  0.00     0.002 A 
ATOM      3  C5  UNL d   1       0.626   0.821  -0.294  0.00  0.00     0.002 A 
ATOM      4  C6  UNL d   1       1.215  -0.436  -0.418  0.00  0.00    -0.004 A 
ATOM      5  C7  UNL d   1       0.699  -1.516   0.295  0.00  0.00     0.002 A 
ATOM      6  C8  UNL d   1      -0.411  -1.344   1.123  0.00  0.00     0.002 A 
ENDROOT
BRANCH   1   7
ATOM      7  C2  UNL d   1      -2.235   0.091   2.123  0.00  0.00     0.056 C 
BRANCH   7   8
ATOM      8  C1  UNL d   1      -3.564   0.065   1.360  0.00  0.00     0.007 C 
ATOM      9  C   UNL d   1      -4.136   1.452   1.103  0.00  0.00     0.009 C 
ENDBRANCH   7   8
ENDBRANCH   1   7
TORSDOF 2
ENDMDL
