MODEL 1
REMARK minimizedAffinity -4.33574772
REMARK minimizedRMSD -1
REMARK  2 active torsions:
REMARK  status: ('A' for Active; 'I' for Inactive)
REMARK    1  A    between atoms: C1_2  and  C2_3 
REMARK    2  A    between atoms: C2_3  and  C3_4 
ROOT
ATOM      1  C3  UNL d   1      -0.600   0.243   0.581  0.00  0.00    -0.075 A 
ATOM      2  C4  UNL d   1       0.130   1.420   0.360  0.00  0.00     0.002 A 
ATOM      3  C5  UNL d   1       0.993   1.524  -0.731  0.00  0.00     0.002 A 
ATOM      4  C6  UNL d   1       1.146   0.452  -1.607  0.00  0.00    -0.004 A 
ATOM      5  C7  UNL d   1       0.439  -0.728  -1.388  0.00  0.00     0.002 A 
ATOM      6  C8  UNL d   1      -0.429  -0.833  -0.300  0.00  0.00     0.002 A 
ENDROOT
BRANCH   1   7
ATOM      7  C2  UNL d   1      -1.558   0.135   1.743  0.00  0.00     0.056 C 
BRANCH   7   8
ATOM      8  C1  UNL d   1      -3.035   0.129   1.335  0.00  0.00     0.007 C 
ATOM      9  C   UNL d   1      -3.686   1.503   1.416  0.00  0.00     0.009 C 
ENDBRANCH   7   8
ENDBRANCH   1   7
TORSDOF 2
ENDMDL
