MODEL 1
REMARK minimizedAffinity -5.22415018
REMARK minimizedRMSD -1
REMARK  2 active torsions:
REMARK  status: ('A' for Active; 'I' for Inactive)
REMARK    1  A    between atoms: C1_2  and  C2_3 
REMARK    2  A    between atoms: C2_3  and  C3_4 
ROOT
ATOM      1  C3  UNL d   1       0.681  -0.546  -1.137  0.00  0.00    -0.075 A 
ATOM      2  C4  UNL d   1       0.683  -1.923  -0.869  0.00  0.00     0.002 A 
ATOM      3  C5  UNL d   1       1.392  -2.803  -1.687  0.00  0.00     0.002 A 
ATOM      4  C6  UNL d   1       2.098  -2.321  -2.787  0.00  0.00    -0.004 A 
ATOM      5  C7  UNL d   1       2.089  -0.957  -3.073  0.00  0.00     0.002 A 
ATOM      6  C8  UNL d   1       1.385  -0.074  -2.253  0.00  0.00     0.002 A 
ENDROOT
BRANCH   1   7
ATOM      7  C2  UNL d   1      -0.060   0.415  -0.239  0.00  0.00     0.056 C 
BRANCH   7   8
ATOM      8  C1  UNL d   1      -0.543  -0.206   1.076  0.00  0.00     0.007 C 
ATOM      9  C   UNL d   1      -1.965   0.196   1.443  0.00  0.00     0.009 C 
ENDBRANCH   7   8
ENDBRANCH   1   7
TORSDOF 2
ENDMDL
