MODEL 1
REMARK minimizedAffinity -5.69925022
REMARK minimizedRMSD -1
REMARK  2 active torsions:
REMARK  status: ('A' for Active; 'I' for Inactive)
REMARK    1  A    between atoms: C1_2  and  C2_3 
REMARK    2  A    between atoms: C2_3  and  C3_4 
ROOT
ATOM      1  C3  UNL d   1       0.868  -0.166  -0.835  0.00  0.00    -0.075 A 
ATOM      2  C4  UNL d   1       0.659  -1.534  -1.062  0.00  0.00     0.002 A 
ATOM      3  C5  UNL d   1       1.352  -2.199  -2.074  0.00  0.00     0.002 A 
ATOM      4  C6  UNL d   1       2.253  -1.504  -2.878  0.00  0.00    -0.004 A 
ATOM      5  C7  UNL d   1       2.456  -0.141  -2.673  0.00  0.00     0.002 A 
ATOM      6  C8  UNL d   1       1.767   0.526  -1.658  0.00  0.00     0.002 A 
ENDROOT
BRANCH   1   7
ATOM      7  C2  UNL d   1       0.143   0.553   0.277  0.00  0.00     0.056 C 
BRANCH   7   8
ATOM      8  C1  UNL d   1      -0.468  -0.380   1.328  0.00  0.00     0.007 C 
ATOM      9  C   UNL d   1      -1.886   0.010   1.725  0.00  0.00     0.009 C 
ENDBRANCH   7   8
ENDBRANCH   1   7
TORSDOF 2
ENDMDL
