MODEL 1
REMARK minimizedAffinity -2.42367458
REMARK minimizedRMSD -1
REMARK  2 active torsions:
REMARK  status: ('A' for Active; 'I' for Inactive)
REMARK    1  A    between atoms: C1_2  and  C2_3 
REMARK    2  A    between atoms: C2_3  and  C3_4 
ROOT
ATOM      1  C3  UNL d   1       0.352   0.014   0.093  0.00  0.00    -0.075 A 
ATOM      2  C4  UNL d   1       1.453   0.877  -0.004  0.00  0.00     0.002 A 
ATOM      3  C5  UNL d   1       2.199   0.944  -1.181  0.00  0.00     0.002 A 
ATOM      4  C6  UNL d   1       1.860   0.145  -2.271  0.00  0.00    -0.004 A 
ATOM      5  C7  UNL d   1       0.778  -0.727  -2.180  0.00  0.00     0.002 A 
ATOM      6  C8  UNL d   1       0.027  -0.794  -1.005  0.00  0.00     0.002 A 
ENDROOT
BRANCH   1   7
ATOM      7  C2  UNL d   1      -0.477  -0.042   1.354  0.00  0.00     0.056 C 
BRANCH   7   8
ATOM      8  C1  UNL d   1      -1.987  -0.122   1.105  0.00  0.00     0.007 C 
ATOM      9  C   UNL d   1      -2.778   0.932   1.868  0.00  0.00     0.009 C 
ENDBRANCH   7   8
ENDBRANCH   1   7
TORSDOF 2
ENDMDL
