MODEL 1
REMARK minimizedAffinity -2.13957119
REMARK minimizedRMSD -1
REMARK  2 active torsions:
REMARK  status: ('A' for Active; 'I' for Inactive)
REMARK    1  A    between atoms: C1_2  and  C2_3 
REMARK    2  A    between atoms: C2_3  and  C3_4 
ROOT
ATOM      1  C3  UNL d   1       0.154  -0.585  -0.747  0.00  0.00    -0.075 A 
ATOM      2  C4  UNL d   1       1.042   0.500  -0.708  0.00  0.00     0.002 A 
ATOM      3  C5  UNL d   1       1.782   0.850  -1.838  0.00  0.00     0.002 A 
ATOM      4  C6  UNL d   1       1.651   0.116  -3.015  0.00  0.00    -0.004 A 
ATOM      5  C7  UNL d   1       0.784  -0.974  -3.059  0.00  0.00     0.002 A 
ATOM      6  C8  UNL d   1       0.039  -1.323  -1.932  0.00  0.00     0.002 A 
ENDROOT
BRANCH   1   7
ATOM      7  C2  UNL d   1      -0.672  -0.950   0.464  0.00  0.00     0.056 C 
BRANCH   7   8
ATOM      8  C1  UNL d   1      -1.303   0.252   1.175  0.00  0.00     0.007 C 
ATOM      9  C   UNL d   1      -2.825   0.209   1.189  0.00  0.00     0.009 C 
ENDBRANCH   7   8
ENDBRANCH   1   7
TORSDOF 2
ENDMDL
