MODEL 1
REMARK minimizedAffinity -5.48520947
REMARK minimizedRMSD -1
REMARK  2 active torsions:
REMARK  status: ('A' for Active; 'I' for Inactive)
REMARK    1  A    between atoms: C1_2  and  C2_3 
REMARK    2  A    between atoms: C2_3  and  C3_4 
ROOT
ATOM      1  C3  UNL d   1       0.808   0.003  -0.525  0.00  0.00    -0.075 A 
ATOM      2  C4  UNL d   1       0.567  -1.346  -0.823  0.00  0.00     0.002 A 
ATOM      3  C5  UNL d   1       1.108  -1.925  -1.971  0.00  0.00     0.002 A 
ATOM      4  C6  UNL d   1       1.886  -1.163  -2.839  0.00  0.00    -0.004 A 
ATOM      5  C7  UNL d   1       2.118   0.183  -2.561  0.00  0.00     0.002 A 
ATOM      6  C8  UNL d   1       1.582   0.764  -1.411  0.00  0.00     0.002 A 
ENDROOT
BRANCH   1   7
ATOM      7  C2  UNL d   1       0.250   0.629   0.731  0.00  0.00     0.056 C 
BRANCH   7   8
ATOM      8  C1  UNL d   1      -0.739  -0.265   1.487  0.00  0.00     0.007 C 
ATOM      9  C   UNL d   1      -1.932   0.498   2.048  0.00  0.00     0.009 C 
ENDBRANCH   7   8
ENDBRANCH   1   7
TORSDOF 2
ENDMDL
