MODEL 1
REMARK minimizedAffinity -4.0282712
REMARK minimizedRMSD -1
REMARK  2 active torsions:
REMARK  status: ('A' for Active; 'I' for Inactive)
REMARK    1  A    between atoms: C1_2  and  C2_3 
REMARK    2  A    between atoms: C2_3  and  C3_4 
ROOT
ATOM      1  C3  UNL d   1      -0.181  -0.199   0.680  0.00  0.00    -0.075 A 
ATOM      2  C4  UNL d   1       0.371   0.554  -0.367  0.00  0.00     0.002 A 
ATOM      3  C5  UNL d   1       0.881  -0.078  -1.502  0.00  0.00     0.002 A 
ATOM      4  C6  UNL d   1       0.856  -1.467  -1.600  0.00  0.00    -0.004 A 
ATOM      5  C7  UNL d   1       0.325  -2.226  -0.559  0.00  0.00     0.002 A 
ATOM      6  C8  UNL d   1      -0.190  -1.596   0.576  0.00  0.00     0.002 A 
ENDROOT
BRANCH   1   7
ATOM      7  C2  UNL d   1      -0.761   0.480   1.897  0.00  0.00     0.056 C 
BRANCH   7   8
ATOM      8  C1  UNL d   1      -2.293   0.482   1.940  0.00  0.00     0.007 C 
ATOM      9  C   UNL d   1      -2.883   1.843   2.285  0.00  0.00     0.009 C 
ENDBRANCH   7   8
ENDBRANCH   1   7
TORSDOF 2
ENDMDL
