MODEL 1
REMARK minimizedAffinity -5.41413975
REMARK minimizedRMSD -1
REMARK  2 active torsions:
REMARK  status: ('A' for Active; 'I' for Inactive)
REMARK    1  A    between atoms: C1_2  and  C2_3 
REMARK    2  A    between atoms: C2_3  and  C3_4 
ROOT
ATOM      1  C3  UNL d   1      -0.557   0.100   0.644  0.00  0.00    -0.075 A 
ATOM      2  C4  UNL d   1      -0.209   0.984  -0.387  0.00  0.00     0.002 A 
ATOM      3  C5  UNL d   1       0.509   0.533  -1.495  0.00  0.00     0.002 A 
ATOM      4  C6  UNL d   1       0.896  -0.803  -1.581  0.00  0.00    -0.004 A 
ATOM      5  C7  UNL d   1       0.569  -1.687  -0.555  0.00  0.00     0.002 A 
ATOM      6  C8  UNL d   1      -0.153  -1.239   0.553  0.00  0.00     0.002 A 
ENDROOT
BRANCH   1   7
ATOM      7  C2  UNL d   1      -1.360   0.576   1.831  0.00  0.00     0.056 C 
BRANCH   7   8
ATOM      8  C1  UNL d   1      -2.871   0.368   1.687  0.00  0.00     0.007 C 
ATOM      9  C   UNL d   1      -3.671   1.654   1.841  0.00  0.00     0.009 C 
ENDBRANCH   7   8
ENDBRANCH   1   7
TORSDOF 2
ENDMDL
