MODEL 1
REMARK minimizedAffinity -3.14276242
REMARK minimizedRMSD -1
REMARK  2 active torsions:
REMARK  status: ('A' for Active; 'I' for Inactive)
REMARK    1  A    between atoms: C1_2  and  C2_3 
REMARK    2  A    between atoms: C2_3  and  C3_4 
ROOT
ATOM      1  C3  UNL d   1       0.716  -0.549  -1.384  0.00  0.00    -0.075 A 
ATOM      2  C4  UNL d   1       0.090   0.395  -0.556  0.00  0.00     0.002 A 
ATOM      3  C5  UNL d   1      -0.373   0.031   0.709  0.00  0.00     0.002 A 
ATOM      4  C6  UNL d   1      -0.227  -1.280   1.156  0.00  0.00    -0.004 A 
ATOM      5  C7  UNL d   1       0.378  -2.230   0.336  0.00  0.00     0.002 A 
ATOM      6  C8  UNL d   1       0.847  -1.867  -0.929  0.00  0.00     0.002 A 
ENDROOT
BRANCH   1   7
ATOM      7  C2  UNL d   1       1.245  -0.154  -2.742  0.00  0.00     0.056 C 
BRANCH   7   8
ATOM      8  C1  UNL d   1       2.772  -0.041  -2.807  0.00  0.00     0.007 C 
ATOM      9  C   UNL d   1       3.377   0.632  -1.583  0.00  0.00     0.009 C 
ENDBRANCH   7   8
ENDBRANCH   1   7
TORSDOF 2
ENDMDL
