MODEL 1
REMARK minimizedAffinity -3.86757946
REMARK minimizedRMSD -1
REMARK  2 active torsions:
REMARK  status: ('A' for Active; 'I' for Inactive)
REMARK    1  A    between atoms: C1_2  and  C2_3 
REMARK    2  A    between atoms: C2_3  and  C3_4 
ROOT
ATOM      1  C3  UNL d   1       0.213  -0.011  -0.517  0.00  0.00    -0.075 A 
ATOM      2  C4  UNL d   1      -0.208  -0.602  -1.717  0.00  0.00     0.002 A 
ATOM      3  C5  UNL d   1       0.459  -0.332  -2.912  0.00  0.00     0.002 A 
ATOM      4  C6  UNL d   1       1.547   0.539  -2.925  0.00  0.00    -0.004 A 
ATOM      5  C7  UNL d   1       1.963   1.145  -1.742  0.00  0.00     0.002 A 
ATOM      6  C8  UNL d   1       1.300   0.873  -0.544  0.00  0.00     0.002 A 
ENDROOT
BRANCH   1   7
ATOM      7  C2  UNL d   1      -0.487  -0.322   0.784  0.00  0.00     0.056 C 
BRANCH   7   8
ATOM      8  C1  UNL d   1      -1.986  -0.605   0.635  0.00  0.00     0.007 C 
ATOM      9  C   UNL d   1      -2.864   0.453   1.289  0.00  0.00     0.009 C 
ENDBRANCH   7   8
ENDBRANCH   1   7
TORSDOF 2
ENDMDL
