MODEL 1
REMARK minimizedAffinity -4.76823711
REMARK minimizedRMSD -1
REMARK  0 active torsions:
REMARK  status: ('A' for Active; 'I' for Inactive)
ROOT
ATOM      1  C   UNL d   1      -0.806  -1.235   1.434  0.00  0.00     0.077 C 
ATOM      2  C1  UNL d   1      -0.283  -0.008   0.749  0.00  0.00    -0.074 A 
ATOM      3  C2  UNL d   1      -0.763   0.374  -0.508  0.00  0.00    -0.005 A 
ATOM      4  C3  UNL d   1      -0.274   1.524  -1.128  0.00  0.00     0.006 A 
ATOM      5  C4  UNL d   1       0.699   2.302  -0.499  0.00  0.00    -0.005 A 
ATOM      6  C5  UNL d   1       1.191   1.936   0.758  0.00  0.00    -0.074 A 
ATOM      7  C6  UNL d   1       2.229   2.767   1.452  0.00  0.00     0.077 C 
ATOM      8  C7  UNL d   1       0.689   0.784   1.378  0.00  0.00    -0.001 A 
ENDROOT
TORSDOF 0
ENDMDL
