MODEL 1
REMARK minimizedAffinity -0.998607874
REMARK minimizedRMSD -1
REMARK  0 active torsions:
REMARK  status: ('A' for Active; 'I' for Inactive)
ROOT
ATOM      1  C   UNL d   1      -1.467  -1.028   2.544  0.00  0.00     0.077 C 
ATOM      2  C1  UNL d   1      -0.700  -0.372   1.435  0.00  0.00    -0.074 A 
ATOM      3  C2  UNL d   1      -0.562  -0.994   0.190  0.00  0.00    -0.005 A 
ATOM      4  C3  UNL d   1       0.146  -0.367  -0.835  0.00  0.00     0.006 A 
ATOM      5  C4  UNL d   1       0.722   0.886  -0.626  0.00  0.00    -0.005 A 
ATOM      6  C5  UNL d   1       0.594   1.524   0.612  0.00  0.00    -0.074 A 
ATOM      7  C6  UNL d   1       1.199   2.876   0.850  0.00  0.00     0.077 C 
ATOM      8  C7  UNL d   1      -0.125   0.891   1.635  0.00  0.00    -0.001 A 
ENDROOT
TORSDOF 0
ENDMDL
