MODEL 1
REMARK minimizedAffinity -3.40172362
REMARK minimizedRMSD -1
REMARK  0 active torsions:
REMARK  status: ('A' for Active; 'I' for Inactive)
ROOT
ATOM      1  C   UNL d   1       1.444   2.912   1.154  0.00  0.00     0.077 C 
ATOM      2  C1  UNL d   1       0.466   1.776   1.130  0.00  0.00    -0.074 A 
ATOM      3  C2  UNL d   1      -0.474   1.615   2.154  0.00  0.00    -0.005 A 
ATOM      4  C3  UNL d   1      -1.384   0.559   2.113  0.00  0.00     0.006 A 
ATOM      5  C4  UNL d   1      -1.364  -0.346   1.051  0.00  0.00    -0.005 A 
ATOM      6  C5  UNL d   1      -0.432  -0.200   0.018  0.00  0.00    -0.074 A 
ATOM      7  C6  UNL d   1      -0.404  -1.158  -1.136  0.00  0.00     0.077 C 
ATOM      8  C7  UNL d   1       0.474   0.868   0.062  0.00  0.00    -0.001 A 
ENDROOT
TORSDOF 0
ENDMDL
