MODEL 1
REMARK minimizedAffinity -5.28074121
REMARK minimizedRMSD -1
REMARK  0 active torsions:
REMARK  status: ('A' for Active; 'I' for Inactive)
ROOT
ATOM      1  C   UNL d   1       2.340  -1.196  -1.375  0.00  0.00     0.077 C 
ATOM      2  C1  UNL d   1       1.330  -0.520  -0.496  0.00  0.00    -0.074 A 
ATOM      3  C2  UNL d   1       0.108  -1.132  -0.202  0.00  0.00    -0.005 A 
ATOM      4  C3  UNL d   1      -0.817  -0.496   0.626  0.00  0.00     0.006 A 
ATOM      5  C4  UNL d   1      -0.529   0.758   1.167  0.00  0.00    -0.005 A 
ATOM      6  C5  UNL d   1       0.688   1.386   0.885  0.00  0.00    -0.074 A 
ATOM      7  C6  UNL d   1       1.017   2.729   1.466  0.00  0.00     0.077 C 
ATOM      8  C7  UNL d   1       1.615   0.737   0.058  0.00  0.00    -0.001 A 
ENDROOT
TORSDOF 0
ENDMDL
