MODEL 1
REMARK minimizedAffinity -2.09491897
REMARK minimizedRMSD -1
REMARK  0 active torsions:
REMARK  status: ('A' for Active; 'I' for Inactive)
ROOT
ATOM      1  C   UNL d   1      -1.148  -0.363  -2.336  0.00  0.00     0.077 C 
ATOM      2  C1  UNL d   1      -0.522   0.314  -1.153  0.00  0.00    -0.074 A 
ATOM      3  C2  UNL d   1       0.520   1.232  -1.318  0.00  0.00    -0.005 A 
ATOM      4  C3  UNL d   1       1.086   1.861  -0.209  0.00  0.00     0.006 A 
ATOM      5  C4  UNL d   1       0.616   1.579   1.074  0.00  0.00    -0.005 A 
ATOM      6  C5  UNL d   1      -0.426   0.665   1.259  0.00  0.00    -0.074 A 
ATOM      7  C6  UNL d   1      -0.950   0.359   2.631  0.00  0.00     0.077 C 
ATOM      8  C7  UNL d   1      -0.994   0.042   0.139  0.00  0.00    -0.001 A 
ENDROOT
TORSDOF 0
ENDMDL
