MODEL 1
REMARK minimizedAffinity -2.17032909
REMARK minimizedRMSD -1
REMARK  0 active torsions:
REMARK  status: ('A' for Active; 'I' for Inactive)
ROOT
ATOM      1  C   UNL d   1      -0.835  -0.795   2.084  0.00  0.00     0.077 C 
ATOM      2  C1  UNL d   1      -0.143   0.286   1.308  0.00  0.00    -0.074 A 
ATOM      3  C2  UNL d   1      -0.330   1.634   1.630  0.00  0.00    -0.005 A 
ATOM      4  C3  UNL d   1       0.327   2.628   0.905  0.00  0.00     0.006 A 
ATOM      5  C4  UNL d   1       1.177   2.285  -0.148  0.00  0.00    -0.005 A 
ATOM      6  C5  UNL d   1       1.377   0.942  -0.484  0.00  0.00    -0.074 A 
ATOM      7  C6  UNL d   1       2.294   0.555  -1.605  0.00  0.00     0.077 C 
ATOM      8  C7  UNL d   1       0.718  -0.051   0.254  0.00  0.00    -0.001 A 
ENDROOT
TORSDOF 0
ENDMDL
