MODEL 1
REMARK minimizedAffinity -5.98984385
REMARK minimizedRMSD -1
REMARK  0 active torsions:
REMARK  status: ('A' for Active; 'I' for Inactive)
ROOT
ATOM      1  C   UNL d   1      -0.884   1.219   3.050  0.00  0.00     0.077 C 
ATOM      2  C1  UNL d   1      -0.110   1.072   1.774  0.00  0.00    -0.074 A 
ATOM      3  C2  UNL d   1       0.941   1.943   1.467  0.00  0.00    -0.005 A 
ATOM      4  C3  UNL d   1       1.658   1.789   0.280  0.00  0.00     0.006 A 
ATOM      5  C4  UNL d   1       1.332   0.765  -0.610  0.00  0.00    -0.005 A 
ATOM      6  C5  UNL d   1       0.284  -0.115  -0.320  0.00  0.00    -0.074 A 
ATOM      7  C6  UNL d   1      -0.073  -1.227  -1.261  0.00  0.00     0.077 C 
ATOM      8  C7  UNL d   1      -0.427   0.041   0.878  0.00  0.00    -0.001 A 
ENDROOT
TORSDOF 0
ENDMDL
