MODEL 1
REMARK minimizedAffinity -3.33145213
REMARK minimizedRMSD -1
REMARK  0 active torsions:
REMARK  status: ('A' for Active; 'I' for Inactive)
ROOT
ATOM      1  C   UNL d   1      -0.853   5.973  -4.522  0.00  0.00     0.077 C 
ATOM      2  C1  UNL d   1      -2.343   5.987  -4.354  0.00  0.00    -0.074 A 
ATOM      3  C2  UNL d   1      -3.192   5.982  -5.465  0.00  0.00    -0.005 A 
ATOM      4  C3  UNL d   1      -4.576   5.986  -5.293  0.00  0.00     0.006 A 
ATOM      5  C4  UNL d   1      -5.125   5.995  -4.010  0.00  0.00    -0.005 A 
ATOM      6  C5  UNL d   1      -4.292   5.999  -2.887  0.00  0.00    -0.074 A 
ATOM      7  C6  UNL d   1      -4.865   5.999  -1.501  0.00  0.00     0.077 C 
ATOM      8  C7  UNL d   1      -2.902   5.988  -3.068  0.00  0.00    -0.001 A 
ENDROOT
TORSDOF 0
ENDMDL
