MODEL 1
REMARK minimizedAffinity -3.94473553
REMARK minimizedRMSD -1
REMARK  0 active torsions:
REMARK  status: ('A' for Active; 'I' for Inactive)
ROOT
ATOM      1  C   UNL d   1       3.126   0.397  -0.190  0.00  0.00     0.077 C 
ATOM      2  C1  UNL d   1       1.707   0.427   0.295  0.00  0.00    -0.074 A 
ATOM      3  C2  UNL d   1       1.336   1.223   1.384  0.00  0.00    -0.005 A 
ATOM      4  C3  UNL d   1       0.011   1.248   1.818  0.00  0.00     0.006 A 
ATOM      5  C4  UNL d   1      -0.956   0.478   1.168  0.00  0.00    -0.005 A 
ATOM      6  C5  UNL d   1      -0.604  -0.323   0.077  0.00  0.00    -0.074 A 
ATOM      7  C6  UNL d   1      -1.632  -1.148  -0.638  0.00  0.00     0.077 C 
ATOM      8  C7  UNL d   1       0.729  -0.337  -0.357  0.00  0.00    -0.001 A 
ENDROOT
TORSDOF 0
ENDMDL
