MODEL 1
REMARK minimizedAffinity -4.88234901
REMARK minimizedRMSD -1
REMARK  0 active torsions:
REMARK  status: ('A' for Active; 'I' for Inactive)
ROOT
ATOM      1  C   UNL d   1       2.420  -1.150  -0.868  0.00  0.00     0.077 C 
ATOM      2  C1  UNL d   1       1.413  -0.357  -0.089  0.00  0.00    -0.074 A 
ATOM      3  C2  UNL d   1       0.317  -0.982   0.515  0.00  0.00    -0.005 A 
ATOM      4  C3  UNL d   1      -0.606  -0.233   1.245  0.00  0.00     0.006 A 
ATOM      5  C4  UNL d   1      -0.443   1.146   1.377  0.00  0.00    -0.005 A 
ATOM      6  C5  UNL d   1       0.646   1.789   0.781  0.00  0.00    -0.074 A 
ATOM      7  C6  UNL d   1       0.841   3.269   0.922  0.00  0.00     0.077 C 
ATOM      8  C7  UNL d   1       1.574   1.028   0.056  0.00  0.00    -0.001 A 
ENDROOT
TORSDOF 0
ENDMDL
