MODEL 1
REMARK minimizedAffinity -5.70880604
REMARK minimizedRMSD -1
REMARK  0 active torsions:
REMARK  status: ('A' for Active; 'I' for Inactive)
ROOT
ATOM      1  C   UNL d   1       3.701  -0.346  -0.880  0.00  0.00     0.077 C 
ATOM      2  C1  UNL d   1       2.371   0.015  -0.288  0.00  0.00    -0.074 A 
ATOM      3  C2  UNL d   1       1.248  -0.790  -0.501  0.00  0.00    -0.005 A 
ATOM      4  C3  UNL d   1       0.020  -0.447   0.064  0.00  0.00     0.006 A 
ATOM      5  C4  UNL d   1      -0.097   0.703   0.845  0.00  0.00    -0.005 A 
ATOM      6  C5  UNL d   1       1.015   1.520   1.069  0.00  0.00    -0.074 A 
ATOM      7  C6  UNL d   1       0.909   2.755   1.915  0.00  0.00     0.077 C 
ATOM      8  C7  UNL d   1       2.248   1.165   0.504  0.00  0.00    -0.001 A 
ENDROOT
TORSDOF 0
ENDMDL
