MODEL 1
REMARK minimizedAffinity -4.99317217
REMARK minimizedRMSD -1
REMARK  0 active torsions:
REMARK  status: ('A' for Active; 'I' for Inactive)
ROOT
ATOM      1  C   UNL d   1      -0.410  -1.430  -0.584  0.00  0.00     0.077 C 
ATOM      2  C1  UNL d   1       0.376  -0.318   0.045  0.00  0.00    -0.074 A 
ATOM      3  C2  UNL d   1      -0.264   0.707   0.749  0.00  0.00    -0.005 A 
ATOM      4  C3  UNL d   1       0.481   1.729   1.337  0.00  0.00     0.006 A 
ATOM      5  C4  UNL d   1       1.872   1.737   1.227  0.00  0.00    -0.005 A 
ATOM      6  C5  UNL d   1       2.530   0.720   0.528  0.00  0.00    -0.074 A 
ATOM      7  C6  UNL d   1       4.025   0.708   0.408  0.00  0.00     0.077 C 
ATOM      8  C7  UNL d   1       1.775  -0.308  -0.054  0.00  0.00    -0.001 A 
ENDROOT
TORSDOF 0
ENDMDL
