MODEL 1
REMARK minimizedAffinity -4.07530737
REMARK minimizedRMSD -1
REMARK  0 active torsions:
REMARK  status: ('A' for Active; 'I' for Inactive)
ROOT
ATOM      1  C   UNL d   1      -0.292  -1.156  -0.432  0.00  0.00     0.077 C 
ATOM      2  C1  UNL d   1      -1.455  -1.335  -1.362  0.00  0.00    -0.074 A 
ATOM      3  C2  UNL d   1      -1.326  -1.079  -2.731  0.00  0.00    -0.005 A 
ATOM      4  C3  UNL d   1      -2.413  -1.259  -3.586  0.00  0.00     0.006 A 
ATOM      5  C4  UNL d   1      -3.638  -1.697  -3.082  0.00  0.00    -0.005 A 
ATOM      6  C5  UNL d   1      -3.786  -1.959  -1.716  0.00  0.00    -0.074 A 
ATOM      7  C6  UNL d   1      -5.093  -2.440  -1.159  0.00  0.00     0.077 C 
ATOM      8  C7  UNL d   1      -2.687  -1.782  -0.865  0.00  0.00    -0.001 A 
ENDROOT
TORSDOF 0
ENDMDL
