MODEL 1
REMARK minimizedAffinity -2.71647382
REMARK minimizedRMSD -1
REMARK  0 active torsions:
REMARK  status: ('A' for Active; 'I' for Inactive)
ROOT
ATOM      1  C   UNL d   1      -0.537  -1.409  -0.463  0.00  0.00     0.077 C 
ATOM      2  C1  UNL d   1       0.291  -0.387   0.259  0.00  0.00    -0.074 A 
ATOM      3  C2  UNL d   1      -0.270   0.419   1.255  0.00  0.00    -0.005 A 
ATOM      4  C3  UNL d   1       0.515   1.358   1.924  0.00  0.00     0.006 A 
ATOM      5  C4  UNL d   1       1.866   1.500   1.605  0.00  0.00    -0.005 A 
ATOM      6  C5  UNL d   1       2.445   0.702   0.613  0.00  0.00    -0.074 A 
ATOM      7  C6  UNL d   1       3.897   0.835   0.265  0.00  0.00     0.077 C 
ATOM      8  C7  UNL d   1       1.651  -0.244  -0.050  0.00  0.00    -0.001 A 
ENDROOT
TORSDOF 0
ENDMDL
