MODEL 1
REMARK minimizedAffinity -3.65283585
REMARK minimizedRMSD -1
REMARK  0 active torsions:
REMARK  status: ('A' for Active; 'I' for Inactive)
ROOT
ATOM      1  C   UNL d   1       0.317   3.230   0.801  0.00  0.00     0.077 C 
ATOM      2  C1  UNL d   1       0.348   1.730   0.777  0.00  0.00    -0.074 A 
ATOM      3  C2  UNL d   1      -0.650   0.980   1.408  0.00  0.00    -0.005 A 
ATOM      4  C3  UNL d   1      -0.613  -0.413   1.369  0.00  0.00     0.006 A 
ATOM      5  C4  UNL d   1       0.420  -1.070   0.700  0.00  0.00    -0.005 A 
ATOM      6  C5  UNL d   1       1.426  -0.337   0.062  0.00  0.00    -0.074 A 
ATOM      7  C6  UNL d   1       2.538  -1.027  -0.671  0.00  0.00     0.077 C 
ATOM      8  C7  UNL d   1       1.378   1.063   0.100  0.00  0.00    -0.001 A 
ENDROOT
TORSDOF 0
ENDMDL
