MODEL 1
REMARK minimizedAffinity -4.66694355
REMARK minimizedRMSD -1
REMARK  0 active torsions:
REMARK  status: ('A' for Active; 'I' for Inactive)
ROOT
ATOM      1  C   UNL d   1       1.773   2.995   1.276  0.00  0.00     0.077 C 
ATOM      2  C1  UNL d   1       1.101   1.712   0.888  0.00  0.00    -0.074 A 
ATOM      3  C2  UNL d   1       1.390   1.088  -0.330  0.00  0.00    -0.005 A 
ATOM      4  C3  UNL d   1       0.764  -0.111  -0.672  0.00  0.00     0.006 A 
ATOM      5  C4  UNL d   1      -0.156  -0.697   0.199  0.00  0.00    -0.005 A 
ATOM      6  C5  UNL d   1      -0.457  -0.088   1.421  0.00  0.00    -0.074 A 
ATOM      7  C6  UNL d   1      -1.435  -0.710   2.373  0.00  0.00     0.077 C 
ATOM      8  C7  UNL d   1       0.182   1.112   1.761  0.00  0.00    -0.001 A 
ENDROOT
TORSDOF 0
ENDMDL
