MODEL 1
REMARK minimizedAffinity -4.18501902
REMARK minimizedRMSD -1
REMARK  0 active torsions:
REMARK  status: ('A' for Active; 'I' for Inactive)
ROOT
ATOM      1  C   UNL d   1      -4.206  -2.929  -0.782  0.00  0.00     0.077 C 
ATOM      2  C1  UNL d   1      -3.113  -2.060  -1.330  0.00  0.00    -0.074 A 
ATOM      3  C2  UNL d   1      -3.080  -1.715  -2.685  0.00  0.00    -0.005 A 
ATOM      4  C3  UNL d   1      -2.063  -0.899  -3.178  0.00  0.00     0.006 A 
ATOM      5  C4  UNL d   1      -1.070  -0.420  -2.323  0.00  0.00    -0.005 A 
ATOM      6  C5  UNL d   1      -1.087  -0.753  -0.965  0.00  0.00    -0.074 A 
ATOM      7  C6  UNL d   1      -0.032  -0.239  -0.031  0.00  0.00     0.077 C 
ATOM      8  C7  UNL d   1      -2.116  -1.569  -0.476  0.00  0.00    -0.001 A 
ENDROOT
TORSDOF 0
ENDMDL
