MODEL 1
REMARK minimizedAffinity -3.76619959
REMARK minimizedRMSD -1
REMARK  0 active torsions:
REMARK  status: ('A' for Active; 'I' for Inactive)
ROOT
ATOM      1  C   UNL d   1       2.140  -1.116  -1.324  0.00  0.00     0.077 C 
ATOM      2  C1  UNL d   1       1.299  -0.351  -0.345  0.00  0.00    -0.074 A 
ATOM      3  C2  UNL d   1       0.080  -0.864   0.110  0.00  0.00    -0.005 A 
ATOM      4  C3  UNL d   1      -0.687  -0.146   1.028  0.00  0.00     0.006 A 
ATOM      5  C4  UNL d   1      -0.243   1.090   1.500  0.00  0.00    -0.005 A 
ATOM      6  C5  UNL d   1       0.974   1.618   1.057  0.00  0.00    -0.074 A 
ATOM      7  C6  UNL d   1       1.471   2.941   1.562  0.00  0.00     0.077 C 
ATOM      8  C7  UNL d   1       1.742   0.888   0.140  0.00  0.00    -0.001 A 
ENDROOT
TORSDOF 0
ENDMDL
