MODEL 1
REMARK minimizedAffinity 12.5431194
REMARK minimizedRMSD -1
REMARK  0 active torsions:
REMARK  status: ('A' for Active; 'I' for Inactive)
ROOT
ATOM      1  C   UNL d   1      -5.972   3.471   2.865  0.00  0.00     0.077 C 
ATOM      2  C1  UNL d   1      -5.191   4.303   3.838  0.00  0.00    -0.074 A 
ATOM      3  C2  UNL d   1      -5.752   4.703   5.054  0.00  0.00    -0.005 A 
ATOM      4  C3  UNL d   1      -5.011   5.469   5.954  0.00  0.00     0.006 A 
ATOM      5  C4  UNL d   1      -3.702   5.842   5.646  0.00  0.00    -0.005 A 
ATOM      6  C5  UNL d   1      -3.123   5.451   4.434  0.00  0.00    -0.074 A 
ATOM      7  C6  UNL d   1      -1.714   5.836   4.092  0.00  0.00     0.077 C 
ATOM      8  C7  UNL d   1      -3.873   4.676   3.539  0.00  0.00    -0.001 A 
ENDROOT
TORSDOF 0
ENDMDL
