MODEL 1
REMARK minimizedAffinity 1.89958501
REMARK minimizedRMSD -1
REMARK  0 active torsions:
REMARK  status: ('A' for Active; 'I' for Inactive)
ROOT
ATOM      1  C   UNL d   1       2.529  -2.448   0.303  0.00  0.00     0.077 C 
ATOM      2  C1  UNL d   1       1.424  -1.609  -0.265  0.00  0.00    -0.074 A 
ATOM      3  C2  UNL d   1       1.395  -0.225  -0.063  0.00  0.00    -0.005 A 
ATOM      4  C3  UNL d   1       0.366   0.544  -0.605  0.00  0.00     0.006 A 
ATOM      5  C4  UNL d   1      -0.645  -0.062  -1.353  0.00  0.00    -0.005 A 
ATOM      6  C5  UNL d   1      -0.633  -1.444  -1.566  0.00  0.00    -0.074 A 
ATOM      7  C6  UNL d   1      -1.705  -2.110  -2.376  0.00  0.00     0.077 C 
ATOM      8  C7  UNL d   1       0.409  -2.209  -1.024  0.00  0.00    -0.001 A 
ENDROOT
TORSDOF 0
ENDMDL
