MODEL 1
REMARK minimizedAffinity 5.62047243
REMARK minimizedRMSD -1
REMARK  0 active torsions:
REMARK  status: ('A' for Active; 'I' for Inactive)
ROOT
ATOM      1  C   UNL d   1      -1.479  -3.277  -2.996  0.00  0.00     0.077 C 
ATOM      2  C1  UNL d   1      -0.798  -2.508  -1.904  0.00  0.00    -0.074 A 
ATOM      3  C2  UNL d   1      -1.515  -1.622  -1.094  0.00  0.00    -0.005 A 
ATOM      4  C3  UNL d   1      -0.870  -0.921  -0.075  0.00  0.00     0.006 A 
ATOM      5  C4  UNL d   1       0.497  -1.098   0.143  0.00  0.00    -0.005 A 
ATOM      6  C5  UNL d   1       1.230  -1.980  -0.656  0.00  0.00    -0.074 A 
ATOM      7  C6  UNL d   1       2.698  -2.190  -0.429  0.00  0.00     0.077 C 
ATOM      8  C7  UNL d   1       0.573  -2.687  -1.673  0.00  0.00    -0.001 A 
ENDROOT
TORSDOF 0
ENDMDL
