MODEL 1
REMARK minimizedAffinity 2.51465225
REMARK minimizedRMSD -1
REMARK  0 active torsions:
REMARK  status: ('A' for Active; 'I' for Inactive)
ROOT
ATOM      1  C   UNL d   1       3.037   1.142  -0.866  0.00  0.00     0.077 C 
ATOM      2  C1  UNL d   1       2.361  -0.196  -0.821  0.00  0.00    -0.074 A 
ATOM      3  C2  UNL d   1       3.082  -1.374  -1.039  0.00  0.00    -0.005 A 
ATOM      4  C3  UNL d   1       2.441  -2.612  -0.985  0.00  0.00     0.006 A 
ATOM      5  C4  UNL d   1       1.074  -2.683  -0.713  0.00  0.00    -0.005 A 
ATOM      6  C5  UNL d   1       0.337  -1.516  -0.492  0.00  0.00    -0.074 A 
ATOM      7  C6  UNL d   1      -1.131  -1.576  -0.189  0.00  0.00     0.077 C 
ATOM      8  C7  UNL d   1       0.989  -0.277  -0.541  0.00  0.00    -0.001 A 
ENDROOT
TORSDOF 0
ENDMDL
