MODEL 1
REMARK minimizedAffinity 7.76993418
REMARK minimizedRMSD -1
REMARK  0 active torsions:
REMARK  status: ('A' for Active; 'I' for Inactive)
ROOT
ATOM      1  C   UNL d   1      -0.857  -5.075   0.201  0.00  0.00     0.077 C 
ATOM      2  C1  UNL d   1      -0.745  -3.690  -0.364  0.00  0.00    -0.074 A 
ATOM      3  C2  UNL d   1      -1.832  -3.085  -1.004  0.00  0.00    -0.005 A 
ATOM      4  C3  UNL d   1      -1.717  -1.793  -1.516  0.00  0.00     0.006 A 
ATOM      5  C4  UNL d   1      -0.515  -1.094  -1.395  0.00  0.00    -0.005 A 
ATOM      6  C5  UNL d   1       0.582  -1.682  -0.758  0.00  0.00    -0.074 A 
ATOM      7  C6  UNL d   1       1.878  -0.941  -0.611  0.00  0.00     0.077 C 
ATOM      8  C7  UNL d   1       0.456  -2.978  -0.240  0.00  0.00    -0.001 A 
ENDROOT
TORSDOF 0
ENDMDL
