MODEL 1
REMARK minimizedAffinity 9.00391197
REMARK minimizedRMSD -1
REMARK  0 active torsions:
REMARK  status: ('A' for Active; 'I' for Inactive)
ROOT
ATOM      1  C   UNL d   1       3.461  -1.973   1.580  0.00  0.00     0.077 C 
ATOM      2  C1  UNL d   1       3.321  -1.481   0.170  0.00  0.00    -0.074 A 
ATOM      3  C2  UNL d   1       2.932  -2.346  -0.858  0.00  0.00    -0.005 A 
ATOM      4  C3  UNL d   1       2.796  -1.871  -2.163  0.00  0.00     0.006 A 
ATOM      5  C4  UNL d   1       3.048  -0.529  -2.452  0.00  0.00    -0.005 A 
ATOM      6  C5  UNL d   1       3.437   0.350  -1.437  0.00  0.00    -0.074 A 
ATOM      7  C6  UNL d   1       3.701   1.798  -1.728  0.00  0.00     0.077 C 
ATOM      8  C7  UNL d   1       3.564  -0.133  -0.127  0.00  0.00    -0.001 A 
ENDROOT
TORSDOF 0
ENDMDL
