MODEL 1
REMARK minimizedAffinity 12.1535015
REMARK minimizedRMSD -1
REMARK  0 active torsions:
REMARK  status: ('A' for Active; 'I' for Inactive)
ROOT
ATOM      1  C   UNL d   1      -3.010   1.170  -0.465  0.00  0.00     0.077 C 
ATOM      2  C1  UNL d   1      -2.525   0.557  -1.745  0.00  0.00    -0.074 A 
ATOM      3  C2  UNL d   1      -1.333  -0.173  -1.786  0.00  0.00    -0.005 A 
ATOM      4  C3  UNL d   1      -0.900  -0.746  -2.981  0.00  0.00     0.006 A 
ATOM      5  C4  UNL d   1      -1.653  -0.595  -4.147  0.00  0.00    -0.005 A 
ATOM      6  C5  UNL d   1      -2.848   0.131  -4.125  0.00  0.00    -0.074 A 
ATOM      7  C6  UNL d   1      -3.674   0.295  -5.366  0.00  0.00     0.077 C 
ATOM      8  C7  UNL d   1      -3.280   0.698  -2.918  0.00  0.00    -0.001 A 
ENDROOT
TORSDOF 0
ENDMDL
