MODEL 1
REMARK minimizedAffinity -2.64529347
REMARK minimizedRMSD -1
REMARK  0 active torsions:
REMARK  status: ('A' for Active; 'I' for Inactive)
ROOT
ATOM      1  C   UNL d   1       0.385  -5.730   6.000  0.00  0.00     0.077 C 
ATOM      2  C1  UNL d   1       0.317  -4.942   4.725  0.00  0.00    -0.074 A 
ATOM      3  C2  UNL d   1      -0.020  -5.559   3.516  0.00  0.00    -0.005 A 
ATOM      4  C3  UNL d   1      -0.088  -4.812   2.340  0.00  0.00     0.006 A 
ATOM      5  C4  UNL d   1       0.180  -3.443   2.361  0.00  0.00    -0.005 A 
ATOM      6  C5  UNL d   1       0.518  -2.808   3.561  0.00  0.00    -0.074 A 
ATOM      7  C6  UNL d   1       0.800  -1.336   3.603  0.00  0.00     0.077 C 
ATOM      8  C7  UNL d   1       0.578  -3.565   4.739  0.00  0.00    -0.001 A 
ENDROOT
TORSDOF 0
ENDMDL
