MODEL 1
REMARK minimizedAffinity 3.89496279
REMARK minimizedRMSD -1
REMARK  0 active torsions:
REMARK  status: ('A' for Active; 'I' for Inactive)
ROOT
ATOM      1  C   UNL d   1       5.167   4.502   1.892  0.00  0.00     0.077 C 
ATOM      2  C1  UNL d   1       4.769   3.625   0.743  0.00  0.00    -0.074 A 
ATOM      3  C2  UNL d   1       5.180   3.918  -0.562  0.00  0.00    -0.005 A 
ATOM      4  C3  UNL d   1       4.809   3.088  -1.619  0.00  0.00     0.006 A 
ATOM      5  C4  UNL d   1       4.025   1.958  -1.384  0.00  0.00    -0.005 A 
ATOM      6  C5  UNL d   1       3.604   1.649  -0.087  0.00  0.00    -0.074 A 
ATOM      7  C6  UNL d   1       2.769   0.433   0.185  0.00  0.00     0.077 C 
ATOM      8  C7  UNL d   1       3.987   2.484   0.972  0.00  0.00    -0.001 A 
ENDROOT
TORSDOF 0
ENDMDL
