MODEL 1
REMARK minimizedAffinity 8.24158001
REMARK minimizedRMSD -1
REMARK  0 active torsions:
REMARK  status: ('A' for Active; 'I' for Inactive)
ROOT
ATOM      1  C   UNL d   1       1.647  -1.480  -3.064  0.00  0.00     0.077 C 
ATOM      2  C1  UNL d   1       2.268  -0.639  -1.990  0.00  0.00    -0.074 A 
ATOM      3  C2  UNL d   1       2.458  -1.145  -0.700  0.00  0.00    -0.005 A 
ATOM      4  C3  UNL d   1       3.046  -0.354   0.287  0.00  0.00     0.006 A 
ATOM      5  C4  UNL d   1       3.450   0.949  -0.005  0.00  0.00    -0.005 A 
ATOM      6  C5  UNL d   1       3.270   1.472  -1.290  0.00  0.00    -0.074 A 
ATOM      7  C6  UNL d   1       3.708   2.868  -1.623  0.00  0.00     0.077 C 
ATOM      8  C7  UNL d   1       2.684   0.669  -2.278  0.00  0.00    -0.001 A 
ENDROOT
TORSDOF 0
ENDMDL
