MODEL 1
REMARK minimizedAffinity 11.1556444
REMARK minimizedRMSD -1
REMARK  0 active torsions:
REMARK  status: ('A' for Active; 'I' for Inactive)
ROOT
ATOM      1  C   UNL d   1       4.194   2.282  -2.264  0.00  0.00     0.077 C 
ATOM      2  C1  UNL d   1       3.644   1.621  -1.035  0.00  0.00    -0.074 A 
ATOM      3  C2  UNL d   1       3.026   0.369  -1.108  0.00  0.00    -0.005 A 
ATOM      4  C3  UNL d   1       2.528  -0.238   0.045  0.00  0.00     0.006 A 
ATOM      5  C4  UNL d   1       2.643   0.400   1.280  0.00  0.00    -0.005 A 
ATOM      6  C5  UNL d   1       3.258   1.653   1.373  0.00  0.00    -0.074 A 
ATOM      7  C6  UNL d   1       3.399   2.348   2.694  0.00  0.00     0.077 C 
ATOM      8  C7  UNL d   1       3.762   2.253   0.211  0.00  0.00    -0.001 A 
ENDROOT
TORSDOF 0
ENDMDL
