MODEL 1
REMARK minimizedAffinity -4.25199461
REMARK minimizedRMSD -1
REMARK  1 active torsions:
REMARK  status: ('A' for Active; 'I' for Inactive)
REMARK    1  A    between atoms: C1_2  and  C2_3 
ROOT
ATOM      1  C2  UNL d   1      -0.004   0.174   0.969  0.00  0.00    -0.076 A 
ATOM      2  C3  UNL d   1       0.740   0.734   2.022  0.00  0.00     0.004 A 
ATOM      3  C4  UNL d   1       1.474   1.905   1.838  0.00  0.00    -0.003 A 
ATOM      4  C5  UNL d   1       1.476   2.534   0.598  0.00  0.00     0.000 A 
ATOM      5  C6  UNL d   1       0.730   2.002  -0.453  0.00  0.00     0.000 A 
ATOM      6  C7  UNL d   1      -0.029   0.832  -0.280  0.00  0.00    -0.073 A 
ATOM      7  C8  UNL d   1      -0.810   0.298  -1.449  0.00  0.00     0.078 C 
ENDROOT
BRANCH   1   8
ATOM      8  C1  UNL d   1      -0.759  -1.112   1.219  0.00  0.00     0.053 C 
ATOM      9  C   UNL d   1      -1.526  -1.091   2.532  0.00  0.00     0.018 C 
ENDBRANCH   1   8
TORSDOF 1
ENDMDL
