MODEL 1
REMARK minimizedAffinity -0.392433256
REMARK minimizedRMSD -1
REMARK  1 active torsions:
REMARK  status: ('A' for Active; 'I' for Inactive)
REMARK    1  A    between atoms: C1_2  and  C2_3 
ROOT
ATOM      1  C2  UNL d   1      -0.221   0.006   0.039  0.00  0.00    -0.076 A 
ATOM      2  C3  UNL d   1       0.545   0.921  -0.703  0.00  0.00     0.004 A 
ATOM      3  C4  UNL d   1       1.130   2.029  -0.092  0.00  0.00    -0.003 A 
ATOM      4  C5  UNL d   1       0.957   2.240   1.271  0.00  0.00     0.000 A 
ATOM      5  C6  UNL d   1       0.215   1.333   2.026  0.00  0.00     0.000 A 
ATOM      6  C7  UNL d   1      -0.368   0.202   1.429  0.00  0.00    -0.073 A 
ATOM      7  C8  UNL d   1      -1.163  -0.740   2.290  0.00  0.00     0.078 C 
ENDROOT
BRANCH   1   8
ATOM      8  C1  UNL d   1      -0.853  -1.163  -0.683  0.00  0.00     0.053 C 
ATOM      9  C   UNL d   1      -1.386  -0.781  -2.056  0.00  0.00     0.018 C 
ENDBRANCH   1   8
TORSDOF 1
ENDMDL
