MODEL 1
REMARK minimizedAffinity -0.00518786069
REMARK minimizedRMSD -1
REMARK  1 active torsions:
REMARK  status: ('A' for Active; 'I' for Inactive)
REMARK    1  A    between atoms: C1_2  and  C2_3 
ROOT
ATOM      1  C2  UNL d   1       2.840   3.080  -3.662  0.00  0.00    -0.076 A 
ATOM      2  C3  UNL d   1       4.148   2.708  -3.307  0.00  0.00     0.004 A 
ATOM      3  C4  UNL d   1       5.086   2.366  -4.280  0.00  0.00    -0.003 A 
ATOM      4  C5  UNL d   1       4.730   2.390  -5.624  0.00  0.00     0.000 A 
ATOM      5  C6  UNL d   1       3.442   2.774  -5.995  0.00  0.00     0.000 A 
ATOM      6  C7  UNL d   1       2.490   3.138  -5.028  0.00  0.00    -0.073 A 
ATOM      7  C8  UNL d   1       1.114   3.538  -5.485  0.00  0.00     0.078 C 
ENDROOT
BRANCH   1   8
ATOM      8  C1  UNL d   1       1.858   3.415  -2.562  0.00  0.00     0.053 C 
ATOM      9  C   UNL d   1       1.751   2.312  -1.521  0.00  0.00     0.018 C 
ENDBRANCH   1   8
TORSDOF 1
ENDMDL
