MODEL 1
REMARK minimizedAffinity -2.54730797
REMARK minimizedRMSD -1
REMARK  1 active torsions:
REMARK  status: ('A' for Active; 'I' for Inactive)
REMARK    1  A    between atoms: C1_2  and  C2_3 
ROOT
ATOM      1  C2  UNL d   1      -0.127   0.506  -0.170  0.00  0.00    -0.076 A 
ATOM      2  C3  UNL d   1       0.673   1.444  -0.844  0.00  0.00     0.004 A 
ATOM      3  C4  UNL d   1       1.293   2.485  -0.155  0.00  0.00    -0.003 A 
ATOM      4  C5  UNL d   1       1.124   2.604   1.220  0.00  0.00     0.000 A 
ATOM      5  C6  UNL d   1       0.348   1.672   1.908  0.00  0.00     0.000 A 
ATOM      6  C7  UNL d   1      -0.271   0.607   1.231  0.00  0.00    -0.073 A 
ATOM      7  C8  UNL d   1      -1.101  -0.367   2.022  0.00  0.00     0.078 C 
ENDROOT
BRANCH   1   8
ATOM      8  C1  UNL d   1      -0.797  -0.586  -0.973  0.00  0.00     0.053 C 
ATOM      9  C   UNL d   1      -1.372  -0.074  -2.285  0.00  0.00     0.018 C 
ENDBRANCH   1   8
TORSDOF 1
ENDMDL
