MODEL 1
REMARK minimizedAffinity -2.20457244
REMARK minimizedRMSD -1
REMARK  1 active torsions:
REMARK  status: ('A' for Active; 'I' for Inactive)
REMARK    1  A    between atoms: C1_2  and  C2_3 
ROOT
ATOM      1  C2  UNL d   1      -0.286   0.316  -0.016  0.00  0.00    -0.076 A 
ATOM      2  C3  UNL d   1       0.282   1.371  -0.751  0.00  0.00     0.004 A 
ATOM      3  C4  UNL d   1       0.825   2.482  -0.108  0.00  0.00    -0.003 A 
ATOM      4  C5  UNL d   1       0.810   2.556   1.280  0.00  0.00     0.000 A 
ATOM      5  C6  UNL d   1       0.267   1.510   2.026  0.00  0.00     0.000 A 
ATOM      6  C7  UNL d   1      -0.270   0.375   1.394  0.00  0.00    -0.073 A 
ATOM      7  C8  UNL d   1      -0.849  -0.720   2.247  0.00  0.00     0.078 C 
ENDROOT
BRANCH   1   8
ATOM      8  C1  UNL d   1      -0.885  -0.851  -0.769  0.00  0.00     0.053 C 
ATOM      9  C   UNL d   1      -1.910  -0.413  -1.803  0.00  0.00     0.018 C 
ENDBRANCH   1   8
TORSDOF 1
ENDMDL
