MODEL 1
REMARK minimizedAffinity -6.32981873
REMARK minimizedRMSD -1
REMARK  1 active torsions:
REMARK  status: ('A' for Active; 'I' for Inactive)
REMARK    1  A    between atoms: C1_2  and  C2_3 
ROOT
ATOM      1  C2  UNL d   1       0.080   0.498   0.501  0.00  0.00    -0.076 A 
ATOM      2  C3  UNL d   1       0.012  -0.754  -0.135  0.00  0.00     0.004 A 
ATOM      3  C4  UNL d   1       1.060  -1.212  -0.931  0.00  0.00    -0.003 A 
ATOM      4  C5  UNL d   1       2.195  -0.427  -1.102  0.00  0.00     0.000 A 
ATOM      5  C6  UNL d   1       2.287   0.810  -0.464  0.00  0.00     0.000 A 
ATOM      6  C7  UNL d   1       1.245   1.280   0.354  0.00  0.00    -0.073 A 
ATOM      7  C8  UNL d   1       1.395   2.623   1.013  0.00  0.00     0.078 C 
ENDROOT
BRANCH   1   8
ATOM      8  C1  UNL d   1      -1.100   0.954   1.329  0.00  0.00     0.053 C 
ATOM      9  C   UNL d   1      -0.981   0.544   2.789  0.00  0.00     0.018 C 
ENDBRANCH   1   8
TORSDOF 1
ENDMDL
