MODEL 1
REMARK minimizedAffinity -2.89124584
REMARK minimizedRMSD -1
REMARK  1 active torsions:
REMARK  status: ('A' for Active; 'I' for Inactive)
REMARK    1  A    between atoms: C1_2  and  C2_3 
ROOT
ATOM      1  C2  UNL d   1      -4.067   5.015  -4.402  0.00  0.00    -0.076 A 
ATOM      2  C3  UNL d   1      -3.004   4.615  -5.230  0.00  0.00     0.004 A 
ATOM      3  C4  UNL d   1      -1.680   4.771  -4.823  0.00  0.00    -0.003 A 
ATOM      4  C5  UNL d   1      -1.398   5.329  -3.581  0.00  0.00     0.000 A 
ATOM      5  C6  UNL d   1      -2.441   5.716  -2.740  0.00  0.00     0.000 A 
ATOM      6  C7  UNL d   1      -3.781   5.550  -3.128  0.00  0.00    -0.073 A 
ATOM      7  C8  UNL d   1      -4.866   5.990  -2.184  0.00  0.00     0.078 C 
ENDROOT
BRANCH   1   8
ATOM      8  C1  UNL d   1      -5.482   4.846  -4.909  0.00  0.00     0.053 C 
ATOM      9  C   UNL d   1      -5.925   6.000  -5.795  0.00  0.00     0.018 C 
ENDBRANCH   1   8
TORSDOF 1
ENDMDL
