MODEL 1
REMARK minimizedAffinity -4.75565767
REMARK minimizedRMSD -1
REMARK  1 active torsions:
REMARK  status: ('A' for Active; 'I' for Inactive)
REMARK    1  A    between atoms: C1_2  and  C2_3 
ROOT
ATOM      1  C2  UNL d   1       1.001   0.334   0.185  0.00  0.00    -0.076 A 
ATOM      2  C3  UNL d   1       1.669   1.480  -0.279  0.00  0.00     0.004 A 
ATOM      3  C4  UNL d   1       1.399   2.736   0.260  0.00  0.00    -0.003 A 
ATOM      4  C5  UNL d   1       0.456   2.867   1.274  0.00  0.00     0.000 A 
ATOM      5  C6  UNL d   1      -0.204   1.739   1.759  0.00  0.00     0.000 A 
ATOM      6  C7  UNL d   1       0.068   0.462   1.237  0.00  0.00    -0.073 A 
ATOM      7  C8  UNL d   1      -0.677  -0.719   1.793  0.00  0.00     0.078 C 
ENDROOT
BRANCH   1   8
ATOM      8  C1  UNL d   1       1.315  -0.998  -0.457  0.00  0.00     0.053 C 
ATOM      9  C   UNL d   1       2.761  -1.095  -0.920  0.00  0.00     0.018 C 
ENDBRANCH   1   8
TORSDOF 1
ENDMDL
