MODEL 1
REMARK minimizedAffinity -3.70003796
REMARK minimizedRMSD -1
REMARK  1 active torsions:
REMARK  status: ('A' for Active; 'I' for Inactive)
REMARK    1  A    between atoms: C1_2  and  C2_3 
ROOT
ATOM      1  C2  UNL d   1       1.009   0.744   0.516  0.00  0.00    -0.076 A 
ATOM      2  C3  UNL d   1       1.305   1.536   1.639  0.00  0.00     0.004 A 
ATOM      3  C4  UNL d   1       0.405   1.643   2.699  0.00  0.00    -0.003 A 
ATOM      4  C5  UNL d   1      -0.804   0.960   2.652  0.00  0.00     0.000 A 
ATOM      5  C6  UNL d   1      -1.107   0.155   1.554  0.00  0.00     0.000 A 
ATOM      6  C7  UNL d   1      -0.204   0.023   0.485  0.00  0.00    -0.073 A 
ATOM      7  C8  UNL d   1      -0.583  -0.853  -0.677  0.00  0.00     0.078 C 
ENDROOT
BRANCH   1   8
ATOM      8  C1  UNL d   1       2.012   0.688  -0.614  0.00  0.00     0.053 C 
ATOM      9  C   UNL d   1       3.241  -0.136  -0.262  0.00  0.00     0.018 C 
ENDBRANCH   1   8
TORSDOF 1
ENDMDL
