MODEL 1
REMARK minimizedAffinity -5.20737171
REMARK minimizedRMSD -1
REMARK  1 active torsions:
REMARK  status: ('A' for Active; 'I' for Inactive)
REMARK    1  A    between atoms: C1_2  and  C2_3 
ROOT
ATOM      1  C2  UNL d   1       1.257   0.067   0.096  0.00  0.00    -0.076 A 
ATOM      2  C3  UNL d   1       2.533  -0.249  -0.401  0.00  0.00     0.004 A 
ATOM      3  C4  UNL d   1       3.662   0.452   0.019  0.00  0.00    -0.003 A 
ATOM      4  C5  UNL d   1       3.533   1.482   0.945  0.00  0.00     0.000 A 
ATOM      5  C6  UNL d   1       2.277   1.798   1.462  0.00  0.00     0.000 A 
ATOM      6  C7  UNL d   1       1.131   1.090   1.061  0.00  0.00    -0.073 A 
ATOM      7  C8  UNL d   1      -0.199   1.477   1.647  0.00  0.00     0.078 C 
ENDROOT
BRANCH   1   8
ATOM      8  C1  UNL d   1       0.066  -0.710  -0.417  0.00  0.00     0.053 C 
ATOM      9  C   UNL d   1      -0.103  -2.048   0.287  0.00  0.00     0.018 C 
ENDBRANCH   1   8
TORSDOF 1
ENDMDL
