MODEL 1
REMARK minimizedAffinity -2.90759325
REMARK minimizedRMSD -1
REMARK  1 active torsions:
REMARK  status: ('A' for Active; 'I' for Inactive)
REMARK    1  A    between atoms: C1_2  and  C2_3 
ROOT
ATOM      1  C2  UNL d   1      -1.194  -0.923  -0.608  0.00  0.00    -0.076 A 
ATOM      2  C3  UNL d   1      -2.212  -1.893  -0.602  0.00  0.00     0.004 A 
ATOM      3  C4  UNL d   1      -2.937  -2.178  -1.758  0.00  0.00    -0.003 A 
ATOM      4  C5  UNL d   1      -2.656  -1.499  -2.938  0.00  0.00     0.000 A 
ATOM      5  C6  UNL d   1      -1.638  -0.547  -2.966  0.00  0.00     0.000 A 
ATOM      6  C7  UNL d   1      -0.886  -0.259  -1.815  0.00  0.00    -0.073 A 
ATOM      7  C8  UNL d   1       0.196   0.782  -1.901  0.00  0.00     0.078 C 
ENDROOT
BRANCH   1   8
ATOM      8  C1  UNL d   1      -0.459  -0.636   0.682  0.00  0.00     0.053 C 
ATOM      9  C   UNL d   1      -0.714   0.771   1.198  0.00  0.00     0.018 C 
ENDBRANCH   1   8
TORSDOF 1
ENDMDL
