MODEL 1
REMARK minimizedAffinity -3.72983885
REMARK minimizedRMSD -1
REMARK  1 active torsions:
REMARK  status: ('A' for Active; 'I' for Inactive)
REMARK    1  A    between atoms: C1_2  and  C2_3 
ROOT
ATOM      1  C2  UNL d   1       0.693   0.873   0.882  0.00  0.00    -0.076 A 
ATOM      2  C3  UNL d   1       1.770   0.740  -0.012  0.00  0.00     0.004 A 
ATOM      3  C4  UNL d   1       1.850  -0.344  -0.883  0.00  0.00    -0.003 A 
ATOM      4  C5  UNL d   1       0.854  -1.314  -0.876  0.00  0.00     0.000 A 
ATOM      5  C6  UNL d   1      -0.231  -1.190  -0.009  0.00  0.00     0.000 A 
ATOM      6  C7  UNL d   1      -0.336  -0.094   0.865  0.00  0.00    -0.073 A 
ATOM      7  C8  UNL d   1      -1.524  -0.013   1.783  0.00  0.00     0.078 C 
ENDROOT
BRANCH   1   8
ATOM      8  C1  UNL d   1       0.673   2.057   1.822  0.00  0.00     0.053 C 
ATOM      9  C   UNL d   1       1.837   3.007   1.587  0.00  0.00     0.018 C 
ENDBRANCH   1   8
TORSDOF 1
ENDMDL
