MODEL 1
REMARK minimizedAffinity -4.0872488
REMARK minimizedRMSD -1
REMARK  3 active torsions:
REMARK  status: ('A' for Active; 'I' for Inactive)
REMARK    1  A    between atoms: C3'_2  and  C2'_3 
REMARK    2  A    between atoms: C2'_3  and  C1'_4 
REMARK    3  A    between atoms: C1'_4  and  C1_5 
ROOT
ATOM      1  C1  N4B d   1       0.364   0.198  -3.673  0.00  0.00    -0.075 A 
ATOM      2  C2  N4B d   1       1.495  -0.147  -2.902  0.00  0.00     0.002 A 
ATOM      3  C3  N4B d   1       2.632  -0.608  -3.518  0.00  0.00     0.002 A 
ATOM      4  C4  N4B d   1       2.655  -0.751  -4.898  0.00  0.00    -0.004 A 
ATOM      5  C5  N4B d   1       1.567  -0.391  -5.638  0.00  0.00     0.002 A 
ATOM      6  C6  N4B d   1       0.419   0.078  -5.032  0.00  0.00     0.002 A 
ENDROOT
BRANCH   1   7
ATOM      7  C1' N4B d   1      -0.931   0.626  -3.038  0.00  0.00     0.057 C 
BRANCH   7   8
ATOM      8  C2' N4B d   1      -1.328  -0.394  -1.975  0.00  0.00     0.009 C 
BRANCH   8   9
ATOM      9  C3' N4B d   1      -0.647  -0.121  -0.644  0.00  0.00     0.004 C 
ATOM     10  C4' N4B d   1       0.187  -1.275  -0.171  0.00  0.00     0.003 C 
ENDBRANCH   8   9
ENDBRANCH   7   8
ENDBRANCH   1   7
TORSDOF 3
ENDMDL
