MODEL 1
REMARK minimizedAffinity -2.64066601
REMARK minimizedRMSD -1
REMARK  3 active torsions:
REMARK  status: ('A' for Active; 'I' for Inactive)
REMARK    1  A    between atoms: C3'_2  and  C2'_3 
REMARK    2  A    between atoms: C2'_3  and  C1'_4 
REMARK    3  A    between atoms: C1'_4  and  C1_5 
ROOT
ATOM      1  C1  N4B d   1      -4.892   3.652   1.350  0.00  0.00    -0.075 A 
ATOM      2  C2  N4B d   1      -5.310   3.439   0.018  0.00  0.00     0.002 A 
ATOM      3  C3  N4B d   1      -5.607   4.511  -0.788  0.00  0.00     0.002 A 
ATOM      4  C4  N4B d   1      -5.511   5.798  -0.281  0.00  0.00    -0.004 A 
ATOM      5  C5  N4B d   1      -5.082   5.996   0.999  0.00  0.00     0.002 A 
ATOM      6  C6  N4B d   1      -4.776   4.928   1.819  0.00  0.00     0.002 A 
ENDROOT
BRANCH   1   7
ATOM      7  C1' N4B d   1      -4.639   2.509   2.295  0.00  0.00     0.057 C 
BRANCH   7   8
ATOM      8  C2' N4B d   1      -4.512   3.053   3.715  0.00  0.00     0.009 C 
BRANCH   8   9
ATOM      9  C3' N4B d   1      -3.591   2.199   4.570  0.00  0.00     0.004 C 
ATOM     10  C4' N4B d   1      -4.053   2.092   5.992  0.00  0.00     0.003 C 
ENDBRANCH   8   9
ENDBRANCH   7   8
ENDBRANCH   1   7
TORSDOF 3
ENDMDL
