MODEL 1
REMARK minimizedAffinity 0.667640328
REMARK minimizedRMSD -1
REMARK  3 active torsions:
REMARK  status: ('A' for Active; 'I' for Inactive)
REMARK    1  A    between atoms: C3'_2  and  C2'_3 
REMARK    2  A    between atoms: C2'_3  and  C1'_4 
REMARK    3  A    between atoms: C1'_4  and  C1_5 
ROOT
ATOM      1  C1  N4B d   1      -3.398  -0.508   4.379  0.00  0.00    -0.075 A 
ATOM      2  C2  N4B d   1      -4.452  -0.036   5.192  0.00  0.00     0.002 A 
ATOM      3  C3  N4B d   1      -5.141  -0.907   5.999  0.00  0.00     0.002 A 
ATOM      4  C4  N4B d   1      -4.807  -2.253   5.997  0.00  0.00    -0.004 A 
ATOM      5  C5  N4B d   1      -3.771  -2.698   5.229  0.00  0.00     0.002 A 
ATOM      6  C6  N4B d   1      -3.068  -1.832   4.415  0.00  0.00     0.002 A 
ENDROOT
BRANCH   1   7
ATOM      7  C1' N4B d   1      -2.673   0.391   3.416  0.00  0.00     0.057 C 
BRANCH   7   8
ATOM      8  C2' N4B d   1      -3.693   1.209   2.630  0.00  0.00     0.009 C 
BRANCH   8   9
ATOM      9  C3' N4B d   1      -3.407   1.192   1.138  0.00  0.00     0.004 C 
ATOM     10  C4' N4B d   1      -2.197   0.378   0.788  0.00  0.00     0.003 C 
ENDBRANCH   8   9
ENDBRANCH   7   8
ENDBRANCH   1   7
TORSDOF 3
ENDMDL
