MODEL 1
REMARK minimizedAffinity 4.22783804
REMARK minimizedRMSD -1
REMARK  3 active torsions:
REMARK  status: ('A' for Active; 'I' for Inactive)
REMARK    1  A    between atoms: C3'_2  and  C2'_3 
REMARK    2  A    between atoms: C2'_3  and  C1'_4 
REMARK    3  A    between atoms: C1'_4  and  C1_5 
ROOT
ATOM      1  C1  N4B d   1      -0.124  -0.691   0.555  0.00  0.00    -0.075 A 
ATOM      2  C2  N4B d   1      -1.117  -0.692   1.559  0.00  0.00     0.002 A 
ATOM      3  C3  N4B d   1      -2.411  -0.356   1.246  0.00  0.00     0.002 A 
ATOM      4  C4  N4B d   1      -2.731   0.002  -0.055  0.00  0.00    -0.004 A 
ATOM      5  C5  N4B d   1      -1.772  -0.024  -1.024  0.00  0.00     0.002 A 
ATOM      6  C6  N4B d   1      -0.468  -0.363  -0.725  0.00  0.00     0.002 A 
ENDROOT
BRANCH   1   7
ATOM      7  C1' N4B d   1       1.321  -0.967   0.866  0.00  0.00     0.057 C 
BRANCH   7   8
ATOM      8  C2' N4B d   1       2.026   0.348   1.184  0.00  0.00     0.009 C 
BRANCH   8   9
ATOM      9  C3' N4B d   1       2.598   0.360   2.591  0.00  0.00     0.004 C 
ATOM     10  C4' N4B d   1       3.352   1.619   2.901  0.00  0.00     0.003 C 
ENDBRANCH   8   9
ENDBRANCH   7   8
ENDBRANCH   1   7
TORSDOF 3
ENDMDL
