MODEL 1
REMARK minimizedAffinity 2.34156895
REMARK minimizedRMSD -1
REMARK  3 active torsions:
REMARK  status: ('A' for Active; 'I' for Inactive)
REMARK    1  A    between atoms: C3'_2  and  C2'_3 
REMARK    2  A    between atoms: C2'_3  and  C1'_4 
REMARK    3  A    between atoms: C1'_4  and  C1_5 
ROOT
ATOM      1  C1  N4B d   1      -2.362  -2.534  -2.316  0.00  0.00    -0.075 A 
ATOM      2  C2  N4B d   1      -3.026  -3.718  -2.704  0.00  0.00     0.002 A 
ATOM      3  C3  N4B d   1      -3.520  -3.842  -3.979  0.00  0.00     0.002 A 
ATOM      4  C4  N4B d   1      -3.378  -2.793  -4.875  0.00  0.00    -0.004 A 
ATOM      5  C5  N4B d   1      -2.713  -1.662  -4.500  0.00  0.00     0.002 A 
ATOM      6  C6  N4B d   1      -2.208  -1.525  -3.223  0.00  0.00     0.002 A 
ENDROOT
BRANCH   1   7
ATOM      7  C1' N4B d   1      -1.881  -2.318  -0.907  0.00  0.00     0.057 C 
BRANCH   7   8
ATOM      8  C2' N4B d   1      -1.295  -0.914  -0.788  0.00  0.00     0.009 C 
BRANCH   8   9
ATOM      9  C3' N4B d   1      -0.529  -0.726   0.510  0.00  0.00     0.004 C 
ATOM     10  C4' N4B d   1       0.958  -0.746   0.315  0.00  0.00     0.003 C 
ENDBRANCH   8   9
ENDBRANCH   7   8
ENDBRANCH   1   7
TORSDOF 3
ENDMDL
