MODEL 1
REMARK minimizedAffinity 1.43700647
REMARK minimizedRMSD -1
REMARK  3 active torsions:
REMARK  status: ('A' for Active; 'I' for Inactive)
REMARK    1  A    between atoms: C3'_2  and  C2'_3 
REMARK    2  A    between atoms: C2'_3  and  C1'_4 
REMARK    3  A    between atoms: C1'_4  and  C1_5 
ROOT
ATOM      1  C1  N4B d   1      -1.965  -0.514   0.554  0.00  0.00    -0.075 A 
ATOM      2  C2  N4B d   1      -2.051  -1.118   1.828  0.00  0.00     0.002 A 
ATOM      3  C3  N4B d   1      -2.396  -0.365   2.923  0.00  0.00     0.002 A 
ATOM      4  C4  N4B d   1      -2.640   0.992   2.773  0.00  0.00    -0.004 A 
ATOM      5  C5  N4B d   1      -2.580   1.563   1.536  0.00  0.00     0.002 A 
ATOM      6  C6  N4B d   1      -2.238   0.818   0.425  0.00  0.00     0.002 A 
ENDROOT
BRANCH   1   7
ATOM      7  C1' N4B d   1      -1.508  -1.278  -0.658  0.00  0.00     0.057 C 
BRANCH   7   8
ATOM      8  C2' N4B d   1      -2.683  -1.443  -1.618  0.00  0.00     0.009 C 
BRANCH   8   9
ATOM      9  C3' N4B d   1      -2.571  -2.716  -2.440  0.00  0.00     0.004 C 
ATOM     10  C4' N4B d   1      -2.555  -2.454  -3.916  0.00  0.00     0.003 C 
ENDBRANCH   8   9
ENDBRANCH   7   8
ENDBRANCH   1   7
TORSDOF 3
ENDMDL
