MODEL 1
REMARK minimizedAffinity 0.168189272
REMARK minimizedRMSD -1
REMARK  3 active torsions:
REMARK  status: ('A' for Active; 'I' for Inactive)
REMARK    1  A    between atoms: C3'_2  and  C2'_3 
REMARK    2  A    between atoms: C2'_3  and  C1'_4 
REMARK    3  A    between atoms: C1'_4  and  C1_5 
ROOT
ATOM      1  C1  N4B d   1      -4.557   3.970   3.263  0.00  0.00    -0.075 A 
ATOM      2  C2  N4B d   1      -5.504   4.883   3.778  0.00  0.00     0.002 A 
ATOM      3  C3  N4B d   1      -6.000   5.882   2.977  0.00  0.00     0.002 A 
ATOM      4  C4  N4B d   1      -5.552   6.000   1.670  0.00  0.00    -0.004 A 
ATOM      5  C5  N4B d   1      -4.656   5.099   1.173  0.00  0.00     0.002 A 
ATOM      6  C6  N4B d   1      -4.152   4.087   1.965  0.00  0.00     0.002 A 
ENDROOT
BRANCH   1   7
ATOM      7  C1' N4B d   1      -3.922   2.914   4.125  0.00  0.00     0.057 C 
BRANCH   7   8
ATOM      8  C2' N4B d   1      -3.742   1.640   3.305  0.00  0.00     0.009 C 
BRANCH   8   9
ATOM      9  C3' N4B d   1      -3.831   0.392   4.167  0.00  0.00     0.004 C 
ATOM     10  C4' N4B d   1      -2.986  -0.733   3.649  0.00  0.00     0.003 C 
ENDBRANCH   8   9
ENDBRANCH   7   8
ENDBRANCH   1   7
TORSDOF 3
ENDMDL
