MODEL 1
REMARK minimizedAffinity 0.0402783602
REMARK minimizedRMSD -1
REMARK  3 active torsions:
REMARK  status: ('A' for Active; 'I' for Inactive)
REMARK    1  A    between atoms: C3'_2  and  C2'_3 
REMARK    2  A    between atoms: C2'_3  and  C1'_4 
REMARK    3  A    between atoms: C1'_4  and  C1_5 
ROOT
ATOM      1  C1  N4B d   1      -3.794   5.119   3.873  0.00  0.00    -0.075 A 
ATOM      2  C2  N4B d   1      -3.771   5.067   2.462  0.00  0.00     0.002 A 
ATOM      3  C3  N4B d   1      -4.865   5.480   1.741  0.00  0.00     0.002 A 
ATOM      4  C4  N4B d   1      -5.995   5.928   2.408  0.00  0.00    -0.004 A 
ATOM      5  C5  N4B d   1      -6.000   6.000   3.770  0.00  0.00     0.002 A 
ATOM      6  C6  N4B d   1      -4.906   5.592   4.507  0.00  0.00     0.002 A 
ENDROOT
BRANCH   1   7
ATOM      7  C1' N4B d   1      -2.654   4.599   4.706  0.00  0.00     0.057 C 
BRANCH   7   8
ATOM      8  C2' N4B d   1      -2.938   3.150   5.093  0.00  0.00     0.009 C 
BRANCH   8   9
ATOM      9  C3' N4B d   1      -3.444   2.336   3.915  0.00  0.00     0.004 C 
ATOM     10  C4' N4B d   1      -3.475   0.863   4.198  0.00  0.00     0.003 C 
ENDBRANCH   8   9
ENDBRANCH   7   8
ENDBRANCH   1   7
TORSDOF 3
ENDMDL
