MODEL 1
REMARK minimizedAffinity -2.45571184
REMARK minimizedRMSD -1
REMARK  2 active torsions:
REMARK  status: ('A' for Active; 'I' for Inactive)
REMARK    1  A    between atoms: C1_2  and  C2_3 
REMARK    2  A    between atoms: C2_3  and  C3_4 
ROOT
ATOM      1  C3  UNL d   1       1.002   1.458   0.094  0.00  0.00    -0.075 A 
ATOM      2  C4  UNL d   1       2.401   1.546   0.152  0.00  0.00     0.002 A 
ATOM      3  C5  UNL d   1       3.029   2.789   0.242  0.00  0.00     0.002 A 
ATOM      4  C6  UNL d   1       2.269   3.957   0.264  0.00  0.00    -0.004 A 
ATOM      5  C7  UNL d   1       0.880   3.882   0.189  0.00  0.00     0.002 A 
ATOM      6  C8  UNL d   1       0.249   2.639   0.104  0.00  0.00     0.002 A 
ENDROOT
BRANCH   1   7
ATOM      7  C2  UNL d   1       0.315   0.115   0.026  0.00  0.00     0.056 C 
BRANCH   7   8
ATOM      8  C1  UNL d   1       1.188  -1.004  -0.552  0.00  0.00     0.007 C 
ATOM      9  C   UNL d   1       0.765  -2.393  -0.094  0.00  0.00     0.009 C 
ENDBRANCH   7   8
ENDBRANCH   1   7
TORSDOF 2
ENDMDL
