MODEL 1
REMARK minimizedAffinity -4.00303507
REMARK minimizedRMSD -1
REMARK  2 active torsions:
REMARK  status: ('A' for Active; 'I' for Inactive)
REMARK    1  A    between atoms: C1_2  and  C2_3 
REMARK    2  A    between atoms: C2_3  and  C3_4 
ROOT
ATOM      1  C3  UNL d   1       0.769   0.017  -0.480  0.00  0.00    -0.075 A 
ATOM      2  C4  UNL d   1      -0.285  -0.068   0.441  0.00  0.00     0.002 A 
ATOM      3  C5  UNL d   1      -0.617  -1.291   1.026  0.00  0.00     0.002 A 
ATOM      4  C6  UNL d   1       0.092  -2.442   0.691  0.00  0.00    -0.004 A 
ATOM      5  C7  UNL d   1       1.131  -2.372  -0.235  0.00  0.00     0.002 A 
ATOM      6  C8  UNL d   1       1.468  -1.149  -0.819  0.00  0.00     0.002 A 
ENDROOT
BRANCH   1   7
ATOM      7  C2  UNL d   1       1.153   1.342  -1.094  0.00  0.00     0.056 C 
BRANCH   7   8
ATOM      8  C1  UNL d   1       2.369   2.005  -0.439  0.00  0.00     0.007 C 
ATOM      9  C   UNL d   1       1.997   2.973   0.676  0.00  0.00     0.009 C 
ENDBRANCH   7   8
ENDBRANCH   1   7
TORSDOF 2
ENDMDL
