MODEL 1
REMARK minimizedAffinity -4.88602352
REMARK minimizedRMSD -1
REMARK  2 active torsions:
REMARK  status: ('A' for Active; 'I' for Inactive)
REMARK    1  A    between atoms: C1_2  and  C2_3 
REMARK    2  A    between atoms: C2_3  and  C3_4 
ROOT
ATOM      1  C3  UNL d   1       0.023   0.067  -0.300  0.00  0.00    -0.075 A 
ATOM      2  C4  UNL d   1       0.527  -0.820  -1.262  0.00  0.00     0.002 A 
ATOM      3  C5  UNL d   1       0.428  -2.199  -1.076  0.00  0.00     0.002 A 
ATOM      4  C6  UNL d   1      -0.166  -2.708   0.077  0.00  0.00    -0.004 A 
ATOM      5  C7  UNL d   1      -0.656  -1.837   1.047  0.00  0.00     0.002 A 
ATOM      6  C8  UNL d   1      -0.562  -0.456   0.861  0.00  0.00     0.002 A 
ENDROOT
BRANCH   1   7
ATOM      7  C2  UNL d   1       0.100   1.560  -0.510  0.00  0.00     0.056 C 
BRANCH   7   8
ATOM      8  C1  UNL d   1       1.385   2.199   0.028  0.00  0.00     0.007 C 
ATOM      9  C   UNL d   1       1.226   3.676   0.364  0.00  0.00     0.009 C 
ENDBRANCH   7   8
ENDBRANCH   1   7
TORSDOF 2
ENDMDL
