MODEL 1
REMARK minimizedAffinity -6.36144924
REMARK minimizedRMSD -1
REMARK  2 active torsions:
REMARK  status: ('A' for Active; 'I' for Inactive)
REMARK    1  A    between atoms: C1_2  and  C2_3 
REMARK    2  A    between atoms: C2_3  and  C3_4 
ROOT
ATOM      1  C3  UNL d   1       0.161  -0.194  -0.106  0.00  0.00    -0.075 A 
ATOM      2  C4  UNL d   1      -0.755  -0.436   0.928  0.00  0.00     0.002 A 
ATOM      3  C5  UNL d   1      -0.894  -1.715   1.466  0.00  0.00     0.002 A 
ATOM      4  C6  UNL d   1      -0.129  -2.769   0.972  0.00  0.00    -0.004 A 
ATOM      5  C7  UNL d   1       0.773  -2.544  -0.066  0.00  0.00     0.002 A 
ATOM      6  C8  UNL d   1       0.917  -1.263  -0.604  0.00  0.00     0.002 A 
ENDROOT
BRANCH   1   7
ATOM      7  C2  UNL d   1       0.337   1.195  -0.672  0.00  0.00     0.056 C 
BRANCH   7   8
ATOM      8  C1  UNL d   1       1.100   2.153   0.250  0.00  0.00     0.007 C 
ATOM      9  C   UNL d   1       2.577   2.272  -0.099  0.00  0.00     0.009 C 
ENDBRANCH   7   8
ENDBRANCH   1   7
TORSDOF 2
ENDMDL
