MODEL 1
REMARK minimizedAffinity -3.61557937
REMARK minimizedRMSD -1
REMARK  2 active torsions:
REMARK  status: ('A' for Active; 'I' for Inactive)
REMARK    1  A    between atoms: C1_2  and  C2_3 
REMARK    2  A    between atoms: C2_3  and  C3_4 
ROOT
ATOM      1  C3  UNL d   1       0.188  -0.781  -0.331  0.00  0.00    -0.075 A 
ATOM      2  C4  UNL d   1       1.201  -1.724  -0.557  0.00  0.00     0.002 A 
ATOM      3  C5  UNL d   1       1.164  -2.968   0.073  0.00  0.00     0.002 A 
ATOM      4  C6  UNL d   1       0.122  -3.281   0.944  0.00  0.00    -0.004 A 
ATOM      5  C7  UNL d   1      -0.880  -2.345   1.190  0.00  0.00     0.002 A 
ATOM      6  C8  UNL d   1      -0.848  -1.101   0.557  0.00  0.00     0.002 A 
ENDROOT
BRANCH   1   7
ATOM      7  C2  UNL d   1       0.206   0.556  -1.033  0.00  0.00     0.056 C 
BRANCH   7   8
ATOM      8  C1  UNL d   1      -0.002   1.753  -0.100  0.00  0.00     0.007 C 
ATOM      9  C   UNL d   1       1.300   2.327   0.441  0.00  0.00     0.009 C 
ENDBRANCH   7   8
ENDBRANCH   1   7
TORSDOF 2
ENDMDL
