MODEL 1
REMARK minimizedAffinity -4.49404192
REMARK minimizedRMSD -1
REMARK  2 active torsions:
REMARK  status: ('A' for Active; 'I' for Inactive)
REMARK    1  A    between atoms: C1_2  and  C2_3 
REMARK    2  A    between atoms: C2_3  and  C3_4 
ROOT
ATOM      1  C3  UNL d   1      -0.182   0.097  -0.015  0.00  0.00    -0.075 A 
ATOM      2  C4  UNL d   1      -0.804  -0.055   1.233  0.00  0.00     0.002 A 
ATOM      3  C5  UNL d   1      -0.947  -1.320   1.804  0.00  0.00     0.002 A 
ATOM      4  C6  UNL d   1      -0.480  -2.447   1.132  0.00  0.00    -0.004 A 
ATOM      5  C7  UNL d   1       0.125  -2.310  -0.115  0.00  0.00     0.002 A 
ATOM      6  C8  UNL d   1       0.273  -1.045  -0.687  0.00  0.00     0.002 A 
ENDROOT
BRANCH   1   7
ATOM      7  C2  UNL d   1       0.001   1.466  -0.624  0.00  0.00     0.056 C 
BRANCH   7   8
ATOM      8  C1  UNL d   1       0.469   2.534   0.370  0.00  0.00     0.007 C 
ATOM      9  C   UNL d   1       1.955   2.848   0.259  0.00  0.00     0.009 C 
ENDBRANCH   7   8
ENDBRANCH   1   7
TORSDOF 2
ENDMDL
