MODEL 1
REMARK minimizedAffinity -4.85659027
REMARK minimizedRMSD -1
REMARK  2 active torsions:
REMARK  status: ('A' for Active; 'I' for Inactive)
REMARK    1  A    between atoms: C1_2  and  C2_3 
REMARK    2  A    between atoms: C2_3  and  C3_4 
ROOT
ATOM      1  C3  UNL d   1       0.050   0.282   0.111  0.00  0.00    -0.075 A 
ATOM      2  C4  UNL d   1       0.881  -0.627  -0.560  0.00  0.00     0.002 A 
ATOM      3  C5  UNL d   1       0.767  -1.998  -0.324  0.00  0.00     0.002 A 
ATOM      4  C6  UNL d   1      -0.170  -2.475   0.590  0.00  0.00    -0.004 A 
ATOM      5  C7  UNL d   1      -0.989  -1.580   1.274  0.00  0.00     0.002 A 
ATOM      6  C8  UNL d   1      -0.880  -0.208   1.038  0.00  0.00     0.002 A 
ENDROOT
BRANCH   1   7
ATOM      7  C2  UNL d   1       0.148   1.764  -0.161  0.00  0.00     0.056 C 
BRANCH   7   8
ATOM      8  C1  UNL d   1       1.539   2.354   0.094  0.00  0.00     0.007 C 
ATOM      9  C   UNL d   1       1.604   3.217   1.348  0.00  0.00     0.009 C 
ENDBRANCH   7   8
ENDBRANCH   1   7
TORSDOF 2
ENDMDL
