MODEL 1
REMARK minimizedAffinity -4.9835124
REMARK minimizedRMSD -1
REMARK  2 active torsions:
REMARK  status: ('A' for Active; 'I' for Inactive)
REMARK    1  A    between atoms: C1_2  and  C2_3 
REMARK    2  A    between atoms: C2_3  and  C3_4 
ROOT
ATOM      1  C3  UNL d   1       0.187   0.114   0.272  0.00  0.00    -0.075 A 
ATOM      2  C4  UNL d   1       0.014  -1.026  -0.526  0.00  0.00     0.002 A 
ATOM      3  C5  UNL d   1      -0.485  -2.207   0.025  0.00  0.00     0.002 A 
ATOM      4  C6  UNL d   1      -0.807  -2.266   1.379  0.00  0.00    -0.004 A 
ATOM      5  C7  UNL d   1      -0.624  -1.144   2.184  0.00  0.00     0.002 A 
ATOM      6  C8  UNL d   1      -0.129   0.040   1.635  0.00  0.00     0.002 A 
ENDROOT
BRANCH   1   7
ATOM      7  C2  UNL d   1       0.699   1.404  -0.324  0.00  0.00     0.056 C 
BRANCH   7   8
ATOM      8  C1  UNL d   1       0.715   2.581   0.657  0.00  0.00     0.007 C 
ATOM      9  C   UNL d   1       1.978   3.427   0.558  0.00  0.00     0.009 C 
ENDBRANCH   7   8
ENDBRANCH   1   7
TORSDOF 2
ENDMDL
