MODEL 1
REMARK minimizedAffinity -3.39636254
REMARK minimizedRMSD -1
REMARK  2 active torsions:
REMARK  status: ('A' for Active; 'I' for Inactive)
REMARK    1  A    between atoms: C1_2  and  C2_3 
REMARK    2  A    between atoms: C2_3  and  C3_4 
ROOT
ATOM      1  C3  UNL d   1       0.047   0.422   0.421  0.00  0.00    -0.075 A 
ATOM      2  C4  UNL d   1      -0.793  -0.287   1.292  0.00  0.00     0.002 A 
ATOM      3  C5  UNL d   1      -0.995  -1.657   1.122  0.00  0.00     0.002 A 
ATOM      4  C6  UNL d   1      -0.371  -2.331   0.074  0.00  0.00    -0.004 A 
ATOM      5  C7  UNL d   1       0.452  -1.633  -0.807  0.00  0.00     0.002 A 
ATOM      6  C8  UNL d   1       0.660  -0.264  -0.636  0.00  0.00     0.002 A 
ENDROOT
BRANCH   1   7
ATOM      7  C2  UNL d   1       0.294   1.899   0.618  0.00  0.00     0.056 C 
BRANCH   7   8
ATOM      8  C1  UNL d   1       1.769   2.303   0.526  0.00  0.00     0.007 C 
ATOM      9  C   UNL d   1       2.112   3.521   1.373  0.00  0.00     0.009 C 
ENDBRANCH   7   8
ENDBRANCH   1   7
TORSDOF 2
ENDMDL
