MODEL 1
REMARK minimizedAffinity -3.43566799
REMARK minimizedRMSD -1
REMARK  2 active torsions:
REMARK  status: ('A' for Active; 'I' for Inactive)
REMARK    1  A    between atoms: C1_2  and  C2_3 
REMARK    2  A    between atoms: C2_3  and  C3_4 
ROOT
ATOM      1  C3  UNL d   1      -0.179   0.553   0.347  0.00  0.00    -0.075 A 
ATOM      2  C4  UNL d   1      -1.049   0.266   1.409  0.00  0.00     0.002 A 
ATOM      3  C5  UNL d   1      -1.287  -1.055   1.791  0.00  0.00     0.002 A 
ATOM      4  C6  UNL d   1      -0.669  -2.102   1.112  0.00  0.00    -0.004 A 
ATOM      5  C7  UNL d   1       0.184  -1.829   0.045  0.00  0.00     0.002 A 
ATOM      6  C8  UNL d   1       0.428  -0.508  -0.337  0.00  0.00     0.002 A 
ENDROOT
BRANCH   1   7
ATOM      7  C2  UNL d   1       0.107   1.981  -0.052  0.00  0.00     0.056 C 
BRANCH   7   8
ATOM      8  C1  UNL d   1       1.584   2.376   0.056  0.00  0.00     0.007 C 
ATOM      9  C   UNL d   1       1.856   3.387   1.162  0.00  0.00     0.009 C 
ENDBRANCH   7   8
ENDBRANCH   1   7
TORSDOF 2
ENDMDL
