MODEL 1
REMARK minimizedAffinity -5.58670855
REMARK minimizedRMSD -1
REMARK  2 active torsions:
REMARK  status: ('A' for Active; 'I' for Inactive)
REMARK    1  A    between atoms: C1_2  and  C2_3 
REMARK    2  A    between atoms: C2_3  and  C3_4 
ROOT
ATOM      1  C3  UNL d   1      -0.198   0.380  -0.133  0.00  0.00    -0.075 A 
ATOM      2  C4  UNL d   1      -1.164   0.244   0.875  0.00  0.00     0.002 A 
ATOM      3  C5  UNL d   1      -1.379  -0.991   1.488  0.00  0.00     0.002 A 
ATOM      4  C6  UNL d   1      -0.641  -2.105   1.095  0.00  0.00    -0.004 A 
ATOM      5  C7  UNL d   1       0.309  -1.985   0.083  0.00  0.00     0.002 A 
ATOM      6  C8  UNL d   1       0.530  -0.750  -0.529  0.00  0.00     0.002 A 
ENDROOT
BRANCH   1   7
ATOM      7  C2  UNL d   1       0.060   1.720  -0.779  0.00  0.00     0.056 C 
BRANCH   7   8
ATOM      8  C1  UNL d   1       1.003   2.627   0.020  0.00  0.00     0.007 C 
ATOM      9  C   UNL d   1       2.319   2.903  -0.695  0.00  0.00     0.009 C 
ENDBRANCH   7   8
ENDBRANCH   1   7
TORSDOF 2
ENDMDL
