MODEL 1
REMARK minimizedAffinity -2.80942416
REMARK minimizedRMSD -1
REMARK  0 active torsions:
REMARK  status: ('A' for Active; 'I' for Inactive)
ROOT
ATOM      1  C   UNL d   1      -0.425   3.195   0.874  0.00  0.00     0.172 C 
ATOM      2  N   UNL d   1      -0.383   1.758   1.008  0.00  0.00    -0.070 N 
ATOM      3  C1  UNL d   1       0.080   0.880   0.064  0.00  0.00    -0.004 A 
ATOM      4  C2  UNL d   1      -0.049  -0.394   0.573  0.00  0.00    -0.047 A 
ATOM      5  C3  UNL d   1      -0.610  -0.278   1.867  0.00  0.00    -0.047 A 
ATOM      6  C4  UNL d   1      -0.807   1.064   2.111  0.00  0.00    -0.004 A 
ENDROOT
TORSDOF 0
ENDMDL
