MODEL 1
REMARK minimizedAffinity -1.93900251
REMARK minimizedRMSD -1
REMARK  0 active torsions:
REMARK  status: ('A' for Active; 'I' for Inactive)
ROOT
ATOM      1  C   UNL d   1       0.060   2.676  -0.883  0.00  0.00     0.172 C 
ATOM      2  N   UNL d   1       0.091   1.837   0.293  0.00  0.00    -0.070 N 
ATOM      3  C1  UNL d   1       0.416   0.507   0.316  0.00  0.00    -0.004 A 
ATOM      4  C2  UNL d   1       0.328   0.074   1.622  0.00  0.00    -0.047 A 
ATOM      5  C3  UNL d   1      -0.065   1.182   2.410  0.00  0.00    -0.047 A 
ATOM      6  C4  UNL d   1      -0.204   2.261   1.562  0.00  0.00    -0.004 A 
ENDROOT
TORSDOF 0
ENDMDL
