MODEL 1
REMARK minimizedAffinity -3.21010971
REMARK minimizedRMSD -1
REMARK  0 active torsions:
REMARK  status: ('A' for Active; 'I' for Inactive)
ROOT
ATOM      1  C   UNL d   1      -0.477   3.457  -0.326  0.00  0.00     0.172 C 
ATOM      2  N   UNL d   1      -0.323   2.128   0.218  0.00  0.00    -0.070 N 
ATOM      3  C1  UNL d   1      -0.176   1.820   1.544  0.00  0.00    -0.004 A 
ATOM      4  C2  UNL d   1      -0.059   0.451   1.650  0.00  0.00    -0.047 A 
ATOM      5  C3  UNL d   1      -0.138  -0.082   0.342  0.00  0.00    -0.047 A 
ATOM      6  C4  UNL d   1      -0.301   0.978  -0.525  0.00  0.00    -0.004 A 
ENDROOT
TORSDOF 0
ENDMDL
