MODEL 1
REMARK minimizedAffinity -1.69260573
REMARK minimizedRMSD -1
REMARK  0 active torsions:
REMARK  status: ('A' for Active; 'I' for Inactive)
ROOT
ATOM      1  C   UNL d   1       0.826  -1.010  -0.924  0.00  0.00     0.172 C 
ATOM      2  N   UNL d   1       0.260  -2.334  -1.032  0.00  0.00    -0.070 N 
ATOM      3  C1  UNL d   1       0.969  -3.494  -1.196  0.00  0.00    -0.004 A 
ATOM      4  C2  UNL d   1       0.068  -4.535  -1.255  0.00  0.00    -0.047 A 
ATOM      5  C3  UNL d   1      -1.228  -3.981  -1.123  0.00  0.00    -0.047 A 
ATOM      6  C4  UNL d   1      -1.079  -2.617  -0.987  0.00  0.00    -0.004 A 
ENDROOT
TORSDOF 0
ENDMDL
