MODEL 1
REMARK minimizedAffinity -3.13275051
REMARK minimizedRMSD -1
REMARK  0 active torsions:
REMARK  status: ('A' for Active; 'I' for Inactive)
ROOT
ATOM      1  C   UNL d   1       0.047  -2.998  -1.017  0.00  0.00     0.172 C 
ATOM      2  N   UNL d   1       0.002  -1.831  -0.168  0.00  0.00    -0.070 N 
ATOM      3  C1  UNL d   1       0.696  -0.668  -0.371  0.00  0.00    -0.004 A 
ATOM      4  C2  UNL d   1       0.381   0.196   0.655  0.00  0.00    -0.047 A 
ATOM      5  C3  UNL d   1      -0.533  -0.470   1.505  0.00  0.00    -0.047 A 
ATOM      6  C4  UNL d   1      -0.751  -1.723   0.972  0.00  0.00    -0.004 A 
ENDROOT
TORSDOF 0
ENDMDL
