MODEL 1
REMARK minimizedAffinity -1.5859431
REMARK minimizedRMSD -1
REMARK  0 active torsions:
REMARK  status: ('A' for Active; 'I' for Inactive)
ROOT
ATOM      1  C   UNL d   1       1.815  -3.764  -0.001  0.00  0.00     0.172 C 
ATOM      2  N   UNL d   1       0.539  -3.620  -0.661  0.00  0.00    -0.070 N 
ATOM      3  C1  UNL d   1      -0.667  -4.041  -0.166  0.00  0.00    -0.004 A 
ATOM      4  C2  UNL d   1      -1.637  -3.719  -1.091  0.00  0.00    -0.047 A 
ATOM      5  C3  UNL d   1      -0.992  -3.084  -2.178  0.00  0.00    -0.047 A 
ATOM      6  C4  UNL d   1       0.354  -3.036  -1.886  0.00  0.00    -0.004 A 
ENDROOT
TORSDOF 0
ENDMDL
