MODEL 1
REMARK minimizedAffinity -2.19919133
REMARK minimizedRMSD -1
REMARK  0 active torsions:
REMARK  status: ('A' for Active; 'I' for Inactive)
ROOT
ATOM      1  C   UNL d   1       0.486  -0.325  -0.863  0.00  0.00     0.172 C 
ATOM      2  N   UNL d   1       0.059  -1.688  -1.081  0.00  0.00    -0.070 N 
ATOM      3  C1  UNL d   1      -1.039  -2.074  -1.803  0.00  0.00    -0.004 A 
ATOM      4  C2  UNL d   1      -1.099  -3.451  -1.773  0.00  0.00    -0.047 A 
ATOM      5  C3  UNL d   1      -0.001  -3.907  -1.006  0.00  0.00    -0.047 A 
ATOM      6  C4  UNL d   1       0.700  -2.794  -0.590  0.00  0.00    -0.004 A 
ENDROOT
TORSDOF 0
ENDMDL
