MODEL 1
REMARK minimizedAffinity -1.72380781
REMARK minimizedRMSD -1
REMARK  0 active torsions:
REMARK  status: ('A' for Active; 'I' for Inactive)
ROOT
ATOM      1  C   UNL d   1      -0.779  -2.429  -1.147  0.00  0.00     0.172 C 
ATOM      2  N   UNL d   1      -0.406  -1.374  -0.235  0.00  0.00    -0.070 N 
ATOM      3  C1  UNL d   1       0.475  -0.360  -0.504  0.00  0.00    -0.004 A 
ATOM      4  C2  UNL d   1       0.558   0.436   0.619  0.00  0.00    -0.047 A 
ATOM      5  C3  UNL d   1      -0.302  -0.120   1.596  0.00  0.00    -0.047 A 
ATOM      6  C4  UNL d   1      -0.885  -1.239   1.041  0.00  0.00    -0.004 A 
ENDROOT
TORSDOF 0
ENDMDL
