MODEL 1
REMARK minimizedAffinity -0.33128354
REMARK minimizedRMSD -1
REMARK  0 active torsions:
REMARK  status: ('A' for Active; 'I' for Inactive)
ROOT
ATOM      1  O1  BZF d   1       2.872  -2.229   0.582  0.00  0.00    -0.204 OA
ATOM      2  C2  BZF d   1       3.159  -1.392   1.642  0.00  0.00     0.174 A 
ATOM      3  C3  BZF d   1       3.869  -0.322   1.229  0.00  0.00    -0.012 A 
ATOM      4  C3A BZF d   1       3.956  -0.455  -0.193  0.00  0.00    -0.107 A 
ATOM      5  C4  BZF d   1       4.525   0.306  -1.175  0.00  0.00     0.055 A 
ATOM      6  C5  BZF d   1       4.496  -0.142  -2.457  0.00  0.00    -0.016 A 
ATOM      7  C6  BZF d   1       3.912  -1.345  -2.794  0.00  0.00     0.022 A 
ATOM      8  C7  BZF d   1       3.330  -2.132  -1.856  0.00  0.00     0.029 A 
ATOM      9  C7A BZF d   1       3.329  -1.667  -0.563  0.00  0.00     0.058 A 
ENDROOT
TORSDOF 0
ENDMDL
