MODEL 1
REMARK minimizedAffinity 9.57787418
REMARK minimizedRMSD -1
REMARK  0 active torsions:
REMARK  status: ('A' for Active; 'I' for Inactive)
ROOT
ATOM      1  O1  BZF d   1      -0.019   0.714  -0.352  0.00  0.00    -0.204 OA
ATOM      2  C2  BZF d   1       0.316   1.197   0.899  0.00  0.00     0.174 A 
ATOM      3  C3  BZF d   1       1.402   0.561   1.382  0.00  0.00    -0.012 A 
ATOM      4  C3A BZF d   1       1.825  -0.314   0.331  0.00  0.00    -0.107 A 
ATOM      5  C4  BZF d   1       2.860  -1.196   0.203  0.00  0.00     0.055 A 
ATOM      6  C5  BZF d   1       2.949  -1.949  -0.924  0.00  0.00    -0.016 A 
ATOM      7  C6  BZF d   1       2.021  -1.850  -1.940  0.00  0.00     0.022 A 
ATOM      8  C7  BZF d   1       0.980  -0.985  -1.860  0.00  0.00     0.029 A 
ATOM      9  C7A BZF d   1       0.905  -0.199  -0.737  0.00  0.00     0.058 A 
ENDROOT
TORSDOF 0
ENDMDL
