MODEL 1
REMARK minimizedAffinity 6.03268337
REMARK minimizedRMSD -1
REMARK  0 active torsions:
REMARK  status: ('A' for Active; 'I' for Inactive)
ROOT
ATOM      1  O1  BZF d   1       1.202  -0.534  -0.393  0.00  0.00    -0.204 OA
ATOM      2  C2  BZF d   1       2.382  -1.253  -0.376  0.00  0.00     0.174 A 
ATOM      3  C3  BZF d   1       3.422  -0.457  -0.052  0.00  0.00    -0.012 A 
ATOM      4  C3A BZF d   1       2.844   0.819   0.235  0.00  0.00    -0.107 A 
ATOM      5  C4  BZF d   1       3.365   2.018   0.631  0.00  0.00     0.055 A 
ATOM      6  C5  BZF d   1       2.538   3.089   0.754  0.00  0.00    -0.016 A 
ATOM      7  C6  BZF d   1       1.188   2.999   0.485  0.00  0.00     0.022 A 
ATOM      8  C7  BZF d   1       0.624   1.830   0.095  0.00  0.00     0.029 A 
ATOM      9  C7A BZF d   1       1.452   0.737   0.002  0.00  0.00     0.058 A 
ENDROOT
TORSDOF 0
ENDMDL
