MODEL 1
REMARK minimizedAffinity 4.62894201
REMARK minimizedRMSD -1
REMARK  0 active torsions:
REMARK  status: ('A' for Active; 'I' for Inactive)
ROOT
ATOM      1  O1  BZF d   1       1.667   2.792   0.336  0.00  0.00    -0.204 OA
ATOM      2  C2  BZF d   1       0.359   2.359   0.247  0.00  0.00     0.174 A 
ATOM      3  C3  BZF d   1       0.299   1.012   0.250  0.00  0.00    -0.012 A 
ATOM      4  C3A BZF d   1       1.649   0.576   0.439  0.00  0.00    -0.107 A 
ATOM      5  C4  BZF d   1       2.233  -0.654   0.543  0.00  0.00     0.055 A 
ATOM      6  C5  BZF d   1       3.585  -0.737   0.650  0.00  0.00    -0.016 A 
ATOM      7  C6  BZF d   1       4.383   0.388   0.649  0.00  0.00     0.022 A 
ATOM      8  C7  BZF d   1       3.850   1.630   0.553  0.00  0.00     0.029 A 
ATOM      9  C7A BZF d   1       2.481   1.719   0.479  0.00  0.00     0.058 A 
ENDROOT
TORSDOF 0
ENDMDL
