MODEL 1
REMARK minimizedAffinity 7.82263422
REMARK minimizedRMSD -1
REMARK  0 active torsions:
REMARK  status: ('A' for Active; 'I' for Inactive)
ROOT
ATOM      1  O1  BZF d   1       2.651   1.393  -0.179  0.00  0.00    -0.204 OA
ATOM      2  C2  BZF d   1       3.492   0.525   0.489  0.00  0.00     0.174 A 
ATOM      3  C3  BZF d   1       2.982   0.196   1.693  0.00  0.00    -0.012 A 
ATOM      4  C3A BZF d   1       1.701   0.830   1.745  0.00  0.00    -0.107 A 
ATOM      5  C4  BZF d   1       0.707   0.864   2.681  0.00  0.00     0.055 A 
ATOM      6  C5  BZF d   1      -0.388   1.637   2.454  0.00  0.00    -0.016 A 
ATOM      7  C6  BZF d   1      -0.519   2.391   1.307  0.00  0.00     0.022 A 
ATOM      8  C7  BZF d   1       0.438   2.386   0.347  0.00  0.00     0.029 A 
ATOM      9  C7A BZF d   1       1.530   1.581   0.558  0.00  0.00     0.058 A 
ENDROOT
TORSDOF 0
ENDMDL
