MODEL 1
REMARK minimizedAffinity 7.74093151
REMARK minimizedRMSD -1
REMARK  0 active torsions:
REMARK  status: ('A' for Active; 'I' for Inactive)
ROOT
ATOM      1  O1  BZF d   1       3.488  -1.191   0.334  0.00  0.00    -0.204 OA
ATOM      2  C2  BZF d   1       2.585  -2.177  -0.015  0.00  0.00     0.174 A 
ATOM      3  C3  BZF d   1       1.391  -1.639  -0.337  0.00  0.00    -0.012 A 
ATOM      4  C3A BZF d   1       1.585  -0.223  -0.269  0.00  0.00    -0.107 A 
ATOM      5  C4  BZF d   1       0.770   0.849  -0.497  0.00  0.00     0.055 A 
ATOM      6  C5  BZF d   1       1.246   2.101  -0.271  0.00  0.00    -0.016 A 
ATOM      7  C6  BZF d   1       2.529   2.318   0.187  0.00  0.00     0.022 A 
ATOM      8  C7  BZF d   1       3.377   1.287   0.423  0.00  0.00     0.029 A 
ATOM      9  C7A BZF d   1       2.909   0.022   0.164  0.00  0.00     0.058 A 
ENDROOT
TORSDOF 0
ENDMDL
