MODEL 1
REMARK minimizedAffinity 7.45147562
REMARK minimizedRMSD -1
REMARK  0 active torsions:
REMARK  status: ('A' for Active; 'I' for Inactive)
ROOT
ATOM      1  O1  BZF d   1       3.042  -1.629  -0.345  0.00  0.00    -0.204 OA
ATOM      2  C2  BZF d   1       1.805  -2.080   0.071  0.00  0.00     0.174 A 
ATOM      3  C3  BZF d   1       1.105  -1.085   0.655  0.00  0.00    -0.012 A 
ATOM      4  C3A BZF d   1       1.922   0.081   0.516  0.00  0.00    -0.107 A 
ATOM      5  C4  BZF d   1       1.765   1.387   0.883  0.00  0.00     0.055 A 
ATOM      6  C5  BZF d   1       2.782   2.261   0.667  0.00  0.00    -0.016 A 
ATOM      7  C6  BZF d   1       3.971   1.864   0.092  0.00  0.00     0.022 A 
ATOM      8  C7  BZF d   1       4.173   0.580  -0.293  0.00  0.00     0.029 A 
ATOM      9  C7A BZF d   1       3.134  -0.299  -0.106  0.00  0.00     0.058 A 
ENDROOT
TORSDOF 0
ENDMDL
