MODEL 1
REMARK minimizedAffinity 0.631403446
REMARK minimizedRMSD -1
REMARK  0 active torsions:
REMARK  status: ('A' for Active; 'I' for Inactive)
ROOT
ATOM      1  O1  BZF d   1       3.462  -1.653  -1.439  0.00  0.00    -0.204 OA
ATOM      2  C2  BZF d   1       2.613  -2.399  -0.646  0.00  0.00     0.174 A 
ATOM      3  C3  BZF d   1       2.071  -1.636   0.325  0.00  0.00    -0.012 A 
ATOM      4  C3A BZF d   1       2.544  -0.310   0.070  0.00  0.00    -0.107 A 
ATOM      5  C4  BZF d   1       2.340   0.893   0.681  0.00  0.00     0.055 A 
ATOM      6  C5  BZF d   1       3.008   1.987   0.227  0.00  0.00    -0.016 A 
ATOM      7  C6  BZF d   1       3.890   1.911  -0.831  0.00  0.00     0.022 A 
ATOM      8  C7  BZF d   1       4.120   0.740  -1.473  0.00  0.00     0.029 A 
ATOM      9  C7A BZF d   1       3.422  -0.360  -1.038  0.00  0.00     0.058 A 
ENDROOT
TORSDOF 0
ENDMDL
