MODEL 1
REMARK minimizedAffinity 2.24543142
REMARK minimizedRMSD -1
REMARK  0 active torsions:
REMARK  status: ('A' for Active; 'I' for Inactive)
ROOT
ATOM      1  O1  BZF d   1       2.437  -3.259  -0.077  0.00  0.00    -0.204 OA
ATOM      2  C2  BZF d   1       1.244  -3.448  -0.749  0.00  0.00     0.174 A 
ATOM      3  C3  BZF d   1       0.647  -2.267  -1.005  0.00  0.00    -0.012 A 
ATOM      4  C3A BZF d   1       1.565  -1.272  -0.542  0.00  0.00    -0.107 A 
ATOM      5  C4  BZF d   1       1.545   0.093  -0.535  0.00  0.00     0.055 A 
ATOM      6  C5  BZF d   1       2.566   0.765   0.058  0.00  0.00    -0.016 A 
ATOM      7  C6  BZF d   1       3.619   0.105   0.657  0.00  0.00     0.022 A 
ATOM      8  C7  BZF d   1       3.686  -1.248   0.670  0.00  0.00     0.029 A 
ATOM      9  C7A BZF d   1       2.672  -1.930   0.043  0.00  0.00     0.058 A 
ENDROOT
TORSDOF 0
ENDMDL
