MODEL 1
REMARK minimizedAffinity 4.96503258
REMARK minimizedRMSD -1
REMARK  0 active torsions:
REMARK  status: ('A' for Active; 'I' for Inactive)
ROOT
ATOM      1  O1  BZF d   1       2.116   1.101  -0.680  0.00  0.00    -0.204 OA
ATOM      2  C2  BZF d   1       3.435   1.071  -1.088  0.00  0.00     0.174 A 
ATOM      3  C3  BZF d   1       3.835  -0.196  -1.321  0.00  0.00    -0.012 A 
ATOM      4  C3A BZF d   1       2.667  -1.001  -1.129  0.00  0.00    -0.107 A 
ATOM      5  C4  BZF d   1       2.423  -2.340  -1.231  0.00  0.00     0.055 A 
ATOM      6  C5  BZF d   1       1.191  -2.814  -0.906  0.00  0.00    -0.016 A 
ATOM      7  C6  BZF d   1       0.184  -1.978  -0.471  0.00  0.00     0.022 A 
ATOM      8  C7  BZF d   1       0.377  -0.641  -0.358  0.00  0.00     0.029 A 
ATOM      9  C7A BZF d   1       1.611  -0.155  -0.718  0.00  0.00     0.058 A 
ENDROOT
TORSDOF 0
ENDMDL
