MODEL 1
REMARK minimizedAffinity -4.19872379
REMARK minimizedRMSD -1
REMARK  0 active torsions:
REMARK  status: ('A' for Active; 'I' for Inactive)
ROOT
ATOM      1  O1  BZF d   1       0.250   0.129  -0.899  0.00  0.00    -0.204 OA
ATOM      2  C2  BZF d   1      -0.125   0.527   0.370  0.00  0.00     0.174 A 
ATOM      3  C3  BZF d   1      -0.532  -0.531   1.102  0.00  0.00    -0.012 A 
ATOM      4  C3A BZF d   1      -0.315  -1.672   0.267  0.00  0.00    -0.107 A 
ATOM      5  C4  BZF d   1      -0.510  -3.013   0.440  0.00  0.00     0.055 A 
ATOM      6  C5  BZF d   1      -0.267  -3.855  -0.598  0.00  0.00    -0.016 A 
ATOM      7  C6  BZF d   1       0.167  -3.392  -1.822  0.00  0.00     0.022 A 
ATOM      8  C7  BZF d   1       0.380  -2.071  -2.041  0.00  0.00     0.029 A 
ATOM      9  C7A BZF d   1       0.166  -1.221  -0.984  0.00  0.00     0.058 A 
ENDROOT
TORSDOF 0
ENDMDL
