MODEL 1
REMARK minimizedAffinity -2.08740115
REMARK minimizedRMSD -1
REMARK  0 active torsions:
REMARK  status: ('A' for Active; 'I' for Inactive)
ROOT
ATOM      1  O1  BZF d   1       0.726  -0.037  -1.008  0.00  0.00    -0.204 OA
ATOM      2  C2  BZF d   1       0.581   1.299  -0.688  0.00  0.00     0.174 A 
ATOM      3  C3  BZF d   1      -0.313   1.458   0.309  0.00  0.00    -0.012 A 
ATOM      4  C3A BZF d   1      -0.686   0.132   0.695  0.00  0.00    -0.107 A 
ATOM      5  C4  BZF d   1      -1.531  -0.366   1.645  0.00  0.00     0.055 A 
ATOM      6  C5  BZF d   1      -1.727  -1.709   1.715  0.00  0.00    -0.016 A 
ATOM      7  C6  BZF d   1      -1.100  -2.581   0.850  0.00  0.00     0.022 A 
ATOM      8  C7  BZF d   1      -0.249  -2.134  -0.106  0.00  0.00     0.029 A 
ATOM      9  C7A BZF d   1      -0.023  -0.780  -0.158  0.00  0.00     0.058 A 
ENDROOT
TORSDOF 0
ENDMDL
