MODEL 1
REMARK minimizedAffinity -2.61686707
REMARK minimizedRMSD -1
REMARK  0 active torsions:
REMARK  status: ('A' for Active; 'I' for Inactive)
ROOT
ATOM      1  O1  BZF d   1      -1.006  -2.429   1.223  0.00  0.00    -0.204 OA
ATOM      2  C2  BZF d   1      -0.372  -3.263   0.322  0.00  0.00     0.174 A 
ATOM      3  C3  BZF d   1       0.122  -2.557  -0.716  0.00  0.00    -0.012 A 
ATOM      4  C3A BZF d   1      -0.143  -1.187  -0.400  0.00  0.00    -0.107 A 
ATOM      5  C4  BZF d   1       0.123  -0.009  -1.037  0.00  0.00     0.055 A 
ATOM      6  C5  BZF d   1      -0.335   1.151  -0.497  0.00  0.00    -0.016 A 
ATOM      7  C6  BZF d   1      -1.066   1.169   0.673  0.00  0.00     0.022 A 
ATOM      8  C7  BZF d   1      -1.351   0.026   1.343  0.00  0.00     0.029 A 
ATOM      9  C7A BZF d   1      -0.861  -1.145   0.818  0.00  0.00     0.058 A 
ENDROOT
TORSDOF 0
ENDMDL
