MODEL 1
REMARK minimizedAffinity -4.24443769
REMARK minimizedRMSD -1
REMARK  0 active torsions:
REMARK  status: ('A' for Active; 'I' for Inactive)
ROOT
ATOM      1  O1  BZF d   1       0.927   0.235  -1.074  0.00  0.00    -0.204 OA
ATOM      2  C2  BZF d   1       0.498   1.475  -0.642  0.00  0.00     0.174 A 
ATOM      3  C3  BZF d   1      -0.338   1.353   0.409  0.00  0.00    -0.012 A 
ATOM      4  C3A BZF d   1      -0.365  -0.046   0.707  0.00  0.00    -0.107 A 
ATOM      5  C4  BZF d   1      -1.004  -0.791   1.657  0.00  0.00     0.055 A 
ATOM      6  C5  BZF d   1      -0.877  -2.144   1.630  0.00  0.00    -0.016 A 
ATOM      7  C6  BZF d   1      -0.124  -2.784   0.667  0.00  0.00     0.022 A 
ATOM      8  C7  BZF d   1       0.531  -2.087  -0.292  0.00  0.00     0.029 A 
ATOM      9  C7A BZF d   1       0.432  -0.718  -0.249  0.00  0.00     0.058 A 
ENDROOT
TORSDOF 0
ENDMDL
