MODEL 1
REMARK minimizedAffinity -1.64639366
REMARK minimizedRMSD -1
REMARK  0 active torsions:
REMARK  status: ('A' for Active; 'I' for Inactive)
ROOT
ATOM      1  O1  BZF d   1      -1.211  -2.660   1.136  0.00  0.00    -0.204 OA
ATOM      2  C2  BZF d   1      -0.203  -3.421   0.575  0.00  0.00     0.174 A 
ATOM      3  C3  BZF d   1       0.713  -2.634  -0.026  0.00  0.00    -0.012 A 
ATOM      4  C3A BZF d   1       0.296  -1.293   0.251  0.00  0.00    -0.107 A 
ATOM      5  C4  BZF d   1       0.808  -0.067  -0.065  0.00  0.00     0.055 A 
ATOM      6  C5  BZF d   1       0.119   1.048   0.295  0.00  0.00    -0.016 A 
ATOM      7  C6  BZF d   1      -1.083   0.974   0.966  0.00  0.00     0.022 A 
ATOM      8  C7  BZF d   1      -1.628  -0.220   1.306  0.00  0.00     0.029 A 
ATOM      9  C7A BZF d   1      -0.919  -1.348   0.973  0.00  0.00     0.058 A 
ENDROOT
TORSDOF 0
ENDMDL
