MODEL 1
REMARK minimizedAffinity -3.00175595
REMARK minimizedRMSD -1
REMARK  0 active torsions:
REMARK  status: ('A' for Active; 'I' for Inactive)
ROOT
ATOM      1  O1  BZF d   1       0.679   0.938  -0.541  0.00  0.00    -0.204 OA
ATOM      2  C2  BZF d   1      -0.161   1.635   0.307  0.00  0.00     0.174 A 
ATOM      3  C3  BZF d   1      -0.865   0.788   1.085  0.00  0.00    -0.012 A 
ATOM      4  C3A BZF d   1      -0.371  -0.516   0.766  0.00  0.00    -0.107 A 
ATOM      5  C4  BZF d   1      -0.666  -1.769   1.220  0.00  0.00     0.055 A 
ATOM      6  C5  BZF d   1      -0.055  -2.840   0.649  0.00  0.00    -0.016 A 
ATOM      7  C6  BZF d   1       0.851  -2.695  -0.381  0.00  0.00     0.022 A 
ATOM      8  C7  BZF d   1       1.180  -1.471  -0.863  0.00  0.00     0.029 A 
ATOM      9  C7A BZF d   1       0.589  -0.385  -0.265  0.00  0.00     0.058 A 
ENDROOT
TORSDOF 0
ENDMDL
