MODEL 1
REMARK minimizedAffinity -2.15261197
REMARK minimizedRMSD -1
REMARK  0 active torsions:
REMARK  status: ('A' for Active; 'I' for Inactive)
ROOT
ATOM      1  O1  BZF d   1      -0.066  -2.691  -0.578  0.00  0.00    -0.204 OA
ATOM      2  C2  BZF d   1      -0.728  -3.329   0.453  0.00  0.00     0.174 A 
ATOM      3  C3  BZF d   1      -1.269  -2.431   1.302  0.00  0.00    -0.012 A 
ATOM      4  C3A BZF d   1      -1.002  -1.153   0.718  0.00  0.00    -0.107 A 
ATOM      5  C4  BZF d   1      -1.302   0.128   1.084  0.00  0.00     0.055 A 
ATOM      6  C5  BZF d   1      -0.833   1.158   0.332  0.00  0.00    -0.016 A 
ATOM      7  C6  BZF d   1      -0.057   0.943  -0.788  0.00  0.00     0.022 A 
ATOM      8  C7  BZF d   1       0.263  -0.310  -1.194  0.00  0.00     0.029 A 
ATOM      9  C7A BZF d   1      -0.237  -1.353  -0.455  0.00  0.00     0.058 A 
ENDROOT
TORSDOF 0
ENDMDL
