MODEL 1
REMARK minimizedAffinity -3.8891964
REMARK minimizedRMSD -1
REMARK  0 active torsions:
REMARK  status: ('A' for Active; 'I' for Inactive)
ROOT
ATOM      1  O1  BZF d   1       0.069   0.589  -1.648  0.00  0.00    -0.204 OA
ATOM      2  C2  BZF d   1      -0.036   1.209  -0.418  0.00  0.00     0.174 A 
ATOM      3  C3  BZF d   1      -0.084   0.297   0.574  0.00  0.00    -0.012 A 
ATOM      4  C3A BZF d   1       0.089  -0.969  -0.069  0.00  0.00    -0.107 A 
ATOM      5  C4  BZF d   1       0.148  -2.254   0.388  0.00  0.00     0.055 A 
ATOM      6  C5  BZF d   1       0.252  -3.270  -0.509  0.00  0.00    -0.016 A 
ATOM      7  C6  BZF d   1       0.294  -3.038  -1.868  0.00  0.00     0.022 A 
ATOM      8  C7  BZF d   1       0.244  -1.779  -2.369  0.00  0.00     0.029 A 
ATOM      9  C7A BZF d   1       0.172  -0.749  -1.464  0.00  0.00     0.058 A 
ENDROOT
TORSDOF 0
ENDMDL
