MODEL 1
REMARK minimizedAffinity -4.36303711
REMARK minimizedRMSD -1
REMARK  0 active torsions:
REMARK  status: ('A' for Active; 'I' for Inactive)
ROOT
ATOM      1  O1  BZF d   1       0.596  -0.932  -2.114  0.00  0.00    -0.204 OA
ATOM      2  C2  BZF d   1       0.477   0.411  -2.414  0.00  0.00     0.174 A 
ATOM      3  C3  BZF d   1      -0.172   1.065  -1.429  0.00  0.00    -0.012 A 
ATOM      4  C3A BZF d   1      -0.397   0.086  -0.411  0.00  0.00    -0.107 A 
ATOM      5  C4  BZF d   1      -0.984   0.131   0.821  0.00  0.00     0.055 A 
ATOM      6  C5  BZF d   1      -1.108  -1.019   1.536  0.00  0.00    -0.016 A 
ATOM      7  C6  BZF d   1      -0.661  -2.229   1.048  0.00  0.00     0.022 A 
ATOM      8  C7  BZF d   1      -0.068  -2.322  -0.167  0.00  0.00     0.029 A 
ATOM      9  C7A BZF d   1       0.089  -1.157  -0.878  0.00  0.00     0.058 A 
ENDROOT
TORSDOF 0
ENDMDL
