MODEL 1
REMARK minimizedAffinity -4.68303871
REMARK minimizedRMSD -1
REMARK  0 active torsions:
REMARK  status: ('A' for Active; 'I' for Inactive)
ROOT
ATOM      1  O1  BZF d   1       1.730  -0.190   0.775  0.00  0.00    -0.204 OA
ATOM      2  C2  BZF d   1       0.440  -0.629   0.547  0.00  0.00     0.174 A 
ATOM      3  C3  BZF d   1      -0.401   0.415   0.399  0.00  0.00    -0.012 A 
ATOM      4  C3A BZF d   1       0.430   1.578   0.452  0.00  0.00    -0.107 A 
ATOM      5  C4  BZF d   1       0.179   2.917   0.350  0.00  0.00     0.055 A 
ATOM      6  C5  BZF d   1       1.202   3.795   0.520  0.00  0.00    -0.016 A 
ATOM      7  C6  BZF d   1       2.485   3.371   0.797  0.00  0.00     0.022 A 
ATOM      8  C7  BZF d   1       2.783   2.053   0.902  0.00  0.00     0.029 A 
ATOM      9  C7A BZF d   1       1.758   1.162   0.699  0.00  0.00     0.058 A 
ENDROOT
TORSDOF 0
ENDMDL
