MODEL 1
REMARK minimizedAffinity -1.29666698
REMARK minimizedRMSD -1
REMARK  0 active torsions:
REMARK  status: ('A' for Active; 'I' for Inactive)
ROOT
ATOM      1  O1  BZF d   1       0.155   1.244  -1.300  0.00  0.00    -0.204 OA
ATOM      2  C2  BZF d   1      -0.386   1.592  -0.077  0.00  0.00     0.174 A 
ATOM      3  C3  BZF d   1      -0.498   0.511   0.721  0.00  0.00    -0.012 A 
ATOM      4  C3A BZF d   1       0.089  -0.565  -0.017  0.00  0.00    -0.107 A 
ATOM      5  C4  BZF d   1       0.291  -1.889   0.252  0.00  0.00     0.055 A 
ATOM      6  C5  BZF d   1       0.826  -2.684  -0.710  0.00  0.00    -0.016 A 
ATOM      7  C6  BZF d   1       1.165  -2.192  -1.954  0.00  0.00     0.022 A 
ATOM      8  C7  BZF d   1       0.989  -0.885  -2.266  0.00  0.00     0.029 A 
ATOM      9  C7A BZF d   1       0.479  -0.071  -1.284  0.00  0.00     0.058 A 
ENDROOT
TORSDOF 0
ENDMDL
