MODEL 1
REMARK minimizedAffinity -2.08404827
REMARK minimizedRMSD -1
REMARK  0 active torsions:
REMARK  status: ('A' for Active; 'I' for Inactive)
ROOT
ATOM      1  O1  BZF d   1      -0.594   1.344  -1.251  0.00  0.00    -0.204 OA
ATOM      2  C2  BZF d   1      -1.156   1.573  -0.010  0.00  0.00     0.174 A 
ATOM      3  C3  BZF d   1      -1.038   0.485   0.778  0.00  0.00    -0.012 A 
ATOM      4  C3A BZF d   1      -0.278  -0.454   0.011  0.00  0.00    -0.107 A 
ATOM      5  C4  BZF d   1       0.180  -1.717   0.258  0.00  0.00     0.055 A 
ATOM      6  C5  BZF d   1       0.829  -2.389  -0.729  0.00  0.00    -0.016 A 
ATOM      7  C6  BZF d   1       1.033  -1.832  -1.974  0.00  0.00     0.022 A 
ATOM      8  C7  BZF d   1       0.602  -0.580  -2.265  0.00  0.00     0.029 A 
ATOM      9  C7A BZF d   1      -0.025   0.114  -1.259  0.00  0.00     0.058 A 
ENDROOT
TORSDOF 0
ENDMDL
