MODEL 1
REMARK minimizedAffinity -3.07232952
REMARK minimizedRMSD -1
REMARK  0 active torsions:
REMARK  status: ('A' for Active; 'I' for Inactive)
ROOT
ATOM      1  O1  BZF d   1      -0.871  -2.412   0.870  0.00  0.00    -0.204 OA
ATOM      2  C2  BZF d   1      -0.047  -3.163   0.054  0.00  0.00     0.174 A 
ATOM      3  C3  BZF d   1       0.621  -2.372  -0.810  0.00  0.00    -0.012 A 
ATOM      4  C3A BZF d   1       0.258  -1.035  -0.454  0.00  0.00    -0.107 A 
ATOM      5  C4  BZF d   1       0.608   0.193  -0.936  0.00  0.00     0.055 A 
ATOM      6  C5  BZF d   1       0.018   1.301  -0.415  0.00  0.00    -0.016 A 
ATOM      7  C6  BZF d   1      -0.930   1.217   0.584  0.00  0.00     0.022 A 
ATOM      8  C7  BZF d   1      -1.306   0.021   1.098  0.00  0.00     0.029 A 
ATOM      9  C7A BZF d   1      -0.687  -1.098   0.597  0.00  0.00     0.058 A 
ENDROOT
TORSDOF 0
ENDMDL
