MODEL 1
REMARK minimizedAffinity -2.5847795
REMARK minimizedRMSD -1
REMARK  0 active torsions:
REMARK  status: ('A' for Active; 'I' for Inactive)
ROOT
ATOM      1  O1  BZF d   1      -0.095   1.013  -2.181  0.00  0.00    -0.204 OA
ATOM      2  C2  BZF d   1      -0.372   1.888  -1.149  0.00  0.00     0.174 A 
ATOM      3  C3  BZF d   1      -0.402   1.240   0.034  0.00  0.00    -0.012 A 
ATOM      4  C3A BZF d   1      -0.034  -0.109  -0.268  0.00  0.00    -0.107 A 
ATOM      5  C4  BZF d   1       0.130  -1.231   0.495  0.00  0.00     0.055 A 
ATOM      6  C5  BZF d   1       0.422  -2.408  -0.117  0.00  0.00    -0.016 A 
ATOM      7  C6  BZF d   1       0.552  -2.502  -1.487  0.00  0.00     0.022 A 
ATOM      8  C7  BZF d   1       0.404  -1.416  -2.285  0.00  0.00     0.029 A 
ATOM      9  C7A BZF d   1       0.141  -0.218  -1.667  0.00  0.00     0.058 A 
ENDROOT
TORSDOF 0
ENDMDL
