MODEL 1
REMARK minimizedAffinity -4.17983675
REMARK minimizedRMSD -1
REMARK  0 active torsions:
REMARK  status: ('A' for Active; 'I' for Inactive)
ROOT
ATOM      1  O1  BZF d   1       0.175   0.397  -0.891  0.00  0.00    -0.204 OA
ATOM      2  C2  BZF d   1      -0.639   1.024   0.033  0.00  0.00     0.174 A 
ATOM      3  C3  BZF d   1      -1.161   0.128   0.896  0.00  0.00    -0.012 A 
ATOM      4  C3A BZF d   1      -0.569  -1.125   0.542  0.00  0.00    -0.107 A 
ATOM      5  C4  BZF d   1      -0.679  -2.390   1.044  0.00  0.00     0.055 A 
ATOM      6  C5  BZF d   1      -0.023  -3.406   0.424  0.00  0.00    -0.016 A 
ATOM      7  C6  BZF d   1       0.748  -3.194  -0.700  0.00  0.00     0.022 A 
ATOM      8  C7  BZF d   1       0.891  -1.955  -1.232  0.00  0.00     0.029 A 
ATOM      9  C7A BZF d   1       0.256  -0.921  -0.588  0.00  0.00     0.058 A 
ENDROOT
TORSDOF 0
ENDMDL
