MODEL 1
REMARK minimizedAffinity -4.15047693
REMARK minimizedRMSD -1
REMARK  0 active torsions:
REMARK  status: ('A' for Active; 'I' for Inactive)
ROOT
ATOM      1  O1  BZF d   1       0.305   1.051  -0.629  0.00  0.00    -0.204 OA
ATOM      2  C2  BZF d   1      -0.634   1.640   0.197  0.00  0.00     0.174 A 
ATOM      3  C3  BZF d   1      -1.330   0.703   0.873  0.00  0.00    -0.012 A 
ATOM      4  C3A BZF d   1      -0.730  -0.545   0.513  0.00  0.00    -0.107 A 
ATOM      5  C4  BZF d   1      -0.970  -1.840   0.872  0.00  0.00     0.055 A 
ATOM      6  C5  BZF d   1      -0.253  -2.833   0.283  0.00  0.00    -0.016 A 
ATOM      7  C6  BZF d   1       0.708  -2.567  -0.671  0.00  0.00     0.022 A 
ATOM      8  C7  BZF d   1       0.985  -1.297  -1.056  0.00  0.00     0.029 A 
ATOM      9  C7A BZF d   1       0.285  -0.290  -0.438  0.00  0.00     0.058 A 
ENDROOT
TORSDOF 0
ENDMDL
