MODEL 1
REMARK minimizedAffinity -3.01963305
REMARK minimizedRMSD -1
REMARK  0 active torsions:
REMARK  status: ('A' for Active; 'I' for Inactive)
ROOT
ATOM      1  C   UNL d   1       0.646  -0.985  -0.550  0.00  0.00     0.172 C 
ATOM      2  N   UNL d   1      -0.161  -0.097   0.253  0.00  0.00    -0.070 N 
ATOM      3  C1  UNL d   1      -0.103   0.022   1.616  0.00  0.00    -0.004 A 
ATOM      4  C2  UNL d   1      -1.027   0.971   1.996  0.00  0.00    -0.047 A 
ATOM      5  C3  UNL d   1      -1.663   1.438   0.822  0.00  0.00    -0.047 A 
ATOM      6  C4  UNL d   1      -1.108   0.760  -0.243  0.00  0.00    -0.004 A 
ENDROOT
TORSDOF 0
ENDMDL
