MODEL 1
REMARK minimizedAffinity -3.28978324
REMARK minimizedRMSD -1
REMARK  0 active torsions:
REMARK  status: ('A' for Active; 'I' for Inactive)
ROOT
ATOM      1  C   UNL d   1      -2.019   1.847   0.854  0.00  0.00     0.172 C 
ATOM      2  N   UNL d   1      -0.966   1.197   0.111  0.00  0.00    -0.070 N 
ATOM      3  C1  UNL d   1      -0.569  -0.105   0.262  0.00  0.00    -0.004 A 
ATOM      4  C2  UNL d   1       0.458  -0.339  -0.627  0.00  0.00    -0.047 A 
ATOM      5  C3  UNL d   1       0.687   0.864  -1.335  0.00  0.00    -0.047 A 
ATOM      6  C4  UNL d   1      -0.208   1.798  -0.859  0.00  0.00    -0.004 A 
ENDROOT
TORSDOF 0
ENDMDL
