MODEL 1
REMARK minimizedAffinity -3.03925347
REMARK minimizedRMSD -1
REMARK  0 active torsions:
REMARK  status: ('A' for Active; 'I' for Inactive)
ROOT
ATOM      1  C   UNL d   1       0.408  -0.627  -0.517  0.00  0.00     0.172 C 
ATOM      2  N   UNL d   1      -0.305   0.046   0.542  0.00  0.00    -0.070 N 
ATOM      3  C1  UNL d   1      -0.506  -0.443   1.805  0.00  0.00    -0.004 A 
ATOM      4  C2  UNL d   1      -1.228   0.495   2.512  0.00  0.00    -0.047 A 
ATOM      5  C3  UNL d   1      -1.469   1.586   1.642  0.00  0.00    -0.047 A 
ATOM      6  C4  UNL d   1      -0.887   1.281   0.430  0.00  0.00    -0.004 A 
ENDROOT
TORSDOF 0
ENDMDL
