MODEL 1
REMARK minimizedAffinity -3.53799701
REMARK minimizedRMSD -1
REMARK  0 active torsions:
REMARK  status: ('A' for Active; 'I' for Inactive)
ROOT
ATOM      1  C   UNL d   1       0.372  -0.852  -1.144  0.00  0.00     0.172 C 
ATOM      2  N   UNL d   1      -0.264  -0.194  -0.026  0.00  0.00    -0.070 N 
ATOM      3  C1  UNL d   1       0.003  -0.430   1.296  0.00  0.00    -0.004 A 
ATOM      4  C2  UNL d   1      -0.809   0.396   2.044  0.00  0.00    -0.047 A 
ATOM      5  C3  UNL d   1      -1.590   1.154   1.140  0.00  0.00    -0.047 A 
ATOM      6  C4  UNL d   1      -1.232   0.769  -0.135  0.00  0.00    -0.004 A 
ENDROOT
TORSDOF 0
ENDMDL
