MODEL 1
REMARK minimizedAffinity -3.10949063
REMARK minimizedRMSD -1
REMARK  0 active torsions:
REMARK  status: ('A' for Active; 'I' for Inactive)
ROOT
ATOM      1  C   UNL d   1       0.509  -0.075  -0.469  0.00  0.00     0.172 C 
ATOM      2  N   UNL d   1      -0.462   0.532   0.410  0.00  0.00    -0.070 N 
ATOM      3  C1  UNL d   1      -0.479   0.425   1.775  0.00  0.00    -0.004 A 
ATOM      4  C2  UNL d   1      -1.558   1.145   2.241  0.00  0.00    -0.047 A 
ATOM      5  C3  UNL d   1      -2.213   1.703   1.117  0.00  0.00    -0.047 A 
ATOM      6  C4  UNL d   1      -1.513   1.307  -0.003  0.00  0.00    -0.004 A 
ENDROOT
TORSDOF 0
ENDMDL
