MODEL 1
REMARK minimizedAffinity -3.28510761
REMARK minimizedRMSD -1
REMARK  0 active torsions:
REMARK  status: ('A' for Active; 'I' for Inactive)
ROOT
ATOM      1  C   UNL d   1      -2.254   1.711   1.372  0.00  0.00     0.172 C 
ATOM      2  N   UNL d   1      -1.195   1.056   0.641  0.00  0.00    -0.070 N 
ATOM      3  C1  UNL d   1      -0.697   1.455  -0.571  0.00  0.00    -0.004 A 
ATOM      4  C2  UNL d   1       0.299   0.572  -0.929  0.00  0.00    -0.047 A 
ATOM      5  C3  UNL d   1       0.404  -0.390   0.103  0.00  0.00    -0.047 A 
ATOM      6  C4  UNL d   1      -0.533  -0.066   1.062  0.00  0.00    -0.004 A 
ENDROOT
TORSDOF 0
ENDMDL
