MODEL 1
REMARK minimizedAffinity -2.47194314
REMARK minimizedRMSD -1
REMARK  0 active torsions:
REMARK  status: ('A' for Active; 'I' for Inactive)
ROOT
ATOM      1  C   UNL d   1       0.466  -0.128  -0.404  0.00  0.00     0.172 C 
ATOM      2  N   UNL d   1      -0.553   0.578   0.338  0.00  0.00    -0.070 N 
ATOM      3  C1  UNL d   1      -0.762   0.491   1.688  0.00  0.00    -0.004 A 
ATOM      4  C2  UNL d   1      -1.821   1.314   2.005  0.00  0.00    -0.047 A 
ATOM      5  C3  UNL d   1      -2.265   1.915   0.803  0.00  0.00    -0.047 A 
ATOM      6  C4  UNL d   1      -1.462   1.442  -0.213  0.00  0.00    -0.004 A 
ENDROOT
TORSDOF 0
ENDMDL
