MODEL 1
REMARK minimizedAffinity -2.75096655
REMARK minimizedRMSD -1
REMARK  0 active torsions:
REMARK  status: ('A' for Active; 'I' for Inactive)
ROOT
ATOM      1  C   UNL d   1       0.202  -0.640   2.193  0.00  0.00     0.172 C 
ATOM      2  N   UNL d   1      -0.601   0.502   1.824  0.00  0.00    -0.070 N 
ATOM      3  C1  UNL d   1      -0.867   0.911   0.544  0.00  0.00    -0.004 A 
ATOM      4  C2  UNL d   1      -1.664   2.033   0.617  0.00  0.00    -0.047 A 
ATOM      5  C3  UNL d   1      -1.883   2.309   1.988  0.00  0.00    -0.047 A 
ATOM      6  C4  UNL d   1      -1.214   1.346   2.713  0.00  0.00    -0.004 A 
ENDROOT
TORSDOF 0
ENDMDL
