MODEL 1
REMARK minimizedAffinity -2.48028469
REMARK minimizedRMSD -1
REMARK  0 active torsions:
REMARK  status: ('A' for Active; 'I' for Inactive)
ROOT
ATOM      1  C   UNL d   1      -0.084  -3.522  -1.031  0.00  0.00     0.172 C 
ATOM      2  N   UNL d   1       0.400  -2.162  -1.046  0.00  0.00    -0.070 N 
ATOM      3  C1  UNL d   1       1.338  -1.657  -1.908  0.00  0.00    -0.004 A 
ATOM      4  C2  UNL d   1       1.523  -0.327  -1.598  0.00  0.00    -0.047 A 
ATOM      5  C3  UNL d   1       0.668  -0.022  -0.513  0.00  0.00    -0.047 A 
ATOM      6  C4  UNL d   1      -0.016  -1.175  -0.192  0.00  0.00    -0.004 A 
ENDROOT
TORSDOF 0
ENDMDL
