MODEL 1
REMARK minimizedAffinity -2.54025626
REMARK minimizedRMSD -1
REMARK  0 active torsions:
REMARK  status: ('A' for Active; 'I' for Inactive)
ROOT
ATOM      1  C   UNL d   1      -0.253  -1.109   1.482  0.00  0.00     0.172 C 
ATOM      2  N   UNL d   1      -0.858   0.136   1.893  0.00  0.00    -0.070 N 
ATOM      3  C1  UNL d   1      -0.451   0.912   2.944  0.00  0.00    -0.004 A 
ATOM      4  C2  UNL d   1      -1.282   2.010   3.005  0.00  0.00    -0.047 A 
ATOM      5  C3  UNL d   1      -2.221   1.889   1.954  0.00  0.00    -0.047 A 
ATOM      6  C4  UNL d   1      -1.936   0.719   1.281  0.00  0.00    -0.004 A 
ENDROOT
TORSDOF 0
ENDMDL
