MODEL 1
REMARK minimizedAffinity -2.67539883
REMARK minimizedRMSD -1
REMARK  0 active torsions:
REMARK  status: ('A' for Active; 'I' for Inactive)
ROOT
ATOM      1  C   UNL d   1      -2.145   1.908   1.203  0.00  0.00     0.172 C 
ATOM      2  N   UNL d   1      -1.045   1.126   0.689  0.00  0.00    -0.070 N 
ATOM      3  C1  UNL d   1      -0.403   1.338  -0.502  0.00  0.00    -0.004 A 
ATOM      4  C2  UNL d   1       0.584   0.384  -0.625  0.00  0.00    -0.047 A 
ATOM      5  C3  UNL d   1       0.532  -0.431   0.531  0.00  0.00    -0.047 A 
ATOM      6  C4  UNL d   1      -0.485   0.051   1.327  0.00  0.00    -0.004 A 
ENDROOT
TORSDOF 0
ENDMDL
