MODEL 1
REMARK minimizedAffinity -3.25315738
REMARK minimizedRMSD -1
REMARK  0 active torsions:
REMARK  status: ('A' for Active; 'I' for Inactive)
ROOT
ATOM      1  C   UNL d   1       0.116   0.881  -0.676  0.00  0.00     0.172 C 
ATOM      2  N   UNL d   1      -0.801   0.920   0.440  0.00  0.00    -0.070 N 
ATOM      3  C1  UNL d   1      -0.567   0.396   1.683  0.00  0.00    -0.004 A 
ATOM      4  C2  UNL d   1      -1.680   0.638   2.459  0.00  0.00    -0.047 A 
ATOM      5  C3  UNL d   1      -2.616   1.330   1.654  0.00  0.00    -0.047 A 
ATOM      6  C4  UNL d   1      -2.045   1.491   0.408  0.00  0.00    -0.004 A 
ENDROOT
TORSDOF 0
ENDMDL
