MODEL 1
REMARK minimizedAffinity -3.54679799
REMARK minimizedRMSD -1
REMARK  0 active torsions:
REMARK  status: ('A' for Active; 'I' for Inactive)
ROOT
ATOM      1  C   UNL d   1       0.057  -0.643  -0.233  0.00  0.00     0.172 C 
ATOM      2  N   UNL d   1      -0.733   0.224   0.610  0.00  0.00    -0.070 N 
ATOM      3  C1  UNL d   1      -1.472   1.295   0.182  0.00  0.00    -0.004 A 
ATOM      4  C2  UNL d   1      -2.075   1.859   1.286  0.00  0.00    -0.047 A 
ATOM      5  C3  UNL d   1      -1.684   1.102   2.416  0.00  0.00    -0.047 A 
ATOM      6  C4  UNL d   1      -0.853   0.096   1.968  0.00  0.00    -0.004 A 
ENDROOT
TORSDOF 0
ENDMDL
