MODEL 1
REMARK minimizedAffinity -1.50623012
REMARK minimizedRMSD -1
REMARK  1 active torsions:
REMARK  status: ('A' for Active; 'I' for Inactive)
REMARK    1  A    between atoms: C1_2  and  C2_3 
ROOT
ATOM      1  C2  UNL d   1      -0.650  -0.952   0.414  0.00  0.00    -0.073 A 
ATOM      2  C3  UNL d   1      -0.594   0.236   1.152  0.00  0.00    -0.002 A 
ATOM      3  C4  UNL d   1      -0.172   1.421   0.548  0.00  0.00     0.004 A 
ATOM      4  C5  UNL d   1       0.192   1.432  -0.799  0.00  0.00    -0.004 A 
ATOM      5  C6  UNL d   1       0.132   0.257  -1.555  0.00  0.00    -0.075 A 
ATOM      6  C7  UNL d   1       0.522   0.251  -3.004  0.00  0.00     0.076 C 
ATOM      7  C8  UNL d   1      -0.291  -0.930  -0.941  0.00  0.00     0.001 A 
ENDROOT
BRANCH   1   8
ATOM      8  C1  UNL d   1      -1.112  -2.233   1.060  0.00  0.00     0.053 C 
ATOM      9  C   UNL d   1      -0.995  -3.421   0.118  0.00  0.00     0.018 C 
ENDBRANCH   1   8
TORSDOF 1
ENDMDL
