MODEL 1
REMARK minimizedAffinity -2.62112761
REMARK minimizedRMSD -1
REMARK  1 active torsions:
REMARK  status: ('A' for Active; 'I' for Inactive)
REMARK    1  A    between atoms: C1_2  and  C2_3 
ROOT
ATOM      1  C2  UNL d   1      -0.147   1.188  -0.439  0.00  0.00    -0.073 A 
ATOM      2  C3  UNL d   1       0.151   0.730  -1.727  0.00  0.00    -0.002 A 
ATOM      3  C4  UNL d   1      -0.015  -0.617  -2.052  0.00  0.00     0.004 A 
ATOM      4  C5  UNL d   1      -0.486  -1.517  -1.096  0.00  0.00    -0.004 A 
ATOM      5  C6  UNL d   1      -0.801  -1.076   0.194  0.00  0.00    -0.075 A 
ATOM      6  C7  UNL d   1      -1.306  -2.031   1.234  0.00  0.00     0.076 C 
ATOM      7  C8  UNL d   1      -0.628   0.278   0.513  0.00  0.00     0.001 A 
ENDROOT
BRANCH   1   8
ATOM      8  C1  UNL d   1       0.025   2.643  -0.085  0.00  0.00     0.053 C 
ATOM      9  C   UNL d   1       1.341   2.904   0.630  0.00  0.00     0.018 C 
ENDBRANCH   1   8
TORSDOF 1
ENDMDL
