MODEL 1
REMARK minimizedAffinity -1.85807359
REMARK minimizedRMSD -1
REMARK  1 active torsions:
REMARK  status: ('A' for Active; 'I' for Inactive)
REMARK    1  A    between atoms: C1_2  and  C2_3 
ROOT
ATOM      1  C2  UNL d   1      -0.552  -0.207  -0.025  0.00  0.00    -0.073 A 
ATOM      2  C3  UNL d   1      -1.127  -0.125   1.248  0.00  0.00    -0.002 A 
ATOM      3  C4  UNL d   1      -1.550  -1.280   1.906  0.00  0.00     0.004 A 
ATOM      4  C5  UNL d   1      -1.398  -2.528   1.302  0.00  0.00    -0.004 A 
ATOM      5  C6  UNL d   1      -0.815  -2.632   0.035  0.00  0.00    -0.075 A 
ATOM      6  C7  UNL d   1      -0.646  -3.967  -0.629  0.00  0.00     0.076 C 
ATOM      7  C8  UNL d   1      -0.394  -1.467  -0.620  0.00  0.00     0.001 A 
ENDROOT
BRANCH   1   8
ATOM      8  C1  UNL d   1      -0.087   1.037  -0.737  0.00  0.00     0.053 C 
ATOM      9  C   UNL d   1       0.428   2.090   0.232  0.00  0.00     0.018 C 
ENDBRANCH   1   8
TORSDOF 1
ENDMDL
