MODEL 1
REMARK minimizedAffinity -1.85854387
REMARK minimizedRMSD -1
REMARK  1 active torsions:
REMARK  status: ('A' for Active; 'I' for Inactive)
REMARK    1  A    between atoms: C1_2  and  C2_3 
ROOT
ATOM      1  C2  UNL d   1      -0.275   1.641   0.513  0.00  0.00    -0.073 A 
ATOM      2  C3  UNL d   1       0.065   1.569  -0.843  0.00  0.00    -0.002 A 
ATOM      3  C4  UNL d   1       0.145   0.332  -1.485  0.00  0.00     0.004 A 
ATOM      4  C5  UNL d   1      -0.119  -0.843  -0.781  0.00  0.00    -0.004 A 
ATOM      5  C6  UNL d   1      -0.471  -0.791   0.572  0.00  0.00    -0.075 A 
ATOM      6  C7  UNL d   1      -0.756  -2.045   1.344  0.00  0.00     0.076 C 
ATOM      7  C8  UNL d   1      -0.548   0.455   1.210  0.00  0.00     0.001 A 
ENDROOT
BRANCH   1   8
ATOM      8  C1  UNL d   1      -0.370   2.974   1.209  0.00  0.00     0.053 C 
ATOM      9  C   UNL d   1       0.747   3.917   0.789  0.00  0.00     0.018 C 
ENDBRANCH   1   8
TORSDOF 1
ENDMDL
