MODEL 1
REMARK minimizedAffinity -5.13479137
REMARK minimizedRMSD -1
REMARK  1 active torsions:
REMARK  status: ('A' for Active; 'I' for Inactive)
REMARK    1  A    between atoms: C1_2  and  C2_3 
ROOT
ATOM      1  C2  UNL d   1       0.287   1.560   0.253  0.00  0.00    -0.073 A 
ATOM      2  C3  UNL d   1      -1.046   1.165   0.088  0.00  0.00    -0.002 A 
ATOM      3  C4  UNL d   1      -1.443  -0.131   0.419  0.00  0.00     0.004 A 
ATOM      4  C5  UNL d   1      -0.515  -1.042   0.923  0.00  0.00    -0.004 A 
ATOM      5  C6  UNL d   1       0.819  -0.663   1.106  0.00  0.00    -0.075 A 
ATOM      6  C7  UNL d   1       1.830  -1.632   1.645  0.00  0.00     0.076 C 
ATOM      7  C8  UNL d   1       1.210   0.640   0.769  0.00  0.00     0.001 A 
ENDROOT
BRANCH   1   8
ATOM      8  C1  UNL d   1       0.719   2.961  -0.097  0.00  0.00     0.053 C 
ATOM      9  C   UNL d   1       2.141   3.249   0.359  0.00  0.00     0.018 C 
ENDBRANCH   1   8
TORSDOF 1
ENDMDL
