MODEL 1
REMARK minimizedAffinity -3.24533248
REMARK minimizedRMSD -1
REMARK  1 active torsions:
REMARK  status: ('A' for Active; 'I' for Inactive)
REMARK    1  A    between atoms: C1_2  and  C2_3 
ROOT
ATOM      1  C2  UNL d   1      -0.016  -0.259  -1.018  0.00  0.00    -0.073 A 
ATOM      2  C3  UNL d   1       0.551   0.681  -0.150  0.00  0.00    -0.002 A 
ATOM      3  C4  UNL d   1       0.357   0.575   1.228  0.00  0.00     0.004 A 
ATOM      4  C5  UNL d   1      -0.399  -0.473   1.752  0.00  0.00    -0.004 A 
ATOM      5  C6  UNL d   1      -0.964  -1.429   0.902  0.00  0.00    -0.075 A 
ATOM      6  C7  UNL d   1      -1.781  -2.562   1.449  0.00  0.00     0.076 C 
ATOM      7  C8  UNL d   1      -0.767  -1.315  -0.481  0.00  0.00     0.001 A 
ENDROOT
BRANCH   1   8
ATOM      8  C1  UNL d   1       0.196  -0.153  -2.506  0.00  0.00     0.053 C 
ATOM      9  C   UNL d   1       0.370  -1.516  -3.156  0.00  0.00     0.018 C 
ENDBRANCH   1   8
TORSDOF 1
ENDMDL
