MODEL 1
REMARK minimizedAffinity -4.44204569
REMARK minimizedRMSD -1
REMARK  1 active torsions:
REMARK  status: ('A' for Active; 'I' for Inactive)
REMARK    1  A    between atoms: C1_2  and  C2_3 
ROOT
ATOM      1  C2  UNL d   1      -0.271   0.877  -0.733  0.00  0.00    -0.073 A 
ATOM      2  C3  UNL d   1       0.099   0.539  -2.040  0.00  0.00    -0.002 A 
ATOM      3  C4  UNL d   1       0.273  -0.799  -2.399  0.00  0.00     0.004 A 
ATOM      4  C5  UNL d   1       0.072  -1.810  -1.459  0.00  0.00    -0.004 A 
ATOM      5  C6  UNL d   1      -0.310  -1.492  -0.152  0.00  0.00    -0.075 A 
ATOM      6  C7  UNL d   1      -0.528  -2.568   0.871  0.00  0.00     0.076 C 
ATOM      7  C8  UNL d   1      -0.479  -0.147   0.202  0.00  0.00     0.001 A 
ENDROOT
BRANCH   1   8
ATOM      8  C1  UNL d   1      -0.465   2.319  -0.342  0.00  0.00     0.053 C 
ATOM      9  C   UNL d   1       0.810   2.938   0.207  0.00  0.00     0.018 C 
ENDBRANCH   1   8
TORSDOF 1
ENDMDL
