MODEL 1
REMARK minimizedAffinity -4.25410223
REMARK minimizedRMSD -1
REMARK  1 active torsions:
REMARK  status: ('A' for Active; 'I' for Inactive)
REMARK    1  A    between atoms: C1_2  and  C2_3 
ROOT
ATOM      1  C2  UNL d   1      -0.026  -1.234   0.010  0.00  0.00    -0.073 A 
ATOM      2  C3  UNL d   1       0.792  -2.216  -0.560  0.00  0.00    -0.002 A 
ATOM      3  C4  UNL d   1       0.271  -3.472  -0.875  0.00  0.00     0.004 A 
ATOM      4  C5  UNL d   1      -1.073  -3.756  -0.629  0.00  0.00    -0.004 A 
ATOM      5  C6  UNL d   1      -1.909  -2.784  -0.070  0.00  0.00    -0.075 A 
ATOM      6  C7  UNL d   1      -3.355  -3.075   0.202  0.00  0.00     0.076 C 
ATOM      7  C8  UNL d   1      -1.377  -1.526   0.245  0.00  0.00     0.001 A 
ENDROOT
BRANCH   1   8
ATOM      8  C1  UNL d   1       0.530   0.126   0.345  0.00  0.00     0.053 C 
ATOM      9  C   UNL d   1       0.172   1.163  -0.707  0.00  0.00     0.018 C 
ENDBRANCH   1   8
TORSDOF 1
ENDMDL
