MODEL 1
REMARK minimizedAffinity -3.93395758
REMARK minimizedRMSD -1
REMARK  1 active torsions:
REMARK  status: ('A' for Active; 'I' for Inactive)
REMARK    1  A    between atoms: C1_2  and  C2_3 
ROOT
ATOM      1  C2  UNL d   1      -0.086  -0.575   0.149  0.00  0.00    -0.073 A 
ATOM      2  C3  UNL d   1      -0.158  -0.675  -1.245  0.00  0.00    -0.002 A 
ATOM      3  C4  UNL d   1       0.155   0.423  -2.048  0.00  0.00     0.004 A 
ATOM      4  C5  UNL d   1       0.550   1.627  -1.467  0.00  0.00    -0.004 A 
ATOM      5  C6  UNL d   1       0.639   1.744  -0.076  0.00  0.00    -0.075 A 
ATOM      6  C7  UNL d   1       1.060   3.034   0.565  0.00  0.00     0.076 C 
ATOM      7  C8  UNL d   1       0.320   0.638   0.724  0.00  0.00     0.001 A 
ENDROOT
BRANCH   1   8
ATOM      8  C1  UNL d   1      -0.417  -1.759   1.019  0.00  0.00     0.053 C 
ATOM      9  C   UNL d   1      -0.824  -2.974   0.200  0.00  0.00     0.018 C 
ENDBRANCH   1   8
TORSDOF 1
ENDMDL
