MODEL 1
REMARK minimizedAffinity -3.89160061
REMARK minimizedRMSD -1
REMARK  1 active torsions:
REMARK  status: ('A' for Active; 'I' for Inactive)
REMARK    1  A    between atoms: C1_2  and  C2_3 
ROOT
ATOM      1  C2  UNL d   1       0.049   0.182   0.543  0.00  0.00    -0.073 A 
ATOM      2  C3  UNL d   1      -0.478   0.275  -0.750  0.00  0.00    -0.002 A 
ATOM      3  C4  UNL d   1      -0.324   1.446  -1.492  0.00  0.00     0.004 A 
ATOM      4  C5  UNL d   1       0.364   2.533  -0.953  0.00  0.00    -0.004 A 
ATOM      5  C6  UNL d   1       0.908   2.456   0.333  0.00  0.00    -0.075 A 
ATOM      6  C7  UNL d   1       1.649   3.617   0.928  0.00  0.00     0.076 C 
ATOM      7  C8  UNL d   1       0.746   1.277   1.073  0.00  0.00     0.001 A 
ENDROOT
BRANCH   1   8
ATOM      8  C1  UNL d   1      -0.110  -1.083   1.346  0.00  0.00     0.053 C 
ATOM      9  C   UNL d   1      -1.139  -2.021   0.734  0.00  0.00     0.018 C 
ENDBRANCH   1   8
TORSDOF 1
ENDMDL
