MODEL 1
REMARK minimizedAffinity -3.95716214
REMARK minimizedRMSD -1
REMARK  1 active torsions:
REMARK  status: ('A' for Active; 'I' for Inactive)
REMARK    1  A    between atoms: C1_2  and  C2_3 
ROOT
ATOM      1  C2  UNL d   1      -0.160   0.391   0.273  0.00  0.00    -0.073 A 
ATOM      2  C3  UNL d   1      -0.525  -0.328   1.417  0.00  0.00    -0.002 A 
ATOM      3  C4  UNL d   1      -0.904  -1.667   1.317  0.00  0.00     0.004 A 
ATOM      4  C5  UNL d   1      -0.916  -2.302   0.075  0.00  0.00    -0.004 A 
ATOM      5  C6  UNL d   1      -0.543  -1.604  -1.078  0.00  0.00    -0.075 A 
ATOM      6  C7  UNL d   1      -0.552  -2.272  -2.421  0.00  0.00     0.076 C 
ATOM      7  C8  UNL d   1      -0.166  -0.258  -0.969  0.00  0.00     0.001 A 
ENDROOT
BRANCH   1   8
ATOM      8  C1  UNL d   1       0.257   1.836   0.378  0.00  0.00     0.053 C 
ATOM      9  C   UNL d   1       1.715   2.037  -0.002  0.00  0.00     0.018 C 
ENDBRANCH   1   8
TORSDOF 1
ENDMDL
