MODEL 1
REMARK minimizedAffinity -2.09952426
REMARK minimizedRMSD -1
REMARK  1 active torsions:
REMARK  status: ('A' for Active; 'I' for Inactive)
REMARK    1  A    between atoms: C1_2  and  C2_3 
ROOT
ATOM      1  C2  UNL d   1       0.704   2.205   0.250  0.00  0.00    -0.073 A 
ATOM      2  C3  UNL d   1       0.473   2.129  -1.128  0.00  0.00    -0.002 A 
ATOM      3  C4  UNL d   1      -0.203   1.035  -1.670  0.00  0.00     0.004 A 
ATOM      4  C5  UNL d   1      -0.660   0.011  -0.840  0.00  0.00    -0.004 A 
ATOM      5  C6  UNL d   1      -0.449   0.075   0.541  0.00  0.00    -0.075 A 
ATOM      6  C7  UNL d   1      -0.933  -1.019   1.447  0.00  0.00     0.076 C 
ATOM      7  C8  UNL d   1       0.232   1.176   1.077  0.00  0.00     0.001 A 
ENDROOT
BRANCH   1   8
ATOM      8  C1  UNL d   1       1.427   3.388   0.841  0.00  0.00     0.053 C 
ATOM      9  C   UNL d   1       2.897   3.090   1.090  0.00  0.00     0.018 C 
ENDBRANCH   1   8
TORSDOF 1
ENDMDL
