MODEL 1
REMARK minimizedAffinity 14.9517164
REMARK minimizedRMSD -1
REMARK  2 active torsions:
REMARK  status: ('A' for Active; 'I' for Inactive)
REMARK    1  A    between atoms: C2'_3  and  C1'_4 
REMARK    2  A    between atoms: C1'_4  and  C1_5 
ROOT
ATOM      1  C1  I4B d   1       2.679  -1.377   3.181  0.00  0.00    -0.075 A 
ATOM      2  C2  I4B d   1       3.912  -1.939   3.397  0.00  0.00     0.003 A 
ATOM      3  C3  I4B d   1       4.265  -2.410   4.685  0.00  0.00     0.002 A 
ATOM      4  C4  I4B d   1       3.379  -2.253   5.732  0.00  0.00    -0.004 A 
ATOM      5  C5  I4B d   1       2.120  -1.704   5.505  0.00  0.00     0.002 A 
ATOM      6  C6  I4B d   1       1.763  -1.274   4.219  0.00  0.00     0.003 A 
ENDROOT
BRANCH   1   7
ATOM      7  C1' I4B d   1       2.352  -0.861   1.815  0.00  0.00     0.060 C 
BRANCH   7   8
ATOM      8  C2' I4B d   1       3.377   0.196   1.458  0.00  0.00    -0.013 C 
ATOM      9  C4' I4B d   1       3.632   0.229  -0.026  0.00  0.00     0.013 C 
ATOM     10  C3' I4B d   1       2.869   1.519   1.949  0.00  0.00     0.013 C 
ENDBRANCH   7   8
ENDBRANCH   1   7
TORSDOF 2
ENDMDL
