MODEL 1
REMARK minimizedAffinity 10.004468
REMARK minimizedRMSD -1
REMARK  2 active torsions:
REMARK  status: ('A' for Active; 'I' for Inactive)
REMARK    1  A    between atoms: C2'_3  and  C1'_4 
REMARK    2  A    between atoms: C1'_4  and  C1_5 
ROOT
ATOM      1  C1  I4B d   1       2.439  -0.983   3.069  0.00  0.00    -0.075 A 
ATOM      2  C2  I4B d   1       3.740  -0.978   3.507  0.00  0.00     0.003 A 
ATOM      3  C3  I4B d   1       4.160  -1.888   4.507  0.00  0.00     0.002 A 
ATOM      4  C4  I4B d   1       3.240  -2.746   5.073  0.00  0.00    -0.004 A 
ATOM      5  C5  I4B d   1       1.927  -2.767   4.612  0.00  0.00     0.002 A 
ATOM      6  C6  I4B d   1       1.526  -1.888   3.595  0.00  0.00     0.003 A 
ENDROOT
BRANCH   1   7
ATOM      7  C1' I4B d   1       2.022   0.014   2.035  0.00  0.00     0.060 C 
BRANCH   7   8
ATOM      8  C2' I4B d   1       2.982   1.185   2.102  0.00  0.00    -0.013 C 
ATOM      9  C4' I4B d   1       3.011   1.941   0.800  0.00  0.00     0.013 C 
ATOM     10  C3' I4B d   1       2.554   2.070   3.234  0.00  0.00     0.013 C 
ENDBRANCH   7   8
ENDBRANCH   1   7
TORSDOF 2
ENDMDL
