MODEL 1
REMARK minimizedAffinity 7.80564022
REMARK minimizedRMSD -1
REMARK  2 active torsions:
REMARK  status: ('A' for Active; 'I' for Inactive)
REMARK    1  A    between atoms: C2'_3  and  C1'_4 
REMARK    2  A    between atoms: C1'_4  and  C1_5 
ROOT
ATOM      1  C1  I4B d   1       3.422  -2.067   4.118  0.00  0.00    -0.075 A 
ATOM      2  C2  I4B d   1       4.503  -2.038   3.273  0.00  0.00     0.003 A 
ATOM      3  C3  I4B d   1       5.813  -2.194   3.785  0.00  0.00     0.002 A 
ATOM      4  C4  I4B d   1       6.000  -2.325   5.147  0.00  0.00    -0.004 A 
ATOM      5  C5  I4B d   1       4.901  -2.377   6.000  0.00  0.00     0.002 A 
ATOM      6  C6  I4B d   1       3.603  -2.260   5.482  0.00  0.00     0.003 A 
ENDROOT
BRANCH   1   7
ATOM      7  C1' I4B d   1       2.054  -1.866   3.547  0.00  0.00     0.060 C 
BRANCH   7   8
ATOM      8  C2' I4B d   1       2.162  -0.857   2.422  0.00  0.00    -0.013 C 
ATOM      9  C4' I4B d   1       0.996  -0.969   1.476  0.00  0.00     0.013 C 
ATOM     10  C3' I4B d   1       2.234   0.511   3.033  0.00  0.00     0.013 C 
ENDBRANCH   7   8
ENDBRANCH   1   7
TORSDOF 2
ENDMDL
