MODEL 1
REMARK minimizedAffinity 14.3329258
REMARK minimizedRMSD -1
REMARK  2 active torsions:
REMARK  status: ('A' for Active; 'I' for Inactive)
REMARK    1  A    between atoms: C2'_3  and  C1'_4 
REMARK    2  A    between atoms: C1'_4  and  C1_5 
ROOT
ATOM      1  C1  I4B d   1      -0.126  -0.609   0.551  0.00  0.00    -0.075 A 
ATOM      2  C2  I4B d   1       0.188  -0.118   1.794  0.00  0.00     0.003 A 
ATOM      3  C3  I4B d   1       1.421  -0.456   2.403  0.00  0.00     0.002 A 
ATOM      4  C4  I4B d   1       2.282  -1.321   1.759  0.00  0.00    -0.004 A 
ATOM      5  C5  I4B d   1       1.972  -1.799   0.490  0.00  0.00     0.002 A 
ATOM      6  C6  I4B d   1       0.766  -1.431  -0.124  0.00  0.00     0.003 A 
ENDROOT
BRANCH   1   7
ATOM      7  C1' I4B d   1      -1.451  -0.259  -0.048  0.00  0.00     0.060 C 
BRANCH   7   8
ATOM      8  C2' I4B d   1      -1.735  -1.246  -1.162  0.00  0.00    -0.013 C 
ATOM      9  C4' I4B d   1      -2.550  -2.411  -0.664  0.00  0.00     0.013 C 
ATOM     10  C3' I4B d   1      -2.451  -0.514  -2.258  0.00  0.00     0.013 C 
ENDBRANCH   7   8
ENDBRANCH   1   7
TORSDOF 2
ENDMDL
