MODEL 1
REMARK minimizedAffinity 5.67724085
REMARK minimizedRMSD -1
REMARK  2 active torsions:
REMARK  status: ('A' for Active; 'I' for Inactive)
REMARK    1  A    between atoms: C2'_3  and  C1'_4 
REMARK    2  A    between atoms: C1'_4  and  C1_5 
ROOT
ATOM      1  C1  I4B d   1       2.655  -1.874   3.621  0.00  0.00    -0.075 A 
ATOM      2  C2  I4B d   1       1.969  -2.160   4.775  0.00  0.00     0.003 A 
ATOM      3  C3  I4B d   1       2.668  -2.352   5.991  0.00  0.00     0.002 A 
ATOM      4  C4  I4B d   1       4.047  -2.299   5.998  0.00  0.00    -0.004 A 
ATOM      5  C5  I4B d   1       4.740  -1.987   4.832  0.00  0.00     0.002 A 
ATOM      6  C6  I4B d   1       4.039  -1.761   3.638  0.00  0.00     0.003 A 
ENDROOT
BRANCH   1   7
ATOM      7  C1' I4B d   1       1.887  -1.710   2.348  0.00  0.00     0.060 C 
BRANCH   7   8
ATOM      8  C2' I4B d   1       1.329  -0.302   2.318  0.00  0.00    -0.013 C 
ATOM      9  C4' I4B d   1       2.376   0.691   1.887  0.00  0.00     0.013 C 
ATOM     10  C3' I4B d   1       0.154  -0.290   1.385  0.00  0.00     0.013 C 
ENDBRANCH   7   8
ENDBRANCH   1   7
TORSDOF 2
ENDMDL
