MODEL 1
REMARK minimizedAffinity 4.78226566
REMARK minimizedRMSD -1
REMARK  2 active torsions:
REMARK  status: ('A' for Active; 'I' for Inactive)
REMARK    1  A    between atoms: C2'_3  and  C1'_4 
REMARK    2  A    between atoms: C1'_4  and  C1_5 
ROOT
ATOM      1  C1  I4B d   1       3.390  -2.154   4.239  0.00  0.00    -0.075 A 
ATOM      2  C2  I4B d   1       4.368  -2.360   3.299  0.00  0.00     0.003 A 
ATOM      3  C3  I4B d   1       5.690  -2.671   3.702  0.00  0.00     0.002 A 
ATOM      4  C4  I4B d   1       5.998  -2.715   5.046  0.00  0.00    -0.004 A 
ATOM      5  C5  I4B d   1       5.000  -2.528   5.998  0.00  0.00     0.002 A 
ATOM      6  C6  I4B d   1       3.684  -2.258   5.593  0.00  0.00     0.003 A 
ENDROOT
BRANCH   1   7
ATOM      7  C1' I4B d   1       2.012  -1.796   3.779  0.00  0.00     0.060 C 
BRANCH   7   8
ATOM      8  C2' I4B d   1       2.138  -0.708   2.733  0.00  0.00    -0.013 C 
ATOM      9  C4' I4B d   1       0.936  -0.681   1.826  0.00  0.00     0.013 C 
ATOM     10  C3' I4B d   1       2.309   0.601   3.444  0.00  0.00     0.013 C 
ENDBRANCH   7   8
ENDBRANCH   1   7
TORSDOF 2
ENDMDL
