MODEL 1
REMARK minimizedAffinity 6.22246838
REMARK minimizedRMSD -1
REMARK  2 active torsions:
REMARK  status: ('A' for Active; 'I' for Inactive)
REMARK    1  A    between atoms: C2'_3  and  C1'_4 
REMARK    2  A    between atoms: C1'_4  and  C1_5 
ROOT
ATOM      1  C1  I4B d   1       3.689  -3.027   4.996  0.00  0.00    -0.075 A 
ATOM      2  C2  I4B d   1       4.855  -2.310   5.096  0.00  0.00     0.003 A 
ATOM      3  C3  I4B d   1       6.000  -2.705   4.362  0.00  0.00     0.002 A 
ATOM      4  C4  I4B d   1       5.950  -3.844   3.585  0.00  0.00    -0.004 A 
ATOM      5  C5  I4B d   1       4.760  -4.557   3.467  0.00  0.00     0.002 A 
ATOM      6  C6  I4B d   1       3.619  -4.139   4.166  0.00  0.00     0.003 A 
ENDROOT
BRANCH   1   7
ATOM      7  C1' I4B d   1       2.509  -2.602   5.810  0.00  0.00     0.060 C 
BRANCH   7   8
ATOM      8  C2' I4B d   1       1.406  -2.191   4.855  0.00  0.00    -0.013 C 
ATOM      9  C4' I4B d   1       1.969  -1.513   3.633  0.00  0.00     0.013 C 
ATOM     10  C3' I4B d   1       0.633  -3.421   4.484  0.00  0.00     0.013 C 
ENDBRANCH   7   8
ENDBRANCH   1   7
TORSDOF 2
ENDMDL
