MODEL 1
REMARK minimizedAffinity 17.2348537
REMARK minimizedRMSD -1
REMARK  2 active torsions:
REMARK  status: ('A' for Active; 'I' for Inactive)
REMARK    1  A    between atoms: C2'_3  and  C1'_4 
REMARK    2  A    between atoms: C1'_4  and  C1_5 
ROOT
ATOM      1  C1  I4B d   1       1.290  -0.345   1.135  0.00  0.00    -0.075 A 
ATOM      2  C2  I4B d   1       1.503  -1.073  -0.009  0.00  0.00     0.003 A 
ATOM      3  C3  I4B d   1       0.546  -1.056  -1.053  0.00  0.00     0.002 A 
ATOM      4  C4  I4B d   1      -0.624  -0.343  -0.891  0.00  0.00    -0.004 A 
ATOM      5  C5  I4B d   1      -0.827   0.413   0.260  0.00  0.00     0.002 A 
ATOM      6  C6  I4B d   1       0.141   0.423   1.274  0.00  0.00     0.003 A 
ENDROOT
BRANCH   1   7
ATOM      7  C1' I4B d   1       2.306  -0.411   2.231  0.00  0.00     0.060 C 
BRANCH   7   8
ATOM      8  C2' I4B d   1       2.012  -1.642   3.065  0.00  0.00    -0.013 C 
ATOM      9  C4' I4B d   1       3.197  -2.570   3.104  0.00  0.00     0.013 C 
ATOM     10  C3' I4B d   1       1.635  -1.187   4.444  0.00  0.00     0.013 C 
ENDBRANCH   7   8
ENDBRANCH   1   7
TORSDOF 2
ENDMDL
