MODEL 1
REMARK minimizedAffinity -1.54225528
REMARK minimizedRMSD -1
REMARK  0 active torsions:
REMARK  status: ('A' for Active; 'I' for Inactive)
ROOT
ATOM      1  C1  DEN d   1      -1.700  -0.015  -0.031  0.00  0.00     0.130 A 
ATOM      2  C2  DEN d   1      -0.355   0.179   0.504  0.00  0.00    -0.031 A 
ATOM      3  C3  DEN d   1       0.316   1.213  -0.309  0.00  0.00     0.027 A 
ATOM      4  C4  DEN d   1      -0.594   2.530  -2.331  0.00  0.00     0.027 A 
ATOM      5  C5  DEN d   1      -1.680   2.704  -3.161  0.00  0.00    -0.003 A 
ATOM      6  C6  DEN d   1      -2.826   1.966  -3.029  0.00  0.00     0.001 A 
ATOM      7  C7  DEN d   1      -2.930   1.051  -2.015  0.00  0.00     0.017 A 
ATOM      8  C8  DEN d   1      -1.838   0.864  -1.178  0.00  0.00    -0.094 A 
ATOM      9  C9  DEN d   1      -0.692   1.629  -1.321  0.00  0.00    -0.072 A 
ENDROOT
TORSDOF 0
ENDMDL
