MODEL 1
REMARK minimizedAffinity -3.37514663
REMARK minimizedRMSD -1
REMARK  0 active torsions:
REMARK  status: ('A' for Active; 'I' for Inactive)
ROOT
ATOM      1  C1  DEN d   1       1.298   0.247  -0.830  0.00  0.00     0.130 A 
ATOM      2  C2  DEN d   1       0.758  -0.353   0.387  0.00  0.00    -0.031 A 
ATOM      3  C3  DEN d   1      -0.622   0.140   0.566  0.00  0.00     0.027 A 
ATOM      4  C4  DEN d   1      -1.971   1.762  -0.919  0.00  0.00     0.027 A 
ATOM      5  C5  DEN d   1      -1.930   2.543  -2.053  0.00  0.00    -0.003 A 
ATOM      6  C6  DEN d   1      -0.809   2.638  -2.834  0.00  0.00     0.001 A 
ATOM      7  C7  DEN d   1       0.304   1.906  -2.516  0.00  0.00     0.017 A 
ATOM      8  C8  DEN d   1       0.274   1.123  -1.370  0.00  0.00    -0.094 A 
ATOM      9  C9  DEN d   1      -0.873   1.030  -0.600  0.00  0.00    -0.072 A 
ENDROOT
TORSDOF 0
ENDMDL
