MODEL 1
REMARK minimizedAffinity -3.70450044
REMARK minimizedRMSD -1
REMARK  0 active torsions:
REMARK  status: ('A' for Active; 'I' for Inactive)
ROOT
ATOM      1  C1  DEN d   1      -0.616   2.686  -4.711  0.00  0.00     0.130 A 
ATOM      2  C2  DEN d   1       0.530   3.422  -4.185  0.00  0.00    -0.031 A 
ATOM      3  C3  DEN d   1       0.547   3.253  -2.718  0.00  0.00     0.027 A 
ATOM      4  C4  DEN d   1      -1.080   1.926  -1.219  0.00  0.00     0.027 A 
ATOM      5  C5  DEN d   1      -2.214   1.146  -1.210  0.00  0.00    -0.003 A 
ATOM      6  C6  DEN d   1      -2.910   0.854  -2.354  0.00  0.00     0.001 A 
ATOM      7  C7  DEN d   1      -2.451   1.310  -3.562  0.00  0.00     0.017 A 
ATOM      8  C8  DEN d   1      -1.311   2.103  -3.578  0.00  0.00    -0.094 A 
ATOM      9  C9  DEN d   1      -0.616   2.377  -2.412  0.00  0.00    -0.072 A 
ENDROOT
TORSDOF 0
ENDMDL
