MODEL 1
REMARK minimizedAffinity -3.01211596
REMARK minimizedRMSD -1
REMARK  0 active torsions:
REMARK  status: ('A' for Active; 'I' for Inactive)
ROOT
ATOM      1  C1  DEN d   1      -1.350   0.242   0.765  0.00  0.00     0.130 A 
ATOM      2  C2  DEN d   1      -1.521   1.247  -0.281  0.00  0.00    -0.031 A 
ATOM      3  C3  DEN d   1      -0.240   1.378  -1.003  0.00  0.00     0.027 A 
ATOM      4  C4  DEN d   1       1.980   0.125  -0.609  0.00  0.00     0.027 A 
ATOM      5  C5  DEN d   1       2.615  -0.814   0.172  0.00  0.00    -0.003 A 
ATOM      6  C6  DEN d   1       1.989  -1.438   1.218  0.00  0.00     0.001 A 
ATOM      7  C7  DEN d   1       0.674  -1.163   1.484  0.00  0.00     0.017 A 
ATOM      8  C8  DEN d   1       0.029  -0.211   0.705  0.00  0.00    -0.094 A 
ATOM      9  C9  DEN d   1       0.675   0.400  -0.356  0.00  0.00    -0.072 A 
ENDROOT
TORSDOF 0
ENDMDL
