MODEL 1
REMARK minimizedAffinity -3.0559268
REMARK minimizedRMSD -1
REMARK  0 active torsions:
REMARK  status: ('A' for Active; 'I' for Inactive)
ROOT
ATOM      1  C1  DEN d   1       1.501  -0.729  -0.717  0.00  0.00     0.130 A 
ATOM      2  C2  DEN d   1       0.448   0.040  -1.375  0.00  0.00    -0.031 A 
ATOM      3  C3  DEN d   1      -0.636   0.260  -0.397  0.00  0.00     0.027 A 
ATOM      4  C4  DEN d   1      -0.784  -0.509   2.061  0.00  0.00     0.027 A 
ATOM      5  C5  DEN d   1      -0.138  -1.200   3.062  0.00  0.00    -0.003 A 
ATOM      6  C6  DEN d   1       1.074  -1.808   2.865  0.00  0.00     0.001 A 
ATOM      7  C7  DEN d   1       1.699  -1.696   1.651  0.00  0.00     0.017 A 
ATOM      8  C8  DEN d   1       1.051  -1.007   0.635  0.00  0.00    -0.094 A 
ATOM      9  C9  DEN d   1      -0.168  -0.389   0.857  0.00  0.00    -0.072 A 
ENDROOT
TORSDOF 0
ENDMDL
