MODEL 1
REMARK minimizedAffinity 1.86223161
REMARK minimizedRMSD -1
REMARK  0 active torsions:
REMARK  status: ('A' for Active; 'I' for Inactive)
ROOT
ATOM      1  C1  DEN d   1      -1.196  -0.081   0.089  0.00  0.00     0.130 A 
ATOM      2  C2  DEN d   1      -1.182   1.100  -0.769  0.00  0.00    -0.031 A 
ATOM      3  C3  DEN d   1       0.225   1.498  -0.975  0.00  0.00     0.027 A 
ATOM      4  C4  DEN d   1       2.372   0.402  -0.058  0.00  0.00     0.027 A 
ATOM      5  C5  DEN d   1       2.865  -0.618   0.726  0.00  0.00    -0.003 A 
ATOM      6  C6  DEN d   1       2.045  -1.502   1.374  0.00  0.00     0.001 A 
ATOM      7  C7  DEN d   1       0.687  -1.411   1.214  0.00  0.00     0.017 A 
ATOM      8  C8  DEN d   1       0.182  -0.381   0.432  0.00  0.00    -0.094 A 
ATOM      9  C9  DEN d   1       1.029   0.495  -0.226  0.00  0.00    -0.072 A 
ENDROOT
TORSDOF 0
ENDMDL
