MODEL 1
REMARK minimizedAffinity -3.12193394
REMARK minimizedRMSD -1
REMARK  0 active torsions:
REMARK  status: ('A' for Active; 'I' for Inactive)
ROOT
ATOM      1  C1  DEN d   1       0.264  -1.828   1.214  0.00  0.00     0.130 A 
ATOM      2  C2  DEN d   1       1.616  -2.382   1.234  0.00  0.00    -0.031 A 
ATOM      3  C3  DEN d   1       2.474  -1.521   0.397  0.00  0.00     0.027 A 
ATOM      4  C4  DEN d   1       1.847   0.608  -0.918  0.00  0.00     0.027 A 
ATOM      5  C5  DEN d   1       0.817   1.460  -1.249  0.00  0.00    -0.003 A 
ATOM      6  C6  DEN d   1      -0.466   1.259  -0.813  0.00  0.00     0.001 A 
ATOM      7  C7  DEN d   1      -0.743   0.205   0.016  0.00  0.00     0.017 A 
ATOM      8  C8  DEN d   1       0.289  -0.664   0.348  0.00  0.00    -0.094 A 
ATOM      9  C9  DEN d   1       1.581  -0.436  -0.093  0.00  0.00    -0.072 A 
ENDROOT
TORSDOF 0
ENDMDL
