MODEL 1
REMARK minimizedAffinity -3.75518227
REMARK minimizedRMSD -1
REMARK  0 active torsions:
REMARK  status: ('A' for Active; 'I' for Inactive)
ROOT
ATOM      1  C1  DEN d   1      -0.772   0.579  -0.592  0.00  0.00     0.130 A 
ATOM      2  C2  DEN d   1      -1.823  -0.273  -0.040  0.00  0.00    -0.031 A 
ATOM      3  C3  DEN d   1      -1.176  -1.359   0.724  0.00  0.00     0.027 A 
ATOM      4  C4  DEN d   1       1.336  -1.800   1.106  0.00  0.00     0.027 A 
ATOM      5  C5  DEN d   1       2.609  -1.355   0.826  0.00  0.00    -0.003 A 
ATOM      6  C6  DEN d   1       2.844  -0.264   0.032  0.00  0.00     0.001 A 
ATOM      7  C7  DEN d   1       1.787   0.447  -0.472  0.00  0.00     0.017 A 
ATOM      8  C8  DEN d   1       0.501   0.001  -0.200  0.00  0.00    -0.094 A 
ATOM      9  C9  DEN d   1       0.285  -1.098   0.614  0.00  0.00    -0.072 A 
ENDROOT
TORSDOF 0
ENDMDL
