MODEL 1
REMARK minimizedAffinity -1.2996577
REMARK minimizedRMSD -1
REMARK  0 active torsions:
REMARK  status: ('A' for Active; 'I' for Inactive)
ROOT
ATOM      1  C1  DEN d   1       2.177  -1.418   1.285  0.00  0.00     0.130 A 
ATOM      2  C2  DEN d   1       2.851  -1.071   0.037  0.00  0.00    -0.031 A 
ATOM      3  C3  DEN d   1       1.951  -0.195  -0.739  0.00  0.00     0.027 A 
ATOM      4  C4  DEN d   1      -0.407   0.656  -0.132  0.00  0.00     0.027 A 
ATOM      5  C5  DEN d   1      -1.404   0.619   0.818  0.00  0.00    -0.003 A 
ATOM      6  C6  DEN d   1      -1.292  -0.120   1.965  0.00  0.00     0.001 A 
ATOM      7  C7  DEN d   1      -0.139  -0.818   2.213  0.00  0.00     0.017 A 
ATOM      8  C8  DEN d   1       0.867  -0.792   1.256  0.00  0.00    -0.094 A 
ATOM      9  C9  DEN d   1       0.740  -0.028   0.108  0.00  0.00    -0.072 A 
ENDROOT
TORSDOF 0
ENDMDL
