MODEL 1
REMARK minimizedAffinity 0.988166809
REMARK minimizedRMSD -1
REMARK  0 active torsions:
REMARK  status: ('A' for Active; 'I' for Inactive)
ROOT
ATOM      1  C1  DEN d   1       2.699  -1.652   0.876  0.00  0.00     0.130 A 
ATOM      2  C2  DEN d   1       3.276  -1.320  -0.424  0.00  0.00    -0.031 A 
ATOM      3  C3  DEN d   1       2.333  -0.427  -1.127  0.00  0.00     0.027 A 
ATOM      4  C4  DEN d   1       0.050   0.471  -0.332  0.00  0.00     0.027 A 
ATOM      5  C5  DEN d   1      -0.866   0.455   0.696  0.00  0.00    -0.003 A 
ATOM      6  C6  DEN d   1      -0.676  -0.285   1.833  0.00  0.00     0.001 A 
ATOM      7  C7  DEN d   1       0.479  -1.005   1.988  0.00  0.00     0.017 A 
ATOM      8  C8  DEN d   1       1.404  -1.000   0.952  0.00  0.00    -0.094 A 
ATOM      9  C9  DEN d   1       1.199  -0.235  -0.184  0.00  0.00    -0.072 A 
ENDROOT
TORSDOF 0
ENDMDL
