MODEL 1
REMARK minimizedAffinity 2.58985376
REMARK minimizedRMSD -1
REMARK  0 active torsions:
REMARK  status: ('A' for Active; 'I' for Inactive)
ROOT
ATOM      1  C1  DEN d   1      -0.415  -0.728  -0.174  0.00  0.00     0.130 A 
ATOM      2  C2  DEN d   1       0.688   0.017   0.427  0.00  0.00    -0.031 A 
ATOM      3  C3  DEN d   1       0.674   1.383  -0.133  0.00  0.00     0.027 A 
ATOM      4  C4  DEN d   1      -0.942   2.413  -1.859  0.00  0.00     0.027 A 
ATOM      5  C5  DEN d   1      -2.032   2.166  -2.664  0.00  0.00    -0.003 A 
ATOM      6  C6  DEN d   1      -2.634   0.936  -2.720  0.00  0.00     0.001 A 
ATOM      7  C7  DEN d   1      -2.177  -0.080  -1.923  0.00  0.00     0.017 A 
ATOM      8  C8  DEN d   1      -1.073   0.160  -1.115  0.00  0.00    -0.094 A 
ATOM      9  C9  DEN d   1      -0.487   1.413  -1.063  0.00  0.00    -0.072 A 
ENDROOT
TORSDOF 0
ENDMDL
