MODEL 1
REMARK minimizedAffinity 11.2716312
REMARK minimizedRMSD -1
REMARK  0 active torsions:
REMARK  status: ('A' for Active; 'I' for Inactive)
ROOT
ATOM      1  C   UNL d   1       1.326  -3.122   0.415  0.00  0.00    -0.002 A 
ATOM      2  C1  UNL d   1       1.452  -4.451   0.035  0.00  0.00     0.010 A 
ATOM      3  C2  UNL d   1       2.693  -4.966  -0.345  0.00  0.00     0.041 A 
ATOM      4  C3  UNL d   1       3.816  -4.116  -0.335  0.00  0.00    -0.075 A 
ATOM      5  S   UNL d   1       5.435  -4.527  -0.760  0.00  0.00     0.015 SA
ATOM      6  C4  UNL d   1       5.998  -2.950  -0.446  0.00  0.00     0.022 A 
ATOM      7  C5  UNL d   1       4.988  -2.116  -0.027  0.00  0.00     0.026 A 
ATOM      8  C6  UNL d   1       3.714  -2.774   0.045  0.00  0.00    -0.082 A 
ATOM      9  C7  UNL d   1       2.442  -2.281   0.424  0.00  0.00     0.045 A 
ENDROOT
TORSDOF 0
ENDMDL
