MODEL 1
REMARK minimizedAffinity 11.2738075
REMARK minimizedRMSD -1
REMARK  0 active torsions:
REMARK  status: ('A' for Active; 'I' for Inactive)
ROOT
ATOM      1  C   UNL d   1       4.714  -5.016   1.862  0.00  0.00    -0.002 A 
ATOM      2  C1  UNL d   1       5.611  -4.027   1.481  0.00  0.00     0.010 A 
ATOM      3  C2  UNL d   1       5.154  -2.768   1.085  0.00  0.00     0.041 A 
ATOM      4  C3  UNL d   1       3.768  -2.517   1.080  0.00  0.00    -0.075 A 
ATOM      5  S   UNL d   1       2.979  -1.050   0.635  0.00  0.00     0.015 SA
ATOM      6  C4  UNL d   1       1.434  -1.701   0.940  0.00  0.00     0.022 A 
ATOM      7  C5  UNL d   1       1.499  -3.005   1.372  0.00  0.00     0.026 A 
ATOM      8  C6  UNL d   1       2.846  -3.496   1.460  0.00  0.00    -0.082 A 
ATOM      9  C7  UNL d   1       3.340  -4.763   1.855  0.00  0.00     0.045 A 
ENDROOT
TORSDOF 0
ENDMDL
