MODEL 1
REMARK minimizedAffinity 12.0801411
REMARK minimizedRMSD -1
REMARK  0 active torsions:
REMARK  status: ('A' for Active; 'I' for Inactive)
ROOT
ATOM      1  C   UNL d   1      -0.540   3.761  -3.707  0.00  0.00    -0.002 A 
ATOM      2  C1  UNL d   1      -1.927   3.805  -3.704  0.00  0.00     0.010 A 
ATOM      3  C2  UNL d   1      -2.669   2.761  -3.147  0.00  0.00     0.041 A 
ATOM      4  C3  UNL d   1      -1.987   1.664  -2.586  0.00  0.00    -0.075 A 
ATOM      5  S   UNL d   1      -2.687   0.273  -1.846  0.00  0.00     0.015 SA
ATOM      6  C4  UNL d   1      -1.161  -0.412  -1.517  0.00  0.00     0.022 A 
ATOM      7  C5  UNL d   1      -0.132   0.388  -1.953  0.00  0.00     0.026 A 
ATOM      8  C6  UNL d   1      -0.591   1.598  -2.576  0.00  0.00    -0.082 A 
ATOM      9  C7  UNL d   1       0.133   2.671  -3.150  0.00  0.00     0.045 A 
ENDROOT
TORSDOF 0
ENDMDL
