MODEL 1
REMARK minimizedAffinity 12.5675974
REMARK minimizedRMSD -1
REMARK  0 active torsions:
REMARK  status: ('A' for Active; 'I' for Inactive)
ROOT
ATOM      1  C   UNL d   1       2.945  -2.116   4.993  0.00  0.00    -0.002 A 
ATOM      2  C1  UNL d   1       1.939  -1.189   4.760  0.00  0.00     0.010 A 
ATOM      3  C2  UNL d   1       1.278  -1.153   3.530  0.00  0.00     0.041 A 
ATOM      4  C3  UNL d   1       1.647  -2.075   2.531  0.00  0.00    -0.075 A 
ATOM      5  S   UNL d   1       0.975  -2.218   0.949  0.00  0.00     0.015 SA
ATOM      6  C4  UNL d   1       2.007  -3.513   0.547  0.00  0.00     0.022 A 
ATOM      7  C5  UNL d   1       2.850  -3.842   1.582  0.00  0.00     0.026 A 
ATOM      8  C6  UNL d   1       2.656  -3.018   2.743  0.00  0.00    -0.082 A 
ATOM      9  C7  UNL d   1       3.308  -3.029   3.999  0.00  0.00     0.045 A 
ENDROOT
TORSDOF 0
ENDMDL
