MODEL 1
REMARK minimizedAffinity 7.62179375
REMARK minimizedRMSD -1
REMARK  0 active torsions:
REMARK  status: ('A' for Active; 'I' for Inactive)
ROOT
ATOM      1  C   UNL d   1      -1.194  -1.483   2.058  0.00  0.00    -0.002 A 
ATOM      2  C1  UNL d   1      -0.709  -1.135   3.311  0.00  0.00     0.010 A 
ATOM      3  C2  UNL d   1      -1.388  -0.208   4.103  0.00  0.00     0.041 A 
ATOM      4  C3  UNL d   1      -2.575   0.368   3.612  0.00  0.00    -0.075 A 
ATOM      5  S   UNL d   1      -3.576   1.526   4.407  0.00  0.00     0.015 SA
ATOM      6  C4  UNL d   1      -4.671   1.586   3.103  0.00  0.00     0.022 A 
ATOM      7  C5  UNL d   1      -4.298   0.750   2.077  0.00  0.00     0.026 A 
ATOM      8  C6  UNL d   1      -3.085   0.034   2.354  0.00  0.00    -0.082 A 
ATOM      9  C7  UNL d   1      -2.372  -0.909   1.574  0.00  0.00     0.045 A 
ENDROOT
TORSDOF 0
ENDMDL
