MODEL 1
REMARK minimizedAffinity 15.4148932
REMARK minimizedRMSD -1
REMARK  0 active torsions:
REMARK  status: ('A' for Active; 'I' for Inactive)
ROOT
ATOM      1  C   UNL d   1       0.906  -1.489   1.872  0.00  0.00    -0.002 A 
ATOM      2  C1  UNL d   1       2.082  -1.191   1.197  0.00  0.00     0.010 A 
ATOM      3  C2  UNL d   1       2.885  -2.212   0.685  0.00  0.00     0.041 A 
ATOM      4  C3  UNL d   1       2.482  -3.550   0.862  0.00  0.00    -0.075 A 
ATOM      5  S   UNL d   1       3.305  -4.965   0.320  0.00  0.00     0.015 SA
ATOM      6  C4  UNL d   1       2.116  -5.997   0.970  0.00  0.00     0.022 A 
ATOM      7  C5  UNL d   1       1.108  -5.297   1.590  0.00  0.00     0.026 A 
ATOM      8  C6  UNL d   1       1.302  -3.875   1.537  0.00  0.00    -0.082 A 
ATOM      9  C7  UNL d   1       0.510  -2.818   2.046  0.00  0.00     0.045 A 
ENDROOT
TORSDOF 0
ENDMDL
