MODEL 1
REMARK minimizedAffinity -1.92760646
REMARK minimizedRMSD -1
REMARK  1 active torsions:
REMARK  status: ('A' for Active; 'I' for Inactive)
REMARK    1  A    between atoms: N_2  and  C1_3 
ROOT
ATOM      1  C1  UNL d   1       1.896   3.065  -0.967  0.00  0.00     0.143 A 
ATOM      2  C2  UNL d   1       1.435   2.886   0.342  0.00  0.00    -0.057 A 
ATOM      3  C3  UNL d   1       0.900   1.662   0.762  0.00  0.00     0.033 A 
ATOM      4  C4  UNL d   1       0.789   0.601  -0.131  0.00  0.00    -0.042 A 
ATOM      5  C5  UNL d   1       1.218   0.765  -1.443  0.00  0.00     0.033 A 
ATOM      6  C6  UNL d   1       1.758   1.987  -1.855  0.00  0.00    -0.057 A 
ENDROOT
BRANCH   1   7
ATOM      7  N   UNL d   1       2.346   4.287  -1.472  0.00  0.00    -0.732 N 
ATOM      8  C   UNL d   1       2.704   5.368  -0.577  0.00  0.00     0.284 C 
ATOM      9  H3  UNL d   1       2.981   4.172  -2.259  0.00  0.00     0.395 HD
ENDBRANCH   1   7
TORSDOF 1
ENDMDL
