MODEL 1
REMARK minimizedAffinity 3.90796375
REMARK minimizedRMSD -1
REMARK  1 active torsions:
REMARK  status: ('A' for Active; 'I' for Inactive)
REMARK    1  A    between atoms: N_2  and  C1_3 
ROOT
ATOM      1  C1  UNL d   1      -0.928  -2.955   4.294  0.00  0.00     0.143 A 
ATOM      2  C2  UNL d   1      -2.162  -2.460   4.730  0.00  0.00    -0.057 A 
ATOM      3  C3  UNL d   1      -3.367  -3.010   4.275  0.00  0.00     0.033 A 
ATOM      4  C4  UNL d   1      -3.359  -4.048   3.349  0.00  0.00    -0.042 A 
ATOM      5  C5  UNL d   1      -2.144  -4.539   2.882  0.00  0.00     0.033 A 
ATOM      6  C6  UNL d   1      -0.945  -3.991   3.346  0.00  0.00    -0.057 A 
ENDROOT
BRANCH   1   7
ATOM      7  N   UNL d   1       0.302  -2.387   4.634  0.00  0.00    -0.732 N 
ATOM      8  C   UNL d   1       0.395  -0.987   4.988  0.00  0.00     0.284 C 
ATOM      9  H3  UNL d   1       0.866  -3.002   5.216  0.00  0.00     0.395 HD
ENDBRANCH   1   7
TORSDOF 1
ENDMDL
