MODEL 1
REMARK minimizedAffinity -2.17072487
REMARK minimizedRMSD -1
REMARK  1 active torsions:
REMARK  status: ('A' for Active; 'I' for Inactive)
REMARK    1  A    between atoms: N_2  and  C1_3 
ROOT
ATOM      1  C1  UNL d   1       1.196   0.683  -0.360  0.00  0.00     0.143 A 
ATOM      2  C2  UNL d   1       1.101   1.582   0.708  0.00  0.00    -0.057 A 
ATOM      3  C3  UNL d   1       1.180   2.964   0.503  0.00  0.00     0.033 A 
ATOM      4  C4  UNL d   1       1.386   3.473  -0.775  0.00  0.00    -0.042 A 
ATOM      5  C5  UNL d   1       1.509   2.598  -1.848  0.00  0.00     0.033 A 
ATOM      6  C6  UNL d   1       1.421   1.219  -1.638  0.00  0.00    -0.057 A 
ENDROOT
BRANCH   1   7
ATOM      7  N   UNL d   1       1.223  -0.705  -0.208  0.00  0.00    -0.732 N 
ATOM      8  C   UNL d   1       1.063  -1.575  -1.354  0.00  0.00     0.284 C 
ATOM      9  H3  UNL d   1       1.937  -1.010   0.449  0.00  0.00     0.395 HD
ENDBRANCH   1   7
TORSDOF 1
ENDMDL
