MODEL 1
REMARK minimizedAffinity -1.32571709
REMARK minimizedRMSD -1
REMARK  1 active torsions:
REMARK  status: ('A' for Active; 'I' for Inactive)
REMARK    1  A    between atoms: N_2  and  C1_3 
ROOT
ATOM      1  C1  UNL d   1       1.505   3.566  -1.259  0.00  0.00     0.143 A 
ATOM      2  C2  UNL d   1       1.468   2.504  -2.170  0.00  0.00    -0.057 A 
ATOM      3  C3  UNL d   1       1.194   1.197  -1.749  0.00  0.00     0.033 A 
ATOM      4  C4  UNL d   1       0.980   0.923  -0.402  0.00  0.00    -0.042 A 
ATOM      5  C5  UNL d   1       1.037   1.959   0.523  0.00  0.00     0.033 A 
ATOM      6  C6  UNL d   1       1.305   3.263   0.097  0.00  0.00    -0.057 A 
ENDROOT
BRANCH   1   7
ATOM      7  N   UNL d   1       1.869   4.871  -1.601  0.00  0.00    -0.732 N 
ATOM      8  C   UNL d   1       1.802   5.935  -0.622  0.00  0.00     0.284 C 
ATOM      9  H3  UNL d   1       2.696   4.901  -2.192  0.00  0.00     0.395 HD
ENDBRANCH   1   7
TORSDOF 1
ENDMDL
