MODEL 1
REMARK minimizedAffinity 0.942914248
REMARK minimizedRMSD -1
REMARK  1 active torsions:
REMARK  status: ('A' for Active; 'I' for Inactive)
REMARK    1  A    between atoms: N_2  and  C1_3 
ROOT
ATOM      1  C1  UNL d   1      -1.698  -4.266  -3.641  0.00  0.00     0.143 A 
ATOM      2  C2  UNL d   1      -2.277  -3.157  -3.015  0.00  0.00    -0.057 A 
ATOM      3  C3  UNL d   1      -2.192  -2.979  -1.629  0.00  0.00     0.033 A 
ATOM      4  C4  UNL d   1      -1.548  -3.926  -0.839  0.00  0.00    -0.042 A 
ATOM      5  C5  UNL d   1      -0.987  -5.049  -1.437  0.00  0.00     0.033 A 
ATOM      6  C6  UNL d   1      -1.070  -5.217  -2.822  0.00  0.00    -0.057 A 
ENDROOT
BRANCH   1   7
ATOM      7  N   UNL d   1      -1.834  -4.549  -5.003  0.00  0.00    -0.732 N 
ATOM      8  C   UNL d   1      -1.481  -3.562  -6.000  0.00  0.00     0.284 C 
ATOM      9  H3  UNL d   1      -1.541  -5.496  -5.233  0.00  0.00     0.395 HD
ENDBRANCH   1   7
TORSDOF 1
ENDMDL
