MODEL 1
REMARK minimizedAffinity 2.16945195
REMARK minimizedRMSD -1
REMARK  1 active torsions:
REMARK  status: ('A' for Active; 'I' for Inactive)
REMARK    1  A    between atoms: N_2  and  C1_3 
ROOT
ATOM      1  C1  UNL d   1       1.402   2.492  -1.364  0.00  0.00     0.143 A 
ATOM      2  C2  UNL d   1       1.188   2.831  -0.024  0.00  0.00    -0.057 A 
ATOM      3  C3  UNL d   1       1.156   4.168   0.390  0.00  0.00     0.033 A 
ATOM      4  C4  UNL d   1       1.367   5.192  -0.527  0.00  0.00    -0.042 A 
ATOM      5  C5  UNL d   1       1.606   4.878  -1.860  0.00  0.00     0.033 A 
ATOM      6  C6  UNL d   1       1.630   3.541  -2.269  0.00  0.00    -0.057 A 
ENDROOT
BRANCH   1   7
ATOM      7  N   UNL d   1       1.542   1.179  -1.822  0.00  0.00    -0.732 N 
ATOM      8  C   UNL d   1       1.811   0.101  -0.895  0.00  0.00     0.284 C 
ATOM      9  H3  UNL d   1       0.868   0.946  -2.547  0.00  0.00     0.395 HD
ENDBRANCH   1   7
TORSDOF 1
ENDMDL
