MODEL 1
REMARK minimizedAffinity -1.56172204
REMARK minimizedRMSD -1
REMARK  1 active torsions:
REMARK  status: ('A' for Active; 'I' for Inactive)
REMARK    1  A    between atoms: N_2  and  C1_3 
ROOT
ATOM      1  C1  UNL d   1       1.209   1.241  -1.171  0.00  0.00     0.143 A 
ATOM      2  C2  UNL d   1       1.434   2.277  -2.084  0.00  0.00    -0.057 A 
ATOM      3  C3  UNL d   1       1.620   3.596  -1.654  0.00  0.00     0.033 A 
ATOM      4  C4  UNL d   1       1.555   3.908  -0.300  0.00  0.00    -0.042 A 
ATOM      5  C5  UNL d   1       1.307   2.899   0.623  0.00  0.00     0.033 A 
ATOM      6  C6  UNL d   1       1.129   1.582   0.188  0.00  0.00    -0.057 A 
ENDROOT
BRANCH   1   7
ATOM      7  N   UNL d   1       0.918  -0.074  -1.543  0.00  0.00    -0.732 N 
ATOM      8  C   UNL d   1       1.218  -1.175  -0.653  0.00  0.00     0.284 C 
ATOM      9  H3  UNL d   1       0.022  -0.155  -2.017  0.00  0.00     0.395 HD
ENDBRANCH   1   7
TORSDOF 1
ENDMDL
