MODEL 1
REMARK minimizedAffinity -4.99565363
REMARK minimizedRMSD -1
REMARK  1 active torsions:
REMARK  status: ('A' for Active; 'I' for Inactive)
REMARK    1  A    between atoms: N_2  and  C1_3 
ROOT
ATOM      1  C1  UNL d   1       1.524   3.787  -0.998  0.00  0.00     0.143 A 
ATOM      2  C2  UNL d   1       1.209   3.633   0.356  0.00  0.00    -0.057 A 
ATOM      3  C3  UNL d   1       0.883   2.380   0.888  0.00  0.00     0.033 A 
ATOM      4  C4  UNL d   1       0.838   1.259   0.066  0.00  0.00    -0.042 A 
ATOM      5  C5  UNL d   1       1.123   1.392  -1.289  0.00  0.00     0.033 A 
ATOM      6  C6  UNL d   1       1.454   2.646  -1.813  0.00  0.00    -0.057 A 
ENDROOT
BRANCH   1   7
ATOM      7  N   UNL d   1       1.759   5.022  -1.607  0.00  0.00    -0.732 N 
ATOM      8  C   UNL d   1       2.624   5.999  -0.981  0.00  0.00     0.284 C 
ATOM      9  H3  UNL d   1       1.882   4.942  -2.613  0.00  0.00     0.395 HD
ENDBRANCH   1   7
TORSDOF 1
ENDMDL
