MODEL 1
REMARK minimizedAffinity -1.7084775
REMARK minimizedRMSD -1
REMARK  0 active torsions:
REMARK  status: ('A' for Active; 'I' for Inactive)
ROOT
ATOM      1  C   UNL d   1       2.154  -2.019   0.925  0.00  0.00     0.023 A 
ATOM      2  C1  UNL d   1       2.676  -0.955   0.189  0.00  0.00     0.003 A 
ATOM      3  C2  UNL d   1       1.832   0.059  -0.270  0.00  0.00     0.048 A 
ATOM      4  C3  UNL d   1       0.468   0.003   0.012  0.00  0.00     0.023 A 
ATOM      5  C4  UNL d   1      -0.059  -1.059   0.749  0.00  0.00     0.048 A 
ATOM      6  C5  UNL d   1       0.789  -2.071   1.205  0.00  0.00     0.003 A 
ATOM      7  I   UNL d   1      -0.790   1.510  -0.670  0.00  0.00    -0.146 I 
ENDROOT
TORSDOF 0
ENDMDL
