MODEL 1
REMARK minimizedAffinity -2.26652288
REMARK minimizedRMSD -1
REMARK  0 active torsions:
REMARK  status: ('A' for Active; 'I' for Inactive)
ROOT
ATOM      1  C   UNL d   1       0.406  -1.288   1.225  0.00  0.00     0.023 A 
ATOM      2  C1  UNL d   1      -0.860  -0.769   1.497  0.00  0.00     0.003 A 
ATOM      3  C2  UNL d   1      -1.487   0.068   0.571  0.00  0.00     0.048 A 
ATOM      4  C3  UNL d   1      -0.843   0.380  -0.626  0.00  0.00     0.023 A 
ATOM      5  C4  UNL d   1       0.423  -0.138  -0.903  0.00  0.00     0.048 A 
ATOM      6  C5  UNL d   1       1.047  -0.972   0.027  0.00  0.00     0.003 A 
ATOM      7  I   UNL d   1      -1.774   1.624  -2.006  0.00  0.00    -0.146 I 
ENDROOT
TORSDOF 0
ENDMDL
