MODEL 1
REMARK minimizedAffinity -2.89368248
REMARK minimizedRMSD -1
REMARK  0 active torsions:
REMARK  status: ('A' for Active; 'I' for Inactive)
ROOT
ATOM      1  C   UNL d   1       1.770  -1.882   1.098  0.00  0.00     0.023 A 
ATOM      2  C1  UNL d   1       0.489  -1.606   1.576  0.00  0.00     0.003 A 
ATOM      3  C2  UNL d   1      -0.307  -0.655   0.934  0.00  0.00     0.048 A 
ATOM      4  C3  UNL d   1       0.184   0.016  -0.185  0.00  0.00     0.023 A 
ATOM      5  C4  UNL d   1       1.465  -0.257  -0.668  0.00  0.00     0.048 A 
ATOM      6  C5  UNL d   1       2.258  -1.209  -0.023  0.00  0.00     0.003 A 
ATOM      7  I   UNL d   1      -0.998   1.433  -1.142  0.00  0.00    -0.146 I 
ENDROOT
TORSDOF 0
ENDMDL
