MODEL 1
REMARK minimizedAffinity -0.627398014
REMARK minimizedRMSD -1
REMARK  0 active torsions:
REMARK  status: ('A' for Active; 'I' for Inactive)
ROOT
ATOM      1  C   UNL d   1       0.199  -1.211   1.276  0.00  0.00     0.023 A 
ATOM      2  C1  UNL d   1       0.468  -1.362  -0.084  0.00  0.00     0.003 A 
ATOM      3  C2  UNL d   1      -0.243  -0.614  -1.025  0.00  0.00     0.048 A 
ATOM      4  C3  UNL d   1      -1.221   0.283  -0.599  0.00  0.00     0.023 A 
ATOM      5  C4  UNL d   1      -1.493   0.438   0.762  0.00  0.00     0.048 A 
ATOM      6  C5  UNL d   1      -0.780  -0.312   1.699  0.00  0.00     0.003 A 
ATOM      7  I   UNL d   1      -2.280   1.398  -1.997  0.00  0.00    -0.146 I 
ENDROOT
TORSDOF 0
ENDMDL
