MODEL 1
REMARK minimizedAffinity -2.13972473
REMARK minimizedRMSD -1
REMARK  0 active torsions:
REMARK  status: ('A' for Active; 'I' for Inactive)
ROOT
ATOM      1  C   UNL d   1       2.975   4.064   0.205  0.00  0.00     0.023 A 
ATOM      2  C1  UNL d   1       1.605   4.132   0.464  0.00  0.00     0.003 A 
ATOM      3  C2  UNL d   1       0.843   2.963   0.508  0.00  0.00     0.048 A 
ATOM      4  C3  UNL d   1       1.457   1.729   0.294  0.00  0.00     0.023 A 
ATOM      5  C4  UNL d   1       2.827   1.656   0.035  0.00  0.00     0.048 A 
ATOM      6  C5  UNL d   1       3.584   2.828  -0.009  0.00  0.00     0.003 A 
ATOM      7  I   UNL d   1       0.325  -0.013   0.359  0.00  0.00    -0.146 I 
ENDROOT
TORSDOF 0
ENDMDL
