MODEL 1
REMARK minimizedAffinity -2.00135183
REMARK minimizedRMSD -1
REMARK  0 active torsions:
REMARK  status: ('A' for Active; 'I' for Inactive)
ROOT
ATOM      1  C   UNL d   1       1.594  -2.654   0.956  0.00  0.00     0.023 A 
ATOM      2  C1  UNL d   1       0.221  -2.665   1.198  0.00  0.00     0.003 A 
ATOM      3  C2  UNL d   1      -0.575  -1.603   0.763  0.00  0.00     0.048 A 
ATOM      4  C3  UNL d   1       0.010  -0.533   0.086  0.00  0.00     0.023 A 
ATOM      5  C4  UNL d   1       1.384  -0.518  -0.159  0.00  0.00     0.048 A 
ATOM      6  C5  UNL d   1       2.175  -1.582   0.278  0.00  0.00     0.003 A 
ATOM      7  I   UNL d   1      -1.172   1.049  -0.562  0.00  0.00    -0.146 I 
ENDROOT
TORSDOF 0
ENDMDL
