MODEL 1
REMARK minimizedAffinity -0.975067317
REMARK minimizedRMSD -1
REMARK  0 active torsions:
REMARK  status: ('A' for Active; 'I' for Inactive)
ROOT
ATOM      1  C   UNL d   1      -1.112   0.947   0.040  0.00  0.00     0.023 A 
ATOM      2  C1  UNL d   1       0.132   0.747  -0.559  0.00  0.00     0.003 A 
ATOM      3  C2  UNL d   1       0.847  -0.426  -0.310  0.00  0.00     0.048 A 
ATOM      4  C3  UNL d   1       0.313  -1.396   0.537  0.00  0.00     0.023 A 
ATOM      5  C4  UNL d   1      -0.932  -1.201   1.138  0.00  0.00     0.048 A 
ATOM      6  C5  UNL d   1      -1.643  -0.026   0.887  0.00  0.00     0.003 A 
ATOM      7  I   UNL d   1       1.377  -3.142   0.909  0.00  0.00    -0.146 I 
ENDROOT
TORSDOF 0
ENDMDL
