MODEL 1
REMARK minimizedAffinity 0.526747882
REMARK minimizedRMSD -1
REMARK  0 active torsions:
REMARK  status: ('A' for Active; 'I' for Inactive)
ROOT
ATOM      1  C   UNL d   1      -0.989  -1.916   1.464  0.00  0.00     0.023 A 
ATOM      2  C1  UNL d   1      -1.314  -0.684   2.030  0.00  0.00     0.003 A 
ATOM      3  C2  UNL d   1      -1.023   0.499   1.347  0.00  0.00     0.048 A 
ATOM      4  C3  UNL d   1      -0.409   0.442   0.097  0.00  0.00     0.023 A 
ATOM      5  C4  UNL d   1      -0.082  -0.789  -0.475  0.00  0.00     0.048 A 
ATOM      6  C5  UNL d   1      -0.374  -1.969   0.213  0.00  0.00     0.003 A 
ATOM      7  I   UNL d   1       0.025   2.201  -0.922  0.00  0.00    -0.146 I 
ENDROOT
TORSDOF 0
ENDMDL
