MODEL 1
REMARK minimizedAffinity -0.573756635
REMARK minimizedRMSD -1
REMARK  0 active torsions:
REMARK  status: ('A' for Active; 'I' for Inactive)
ROOT
ATOM      1  C   UNL d   1      -0.939   0.801   0.083  0.00  0.00     0.023 A 
ATOM      2  C1  UNL d   1      -1.438  -0.173   0.947  0.00  0.00     0.003 A 
ATOM      3  C2  UNL d   1      -0.674  -1.304   1.244  0.00  0.00     0.048 A 
ATOM      4  C3  UNL d   1       0.590  -1.453   0.674  0.00  0.00     0.023 A 
ATOM      5  C4  UNL d   1       1.094  -0.480  -0.191  0.00  0.00     0.048 A 
ATOM      6  C5  UNL d   1       0.326   0.648  -0.486  0.00  0.00     0.003 A 
ATOM      7  I   UNL d   1       1.730  -3.134   1.114  0.00  0.00    -0.146 I 
ENDROOT
TORSDOF 0
ENDMDL
