MODEL 1
REMARK minimizedAffinity -2.25582457
REMARK minimizedRMSD -1
REMARK  0 active torsions:
REMARK  status: ('A' for Active; 'I' for Inactive)
ROOT
ATOM      1  C   UNL d   1      -2.355   1.162  -2.038  0.00  0.00     0.023 A 
ATOM      2  C1  UNL d   1      -1.842   2.323  -2.617  0.00  0.00     0.003 A 
ATOM      3  C2  UNL d   1      -0.730   2.954  -2.054  0.00  0.00     0.048 A 
ATOM      4  C3  UNL d   1      -0.136   2.417  -0.913  0.00  0.00     0.023 A 
ATOM      5  C4  UNL d   1      -0.644   1.255  -0.330  0.00  0.00     0.048 A 
ATOM      6  C5  UNL d   1      -1.757   0.629  -0.896  0.00  0.00     0.003 A 
ATOM      7  I   UNL d   1       1.519   3.354  -0.073  0.00  0.00    -0.146 I 
ENDROOT
TORSDOF 0
ENDMDL
