MODEL 1
REMARK minimizedAffinity -0.774041176
REMARK minimizedRMSD -1
REMARK  0 active torsions:
REMARK  status: ('A' for Active; 'I' for Inactive)
ROOT
ATOM      1  C   UNL d   1       2.860   4.139   0.904  0.00  0.00     0.023 A 
ATOM      2  C1  UNL d   1       1.497   4.236   1.186  0.00  0.00     0.003 A 
ATOM      3  C2  UNL d   1       0.628   3.214   0.798  0.00  0.00     0.048 A 
ATOM      4  C3  UNL d   1       1.129   2.097   0.129  0.00  0.00     0.023 A 
ATOM      5  C4  UNL d   1       2.492   1.996  -0.154  0.00  0.00     0.048 A 
ATOM      6  C5  UNL d   1       3.357   3.020   0.235  0.00  0.00     0.003 A 
ATOM      7  I   UNL d   1      -0.162   0.575  -0.449  0.00  0.00    -0.146 I 
ENDROOT
TORSDOF 0
ENDMDL
