MODEL 1
REMARK minimizedAffinity -1.8889761
REMARK minimizedRMSD -1
REMARK  0 active torsions:
REMARK  status: ('A' for Active; 'I' for Inactive)
ROOT
ATOM      1  C   UNL d   1      -0.432  -0.412   0.428  0.00  0.00     0.023 A 
ATOM      2  C1  UNL d   1      -0.988   0.867   0.440  0.00  0.00     0.003 A 
ATOM      3  C2  UNL d   1      -0.158   1.990   0.428  0.00  0.00     0.048 A 
ATOM      4  C3  UNL d   1       1.227   1.826   0.402  0.00  0.00     0.023 A 
ATOM      5  C4  UNL d   1       1.787   0.548   0.389  0.00  0.00     0.048 A 
ATOM      6  C5  UNL d   1       0.953  -0.572   0.403  0.00  0.00     0.003 A 
ATOM      7  I   UNL d   1       2.464   3.496   0.383  0.00  0.00    -0.146 I 
ENDROOT
TORSDOF 0
ENDMDL
