MODEL 1
REMARK minimizedAffinity -3.40260744
REMARK minimizedRMSD -1
REMARK  0 active torsions:
REMARK  status: ('A' for Active; 'I' for Inactive)
ROOT
ATOM      1  C   UNL d   1       0.454  -2.965   1.469  0.00  0.00     0.023 A 
ATOM      2  C1  UNL d   1      -0.668  -2.158   1.657  0.00  0.00     0.003 A 
ATOM      3  C2  UNL d   1      -0.713  -0.881   1.094  0.00  0.00     0.048 A 
ATOM      4  C3  UNL d   1       0.367  -0.418   0.343  0.00  0.00     0.023 A 
ATOM      5  C4  UNL d   1       1.491  -1.223   0.151  0.00  0.00     0.048 A 
ATOM      6  C5  UNL d   1       1.532  -2.498   0.717  0.00  0.00     0.003 A 
ATOM      7  I   UNL d   1       0.302   1.482  -0.497  0.00  0.00    -0.146 I 
ENDROOT
TORSDOF 0
ENDMDL
