MODEL 1
REMARK minimizedAffinity -1.41228962
REMARK minimizedRMSD -1
REMARK  0 active torsions:
REMARK  status: ('A' for Active; 'I' for Inactive)
ROOT
ATOM      1  C   UNL d   1       1.541  -2.987   1.335  0.00  0.00     0.023 A 
ATOM      2  C1  UNL d   1       0.185  -2.995   1.007  0.00  0.00     0.003 A 
ATOM      3  C2  UNL d   1      -0.450  -1.811   0.626  0.00  0.00     0.048 A 
ATOM      4  C3  UNL d   1       0.278  -0.623   0.573  0.00  0.00     0.023 A 
ATOM      5  C4  UNL d   1       1.635  -0.610   0.899  0.00  0.00     0.048 A 
ATOM      6  C5  UNL d   1       2.265  -1.797   1.281  0.00  0.00     0.003 A 
ATOM      7  I   UNL d   1      -0.664   1.141   0.005  0.00  0.00    -0.146 I 
ENDROOT
TORSDOF 0
ENDMDL
