MODEL 1
REMARK minimizedAffinity -4.15253592
REMARK minimizedRMSD -1
REMARK  0 active torsions:
REMARK  status: ('A' for Active; 'I' for Inactive)
ROOT
ATOM      1  C   UNL d   1       1.371   3.416   0.092  0.00  0.00     0.023 A 
ATOM      2  C1  UNL d   1       2.346   2.432  -0.077  0.00  0.00     0.003 A 
ATOM      3  C2  UNL d   1       1.996   1.082  -0.012  0.00  0.00     0.048 A 
ATOM      4  C3  UNL d   1       0.669   0.722   0.221  0.00  0.00     0.023 A 
ATOM      5  C4  UNL d   1      -0.310   1.703   0.389  0.00  0.00     0.048 A 
ATOM      6  C5  UNL d   1       0.045   3.051   0.325  0.00  0.00     0.003 A 
ATOM      7  I   UNL d   1       0.146  -1.287   0.317  0.00  0.00    -0.146 I 
ENDROOT
TORSDOF 0
ENDMDL
