MODEL 1
REMARK minimizedAffinity -3.02761507
REMARK minimizedRMSD -1
REMARK  0 active torsions:
REMARK  status: ('A' for Active; 'I' for Inactive)
ROOT
ATOM      1  C   UNL d   1       1.794   0.115   5.080  0.00  0.00     0.077 C 
ATOM      2  C1  UNL d   1       0.651   0.031   4.113  0.00  0.00    -0.074 A 
ATOM      3  C2  UNL d   1       0.416   1.053   3.187  0.00  0.00    -0.005 A 
ATOM      4  C3  UNL d   1      -0.646   0.957   2.288  0.00  0.00     0.006 A 
ATOM      5  C4  UNL d   1      -1.482  -0.161   2.304  0.00  0.00    -0.005 A 
ATOM      6  C5  UNL d   1      -1.261  -1.193   3.222  0.00  0.00    -0.074 A 
ATOM      7  C6  UNL d   1      -2.144  -2.405   3.247  0.00  0.00     0.077 C 
ATOM      8  C7  UNL d   1      -0.188  -1.092   4.118  0.00  0.00    -0.001 A 
ENDROOT
TORSDOF 0
ENDMDL
