MODEL 1
REMARK minimizedAffinity 8.85255241
REMARK minimizedRMSD -1
REMARK  0 active torsions:
REMARK  status: ('A' for Active; 'I' for Inactive)
ROOT
ATOM      1  C   UNL d   1       2.017   0.514   1.833  0.00  0.00     0.077 C 
ATOM      2  C1  UNL d   1       0.892   0.112   0.925  0.00  0.00    -0.074 A 
ATOM      3  C2  UNL d   1       1.142  -0.578  -0.266  0.00  0.00    -0.005 A 
ATOM      4  C3  UNL d   1       0.085  -0.953  -1.095  0.00  0.00     0.006 A 
ATOM      5  C4  UNL d   1      -1.229  -0.642  -0.744  0.00  0.00    -0.005 A 
ATOM      6  C5  UNL d   1      -1.498   0.047   0.443  0.00  0.00    -0.074 A 
ATOM      7  C6  UNL d   1      -2.905   0.380   0.841  0.00  0.00     0.077 C 
ATOM      8  C7  UNL d   1      -0.431   0.414   1.275  0.00  0.00    -0.001 A 
ENDROOT
TORSDOF 0
ENDMDL
