MODEL 1
REMARK minimizedAffinity 8.69317818
REMARK minimizedRMSD -1
REMARK  0 active torsions:
REMARK  status: ('A' for Active; 'I' for Inactive)
ROOT
ATOM      1  C   UNL d   1       5.889   2.287   3.027  0.00  0.00     0.077 C 
ATOM      2  C1  UNL d   1       4.958   1.983   1.891  0.00  0.00    -0.074 A 
ATOM      3  C2  UNL d   1       5.234   2.433   0.596  0.00  0.00    -0.005 A 
ATOM      4  C3  UNL d   1       4.364   2.134  -0.453  0.00  0.00     0.006 A 
ATOM      5  C4  UNL d   1       3.211   1.384  -0.217  0.00  0.00    -0.005 A 
ATOM      6  C5  UNL d   1       2.919   0.925   1.072  0.00  0.00    -0.074 A 
ATOM      7  C6  UNL d   1       1.690   0.109   1.341  0.00  0.00     0.077 C 
ATOM      8  C7  UNL d   1       3.802   1.223   2.118  0.00  0.00    -0.001 A 
ENDROOT
TORSDOF 0
ENDMDL
