MODEL 1
REMARK minimizedAffinity 0.368933082
REMARK minimizedRMSD -1
REMARK  0 active torsions:
REMARK  status: ('A' for Active; 'I' for Inactive)
ROOT
ATOM      1  C   UNL d   1      -0.136   3.712   2.591  0.00  0.00     0.077 C 
ATOM      2  C1  UNL d   1      -0.091   2.213   2.565  0.00  0.00    -0.074 A 
ATOM      3  C2  UNL d   1       1.129   1.530   2.554  0.00  0.00    -0.005 A 
ATOM      4  C3  UNL d   1       1.154   0.135   2.538  0.00  0.00     0.006 A 
ATOM      5  C4  UNL d   1      -0.038  -0.589   2.534  0.00  0.00    -0.005 A 
ATOM      6  C5  UNL d   1      -1.268   0.076   2.546  0.00  0.00    -0.074 A 
ATOM      7  C6  UNL d   1      -2.559  -0.687   2.552  0.00  0.00     0.077 C 
ATOM      8  C7  UNL d   1      -1.285   1.478   2.568  0.00  0.00    -0.001 A 
ENDROOT
TORSDOF 0
ENDMDL
