MODEL 1
REMARK minimizedAffinity 4.75077486
REMARK minimizedRMSD -1
REMARK  0 active torsions:
REMARK  status: ('A' for Active; 'I' for Inactive)
ROOT
ATOM      1  C   UNL d   1      -0.979   1.295   3.225  0.00  0.00     0.077 C 
ATOM      2  C1  UNL d   1      -0.554   0.601   1.965  0.00  0.00    -0.074 A 
ATOM      3  C2  UNL d   1      -1.373  -0.359   1.362  0.00  0.00    -0.005 A 
ATOM      4  C3  UNL d   1      -0.969  -0.990   0.186  0.00  0.00     0.006 A 
ATOM      5  C4  UNL d   1       0.257  -0.668  -0.399  0.00  0.00    -0.005 A 
ATOM      6  C5  UNL d   1       1.089   0.290   0.189  0.00  0.00    -0.074 A 
ATOM      7  C6  UNL d   1       2.404   0.655  -0.431  0.00  0.00     0.077 C 
ATOM      8  C7  UNL d   1       0.672   0.925   1.368  0.00  0.00    -0.001 A 
ENDROOT
TORSDOF 0
ENDMDL
