MODEL 1
REMARK minimizedAffinity 0.672038257
REMARK minimizedRMSD -1
REMARK  0 active torsions:
REMARK  status: ('A' for Active; 'I' for Inactive)
ROOT
ATOM      1  C   UNL d   1      -0.894   1.855   3.365  0.00  0.00     0.077 C 
ATOM      2  C1  UNL d   1      -0.764   0.953   2.173  0.00  0.00    -0.074 A 
ATOM      3  C2  UNL d   1       0.480   0.437   1.794  0.00  0.00    -0.005 A 
ATOM      4  C3  UNL d   1       0.584  -0.407   0.689  0.00  0.00     0.006 A 
ATOM      5  C4  UNL d   1      -0.553  -0.744  -0.047  0.00  0.00    -0.005 A 
ATOM      6  C5  UNL d   1      -1.805  -0.238   0.317  0.00  0.00    -0.074 A 
ATOM      7  C6  UNL d   1      -3.037  -0.598  -0.458  0.00  0.00     0.077 C 
ATOM      8  C7  UNL d   1      -1.902   0.604   1.433  0.00  0.00    -0.001 A 
ENDROOT
TORSDOF 0
ENDMDL
