MODEL 1
REMARK minimizedAffinity 1.53788435
REMARK minimizedRMSD -1
REMARK  0 active torsions:
REMARK  status: ('A' for Active; 'I' for Inactive)
ROOT
ATOM      1  C   UNL d   1      -2.843   0.284   1.025  0.00  0.00     0.077 C 
ATOM      2  C1  UNL d   1      -1.411  -0.030   0.710  0.00  0.00    -0.074 A 
ATOM      3  C2  UNL d   1      -1.077  -1.103  -0.124  0.00  0.00    -0.005 A 
ATOM      4  C3  UNL d   1       0.259  -1.377  -0.416  0.00  0.00     0.006 A 
ATOM      5  C4  UNL d   1       1.273  -0.583   0.122  0.00  0.00    -0.005 A 
ATOM      6  C5  UNL d   1       0.958   0.494   0.956  0.00  0.00    -0.074 A 
ATOM      7  C6  UNL d   1       2.035   1.364   1.533  0.00  0.00     0.077 C 
ATOM      8  C7  UNL d   1      -0.387   0.768   1.239  0.00  0.00    -0.001 A 
ENDROOT
TORSDOF 0
ENDMDL
