MODEL 1
REMARK minimizedAffinity 7.86934376
REMARK minimizedRMSD -1
REMARK  0 active torsions:
REMARK  status: ('A' for Active; 'I' for Inactive)
ROOT
ATOM      1  C   UNL d   1       4.814   2.477   2.271  0.00  0.00     0.077 C 
ATOM      2  C1  UNL d   1       3.829   2.019   1.237  0.00  0.00    -0.074 A 
ATOM      3  C2  UNL d   1       4.108   2.145  -0.128  0.00  0.00    -0.005 A 
ATOM      4  C3  UNL d   1       3.186   1.706  -1.078  0.00  0.00     0.006 A 
ATOM      5  C4  UNL d   1       1.978   1.137  -0.674  0.00  0.00    -0.005 A 
ATOM      6  C5  UNL d   1       1.681   1.003   0.686  0.00  0.00    -0.074 A 
ATOM      7  C6  UNL d   1       0.391   0.385   1.138  0.00  0.00     0.077 C 
ATOM      8  C7  UNL d   1       2.616   1.440   1.635  0.00  0.00    -0.001 A 
ENDROOT
TORSDOF 0
ENDMDL
