MODEL 1
REMARK minimizedAffinity 2.93219638
REMARK minimizedRMSD -1
REMARK  0 active torsions:
REMARK  status: ('A' for Active; 'I' for Inactive)
ROOT
ATOM      1  C   UNL d   1      -4.008   2.238  -5.727  0.00  0.00    -0.002 A 
ATOM      2  C1  UNL d   1      -2.809   1.705  -5.275  0.00  0.00     0.010 A 
ATOM      3  C2  UNL d   1      -2.675   0.329  -5.076  0.00  0.00     0.041 A 
ATOM      4  C3  UNL d   1      -3.775  -0.509  -5.344  0.00  0.00    -0.075 A 
ATOM      5  S   UNL d   1      -3.841  -2.224  -5.174  0.00  0.00     0.015 SA
ATOM      6  C4  UNL d   1      -5.461  -2.288  -5.698  0.00  0.00     0.022 A 
ATOM      7  C5  UNL d   1      -5.956  -1.041  -5.999  0.00  0.00     0.026 A 
ATOM      8  C6  UNL d   1      -4.992   0.005  -5.801  0.00  0.00    -0.082 A 
ATOM      9  C7  UNL d   1      -5.097   1.404  -5.991  0.00  0.00     0.045 A 
ENDROOT
TORSDOF 0
ENDMDL
