MODEL 1
REMARK minimizedAffinity -2.57413459
REMARK minimizedRMSD -1
REMARK  0 active torsions:
REMARK  status: ('A' for Active; 'I' for Inactive)
ROOT
ATOM      1  C   UNL d   1      -2.233   4.550  -5.251  0.00  0.00    -0.002 A 
ATOM      2  C1  UNL d   1      -1.530   3.374  -5.026  0.00  0.00     0.010 A 
ATOM      3  C2  UNL d   1      -2.168   2.136  -5.120  0.00  0.00     0.041 A 
ATOM      4  C3  UNL d   1      -3.537   2.098  -5.450  0.00  0.00    -0.075 A 
ATOM      5  S   UNL d   1      -4.526   0.697  -5.622  0.00  0.00     0.015 SA
ATOM      6  C4  UNL d   1      -5.905   1.625  -6.000  0.00  0.00     0.022 A 
ATOM      7  C5  UNL d   1      -5.635   2.973  -5.998  0.00  0.00     0.026 A 
ATOM      8  C6  UNL d   1      -4.266   3.268  -5.682  0.00  0.00    -0.082 A 
ATOM      9  C7  UNL d   1      -3.591   4.508  -5.577  0.00  0.00     0.045 A 
ENDROOT
TORSDOF 0
ENDMDL
