MODEL 1
REMARK minimizedAffinity 1.3047868
REMARK minimizedRMSD -1
REMARK  0 active torsions:
REMARK  status: ('A' for Active; 'I' for Inactive)
ROOT
ATOM      1  C   UNL d   1      -5.977   3.820  -6.000  0.00  0.00    -0.002 A 
ATOM      2  C1  UNL d   1      -5.768   5.192  -5.996  0.00  0.00     0.010 A 
ATOM      3  C2  UNL d   1      -4.480   5.714  -5.858  0.00  0.00     0.041 A 
ATOM      4  C3  UNL d   1      -3.395   4.825  -5.725  0.00  0.00    -0.075 A 
ATOM      5  S   UNL d   1      -1.731   5.236  -5.544  0.00  0.00     0.015 SA
ATOM      6  C4  UNL d   1      -1.258   3.600  -5.468  0.00  0.00     0.022 A 
ATOM      7  C5  UNL d   1      -2.331   2.748  -5.577  0.00  0.00     0.026 A 
ATOM      8  C6  UNL d   1      -3.580   3.439  -5.727  0.00  0.00    -0.082 A 
ATOM      9  C7  UNL d   1      -4.898   2.941  -5.868  0.00  0.00     0.045 A 
ENDROOT
TORSDOF 0
ENDMDL
