MODEL 1
REMARK minimizedAffinity 6.16419029
REMARK minimizedRMSD -1
REMARK  0 active torsions:
REMARK  status: ('A' for Active; 'I' for Inactive)
ROOT
ATOM      1  C   UNL d   1      -1.991   5.954  -5.874  0.00  0.00    -0.002 A 
ATOM      2  C1  UNL d   1      -1.228   4.820  -5.635  0.00  0.00     0.010 A 
ATOM      3  C2  UNL d   1      -1.834   3.568  -5.514  0.00  0.00     0.041 A 
ATOM      4  C3  UNL d   1      -3.234   3.473  -5.641  0.00  0.00    -0.075 A 
ATOM      5  S   UNL d   1      -4.193   2.045  -5.531  0.00  0.00     0.015 SA
ATOM      6  C4  UNL d   1      -5.639   2.906  -5.800  0.00  0.00     0.022 A 
ATOM      7  C5  UNL d   1      -5.414   4.252  -5.971  0.00  0.00     0.026 A 
ATOM      8  C6  UNL d   1      -4.024   4.601  -5.883  0.00  0.00    -0.082 A 
ATOM      9  C7  UNL d   1      -3.380   5.856  -6.000  0.00  0.00     0.045 A 
ENDROOT
TORSDOF 0
ENDMDL
