MODEL 1
REMARK minimizedAffinity 6.64173937
REMARK minimizedRMSD -1
REMARK  0 active torsions:
REMARK  status: ('A' for Active; 'I' for Inactive)
ROOT
ATOM      1  C   UNL d   1       4.873   1.488  -1.122  0.00  0.00    -0.002 A 
ATOM      2  C1  UNL d   1       4.676   0.164  -1.488  0.00  0.00     0.010 A 
ATOM      3  C2  UNL d   1       3.415  -0.426  -1.369  0.00  0.00     0.041 A 
ATOM      4  C3  UNL d   1       2.346   0.346  -0.873  0.00  0.00    -0.075 A 
ATOM      5  S   UNL d   1       0.716  -0.164  -0.642  0.00  0.00     0.015 SA
ATOM      6  C4  UNL d   1       0.242   1.363  -0.053  0.00  0.00     0.022 A 
ATOM      7  C5  UNL d   1       1.290   2.253  -0.027  0.00  0.00     0.026 A 
ATOM      8  C6  UNL d   1       2.520   1.682  -0.499  0.00  0.00    -0.082 A 
ATOM      9  C7  UNL d   1       3.809   2.250  -0.631  0.00  0.00     0.045 A 
ENDROOT
TORSDOF 0
ENDMDL
