MODEL 1
REMARK minimizedAffinity 8.44510651
REMARK minimizedRMSD -1
REMARK  0 active torsions:
REMARK  status: ('A' for Active; 'I' for Inactive)
ROOT
ATOM      1  C   UNL d   1      -5.995   3.989  -5.981  0.00  0.00    -0.002 A 
ATOM      2  C1  UNL d   1      -5.896   2.651  -5.627  0.00  0.00     0.010 A 
ATOM      3  C2  UNL d   1      -4.663   2.097  -5.279  0.00  0.00     0.041 A 
ATOM      4  C3  UNL d   1      -3.519   2.920  -5.291  0.00  0.00    -0.075 A 
ATOM      5  S   UNL d   1      -1.904   2.460  -4.901  0.00  0.00     0.015 SA
ATOM      6  C4  UNL d   1      -1.307   4.030  -5.193  0.00  0.00     0.022 A 
ATOM      7  C5  UNL d   1      -2.302   4.896  -5.580  0.00  0.00     0.026 A 
ATOM      8  C6  UNL d   1      -3.593   4.271  -5.642  0.00  0.00    -0.082 A 
ATOM      9  C7  UNL d   1      -4.858   4.802  -5.991  0.00  0.00     0.045 A 
ENDROOT
TORSDOF 0
ENDMDL
