MODEL 1
REMARK minimizedAffinity -4.2647686
REMARK minimizedRMSD -1
REMARK  0 active torsions:
REMARK  status: ('A' for Active; 'I' for Inactive)
ROOT
ATOM      1  C   UNL d   1       2.269  -0.750  -2.622  0.00  0.00    -0.002 A 
ATOM      2  C1  UNL d   1       2.879  -1.756  -1.887  0.00  0.00     0.010 A 
ATOM      3  C2  UNL d   1       3.921  -2.505  -2.436  0.00  0.00     0.041 A 
ATOM      4  C3  UNL d   1       4.345  -2.222  -3.749  0.00  0.00    -0.075 A 
ATOM      5  S   UNL d   1       5.603  -3.009  -4.628  0.00  0.00     0.015 SA
ATOM      6  C4  UNL d   1       5.360  -2.027  -6.000  0.00  0.00     0.022 A 
ATOM      7  C5  UNL d   1       4.348  -1.116  -5.810  0.00  0.00     0.026 A 
ATOM      8  C6  UNL d   1       3.747  -1.213  -4.510  0.00  0.00    -0.082 A 
ATOM      9  C7  UNL d   1       2.692  -0.472  -3.925  0.00  0.00     0.045 A 
ENDROOT
TORSDOF 0
ENDMDL
