MODEL 1
REMARK minimizedAffinity -2.412009
REMARK minimizedRMSD -1
REMARK  0 active torsions:
REMARK  status: ('A' for Active; 'I' for Inactive)
ROOT
ATOM      1  C   UNL d   1       2.934  -1.445  -1.650  0.00  0.00    -0.002 A 
ATOM      2  C1  UNL d   1       2.387  -0.537  -2.545  0.00  0.00     0.010 A 
ATOM      3  C2  UNL d   1       2.832  -0.488  -3.868  0.00  0.00     0.041 A 
ATOM      4  C3  UNL d   1       3.843  -1.378  -4.280  0.00  0.00    -0.075 A 
ATOM      5  S   UNL d   1       4.543  -1.501  -5.851  0.00  0.00     0.015 SA
ATOM      6  C4  UNL d   1       5.583  -2.762  -5.371  0.00  0.00     0.022 A 
ATOM      7  C5  UNL d   1       5.414  -3.094  -4.048  0.00  0.00     0.026 A 
ATOM      8  C6  UNL d   1       4.408  -2.303  -3.397  0.00  0.00    -0.082 A 
ATOM      9  C7  UNL d   1       3.937  -2.326  -2.062  0.00  0.00     0.045 A 
ENDROOT
TORSDOF 0
ENDMDL
