MODEL 1
REMARK minimizedAffinity 7.2355237
REMARK minimizedRMSD -1
REMARK  0 active torsions:
REMARK  status: ('A' for Active; 'I' for Inactive)
ROOT
ATOM      1  C4' PXY d   1      -3.755  -1.903   3.396  0.00  0.00     0.077 C 
ATOM      2  C1' PXY d   1      -0.905   2.659   1.281  0.00  0.00     0.077 C 
ATOM      3  C1  PXY d   1      -1.642   1.459   1.842  0.00  0.00    -0.082 A 
ATOM      4  C2  PXY d   1      -2.680   0.964   1.188  0.00  0.00     0.003 A 
ATOM      5  C3  PXY d   1      -3.377  -0.101   1.698  0.00  0.00     0.003 A 
ATOM      6  C4  PXY d   1      -2.976  -0.699   2.862  0.00  0.00    -0.082 A 
ATOM      7  C5  PXY d   1      -1.911  -0.207   3.530  0.00  0.00     0.003 A 
ATOM      8  C6  PXY d   1      -1.241   0.901   3.017  0.00  0.00     0.003 A 
ENDROOT
TORSDOF 0
ENDMDL
