MODEL 1
REMARK minimizedAffinity 4.39720249
REMARK minimizedRMSD -1
REMARK  0 active torsions:
REMARK  status: ('A' for Active; 'I' for Inactive)
ROOT
ATOM      1  C4' PXY d   1      -0.319  -0.915   5.049  0.00  0.00     0.077 C 
ATOM      2  C1' PXY d   1      -3.620   0.590   0.548  0.00  0.00     0.077 C 
ATOM      3  C1  PXY d   1      -2.764   0.189   1.733  0.00  0.00    -0.082 A 
ATOM      4  C2  PXY d   1      -1.752   0.958   2.100  0.00  0.00     0.003 A 
ATOM      5  C3  PXY d   1      -0.948   0.593   3.149  0.00  0.00     0.003 A 
ATOM      6  C4  PXY d   1      -1.215  -0.544   3.864  0.00  0.00    -0.082 A 
ATOM      7  C5  PXY d   1      -2.253  -1.328   3.503  0.00  0.00     0.003 A 
ATOM      8  C6  PXY d   1      -3.031  -0.962   2.409  0.00  0.00     0.003 A 
ENDROOT
TORSDOF 0
ENDMDL
