MODEL 1
REMARK minimizedAffinity 13.2080784
REMARK minimizedRMSD -1
REMARK  0 active torsions:
REMARK  status: ('A' for Active; 'I' for Inactive)
ROOT
ATOM      1  C4' PXY d   1      -0.705  -0.883   4.359  0.00  0.00     0.077 C 
ATOM      2  C1' PXY d   1      -3.205   1.060  -0.477  0.00  0.00     0.077 C 
ATOM      3  C1  PXY d   1      -2.559   0.556   0.798  0.00  0.00    -0.082 A 
ATOM      4  C2  PXY d   1      -1.255   0.330   0.827  0.00  0.00     0.003 A 
ATOM      5  C3  PXY d   1      -0.660  -0.157   1.962  0.00  0.00     0.003 A 
ATOM      6  C4  PXY d   1      -1.398  -0.364   3.096  0.00  0.00    -0.082 A 
ATOM      7  C5  PXY d   1      -2.727  -0.126   3.079  0.00  0.00     0.003 A 
ATOM      8  C6  PXY d   1      -3.319   0.329   1.904  0.00  0.00     0.003 A 
ENDROOT
TORSDOF 0
ENDMDL
