MODEL 1
REMARK minimizedAffinity 6.32541609
REMARK minimizedRMSD -1
REMARK  0 active torsions:
REMARK  status: ('A' for Active; 'I' for Inactive)
ROOT
ATOM      1  C4' PXY d   1       0.024  -0.998   4.177  0.00  0.00     0.077 C 
ATOM      2  C1' PXY d   1      -2.533   1.266  -0.487  0.00  0.00     0.077 C 
ATOM      3  C1  PXY d   1      -1.854   0.666   0.728  0.00  0.00    -0.082 A 
ATOM      4  C2  PXY d   1      -2.527   0.545   1.861  0.00  0.00     0.003 A 
ATOM      5  C3  PXY d   1      -1.919   0.035   2.979  0.00  0.00     0.003 A 
ATOM      6  C4  PXY d   1      -0.624  -0.407   2.922  0.00  0.00    -0.082 A 
ATOM      7  C5  PXY d   1       0.066  -0.297   1.767  0.00  0.00     0.003 A 
ATOM      8  C6  PXY d   1      -0.556   0.262   0.655  0.00  0.00     0.003 A 
ENDROOT
TORSDOF 0
ENDMDL
