MODEL 1
REMARK minimizedAffinity 6.82130718
REMARK minimizedRMSD -1
REMARK  0 active torsions:
REMARK  status: ('A' for Active; 'I' for Inactive)
ROOT
ATOM      1  C4' PXY d   1      -2.944   1.108  -0.782  0.00  0.00     0.077 C 
ATOM      2  C1' PXY d   1      -0.644  -0.809   4.163  0.00  0.00     0.077 C 
ATOM      3  C1  PXY d   1      -1.236  -0.301   2.863  0.00  0.00    -0.082 A 
ATOM      4  C2  PXY d   1      -2.541  -0.103   2.771  0.00  0.00     0.003 A 
ATOM      5  C3  PXY d   1      -3.097   0.325   1.593  0.00  0.00     0.003 A 
ATOM      6  C4  PXY d   1      -2.302   0.605   0.514  0.00  0.00    -0.082 A 
ATOM      7  C5  PXY d   1      -0.968   0.416   0.603  0.00  0.00     0.003 A 
ATOM      8  C6  PXY d   1      -0.429  -0.058   1.794  0.00  0.00     0.003 A 
ENDROOT
TORSDOF 0
ENDMDL
