MODEL 1
REMARK minimizedAffinity 6.49997807
REMARK minimizedRMSD -1
REMARK  0 active torsions:
REMARK  status: ('A' for Active; 'I' for Inactive)
ROOT
ATOM      1  C4' PXY d   1       0.793  -0.326   1.821  0.00  0.00     0.077 C 
ATOM      2  C1' PXY d   1      -4.318   0.514  -0.745  0.00  0.00     0.077 C 
ATOM      3  C1  PXY d   1      -2.981   0.303  -0.063  0.00  0.00    -0.082 A 
ATOM      4  C2  PXY d   1      -1.981  -0.240  -0.739  0.00  0.00     0.003 A 
ATOM      5  C3  PXY d   1      -0.774  -0.467  -0.129  0.00  0.00     0.003 A 
ATOM      6  C4  PXY d   1      -0.572  -0.086   1.171  0.00  0.00    -0.082 A 
ATOM      7  C5  PXY d   1      -1.584   0.479   1.863  0.00  0.00     0.003 A 
ATOM      8  C6  PXY d   1      -2.814   0.663   1.238  0.00  0.00     0.003 A 
ENDROOT
TORSDOF 0
ENDMDL
