MODEL 1
REMARK minimizedAffinity 2.16756296
REMARK minimizedRMSD -1
REMARK  0 active torsions:
REMARK  status: ('A' for Active; 'I' for Inactive)
ROOT
ATOM      1  C4' PXY d   1       0.523  -1.366   4.475  0.00  0.00     0.077 C 
ATOM      2  C1' PXY d   1      -2.099   0.271  -0.410  0.00  0.00     0.077 C 
ATOM      3  C1  PXY d   1      -1.403  -0.165   0.864  0.00  0.00    -0.082 A 
ATOM      4  C2  PXY d   1      -2.071  -0.170   2.006  0.00  0.00     0.003 A 
ATOM      5  C3  PXY d   1      -1.448  -0.531   3.173  0.00  0.00     0.003 A 
ATOM      6  C4  PXY d   1      -0.142  -0.942   3.162  0.00  0.00    -0.082 A 
ATOM      7  C5  PXY d   1       0.544  -0.950   1.999  0.00  0.00     0.003 A 
ATOM      8  C6  PXY d   1      -0.095  -0.541   0.833  0.00  0.00     0.003 A 
ENDROOT
TORSDOF 0
ENDMDL
