MODEL 1
REMARK minimizedAffinity 5.8018136
REMARK minimizedRMSD -1
REMARK  0 active torsions:
REMARK  status: ('A' for Active; 'I' for Inactive)
ROOT
ATOM      1  C4' PXY d   1      -3.369  -0.810  -0.791  0.00  0.00     0.077 C 
ATOM      2  C1' PXY d   1       2.394  -1.235  -0.623  0.00  0.00     0.077 C 
ATOM      3  C1  PXY d   1       0.883  -1.120  -0.655  0.00  0.00    -0.082 A 
ATOM      4  C2  PXY d   1       0.195  -1.786  -1.568  0.00  0.00     0.003 A 
ATOM      5  C3  PXY d   1      -1.170  -1.669  -1.631  0.00  0.00     0.003 A 
ATOM      6  C4  PXY d   1      -1.842  -0.903  -0.716  0.00  0.00    -0.082 A 
ATOM      7  C5  PXY d   1      -1.148  -0.229   0.226  0.00  0.00     0.003 A 
ATOM      8  C6  PXY d   1       0.240  -0.329   0.247  0.00  0.00     0.003 A 
ENDROOT
TORSDOF 0
ENDMDL
