MODEL 1
REMARK minimizedAffinity -4.71551085
REMARK minimizedRMSD -1
REMARK  0 active torsions:
REMARK  status: ('A' for Active; 'I' for Inactive)
ROOT
ATOM      1  C4' PXY d   1      -2.589  -0.625   0.436  0.00  0.00     0.077 C 
ATOM      2  C1' PXY d   1       2.344   1.338   2.723  0.00  0.00     0.077 C 
ATOM      3  C1  PXY d   1       1.048   0.816   2.134  0.00  0.00    -0.082 A 
ATOM      4  C2  PXY d   1       0.893   0.783   0.820  0.00  0.00     0.003 A 
ATOM      5  C3  PXY d   1      -0.284   0.344   0.272  0.00  0.00     0.003 A 
ATOM      6  C4  PXY d   1      -1.294  -0.115   1.074  0.00  0.00    -0.082 A 
ATOM      7  C5  PXY d   1      -1.139  -0.095   2.415  0.00  0.00     0.003 A 
ATOM      8  C6  PXY d   1       0.048   0.393   2.954  0.00  0.00     0.003 A 
ENDROOT
TORSDOF 0
ENDMDL
