MODEL 1
REMARK minimizedAffinity -1.78546941
REMARK minimizedRMSD -1
REMARK  0 active torsions:
REMARK  status: ('A' for Active; 'I' for Inactive)
ROOT
ATOM      1  C4' PXY d   1      -2.315  -1.535  -0.513  0.00  0.00     0.077 C 
ATOM      2  C1' PXY d   1      -0.389   1.904   3.715  0.00  0.00     0.077 C 
ATOM      3  C1  PXY d   1      -0.891   1.012   2.598  0.00  0.00    -0.082 A 
ATOM      4  C2  PXY d   1      -1.776   0.065   2.864  0.00  0.00     0.003 A 
ATOM      5  C3  PXY d   1      -2.217  -0.772   1.872  0.00  0.00     0.003 A 
ATOM      6  C4  PXY d   1      -1.787  -0.604   0.582  0.00  0.00    -0.082 A 
ATOM      7  C5  PXY d   1      -0.892   0.366   0.300  0.00  0.00     0.003 A 
ATOM      8  C6  PXY d   1      -0.426   1.179   1.330  0.00  0.00     0.003 A 
ENDROOT
TORSDOF 0
ENDMDL
