MODEL 1
REMARK minimizedAffinity 3.81868863
REMARK minimizedRMSD -1
REMARK  0 active torsions:
REMARK  status: ('A' for Active; 'I' for Inactive)
ROOT
ATOM      1  C4' PXY d   1      -3.761  -0.997  -1.142  0.00  0.00     0.077 C 
ATOM      2  C1' PXY d   1       1.552   0.122   0.843  0.00  0.00     0.077 C 
ATOM      3  C1  PXY d   1       0.154  -0.172   0.334  0.00  0.00    -0.082 A 
ATOM      4  C2  PXY d   1      -0.005  -0.769  -0.835  0.00  0.00     0.003 A 
ATOM      5  C3  PXY d   1      -1.262  -1.013  -1.325  0.00  0.00     0.003 A 
ATOM      6  C4  PXY d   1      -2.368  -0.690  -0.585  0.00  0.00    -0.082 A 
ATOM      7  C5  PXY d   1      -2.215  -0.090   0.614  0.00  0.00     0.003 A 
ATOM      8  C6  PXY d   1      -0.930   0.187   1.074  0.00  0.00     0.003 A 
ENDROOT
TORSDOF 0
ENDMDL
