MODEL 1
REMARK minimizedAffinity 10.5135155
REMARK minimizedRMSD -1
REMARK  0 active torsions:
REMARK  status: ('A' for Active; 'I' for Inactive)
ROOT
ATOM      1  C4' PXY d   1       1.941   0.151   1.184  0.00  0.00     0.077 C 
ATOM      2  C1' PXY d   1      -3.585  -0.532  -0.368  0.00  0.00     0.077 C 
ATOM      3  C1  PXY d   1      -2.133  -0.363   0.031  0.00  0.00    -0.082 A 
ATOM      4  C2  PXY d   1      -1.835   0.174   1.202  0.00  0.00     0.003 A 
ATOM      5  C3  PXY d   1      -0.526   0.365   1.565  0.00  0.00     0.003 A 
ATOM      6  C4  PXY d   1       0.488  -0.048   0.743  0.00  0.00    -0.082 A 
ATOM      7  C5  PXY d   1       0.192  -0.607  -0.449  0.00  0.00     0.003 A 
ATOM      8  C6  PXY d   1      -1.143  -0.754  -0.817  0.00  0.00     0.003 A 
ENDROOT
TORSDOF 0
ENDMDL
