MODEL 1
REMARK minimizedAffinity 4.6128397
REMARK minimizedRMSD -1
REMARK  0 active torsions:
REMARK  status: ('A' for Active; 'I' for Inactive)
ROOT
ATOM      1  C4' PXY d   1       1.367  -1.182   4.165  0.00  0.00     0.077 C 
ATOM      2  C1' PXY d   1      -2.184   0.798   0.055  0.00  0.00     0.077 C 
ATOM      3  C1  PXY d   1      -1.244   0.276   1.124  0.00  0.00    -0.082 A 
ATOM      4  C2  PXY d   1      -1.731  -0.111   2.291  0.00  0.00     0.003 A 
ATOM      5  C3  PXY d   1      -0.892  -0.556   3.280  0.00  0.00     0.003 A 
ATOM      6  C4  PXY d   1       0.454  -0.656   3.053  0.00  0.00    -0.082 A 
ATOM      7  C5  PXY d   1       0.958  -0.274   1.861  0.00  0.00     0.003 A 
ATOM      8  C6  PXY d   1       0.094   0.214   0.884  0.00  0.00     0.003 A 
ENDROOT
TORSDOF 0
ENDMDL
