MODEL 1
REMARK minimizedAffinity 3.31513572
REMARK minimizedRMSD -1
REMARK  0 active torsions:
REMARK  status: ('A' for Active; 'I' for Inactive)
ROOT
ATOM      1  C4' PXY d   1      -1.971   0.962   0.048  0.00  0.00     0.077 C 
ATOM      2  C1' PXY d   1      -0.343  -0.667   5.350  0.00  0.00     0.077 C 
ATOM      3  C1  PXY d   1      -0.758  -0.237   3.957  0.00  0.00    -0.082 A 
ATOM      4  C2  PXY d   1      -1.994   0.182   3.742  0.00  0.00     0.003 A 
ATOM      5  C3  PXY d   1      -2.395   0.544   2.482  0.00  0.00     0.003 A 
ATOM      6  C4  PXY d   1      -1.506   0.527   1.441  0.00  0.00    -0.082 A 
ATOM      7  C5  PXY d   1      -0.240   0.111   1.654  0.00  0.00     0.003 A 
ATOM      8  C6  PXY d   1       0.136  -0.291   2.932  0.00  0.00     0.003 A 
ENDROOT
TORSDOF 0
ENDMDL
