MODEL 1
REMARK minimizedAffinity -3.52703047
REMARK minimizedRMSD -1
REMARK  0 active torsions:
REMARK  status: ('A' for Active; 'I' for Inactive)
ROOT
ATOM      1  C2' OXE d   1       3.128   0.700  -0.110  0.00  0.00     0.078 C 
ATOM      2  C1' OXE d   1       2.058   2.018   2.126  0.00  0.00     0.078 C 
ATOM      3  C1  OXE d   1       1.153   1.086   1.359  0.00  0.00    -0.078 A 
ATOM      4  C2  OXE d   1       1.671   0.481   0.239  0.00  0.00    -0.078 A 
ATOM      5  C3  OXE d   1       0.896  -0.430  -0.473  0.00  0.00     0.003 A 
ATOM      6  C4  OXE d   1      -0.453  -0.618  -0.149  0.00  0.00    -0.002 A 
ATOM      7  C5  OXE d   1      -1.011   0.019   0.964  0.00  0.00    -0.002 A 
ATOM      8  C6  OXE d   1      -0.212   0.840   1.752  0.00  0.00     0.003 A 
ENDROOT
TORSDOF 0
ENDMDL
