MODEL 1
REMARK minimizedAffinity -2.50984097
REMARK minimizedRMSD -1
REMARK  0 active torsions:
REMARK  status: ('A' for Active; 'I' for Inactive)
ROOT
ATOM      1  C2' OXE d   1       1.985  -0.962  -0.685  0.00  0.00     0.078 C 
ATOM      2  C1' OXE d   1      -0.799  -1.025  -1.034  0.00  0.00     0.078 C 
ATOM      3  C1  OXE d   1      -0.243  -0.095   0.015  0.00  0.00    -0.078 A 
ATOM      4  C2  OXE d   1       1.117  -0.105   0.211  0.00  0.00    -0.078 A 
ATOM      5  C3  OXE d   1       1.688   0.773   1.129  0.00  0.00     0.003 A 
ATOM      6  C4  OXE d   1       0.877   1.554   1.961  0.00  0.00    -0.002 A 
ATOM      7  C5  OXE d   1      -0.513   1.550   1.805  0.00  0.00    -0.002 A 
ATOM      8  C6  OXE d   1      -1.085   0.765   0.810  0.00  0.00     0.003 A 
ENDROOT
TORSDOF 0
ENDMDL
