MODEL 1
REMARK minimizedAffinity -2.62438035
REMARK minimizedRMSD -1
REMARK  0 active torsions:
REMARK  status: ('A' for Active; 'I' for Inactive)
ROOT
ATOM      1  C2' OXE d   1       0.913  -2.226  -0.985  0.00  0.00     0.078 C 
ATOM      2  C1' OXE d   1      -0.657  -0.161   0.088  0.00  0.00     0.078 C 
ATOM      3  C1  OXE d   1      -1.193  -0.902  -1.112  0.00  0.00    -0.078 A 
ATOM      4  C2  OXE d   1      -0.397  -1.879  -1.659  0.00  0.00    -0.078 A 
ATOM      5  C3  OXE d   1      -0.866  -2.630  -2.733  0.00  0.00     0.003 A 
ATOM      6  C4  OXE d   1      -2.075  -2.296  -3.357  0.00  0.00    -0.002 A 
ATOM      7  C5  OXE d   1      -2.882  -1.277  -2.840  0.00  0.00    -0.002 A 
ATOM      8  C6  OXE d   1      -2.477  -0.600  -1.695  0.00  0.00     0.003 A 
ENDROOT
TORSDOF 0
ENDMDL
