MODEL 1
REMARK minimizedAffinity -2.86898208
REMARK minimizedRMSD -1
REMARK  0 active torsions:
REMARK  status: ('A' for Active; 'I' for Inactive)
ROOT
ATOM      1  C2' OXE d   1       3.261   0.378  -0.300  0.00  0.00     0.078 C 
ATOM      2  C1' OXE d   1       2.379   2.104   1.730  0.00  0.00     0.078 C 
ATOM      3  C1  OXE d   1       1.374   1.153   1.129  0.00  0.00    -0.078 A 
ATOM      4  C2  OXE d   1       1.803   0.345   0.104  0.00  0.00    -0.078 A 
ATOM      5  C3  OXE d   1       0.931  -0.589  -0.448  0.00  0.00     0.003 A 
ATOM      6  C4  OXE d   1      -0.418  -0.606  -0.076  0.00  0.00    -0.002 A 
ATOM      7  C5  OXE d   1      -0.886   0.237   0.938  0.00  0.00    -0.002 A 
ATOM      8  C6  OXE d   1       0.005   1.091   1.579  0.00  0.00     0.003 A 
ENDROOT
TORSDOF 0
ENDMDL
