MODEL 1
REMARK minimizedAffinity -4.41841984
REMARK minimizedRMSD -1
REMARK  0 active torsions:
REMARK  status: ('A' for Active; 'I' for Inactive)
ROOT
ATOM      1  C2' OXE d   1      -0.283  -1.256  -0.583  0.00  0.00     0.078 C 
ATOM      2  C1' OXE d   1      -1.574   0.264   1.392  0.00  0.00     0.078 C 
ATOM      3  C1  OXE d   1      -0.138   0.599   1.074  0.00  0.00    -0.078 A 
ATOM      4  C2  OXE d   1       0.500  -0.181   0.139  0.00  0.00    -0.078 A 
ATOM      5  C3  OXE d   1       1.808   0.120  -0.232  0.00  0.00     0.003 A 
ATOM      6  C4  OXE d   1       2.528   1.110   0.448  0.00  0.00    -0.002 A 
ATOM      7  C5  OXE d   1       1.909   1.889   1.431  0.00  0.00    -0.002 A 
ATOM      8  C6  OXE d   1       0.566   1.675   1.725  0.00  0.00     0.003 A 
ENDROOT
TORSDOF 0
ENDMDL
