MODEL 1
REMARK minimizedAffinity -2.32114458
REMARK minimizedRMSD -1
REMARK  0 active torsions:
REMARK  status: ('A' for Active; 'I' for Inactive)
ROOT
ATOM      1  C2' OXE d   1       0.893   0.512  -0.045  0.00  0.00     0.078 C 
ATOM      2  C1' OXE d   1      -0.985  -0.901   1.489  0.00  0.00     0.078 C 
ATOM      3  C1  OXE d   1      -1.049  -1.047  -0.011  0.00  0.00    -0.078 A 
ATOM      4  C2  OXE d   1      -0.156  -0.315  -0.756  0.00  0.00    -0.078 A 
ATOM      5  C3  OXE d   1      -0.136  -0.456  -2.141  0.00  0.00     0.003 A 
ATOM      6  C4  OXE d   1      -1.116  -1.215  -2.791  0.00  0.00    -0.002 A 
ATOM      7  C5  OXE d   1      -2.060  -1.937  -2.052  0.00  0.00    -0.002 A 
ATOM      8  C6  OXE d   1      -2.014  -1.898  -0.663  0.00  0.00     0.003 A 
ENDROOT
TORSDOF 0
ENDMDL
