MODEL 1
REMARK minimizedAffinity -3.48633146
REMARK minimizedRMSD -1
REMARK  0 active torsions:
REMARK  status: ('A' for Active; 'I' for Inactive)
ROOT
ATOM      1  C2' OXE d   1      -2.485  -2.371  -2.060  0.00  0.00     0.078 C 
ATOM      2  C1' OXE d   1      -2.121   0.109  -3.325  0.00  0.00     0.078 C 
ATOM      3  C1  OXE d   1      -1.250  -0.208  -2.135  0.00  0.00    -0.078 A 
ATOM      4  C2  OXE d   1      -1.467  -1.404  -1.494  0.00  0.00    -0.078 A 
ATOM      5  C3  OXE d   1      -0.654  -1.770  -0.424  0.00  0.00     0.003 A 
ATOM      6  C4  OXE d   1       0.278  -0.866   0.099  0.00  0.00    -0.002 A 
ATOM      7  C5  OXE d   1       0.487   0.373  -0.515  0.00  0.00    -0.002 A 
ATOM      8  C6  OXE d   1      -0.237   0.699  -1.656  0.00  0.00     0.003 A 
ENDROOT
TORSDOF 0
ENDMDL
