MODEL 1
REMARK minimizedAffinity -2.57764411
REMARK minimizedRMSD -1
REMARK  0 active torsions:
REMARK  status: ('A' for Active; 'I' for Inactive)
ROOT
ATOM      1  C2' OXE d   1       2.107  -0.245  -0.616  0.00  0.00     0.078 C 
ATOM      2  C1' OXE d   1      -0.509  -1.242  -0.826  0.00  0.00     0.078 C 
ATOM      3  C1  OXE d   1      -0.243  -0.178   0.209  0.00  0.00    -0.078 A 
ATOM      4  C2  OXE d   1       1.050   0.270   0.337  0.00  0.00    -0.078 A 
ATOM      5  C3  OXE d   1       1.340   1.290   1.239  0.00  0.00     0.003 A 
ATOM      6  C4  OXE d   1       0.359   1.755   2.123  0.00  0.00    -0.002 A 
ATOM      7  C5  OXE d   1      -0.955   1.283   2.037  0.00  0.00    -0.002 A 
ATOM      8  C6  OXE d   1      -1.281   0.350   1.059  0.00  0.00     0.003 A 
ENDROOT
TORSDOF 0
ENDMDL
