MODEL 1
REMARK minimizedAffinity -1.85347176
REMARK minimizedRMSD -1
REMARK  0 active torsions:
REMARK  status: ('A' for Active; 'I' for Inactive)
ROOT
ATOM      1  C2' OXE d   1       1.422   1.895   2.016  0.00  0.00     0.078 C 
ATOM      2  C1' OXE d   1       2.903   0.506   0.078  0.00  0.00     0.078 C 
ATOM      3  C1  OXE d   1       1.433   0.191   0.199  0.00  0.00    -0.078 A 
ATOM      4  C2  OXE d   1       0.726   0.841   1.181  0.00  0.00    -0.078 A 
ATOM      5  C3  OXE d   1      -0.644   0.628   1.301  0.00  0.00     0.003 A 
ATOM      6  C4  OXE d   1      -1.278  -0.356   0.532  0.00  0.00    -0.002 A 
ATOM      7  C5  OXE d   1      -0.568  -1.058  -0.447  0.00  0.00    -0.002 A 
ATOM      8  C6  OXE d   1       0.776  -0.767  -0.655  0.00  0.00     0.003 A 
ENDROOT
TORSDOF 0
ENDMDL
