MODEL 1
REMARK minimizedAffinity -3.75546861
REMARK minimizedRMSD -1
REMARK  0 active torsions:
REMARK  status: ('A' for Active; 'I' for Inactive)
ROOT
ATOM      1  C2' OXE d   1       1.104  -1.337  -0.508  0.00  0.00     0.078 C 
ATOM      2  C1' OXE d   1       2.722   0.657   0.625  0.00  0.00     0.078 C 
ATOM      3  C1  OXE d   1       1.243   0.699   0.921  0.00  0.00    -0.078 A 
ATOM      4  C2  OXE d   1       0.453  -0.253   0.324  0.00  0.00    -0.078 A 
ATOM      5  C3  OXE d   1      -0.910  -0.293   0.606  0.00  0.00     0.003 A 
ATOM      6  C4  OXE d   1      -1.506   0.719   1.368  0.00  0.00    -0.002 A 
ATOM      7  C5  OXE d   1      -0.724   1.721   1.953  0.00  0.00    -0.002 A 
ATOM      8  C6  OXE d   1       0.655   1.701   1.774  0.00  0.00     0.003 A 
ENDROOT
TORSDOF 0
ENDMDL
