MODEL 1
REMARK minimizedAffinity 1.20706904
REMARK minimizedRMSD -1
REMARK  0 active torsions:
REMARK  status: ('A' for Active; 'I' for Inactive)
ROOT
ATOM      1  C2' OXE d   1      -0.765  -0.721   0.933  0.00  0.00     0.078 C 
ATOM      2  C1' OXE d   1       1.046  -0.319  -1.174  0.00  0.00     0.078 C 
ATOM      3  C1  OXE d   1      -0.310  -0.889  -1.510  0.00  0.00    -0.078 A 
ATOM      4  C2  OXE d   1      -1.172  -1.126  -0.468  0.00  0.00    -0.078 A 
ATOM      5  C3  OXE d   1      -2.455  -1.599  -0.728  0.00  0.00     0.003 A 
ATOM      6  C4  OXE d   1      -2.820  -1.980  -2.025  0.00  0.00    -0.002 A 
ATOM      7  C5  OXE d   1      -1.942  -1.784  -3.096  0.00  0.00    -0.002 A 
ATOM      8  C6  OXE d   1      -0.702  -1.201  -2.863  0.00  0.00     0.003 A 
ENDROOT
TORSDOF 0
ENDMDL
