MODEL 1
REMARK minimizedAffinity -1.13312542
REMARK minimizedRMSD -1
REMARK  0 active torsions:
REMARK  status: ('A' for Active; 'I' for Inactive)
ROOT
ATOM      1  C2' OXE d   1       0.661  -2.152  -0.484  0.00  0.00     0.078 C 
ATOM      2  C1' OXE d   1      -1.763  -1.339  -1.643  0.00  0.00     0.078 C 
ATOM      3  C1  OXE d   1      -1.176  -0.470  -0.559  0.00  0.00    -0.078 A 
ATOM      4  C2  OXE d   1      -0.013  -0.900   0.035  0.00  0.00    -0.078 A 
ATOM      5  C3  OXE d   1       0.600  -0.109   1.002  0.00  0.00     0.003 A 
ATOM      6  C4  OXE d   1      -0.036   1.042   1.484  0.00  0.00    -0.002 A 
ATOM      7  C5  OXE d   1      -1.240   1.476   0.920  0.00  0.00    -0.002 A 
ATOM      8  C6  OXE d   1      -1.800   0.756  -0.129  0.00  0.00     0.003 A 
ENDROOT
TORSDOF 0
ENDMDL
