MODEL 1
REMARK minimizedAffinity -2.16622186
REMARK minimizedRMSD -1
REMARK  0 active torsions:
REMARK  status: ('A' for Active; 'I' for Inactive)
ROOT
ATOM      1  C2' OXE d   1       1.281  -0.207  -1.077  0.00  0.00     0.078 C 
ATOM      2  C1' OXE d   1      -0.875  -0.745   0.639  0.00  0.00     0.078 C 
ATOM      3  C1  OXE d   1      -1.086  -0.949  -0.840  0.00  0.00    -0.078 A 
ATOM      4  C2  OXE d   1      -0.040  -0.639  -1.677  0.00  0.00    -0.078 A 
ATOM      5  C3  OXE d   1      -0.163  -0.860  -3.045  0.00  0.00     0.003 A 
ATOM      6  C4  OXE d   1      -1.392  -1.250  -3.593  0.00  0.00    -0.002 A 
ATOM      7  C5  OXE d   1      -2.481  -1.533  -2.762  0.00  0.00    -0.002 A 
ATOM      8  C6  OXE d   1      -2.332  -1.429  -1.384  0.00  0.00     0.003 A 
ENDROOT
TORSDOF 0
ENDMDL
