MODEL 1
REMARK minimizedAffinity -2.40953302
REMARK minimizedRMSD -1
REMARK  0 active torsions:
REMARK  status: ('A' for Active; 'I' for Inactive)
ROOT
ATOM      1  C2' OXE d   1       1.978  -1.305  -0.463  0.00  0.00     0.078 C 
ATOM      2  C1' OXE d   1      -0.821  -1.270  -0.668  0.00  0.00     0.078 C 
ATOM      3  C1  OXE d   1      -0.169  -0.247   0.227  0.00  0.00    -0.078 A 
ATOM      4  C2  OXE d   1       1.198  -0.301   0.358  0.00  0.00    -0.078 A 
ATOM      5  C3  OXE d   1       1.856   0.655   1.128  0.00  0.00     0.003 A 
ATOM      6  C4  OXE d   1       1.126   1.574   1.891  0.00  0.00    -0.002 A 
ATOM      7  C5  OXE d   1      -0.269   1.620   1.804  0.00  0.00    -0.002 A 
ATOM      8  C6  OXE d   1      -0.928   0.747   0.945  0.00  0.00     0.003 A 
ENDROOT
TORSDOF 0
ENDMDL
