MODEL 1
REMARK minimizedAffinity -1.52000046
REMARK minimizedRMSD -1
REMARK  0 active torsions:
REMARK  status: ('A' for Active; 'I' for Inactive)
ROOT
ATOM      1  C2' OXE d   1      -0.213  -1.856  -0.826  0.00  0.00     0.078 C 
ATOM      2  C1' OXE d   1      -0.872  -0.992  -3.414  0.00  0.00     0.078 C 
ATOM      3  C1  OXE d   1      -1.981  -1.542  -2.552  0.00  0.00    -0.078 A 
ATOM      4  C2  OXE d   1      -1.641  -2.006  -1.304  0.00  0.00    -0.078 A 
ATOM      5  C3  OXE d   1      -2.634  -2.473  -0.448  0.00  0.00     0.003 A 
ATOM      6  C4  OXE d   1      -3.951  -2.617  -0.902  0.00  0.00    -0.002 A 
ATOM      7  C5  OXE d   1      -4.311  -2.187  -2.184  0.00  0.00    -0.002 A 
ATOM      8  C6  OXE d   1      -3.349  -1.610  -3.004  0.00  0.00     0.003 A 
ENDROOT
TORSDOF 0
ENDMDL
