MODEL 1
REMARK minimizedAffinity -1.82407284
REMARK minimizedRMSD -1
REMARK  0 active torsions:
REMARK  status: ('A' for Active; 'I' for Inactive)
ROOT
ATOM      1  C2' OXE d   1       2.809  -0.012  -0.580  0.00  0.00     0.078 C 
ATOM      2  C1' OXE d   1       3.111   1.797   1.545  0.00  0.00     0.078 C 
ATOM      3  C1  OXE d   1       1.729   1.260   1.269  0.00  0.00    -0.078 A 
ATOM      4  C2  OXE d   1       1.582   0.412   0.198  0.00  0.00    -0.078 A 
ATOM      5  C3  OXE d   1       0.339  -0.155  -0.067  0.00  0.00     0.003 A 
ATOM      6  C4  OXE d   1      -0.792   0.250   0.652  0.00  0.00    -0.002 A 
ATOM      7  C5  OXE d   1      -0.672   1.144   1.722  0.00  0.00    -0.002 A 
ATOM      8  C6  OXE d   1       0.586   1.624   2.069  0.00  0.00     0.003 A 
ENDROOT
TORSDOF 0
ENDMDL
