MODEL 1
REMARK minimizedAffinity -3.88178015
REMARK minimizedRMSD -1
REMARK  0 active torsions:
REMARK  status: ('A' for Active; 'I' for Inactive)
ROOT
ATOM      1  C2' OXE d   1       1.804  -0.734  -0.522  0.00  0.00     0.078 C 
ATOM      2  C1' OXE d   1      -0.846  -1.640  -0.333  0.00  0.00     0.078 C 
ATOM      3  C1  OXE d   1      -0.484  -0.368   0.391  0.00  0.00    -0.078 A 
ATOM      4  C2  OXE d   1       0.826   0.043   0.332  0.00  0.00    -0.078 A 
ATOM      5  C3  OXE d   1       1.202   1.239   0.937  0.00  0.00     0.003 A 
ATOM      6  C4  OXE d   1       0.293   1.946   1.734  0.00  0.00    -0.002 A 
ATOM      7  C5  OXE d   1      -1.036   1.524   1.840  0.00  0.00    -0.002 A 
ATOM      8  C6  OXE d   1      -1.451   0.395   1.142  0.00  0.00     0.003 A 
ENDROOT
TORSDOF 0
ENDMDL
