MODEL 1
REMARK minimizedAffinity 4.79238558
REMARK minimizedRMSD -1
REMARK  0 active torsions:
REMARK  status: ('A' for Active; 'I' for Inactive)
ROOT
ATOM      1  C4' PXY d   1      -2.084   4.388  -5.929  0.00  0.00     0.077 C 
ATOM      2  C1' PXY d   1       0.417   3.432  -0.806  0.00  0.00     0.077 C 
ATOM      3  C1  PXY d   1      -0.243   3.671  -2.149  0.00  0.00    -0.082 A 
ATOM      4  C2  PXY d   1       0.239   4.598  -2.960  0.00  0.00     0.003 A 
ATOM      5  C3  PXY d   1      -0.366   4.849  -4.165  0.00  0.00     0.003 A 
ATOM      6  C4  PXY d   1      -1.443   4.107  -4.567  0.00  0.00    -0.082 A 
ATOM      7  C5  PXY d   1      -1.935   3.151  -3.750  0.00  0.00     0.003 A 
ATOM      8  C6  PXY d   1      -1.332   2.940  -2.513  0.00  0.00     0.003 A 
ENDROOT
TORSDOF 0
ENDMDL
