MODEL 1
REMARK minimizedAffinity -1.96332812
REMARK minimizedRMSD -1
REMARK  0 active torsions:
REMARK  status: ('A' for Active; 'I' for Inactive)
ROOT
ATOM      1  C4' PXY d   1      -4.867  -5.776   2.634  0.00  0.00     0.077 C 
ATOM      2  C1' PXY d   1      -4.210  -4.485  -2.962  0.00  0.00     0.077 C 
ATOM      3  C1  PXY d   1      -4.370  -4.820  -1.492  0.00  0.00    -0.082 A 
ATOM      4  C2  PXY d   1      -5.277  -5.707  -1.118  0.00  0.00     0.003 A 
ATOM      5  C3  PXY d   1      -5.457  -5.998   0.209  0.00  0.00     0.003 A 
ATOM      6  C4  PXY d   1      -4.664  -5.414   1.160  0.00  0.00    -0.082 A 
ATOM      7  C5  PXY d   1      -3.728  -4.516   0.786  0.00  0.00     0.003 A 
ATOM      8  C6  PXY d   1      -3.589  -4.204  -0.563  0.00  0.00     0.003 A 
ENDROOT
TORSDOF 0
ENDMDL
