MODEL 1
REMARK minimizedAffinity 5.30706024
REMARK minimizedRMSD -1
REMARK  0 active torsions:
REMARK  status: ('A' for Active; 'I' for Inactive)
ROOT
ATOM      1  C4' PXY d   1       4.164   0.584  -2.092  0.00  0.00     0.077 C 
ATOM      2  C1' PXY d   1       0.154  -0.999   1.758  0.00  0.00     0.077 C 
ATOM      3  C1  PXY d   1       1.214  -0.583   0.758  0.00  0.00    -0.082 A 
ATOM      4  C2  PXY d   1       0.850  -0.052  -0.398  0.00  0.00     0.003 A 
ATOM      5  C3  PXY d   1       1.795   0.301  -1.327  0.00  0.00     0.003 A 
ATOM      6  C4  PXY d   1       3.128   0.158  -1.049  0.00  0.00    -0.082 A 
ATOM      7  C5  PXY d   1       3.508  -0.373   0.133  0.00  0.00     0.003 A 
ATOM      8  C6  PXY d   1       2.532  -0.763   1.046  0.00  0.00     0.003 A 
ENDROOT
TORSDOF 0
ENDMDL
