MODEL 1
REMARK minimizedAffinity 1.09871876
REMARK minimizedRMSD -1
REMARK  0 active torsions:
REMARK  status: ('A' for Active; 'I' for Inactive)
ROOT
ATOM      1  C4' PXY d   1      -1.476  -2.678   0.298  0.00  0.00     0.077 C 
ATOM      2  C1' PXY d   1       3.974  -0.782   0.637  0.00  0.00     0.077 C 
ATOM      3  C1  PXY d   1       2.549  -1.289   0.540  0.00  0.00    -0.082 A 
ATOM      4  C2  PXY d   1       1.543  -0.455   0.746  0.00  0.00     0.003 A 
ATOM      5  C3  PXY d   1       0.248  -0.904   0.695  0.00  0.00     0.003 A 
ATOM      6  C4  PXY d   1      -0.021  -2.208   0.376  0.00  0.00    -0.082 A 
ATOM      7  C5  PXY d   1       1.000  -3.063   0.153  0.00  0.00     0.003 A 
ATOM      8  C6  PXY d   1       2.308  -2.597   0.251  0.00  0.00     0.003 A 
ENDROOT
TORSDOF 0
ENDMDL
