MODEL 1
REMARK minimizedAffinity 8.6121006
REMARK minimizedRMSD -1
REMARK  0 active torsions:
REMARK  status: ('A' for Active; 'I' for Inactive)
ROOT
ATOM      1  C4' PXY d   1      -1.557  -2.358   5.236  0.00  0.00     0.077 C 
ATOM      2  C1' PXY d   1      -5.999  -6.000   4.590  0.00  0.00     0.077 C 
ATOM      3  C1  PXY d   1      -4.843  -5.035   4.762  0.00  0.00    -0.082 A 
ATOM      4  C2  PXY d   1      -3.700  -5.265   4.136  0.00  0.00     0.003 A 
ATOM      5  C3  PXY d   1      -2.634  -4.420   4.306  0.00  0.00     0.003 A 
ATOM      6  C4  PXY d   1      -2.754  -3.300   5.084  0.00  0.00    -0.082 A 
ATOM      7  C5  PXY d   1      -3.920  -3.053   5.718  0.00  0.00     0.003 A 
ATOM      8  C6  PXY d   1      -4.978  -3.945   5.565  0.00  0.00     0.003 A 
ENDROOT
TORSDOF 0
ENDMDL
