MODEL 1
REMARK minimizedAffinity 14.522933
REMARK minimizedRMSD -1
REMARK  0 active torsions:
REMARK  status: ('A' for Active; 'I' for Inactive)
ROOT
ATOM      1  C4' PXY d   1       1.407  -4.471  -2.628  0.00  0.00     0.077 C 
ATOM      2  C1' PXY d   1       0.553   0.575   0.059  0.00  0.00     0.077 C 
ATOM      3  C1  PXY d   1       0.768  -0.745  -0.654  0.00  0.00    -0.082 A 
ATOM      4  C2  PXY d   1       1.267  -1.775   0.011  0.00  0.00     0.003 A 
ATOM      5  C3  PXY d   1       1.498  -2.966  -0.627  0.00  0.00     0.003 A 
ATOM      6  C4  PXY d   1       1.165  -3.122  -1.946  0.00  0.00    -0.082 A 
ATOM      7  C5  PXY d   1       0.645  -2.080  -2.629  0.00  0.00     0.003 A 
ATOM      8  C6  PXY d   1       0.457  -0.866  -1.973  0.00  0.00     0.003 A 
ENDROOT
TORSDOF 0
ENDMDL
