MODEL 1
REMARK minimizedAffinity 4.15386915
REMARK minimizedRMSD -1
REMARK  0 active torsions:
REMARK  status: ('A' for Active; 'I' for Inactive)
ROOT
ATOM      1  C4' PXY d   1      -0.615  -1.145   1.745  0.00  0.00     0.077 C 
ATOM      2  C1' PXY d   1      -3.048  -5.115  -1.681  0.00  0.00     0.077 C 
ATOM      3  C1  PXY d   1      -2.420  -4.066  -0.785  0.00  0.00    -0.082 A 
ATOM      4  C2  PXY d   1      -1.121  -4.113  -0.534  0.00  0.00     0.003 A 
ATOM      5  C3  PXY d   1      -0.543  -3.191   0.300  0.00  0.00     0.003 A 
ATOM      6  C4  PXY d   1      -1.291  -2.178   0.839  0.00  0.00    -0.082 A 
ATOM      7  C5  PXY d   1      -2.614  -2.117   0.578  0.00  0.00     0.003 A 
ATOM      8  C6  PXY d   1      -3.190  -3.087  -0.237  0.00  0.00     0.003 A 
ENDROOT
TORSDOF 0
ENDMDL
