MODEL 1
REMARK minimizedAffinity 8.63745403
REMARK minimizedRMSD -1
REMARK  0 active torsions:
REMARK  status: ('A' for Active; 'I' for Inactive)
ROOT
ATOM      1  C4' PXY d   1      -3.368  -2.973  -0.330  0.00  0.00     0.077 C 
ATOM      2  C1' PXY d   1      -0.752  -6.000  -4.503  0.00  0.00     0.077 C 
ATOM      3  C1  PXY d   1      -1.448  -5.214  -3.409  0.00  0.00    -0.082 A 
ATOM      4  C2  PXY d   1      -1.117  -3.950  -3.200  0.00  0.00     0.003 A 
ATOM      5  C3  PXY d   1      -1.714  -3.235  -2.194  0.00  0.00     0.003 A 
ATOM      6  C4  PXY d   1      -2.698  -3.802  -1.429  0.00  0.00    -0.082 A 
ATOM      7  C5  PXY d   1      -3.049  -5.088  -1.644  0.00  0.00     0.003 A 
ATOM      8  C6  PXY d   1      -2.402  -5.810  -2.642  0.00  0.00     0.003 A 
ENDROOT
TORSDOF 0
ENDMDL
