MODEL 1
REMARK minimizedAffinity 11.3260241
REMARK minimizedRMSD -1
REMARK  0 active torsions:
REMARK  status: ('A' for Active; 'I' for Inactive)
ROOT
ATOM      1  C4' PXY d   1      -1.549  -3.352   2.900  0.00  0.00     0.077 C 
ATOM      2  C1' PXY d   1       2.086   0.175   0.115  0.00  0.00     0.077 C 
ATOM      3  C1  PXY d   1       1.132  -0.757   0.835  0.00  0.00    -0.082 A 
ATOM      4  C2  PXY d   1       0.435  -0.310   1.867  0.00  0.00     0.003 A 
ATOM      5  C3  PXY d   1      -0.409  -1.149   2.549  0.00  0.00     0.003 A 
ATOM      6  C4  PXY d   1      -0.581  -2.444   2.138  0.00  0.00    -0.082 A 
ATOM      7  C5  PXY d   1       0.119  -2.904   1.079  0.00  0.00     0.003 A 
ATOM      8  C6  PXY d   1       1.001  -2.048   0.426  0.00  0.00     0.003 A 
ENDROOT
TORSDOF 0
ENDMDL
