MODEL 1
REMARK minimizedAffinity 11.2242403
REMARK minimizedRMSD -1
REMARK  0 active torsions:
REMARK  status: ('A' for Active; 'I' for Inactive)
ROOT
ATOM      1  C4' PXY d   1      -5.679  -5.235   3.406  0.00  0.00     0.077 C 
ATOM      2  C1' PXY d   1      -0.542  -3.097   1.837  0.00  0.00     0.077 C 
ATOM      3  C1  PXY d   1      -1.895  -3.650   2.239  0.00  0.00    -0.082 A 
ATOM      4  C2  PXY d   1      -2.078  -4.101   3.470  0.00  0.00     0.003 A 
ATOM      5  C3  PXY d   1      -3.285  -4.635   3.841  0.00  0.00     0.003 A 
ATOM      6  C4  PXY d   1      -4.332  -4.658   2.959  0.00  0.00    -0.082 A 
ATOM      7  C5  PXY d   1      -4.157  -4.190   1.705  0.00  0.00     0.003 A 
ATOM      8  C6  PXY d   1      -2.911  -3.691   1.336  0.00  0.00     0.003 A 
ENDROOT
TORSDOF 0
ENDMDL
