MODEL 1
REMARK minimizedAffinity 5.91330385
REMARK minimizedRMSD -1
REMARK  0 active torsions:
REMARK  status: ('A' for Active; 'I' for Inactive)
ROOT
ATOM      1  C4' PXY d   1       0.304  -0.240   0.864  0.00  0.00     0.077 C 
ATOM      2  C1' PXY d   1       0.455   4.689  -2.152  0.00  0.00     0.077 C 
ATOM      3  C1  PXY d   1       0.404   3.400  -1.355  0.00  0.00    -0.082 A 
ATOM      4  C2  PXY d   1       1.519   2.723  -1.135  0.00  0.00     0.003 A 
ATOM      5  C3  PXY d   1       1.487   1.539  -0.444  0.00  0.00     0.003 A 
ATOM      6  C4  PXY d   1       0.309   1.071   0.073  0.00  0.00    -0.082 A 
ATOM      7  C5  PXY d   1      -0.832   1.762  -0.138  0.00  0.00     0.003 A 
ATOM      8  C6  PXY d   1      -0.784   2.940  -0.878  0.00  0.00     0.003 A 
ENDROOT
TORSDOF 0
ENDMDL
