MODEL 1
REMARK minimizedAffinity 10.9824991
REMARK minimizedRMSD -1
REMARK  0 active torsions:
REMARK  status: ('A' for Active; 'I' for Inactive)
ROOT
ATOM      1  C4' PXY d   1      -1.736  -3.509   4.824  0.00  0.00     0.077 C 
ATOM      2  C1' PXY d   1       0.717   0.174   1.104  0.00  0.00     0.077 C 
ATOM      3  C1  PXY d   1       0.082  -0.787   2.089  0.00  0.00    -0.082 A 
ATOM      4  C2  PXY d   1      -0.473  -1.905   1.648  0.00  0.00     0.003 A 
ATOM      5  C3  PXY d   1      -1.081  -2.769   2.522  0.00  0.00     0.003 A 
ATOM      6  C4  PXY d   1      -1.074  -2.514   3.867  0.00  0.00    -0.082 A 
ATOM      7  C5  PXY d   1      -0.501  -1.381   4.326  0.00  0.00     0.003 A 
ATOM      8  C6  PXY d   1       0.074  -0.496   3.419  0.00  0.00     0.003 A 
ENDROOT
TORSDOF 0
ENDMDL
