MODEL 1
REMARK minimizedAffinity 0.681277275
REMARK minimizedRMSD -1
REMARK  0 active torsions:
REMARK  status: ('A' for Active; 'I' for Inactive)
ROOT
ATOM      1  C4' PXY d   1      -4.052  -0.428  -0.885  0.00  0.00     0.077 C 
ATOM      2  C1' PXY d   1       1.321  -0.527   1.244  0.00  0.00     0.077 C 
ATOM      3  C1  PXY d   1      -0.092  -0.495   0.696  0.00  0.00    -0.082 A 
ATOM      4  C2  PXY d   1      -0.464  -1.387  -0.208  0.00  0.00     0.003 A 
ATOM      5  C3  PXY d   1      -1.728  -1.352  -0.737  0.00  0.00     0.003 A 
ATOM      6  C4  PXY d   1      -2.638  -0.428  -0.297  0.00  0.00    -0.082 A 
ATOM      7  C5  PXY d   1      -2.270   0.478   0.633  0.00  0.00     0.003 A 
ATOM      8  C6  PXY d   1      -0.969   0.452   1.127  0.00  0.00     0.003 A 
ENDROOT
TORSDOF 0
ENDMDL
