MODEL 1
REMARK minimizedAffinity 10.7695074
REMARK minimizedRMSD -1
REMARK  0 active torsions:
REMARK  status: ('A' for Active; 'I' for Inactive)
ROOT
ATOM      1  C4' PXY d   1       2.326   0.317  -0.412  0.00  0.00     0.077 C 
ATOM      2  C1' PXY d   1      -1.289  -1.238   3.823  0.00  0.00     0.077 C 
ATOM      3  C1  PXY d   1      -0.335  -0.822   2.721  0.00  0.00    -0.082 A 
ATOM      4  C2  PXY d   1      -0.710  -0.927   1.456  0.00  0.00     0.003 A 
ATOM      5  C3  PXY d   1       0.152  -0.585   0.446  0.00  0.00     0.003 A 
ATOM      6  C4  PXY d   1       1.392  -0.082   0.734  0.00  0.00    -0.082 A 
ATOM      7  C5  PXY d   1       1.779   0.038   2.022  0.00  0.00     0.003 A 
ATOM      8  C6  PXY d   1       0.904  -0.353   3.032  0.00  0.00     0.003 A 
ENDROOT
TORSDOF 0
ENDMDL
