MODEL 1
REMARK minimizedAffinity 7.15326023
REMARK minimizedRMSD -1
REMARK  0 active torsions:
REMARK  status: ('A' for Active; 'I' for Inactive)
ROOT
ATOM      1  C4' PXY d   1      -2.764  -2.222   0.863  0.00  0.00     0.077 C 
ATOM      2  C1' PXY d   1       2.555  -0.477   2.302  0.00  0.00     0.077 C 
ATOM      3  C1  PXY d   1       1.165  -0.944   1.917  0.00  0.00    -0.082 A 
ATOM      4  C2  PXY d   1       0.146  -0.105   2.006  0.00  0.00     0.003 A 
ATOM      5  C3  PXY d   1      -1.123  -0.520   1.692  0.00  0.00     0.003 A 
ATOM      6  C4  PXY d   1      -1.342  -1.791   1.232  0.00  0.00    -0.082 A 
ATOM      7  C5  PXY d   1      -0.306  -2.649   1.128  0.00  0.00     0.003 A 
ATOM      8  C6  PXY d   1       0.968  -2.221   1.491  0.00  0.00     0.003 A 
ENDROOT
TORSDOF 0
ENDMDL
