MODEL 1
REMARK minimizedAffinity -4.64574194
REMARK minimizedRMSD -1
REMARK  0 active torsions:
REMARK  status: ('A' for Active; 'I' for Inactive)
ROOT
ATOM      1  C4' PXY d   1       0.738  -2.706   0.848  0.00  0.00     0.077 C 
ATOM      2  C1' PXY d   1      -2.450   1.841  -0.757  0.00  0.00     0.077 C 
ATOM      3  C1  PXY d   1      -1.623   0.640  -0.341  0.00  0.00    -0.082 A 
ATOM      4  C2  PXY d   1      -0.756   0.756   0.651  0.00  0.00     0.003 A 
ATOM      5  C3  PXY d   1       0.024  -0.311   1.019  0.00  0.00     0.003 A 
ATOM      6  C4  PXY d   1      -0.125  -1.523   0.400  0.00  0.00    -0.082 A 
ATOM      7  C5  PXY d   1      -1.016  -1.652  -0.606  0.00  0.00     0.003 A 
ATOM      8  C6  PXY d   1      -1.768  -0.546  -0.992  0.00  0.00     0.003 A 
ENDROOT
TORSDOF 0
ENDMDL
