MODEL 1
REMARK minimizedAffinity 2.52001166
REMARK minimizedRMSD -1
REMARK  0 active torsions:
REMARK  status: ('A' for Active; 'I' for Inactive)
ROOT
ATOM      1  C4' PXY d   1      -0.776  -4.375   0.147  0.00  0.00     0.077 C 
ATOM      2  C1' PXY d   1      -4.988  -5.992  -3.466  0.00  0.00     0.077 C 
ATOM      3  C1  PXY d   1      -3.890  -5.557  -2.516  0.00  0.00    -0.082 A 
ATOM      4  C2  PXY d   1      -2.656  -6.000  -2.695  0.00  0.00     0.003 A 
ATOM      5  C3  PXY d   1      -1.658  -5.642  -1.826  0.00  0.00     0.003 A 
ATOM      6  C4  PXY d   1      -1.914  -4.780  -0.794  0.00  0.00    -0.082 A 
ATOM      7  C5  PXY d   1      -3.168  -4.316  -0.611  0.00  0.00     0.003 A 
ATOM      8  C6  PXY d   1      -4.176  -4.723  -1.479  0.00  0.00     0.003 A 
ENDROOT
TORSDOF 0
ENDMDL
