MODEL 1
REMARK minimizedAffinity 13.8488445
REMARK minimizedRMSD -1
REMARK  0 active torsions:
REMARK  status: ('A' for Active; 'I' for Inactive)
ROOT
ATOM      1  C4' PXY d   1       4.670   0.010   1.975  0.00  0.00     0.077 C 
ATOM      2  C1' PXY d   1      -1.050  -0.792   1.738  0.00  0.00     0.077 C 
ATOM      3  C1  PXY d   1       0.449  -0.577   1.812  0.00  0.00    -0.082 A 
ATOM      4  C2  PXY d   1       1.152  -0.479   0.695  0.00  0.00     0.003 A 
ATOM      5  C3  PXY d   1       2.512  -0.316   0.743  0.00  0.00     0.003 A 
ATOM      6  C4  PXY d   1       3.153  -0.199   1.948  0.00  0.00    -0.082 A 
ATOM      7  C5  PXY d   1       2.442  -0.287   3.091  0.00  0.00     0.003 A 
ATOM      8  C6  PXY d   1       1.067  -0.493   3.021  0.00  0.00     0.003 A 
ENDROOT
TORSDOF 0
ENDMDL
