MODEL 1
REMARK minimizedAffinity 1.77055657
REMARK minimizedRMSD -1
REMARK  0 active torsions:
REMARK  status: ('A' for Active; 'I' for Inactive)
ROOT
ATOM      1  C4' PXY d   1       1.417   4.551  -1.952  0.00  0.00     0.077 C 
ATOM      2  C1' PXY d   1       0.879  -0.514   0.781  0.00  0.00     0.077 C 
ATOM      3  C1  PXY d   1       1.033   0.813   0.066  0.00  0.00    -0.082 A 
ATOM      4  C2  PXY d   1       0.023   1.667   0.047  0.00  0.00     0.003 A 
ATOM      5  C3  PXY d   1       0.134   2.859  -0.623  0.00  0.00     0.003 A 
ATOM      6  C4  PXY d   1       1.310   3.203  -1.234  0.00  0.00    -0.082 A 
ATOM      7  C5  PXY d   1       2.349   2.342  -1.210  0.00  0.00     0.003 A 
ATOM      8  C6  PXY d   1       2.202   1.120  -0.560  0.00  0.00     0.003 A 
ENDROOT
TORSDOF 0
ENDMDL
