MODEL 1
REMARK minimizedAffinity 8.93785381
REMARK minimizedRMSD -1
REMARK  0 active torsions:
REMARK  status: ('A' for Active; 'I' for Inactive)
ROOT
ATOM      1  C4' PXY d   1       1.912   0.234  -0.899  0.00  0.00     0.077 C 
ATOM      2  C1' PXY d   1      -1.040  -1.634   3.706  0.00  0.00     0.077 C 
ATOM      3  C1  PXY d   1      -0.259  -1.136   2.506  0.00  0.00    -0.082 A 
ATOM      4  C2  PXY d   1      -0.762  -1.285   1.291  0.00  0.00     0.003 A 
ATOM      5  C3  PXY d   1      -0.055  -0.869   0.193  0.00  0.00     0.003 A 
ATOM      6  C4  PXY d   1       1.155  -0.246   0.342  0.00  0.00    -0.082 A 
ATOM      7  C5  PXY d   1       1.670  -0.080   1.579  0.00  0.00     0.003 A 
ATOM      8  C6  PXY d   1       0.955  -0.547   2.679  0.00  0.00     0.003 A 
ENDROOT
TORSDOF 0
ENDMDL
