MODEL 1
REMARK minimizedAffinity 5.0825305
REMARK minimizedRMSD -1
REMARK  1 active torsions:
REMARK  status: ('A' for Active; 'I' for Inactive)
REMARK    1  A    between atoms: C1_2  and  C2_3 
ROOT
ATOM      1  C2  UNL d   1       0.970   3.379  -0.068  0.00  0.00    -0.081 A 
ATOM      2  C3  UNL d   1       0.120   2.398  -0.594  0.00  0.00     0.006 A 
ATOM      3  C4  UNL d   1       0.557   1.077  -0.722  0.00  0.00     0.002 A 
ATOM      4  C5  UNL d   1       1.847   0.714  -0.319  0.00  0.00    -0.080 A 
ATOM      5  C6  UNL d   1       2.318  -0.706  -0.422  0.00  0.00     0.076 C 
ATOM      6  C7  UNL d   1       2.702   1.698   0.190  0.00  0.00     0.002 A 
ATOM      7  C8  UNL d   1       2.266   3.018   0.318  0.00  0.00     0.006 A 
ENDROOT
BRANCH   1   8
ATOM      8  C1  UNL d   1       0.480   4.790   0.131  0.00  0.00     0.054 C 
ATOM      9  C   UNL d   1      -0.944   4.811   0.670  0.00  0.00     0.018 C 
ENDBRANCH   1   8
TORSDOF 1
ENDMDL
