MODEL 1
REMARK minimizedAffinity 4.35112572
REMARK minimizedRMSD -1
REMARK  1 active torsions:
REMARK  status: ('A' for Active; 'I' for Inactive)
REMARK    1  A    between atoms: C1_2  and  C2_3 
ROOT
ATOM      1  C2  UNL d   1       2.238   1.841   1.924  0.00  0.00    -0.081 A 
ATOM      2  C3  UNL d   1       2.481   1.560   0.574  0.00  0.00     0.006 A 
ATOM      3  C4  UNL d   1       3.691   1.926  -0.019  0.00  0.00     0.002 A 
ATOM      4  C5  UNL d   1       4.681   2.572   0.729  0.00  0.00    -0.080 A 
ATOM      5  C6  UNL d   1       5.997   2.943   0.113  0.00  0.00     0.076 C 
ATOM      6  C7  UNL d   1       4.432   2.868   2.073  0.00  0.00     0.002 A 
ATOM      7  C8  UNL d   1       3.222   2.503   2.667  0.00  0.00     0.006 A 
ENDROOT
BRANCH   1   8
ATOM      8  C1  UNL d   1       0.959   1.389   2.583  0.00  0.00     0.054 C 
ATOM      9  C   UNL d   1       0.708   2.146   3.879  0.00  0.00     0.018 C 
ENDBRANCH   1   8
TORSDOF 1
ENDMDL
