MODEL 1
REMARK minimizedAffinity 4.48932362
REMARK minimizedRMSD -1
REMARK  1 active torsions:
REMARK  status: ('A' for Active; 'I' for Inactive)
REMARK    1  A    between atoms: C1_2  and  C2_3 
ROOT
ATOM      1  C2  UNL d   1      -4.155   0.720  -2.162  0.00  0.00    -0.081 A 
ATOM      2  C3  UNL d   1      -2.777   0.919  -2.308  0.00  0.00     0.006 A 
ATOM      3  C4  UNL d   1      -2.292   1.982  -3.075  0.00  0.00     0.002 A 
ATOM      4  C5  UNL d   1      -3.177   2.866  -3.702  0.00  0.00    -0.080 A 
ATOM      5  C6  UNL d   1      -2.670   4.028  -4.503  0.00  0.00     0.076 C 
ATOM      6  C7  UNL d   1      -4.554   2.656  -3.570  0.00  0.00     0.002 A 
ATOM      7  C8  UNL d   1      -5.039   1.594  -2.804  0.00  0.00     0.006 A 
ENDROOT
BRANCH   1   8
ATOM      8  C1  UNL d   1      -4.680  -0.386  -1.283  0.00  0.00     0.054 C 
ATOM      9  C   UNL d   1      -5.180   0.155   0.048  0.00  0.00     0.018 C 
ENDBRANCH   1   8
TORSDOF 1
ENDMDL
