MODEL 1
REMARK minimizedAffinity 2.82656884
REMARK minimizedRMSD -1
REMARK  1 active torsions:
REMARK  status: ('A' for Active; 'I' for Inactive)
REMARK    1  A    between atoms: C1_2  and  C2_3 
ROOT
ATOM      1  C2  UNL d   1      -4.748   2.578  -2.915  0.00  0.00    -0.081 A 
ATOM      2  C3  UNL d   1      -3.357   2.707  -2.831  0.00  0.00     0.006 A 
ATOM      3  C4  UNL d   1      -2.521   1.844  -3.543  0.00  0.00     0.002 A 
ATOM      4  C5  UNL d   1      -3.062   0.844  -4.357  0.00  0.00    -0.080 A 
ATOM      5  C6  UNL d   1      -2.176  -0.070  -5.151  0.00  0.00     0.076 C 
ATOM      6  C7  UNL d   1      -4.452   0.703  -4.428  0.00  0.00     0.002 A 
ATOM      7  C8  UNL d   1      -5.288   1.565  -3.715  0.00  0.00     0.006 A 
ENDROOT
BRANCH   1   8
ATOM      8  C1  UNL d   1      -5.653   3.548  -2.198  0.00  0.00     0.054 C 
ATOM      9  C   UNL d   1      -4.891   4.342  -1.147  0.00  0.00     0.018 C 
ENDBRANCH   1   8
TORSDOF 1
ENDMDL
