MODEL 1
REMARK minimizedAffinity 3.64518285
REMARK minimizedRMSD -1
REMARK  1 active torsions:
REMARK  status: ('A' for Active; 'I' for Inactive)
REMARK    1  A    between atoms: C1_2  and  C2_3 
ROOT
ATOM      1  C2  UNL d   1      -3.795   2.613  -3.097  0.00  0.00    -0.081 A 
ATOM      2  C3  UNL d   1      -5.192   2.571  -3.021  0.00  0.00     0.006 A 
ATOM      3  C4  UNL d   1      -5.909   1.589  -3.708  0.00  0.00     0.002 A 
ATOM      4  C5  UNL d   1      -5.241   0.628  -4.475  0.00  0.00    -0.080 A 
ATOM      5  C6  UNL d   1      -5.998  -0.450  -5.192  0.00  0.00     0.076 C 
ATOM      6  C7  UNL d   1      -3.846   0.680  -4.565  0.00  0.00     0.002 A 
ATOM      7  C8  UNL d   1      -3.129   1.663  -3.879  0.00  0.00     0.006 A 
ENDROOT
BRANCH   1   8
ATOM      8  C1  UNL d   1      -3.015   3.632  -2.306  0.00  0.00     0.054 C 
ATOM      9  C   UNL d   1      -1.545   3.632  -2.701  0.00  0.00     0.018 C 
ENDBRANCH   1   8
TORSDOF 1
ENDMDL
