MODEL 1
REMARK minimizedAffinity 4.23156214
REMARK minimizedRMSD -1
REMARK  1 active torsions:
REMARK  status: ('A' for Active; 'I' for Inactive)
REMARK    1  A    between atoms: C1_2  and  C2_3 
ROOT
ATOM      1  C2  UNL d   1       2.030   1.183   1.128  0.00  0.00    -0.081 A 
ATOM      2  C3  UNL d   1       2.339   0.406   0.005  0.00  0.00     0.006 A 
ATOM      3  C4  UNL d   1       3.619   0.444  -0.553  0.00  0.00     0.002 A 
ATOM      4  C5  UNL d   1       4.613   1.254   0.006  0.00  0.00    -0.080 A 
ATOM      5  C6  UNL d   1       5.999   1.282  -0.565  0.00  0.00     0.076 C 
ATOM      6  C7  UNL d   1       4.300   2.044   1.118  0.00  0.00     0.002 A 
ATOM      7  C8  UNL d   1       3.020   2.006   1.676  0.00  0.00     0.006 A 
ENDROOT
BRANCH   1   8
ATOM      8  C1  UNL d   1       0.670   1.095   1.771  0.00  0.00     0.054 C 
ATOM      9  C   UNL d   1       0.729   1.469   3.245  0.00  0.00     0.018 C 
ENDBRANCH   1   8
TORSDOF 1
ENDMDL
