MODEL 1
REMARK minimizedAffinity 5.08607674
REMARK minimizedRMSD -1
REMARK  1 active torsions:
REMARK  status: ('A' for Active; 'I' for Inactive)
REMARK    1  A    between atoms: C1_2  and  C2_3 
ROOT
ATOM      1  C2  UNL d   1       3.243   0.248  -0.508  0.00  0.00    -0.081 A 
ATOM      2  C3  UNL d   1       4.584  -0.020  -0.208  0.00  0.00     0.006 A 
ATOM      3  C4  UNL d   1       5.482   1.026   0.016  0.00  0.00     0.002 A 
ATOM      4  C5  UNL d   1       5.053   2.356  -0.048  0.00  0.00    -0.080 A 
ATOM      5  C6  UNL d   1       6.000   3.488   0.221  0.00  0.00     0.076 C 
ATOM      6  C7  UNL d   1       3.717   2.625  -0.365  0.00  0.00     0.002 A 
ATOM      7  C8  UNL d   1       2.819   1.579  -0.590  0.00  0.00     0.006 A 
ENDROOT
BRANCH   1   8
ATOM      8  C1  UNL d   1       2.257  -0.879  -0.687  0.00  0.00     0.054 C 
ATOM      9  C   UNL d   1       2.594  -2.057   0.216  0.00  0.00     0.018 C 
ENDBRANCH   1   8
TORSDOF 1
ENDMDL
