MODEL 1
REMARK minimizedAffinity 3.5178237
REMARK minimizedRMSD -1
REMARK  1 active torsions:
REMARK  status: ('A' for Active; 'I' for Inactive)
REMARK    1  A    between atoms: C1_2  and  C2_3 
ROOT
ATOM      1  C2  UNL d   1      -5.291   0.757  -4.095  0.00  0.00    -0.081 A 
ATOM      2  C3  UNL d   1      -3.908   0.838  -4.301  0.00  0.00     0.006 A 
ATOM      3  C4  UNL d   1      -3.246   2.063  -4.185  0.00  0.00     0.002 A 
ATOM      4  C5  UNL d   1      -3.953   3.224  -3.855  0.00  0.00    -0.080 A 
ATOM      5  C6  UNL d   1      -3.249   4.539  -3.698  0.00  0.00     0.076 C 
ATOM      6  C7  UNL d   1      -5.337   3.146  -3.667  0.00  0.00     0.002 A 
ATOM      7  C8  UNL d   1      -6.000   1.922  -3.783  0.00  0.00     0.006 A 
ENDROOT
BRANCH   1   8
ATOM      8  C1  UNL d   1      -5.998  -0.573  -4.156  0.00  0.00     0.054 C 
ATOM      9  C   UNL d   1      -5.999  -1.135  -5.570  0.00  0.00     0.018 C 
ENDBRANCH   1   8
TORSDOF 1
ENDMDL
