MODEL 1
REMARK minimizedAffinity 7.60749102
REMARK minimizedRMSD -1
REMARK  1 active torsions:
REMARK  status: ('A' for Active; 'I' for Inactive)
REMARK    1  A    between atoms: C1_2  and  C2_3 
ROOT
ATOM      1  C2  UNL d   1      -5.244   0.838  -1.387  0.00  0.00    -0.081 A 
ATOM      2  C3  UNL d   1      -4.726  -0.376  -1.852  0.00  0.00     0.006 A 
ATOM      3  C4  UNL d   1      -3.974  -0.421  -3.029  0.00  0.00     0.002 A 
ATOM      4  C5  UNL d   1      -3.722   0.748  -3.755  0.00  0.00    -0.080 A 
ATOM      5  C6  UNL d   1      -2.892   0.719  -5.004  0.00  0.00     0.076 C 
ATOM      6  C7  UNL d   1      -4.255   1.959  -3.299  0.00  0.00     0.002 A 
ATOM      7  C8  UNL d   1      -5.007   2.004  -2.123  0.00  0.00     0.006 A 
ENDROOT
BRANCH   1   8
ATOM      8  C1  UNL d   1      -6.000   0.900  -0.084  0.00  0.00     0.054 C 
ATOM      9  C   UNL d   1      -5.999   2.310   0.490  0.00  0.00     0.018 C 
ENDBRANCH   1   8
TORSDOF 1
ENDMDL
