MODEL 1
REMARK minimizedAffinity 1.59424138
REMARK minimizedRMSD -1
REMARK  1 active torsions:
REMARK  status: ('A' for Active; 'I' for Inactive)
REMARK    1  A    between atoms: C1_2  and  C2_3 
ROOT
ATOM      1  C2  UNL d   1      -4.939   0.836  -3.433  0.00  0.00    -0.081 A 
ATOM      2  C3  UNL d   1      -5.602   2.026  -3.111  0.00  0.00     0.006 A 
ATOM      3  C4  UNL d   1      -5.957   2.303  -1.788  0.00  0.00     0.002 A 
ATOM      4  C5  UNL d   1      -5.650   1.399  -0.766  0.00  0.00    -0.080 A 
ATOM      5  C6  UNL d   1      -5.999   1.698   0.661  0.00  0.00     0.076 C 
ATOM      6  C7  UNL d   1      -5.003   0.201  -1.091  0.00  0.00     0.002 A 
ATOM      7  C8  UNL d   1      -4.648  -0.076  -2.413  0.00  0.00     0.006 A 
ENDROOT
BRANCH   1   8
ATOM      8  C1  UNL d   1      -4.497   0.564  -4.848  0.00  0.00     0.054 C 
ATOM      9  C   UNL d   1      -3.005   0.269  -4.914  0.00  0.00     0.018 C 
ENDBRANCH   1   8
TORSDOF 1
ENDMDL
