MODEL 1
REMARK minimizedAffinity -3.3950603
REMARK minimizedRMSD -1
REMARK  0 active torsions:
REMARK  status: ('A' for Active; 'I' for Inactive)
ROOT
ATOM      1  C   UNL d   1       1.865  -1.318   1.818  0.00  0.00     0.124 A 
ATOM      2  C1  UNL d   1       1.992  -1.553   0.456  0.00  0.00     0.062 A 
ATOM      3  C2  UNL d   1       1.090  -0.985  -0.440  0.00  0.00     0.162 A 
ATOM      4  C3  UNL d   1       0.053  -0.176   0.024  0.00  0.00    -0.034 A 
ATOM      5  C4  UNL d   1      -0.069   0.055   1.395  0.00  0.00     0.162 A 
ATOM      6  C5  UNL d   1       0.835  -0.514   2.286  0.00  0.00     0.062 A 
ATOM      7  F   UNL d   1       0.710  -0.286   3.602  0.00  0.00    -0.097 F 
ATOM      8  F1  UNL d   1      -1.055   0.828   1.875  0.00  0.00    -0.096 F 
ATOM      9  I   UNL d   1      -1.298   0.674  -1.312  0.00  0.00    -0.060 I 
ATOM     10  F2  UNL d   1       1.237  -1.229  -1.751  0.00  0.00    -0.096 F 
ATOM     11  F3  UNL d   1       2.986  -2.329   0.001  0.00  0.00    -0.097 F 
ATOM     12  F4  UNL d   1       2.734  -1.865   2.677  0.00  0.00    -0.092 F 
ENDROOT
TORSDOF 0
ENDMDL
