MODEL 1
REMARK minimizedAffinity 5.36310387
REMARK minimizedRMSD -1
REMARK  0 active torsions:
REMARK  status: ('A' for Active; 'I' for Inactive)
ROOT
ATOM      1  C   UNL d   1      -0.283  -1.370   2.153  0.00  0.00     0.124 A 
ATOM      2  C1  UNL d   1       0.853  -1.778   1.467  0.00  0.00     0.062 A 
ATOM      3  C2  UNL d   1       1.075  -1.345   0.162  0.00  0.00     0.162 A 
ATOM      4  C3  UNL d   1       0.160  -0.499  -0.464  0.00  0.00    -0.034 A 
ATOM      5  C4  UNL d   1      -0.981  -0.095   0.232  0.00  0.00     0.162 A 
ATOM      6  C5  UNL d   1      -1.198  -0.530   1.536  0.00  0.00     0.062 A 
ATOM      7  F   UNL d   1      -2.296  -0.135   2.198  0.00  0.00    -0.097 F 
ATOM      8  F1  UNL d   1      -1.881   0.718  -0.340  0.00  0.00    -0.096 F 
ATOM      9  I   UNL d   1       0.488   0.149  -2.414  0.00  0.00    -0.060 I 
ATOM     10  F2  UNL d   1       2.181  -1.755  -0.477  0.00  0.00    -0.096 F 
ATOM     11  F3  UNL d   1       1.738  -2.591   2.061  0.00  0.00    -0.097 F 
ATOM     12  F4  UNL d   1      -0.494  -1.789   3.408  0.00  0.00    -0.092 F 
ENDROOT
TORSDOF 0
ENDMDL
