MODEL 1
REMARK minimizedAffinity -5.29963732
REMARK minimizedRMSD -1
REMARK  0 active torsions:
REMARK  status: ('A' for Active; 'I' for Inactive)
ROOT
ATOM      1  C   UNL d   1       1.509  -1.650   2.337  0.00  0.00     0.124 A 
ATOM      2  C1  UNL d   1       0.250  -1.066   2.351  0.00  0.00     0.062 A 
ATOM      3  C2  UNL d   1      -0.231  -0.411   1.221  0.00  0.00     0.162 A 
ATOM      4  C3  UNL d   1       0.548  -0.337   0.066  0.00  0.00    -0.034 A 
ATOM      5  C4  UNL d   1       1.814  -0.926   0.060  0.00  0.00     0.162 A 
ATOM      6  C5  UNL d   1       2.289  -1.579   1.192  0.00  0.00     0.062 A 
ATOM      7  F   UNL d   1       3.506  -2.142   1.177  0.00  0.00    -0.097 F 
ATOM      8  F1  UNL d   1       2.589  -0.873  -1.033  0.00  0.00    -0.096 F 
ATOM      9  I   UNL d   1      -0.167   0.641  -1.626  0.00  0.00    -0.060 I 
ATOM     10  F2  UNL d   1      -1.452   0.144   1.263  0.00  0.00    -0.096 F 
ATOM     11  F3  UNL d   1      -0.506  -1.132   3.457  0.00  0.00    -0.097 F 
ATOM     12  F4  UNL d   1       1.969  -2.278   3.427  0.00  0.00    -0.092 F 
ENDROOT
TORSDOF 0
ENDMDL
