MODEL 1
REMARK minimizedAffinity -2.31925654
REMARK minimizedRMSD -1
REMARK  0 active torsions:
REMARK  status: ('A' for Active; 'I' for Inactive)
ROOT
ATOM      1  C   UNL d   1       1.798  -1.642   2.282  0.00  0.00     0.124 A 
ATOM      2  C1  UNL d   1       2.318  -1.683   0.996  0.00  0.00     0.062 A 
ATOM      3  C2  UNL d   1       1.601  -1.140  -0.066  0.00  0.00     0.162 A 
ATOM      4  C3  UNL d   1       0.357  -0.549   0.154  0.00  0.00    -0.034 A 
ATOM      5  C4  UNL d   1      -0.160  -0.512   1.450  0.00  0.00     0.162 A 
ATOM      6  C5  UNL d   1       0.560  -1.057   2.508  0.00  0.00     0.062 A 
ATOM      7  F   UNL d   1       0.057  -1.016   3.750  0.00  0.00    -0.097 F 
ATOM      8  F1  UNL d   1      -1.353   0.049   1.697  0.00  0.00    -0.096 F 
ATOM      9  I   UNL d   1      -0.718   0.266  -1.432  0.00  0.00    -0.060 I 
ATOM     10  F2  UNL d   1       2.128  -1.193  -1.299  0.00  0.00    -0.096 F 
ATOM     11  F3  UNL d   1       3.513  -2.249   0.775  0.00  0.00    -0.097 F 
ATOM     12  F4  UNL d   1       2.489  -2.167   3.302  0.00  0.00    -0.092 F 
ENDROOT
TORSDOF 0
ENDMDL
