MODEL 1
REMARK minimizedAffinity -2.57076526
REMARK minimizedRMSD -1
REMARK  0 active torsions:
REMARK  status: ('A' for Active; 'I' for Inactive)
ROOT
ATOM      1  C   UNL d   1       0.921  -0.566   2.100  0.00  0.00     0.124 A 
ATOM      2  C1  UNL d   1      -0.460  -0.424   2.094  0.00  0.00     0.062 A 
ATOM      3  C2  UNL d   1      -1.113   0.015   0.946  0.00  0.00     0.162 A 
ATOM      4  C3  UNL d   1      -0.386   0.315  -0.206  0.00  0.00    -0.034 A 
ATOM      5  C4  UNL d   1       1.002   0.171  -0.192  0.00  0.00     0.162 A 
ATOM      6  C5  UNL d   1       1.650  -0.268   0.958  0.00  0.00     0.062 A 
ATOM      7  F   UNL d   1       2.984  -0.405   0.962  0.00  0.00    -0.097 F 
ATOM      8  F1  UNL d   1       1.731   0.451  -1.282  0.00  0.00    -0.096 F 
ATOM      9  I   UNL d   1      -1.359   0.972  -1.925  0.00  0.00    -0.060 I 
ATOM     10  F2  UNL d   1      -2.448   0.143   0.968  0.00  0.00    -0.096 F 
ATOM     11  F3  UNL d   1      -1.167  -0.710   3.196  0.00  0.00    -0.097 F 
ATOM     12  F4  UNL d   1       1.547  -0.988   3.206  0.00  0.00    -0.092 F 
ENDROOT
TORSDOF 0
ENDMDL
