MODEL 1
REMARK minimizedAffinity -1.20448279
REMARK minimizedRMSD -1
REMARK  1 active torsions:
REMARK  status: ('A' for Active; 'I' for Inactive)
REMARK    1  A    between atoms: C3_4  and  O_7 
ROOT
ATOM      1  C   UNL d   1      -0.359  -0.295   0.498  0.00  0.00    -0.033 A 
ATOM      2  C1  UNL d   1       0.091   1.001   0.242  0.00  0.00     0.039 A 
ATOM      3  C2  UNL d   1       0.683   1.307  -0.985  0.00  0.00    -0.080 A 
ATOM      4  C3  UNL d   1       0.818   0.309  -1.946  0.00  0.00     0.150 A 
ATOM      5  C4  UNL d   1       0.368  -0.984  -1.699  0.00  0.00    -0.007 A 
ATOM      6  C5  UNL d   1      -0.222  -1.288  -0.473  0.00  0.00     0.039 A 
ENDROOT
BRANCH   4   7
ATOM      7  O   UNL d   1       1.394   0.558  -3.156  0.00  0.00    -0.526 OA
ATOM      8  H5  UNL d   1       1.682   1.486  -3.175  0.00  0.00     0.418 HD
ENDBRANCH   4   7
TORSDOF 1
ENDMDL
