MODEL 1
REMARK minimizedAffinity -2.83494163
REMARK minimizedRMSD -1
REMARK  1 active torsions:
REMARK  status: ('A' for Active; 'I' for Inactive)
REMARK    1  A    between atoms: C3_4  and  O_7 
ROOT
ATOM      1  C   UNL d   1       0.676   1.199  -0.554  0.00  0.00    -0.033 A 
ATOM      2  C1  UNL d   1      -0.127   0.517   0.363  0.00  0.00     0.039 A 
ATOM      3  C2  UNL d   1      -0.083  -0.877   0.429  0.00  0.00    -0.080 A 
ATOM      4  C3  UNL d   1       0.767  -1.576  -0.424  0.00  0.00     0.150 A 
ATOM      5  C4  UNL d   1       1.572  -0.902  -1.336  0.00  0.00    -0.007 A 
ATOM      6  C5  UNL d   1       1.527   0.490  -1.402  0.00  0.00     0.039 A 
ENDROOT
BRANCH   4   7
ATOM      7  O   UNL d   1       0.841  -2.937  -0.399  0.00  0.00    -0.526 OA
ATOM      8  H5  UNL d   1       0.208  -3.267   0.261  0.00  0.00     0.418 HD
ENDBRANCH   4   7
TORSDOF 1
ENDMDL
