MODEL 1
REMARK minimizedAffinity -4.33124876
REMARK minimizedRMSD -1
REMARK  1 active torsions:
REMARK  status: ('A' for Active; 'I' for Inactive)
REMARK    1  A    between atoms: C3_4  and  O_7 
ROOT
ATOM      1  C   UNL d   1       1.235  -2.832  -1.426  0.00  0.00    -0.033 A 
ATOM      2  C1  UNL d   1       0.447  -1.888  -0.766  0.00  0.00     0.039 A 
ATOM      3  C2  UNL d   1       0.426  -0.563  -1.206  0.00  0.00    -0.080 A 
ATOM      4  C3  UNL d   1       1.197  -0.196  -2.306  0.00  0.00     0.150 A 
ATOM      5  C4  UNL d   1       1.982  -1.132  -2.970  0.00  0.00    -0.007 A 
ATOM      6  C5  UNL d   1       2.002  -2.455  -2.529  0.00  0.00     0.039 A 
ENDROOT
BRANCH   4   7
ATOM      7  O   UNL d   1       1.213   1.086  -2.769  0.00  0.00    -0.526 OA
ATOM      8  H5  UNL d   1       0.646   1.628  -2.195  0.00  0.00     0.418 HD
ENDBRANCH   4   7
TORSDOF 1
ENDMDL
