MODEL 1
REMARK minimizedAffinity -4.50243425
REMARK minimizedRMSD -1
REMARK  1 active torsions:
REMARK  status: ('A' for Active; 'I' for Inactive)
REMARK    1  A    between atoms: C3_4  and  O_7 
ROOT
ATOM      1  C   UNL d   1       1.139  -2.853  -1.427  0.00  0.00    -0.033 A 
ATOM      2  C1  UNL d   1       2.226  -2.532  -2.242  0.00  0.00     0.039 A 
ATOM      3  C2  UNL d   1       2.369  -1.236  -2.741  0.00  0.00    -0.080 A 
ATOM      4  C3  UNL d   1       1.419  -0.271  -2.417  0.00  0.00     0.150 A 
ATOM      5  C4  UNL d   1       0.336  -0.582  -1.603  0.00  0.00    -0.007 A 
ATOM      6  C5  UNL d   1       0.194  -1.877  -1.106  0.00  0.00     0.039 A 
ENDROOT
BRANCH   4   7
ATOM      7  O   UNL d   1       1.514   1.006  -2.884  0.00  0.00    -0.526 OA
ATOM      8  H5  UNL d   1       2.296   1.067  -3.457  0.00  0.00     0.418 HD
ENDBRANCH   4   7
TORSDOF 1
ENDMDL
