MODEL 1
REMARK minimizedAffinity -4.5754838
REMARK minimizedRMSD -1
REMARK  1 active torsions:
REMARK  status: ('A' for Active; 'I' for Inactive)
REMARK    1  A    between atoms: C3_4  and  O_7 
ROOT
ATOM      1  C   UNL d   1      -0.056  -0.438   0.183  0.00  0.00    -0.033 A 
ATOM      2  C1  UNL d   1      -0.189  -1.333  -0.880  0.00  0.00     0.039 A 
ATOM      3  C2  UNL d   1       0.510  -1.117  -2.069  0.00  0.00    -0.080 A 
ATOM      4  C3  UNL d   1       1.339  -0.004  -2.181  0.00  0.00     0.150 A 
ATOM      5  C4  UNL d   1       1.480   0.889  -1.125  0.00  0.00    -0.007 A 
ATOM      6  C5  UNL d   1       0.780   0.673   0.061  0.00  0.00     0.039 A 
ENDROOT
BRANCH   4   7
ATOM      7  O   UNL d   1       2.038   0.251  -3.323  0.00  0.00    -0.526 OA
ATOM      8  H5  UNL d   1       1.821  -0.435  -3.977  0.00  0.00     0.418 HD
ENDBRANCH   4   7
TORSDOF 1
ENDMDL
