MODEL 1
REMARK minimizedAffinity -4.79768181
REMARK minimizedRMSD -1
REMARK  1 active torsions:
REMARK  status: ('A' for Active; 'I' for Inactive)
REMARK    1  A    between atoms: C3_4  and  O_7 
ROOT
ATOM      1  C   UNL d   1       1.683   0.061  -2.434  0.00  0.00    -0.033 A 
ATOM      2  C1  UNL d   1       1.912   1.054  -1.480  0.00  0.00     0.039 A 
ATOM      3  C2  UNL d   1       1.079   1.159  -0.365  0.00  0.00    -0.080 A 
ATOM      4  C3  UNL d   1       0.021   0.266  -0.215  0.00  0.00     0.150 A 
ATOM      5  C4  UNL d   1      -0.211  -0.728  -1.160  0.00  0.00    -0.007 A 
ATOM      6  C5  UNL d   1       0.622  -0.831  -2.273  0.00  0.00     0.039 A 
ENDROOT
BRANCH   4   7
ATOM      7  O   UNL d   1      -0.822   0.333   0.854  0.00  0.00    -0.526 OA
ATOM      8  H5  UNL d   1      -0.557   1.086   1.408  0.00  0.00     0.418 HD
ENDBRANCH   4   7
TORSDOF 1
ENDMDL
