MODEL 1
REMARK minimizedAffinity -2.44928288
REMARK minimizedRMSD -1
REMARK  1 active torsions:
REMARK  status: ('A' for Active; 'I' for Inactive)
REMARK    1  A    between atoms: C3_4  and  O_7 
ROOT
ATOM      1  C   UNL d   1       0.163   0.462   0.230  0.00  0.00    -0.033 A 
ATOM      2  C1  UNL d   1       0.254   1.651  -0.496  0.00  0.00     0.039 A 
ATOM      3  C2  UNL d   1       0.831   1.651  -1.768  0.00  0.00    -0.080 A 
ATOM      4  C3  UNL d   1       1.312   0.459  -2.301  0.00  0.00     0.150 A 
ATOM      5  C4  UNL d   1       1.221  -0.730  -1.584  0.00  0.00    -0.007 A 
ATOM      6  C5  UNL d   1       0.645  -0.729  -0.314  0.00  0.00     0.039 A 
ENDROOT
BRANCH   4   7
ATOM      7  O   UNL d   1       1.888   0.411  -3.535  0.00  0.00    -0.526 OA
ATOM      8  H5  UNL d   1       1.908   1.311  -3.901  0.00  0.00     0.418 HD
ENDBRANCH   4   7
TORSDOF 1
ENDMDL
