MODEL 1
REMARK minimizedAffinity -2.43536782
REMARK minimizedRMSD -1
REMARK  1 active torsions:
REMARK  status: ('A' for Active; 'I' for Inactive)
REMARK    1  A    between atoms: C3_4  and  O_7 
ROOT
ATOM      1  C   UNL d   1       0.306  -2.390  -1.180  0.00  0.00    -0.033 A 
ATOM      2  C1  UNL d   1       0.186  -2.599   0.195  0.00  0.00     0.039 A 
ATOM      3  C2  UNL d   1      -0.188  -1.547   1.033  0.00  0.00    -0.080 A 
ATOM      4  C3  UNL d   1      -0.440  -0.293   0.485  0.00  0.00     0.150 A 
ATOM      5  C4  UNL d   1      -0.326  -0.078  -0.885  0.00  0.00    -0.007 A 
ATOM      6  C5  UNL d   1       0.049  -1.130  -1.720  0.00  0.00     0.039 A 
ENDROOT
BRANCH   4   7
ATOM      7  O   UNL d   1      -0.803   0.766   1.263  0.00  0.00    -0.526 OA
ATOM      8  H5  UNL d   1      -0.813   0.476   2.191  0.00  0.00     0.418 HD
ENDBRANCH   4   7
TORSDOF 1
ENDMDL
