MODEL 1
REMARK minimizedAffinity -4.26945782
REMARK minimizedRMSD -1
REMARK  1 active torsions:
REMARK  status: ('A' for Active; 'I' for Inactive)
REMARK    1  A    between atoms: C3_4  and  O_7 
ROOT
ATOM      1  C   UNL d   1      -0.198   0.064   0.120  0.00  0.00    -0.033 A 
ATOM      2  C1  UNL d   1       0.202   1.347  -0.259  0.00  0.00     0.039 A 
ATOM      3  C2  UNL d   1       0.897   1.539  -1.454  0.00  0.00    -0.080 A 
ATOM      4  C3  UNL d   1       1.183   0.441  -2.262  0.00  0.00     0.150 A 
ATOM      5  C4  UNL d   1       0.784  -0.839  -1.893  0.00  0.00    -0.007 A 
ATOM      6  C5  UNL d   1       0.091  -1.029  -0.698  0.00  0.00     0.039 A 
ENDROOT
BRANCH   4   7
ATOM      7  O   UNL d   1       1.863   0.579  -3.436  0.00  0.00    -0.526 OA
ATOM      8  H5  UNL d   1       2.100   1.514  -3.547  0.00  0.00     0.418 HD
ENDBRANCH   4   7
TORSDOF 1
ENDMDL
