MODEL 1
REMARK minimizedAffinity -3.17241693
REMARK minimizedRMSD -1
REMARK  1 active torsions:
REMARK  status: ('A' for Active; 'I' for Inactive)
REMARK    1  A    between atoms: C3_4  and  O_7 
ROOT
ATOM      1  C   UNL d   1      -0.810  -0.236   0.541  0.00  0.00    -0.033 A 
ATOM      2  C1  UNL d   1      -0.278  -1.210  -0.307  0.00  0.00     0.039 A 
ATOM      3  C2  UNL d   1       0.818  -0.909  -1.118  0.00  0.00    -0.080 A 
ATOM      4  C3  UNL d   1       1.373   0.367  -1.071  0.00  0.00     0.150 A 
ATOM      5  C4  UNL d   1       0.851   1.341  -0.225  0.00  0.00    -0.007 A 
ATOM      6  C5  UNL d   1      -0.244   1.039   0.583  0.00  0.00     0.039 A 
ENDROOT
BRANCH   4   7
ATOM      7  O   UNL d   1       2.440   0.710  -1.847  0.00  0.00    -0.526 OA
ATOM      8  H5  UNL d   1       2.675  -0.054  -2.401  0.00  0.00     0.418 HD
ENDBRANCH   4   7
TORSDOF 1
ENDMDL
