MODEL 1
REMARK minimizedAffinity -3.63325667
REMARK minimizedRMSD -1
REMARK  1 active torsions:
REMARK  status: ('A' for Active; 'I' for Inactive)
REMARK    1  A    between atoms: C3_4  and  O_7 
ROOT
ATOM      1  C   UNL d   1       1.470  -2.393  -2.319  0.00  0.00    -0.033 A 
ATOM      2  C1  UNL d   1       2.127  -1.216  -2.683  0.00  0.00     0.039 A 
ATOM      3  C2  UNL d   1       1.781  -0.006  -2.078  0.00  0.00    -0.080 A 
ATOM      4  C3  UNL d   1       0.779   0.013  -1.113  0.00  0.00     0.150 A 
ATOM      5  C4  UNL d   1       0.123  -1.156  -0.743  0.00  0.00    -0.007 A 
ATOM      6  C5  UNL d   1       0.469  -2.363  -1.348  0.00  0.00     0.039 A 
ENDROOT
BRANCH   4   7
ATOM      7  O   UNL d   1       0.403   1.171  -0.498  0.00  0.00    -0.526 OA
ATOM      8  H5  UNL d   1       0.922   1.901  -0.875  0.00  0.00     0.418 HD
ENDBRANCH   4   7
TORSDOF 1
ENDMDL
