MODEL 1
REMARK minimizedAffinity -5.00623131
REMARK minimizedRMSD -1
REMARK  1 active torsions:
REMARK  status: ('A' for Active; 'I' for Inactive)
REMARK    1  A    between atoms: C3_4  and  O_7 
ROOT
ATOM      1  C   UNL d   1      -0.146  -0.045  -0.051  0.00  0.00    -0.033 A 
ATOM      2  C1  UNL d   1       0.430   1.180  -0.395  0.00  0.00     0.039 A 
ATOM      3  C2  UNL d   1       1.181   1.296  -1.566  0.00  0.00    -0.080 A 
ATOM      4  C3  UNL d   1       1.347   0.182  -2.385  0.00  0.00     0.150 A 
ATOM      5  C4  UNL d   1       0.773  -1.040  -2.051  0.00  0.00    -0.007 A 
ATOM      6  C5  UNL d   1       0.024  -1.154  -0.880  0.00  0.00     0.039 A 
ENDROOT
BRANCH   4   7
ATOM      7  O   UNL d   1       2.075   0.246  -3.535  0.00  0.00    -0.526 OA
ATOM      8  H5  UNL d   1       2.435   1.144  -3.623  0.00  0.00     0.418 HD
ENDBRANCH   4   7
TORSDOF 1
ENDMDL
