MODEL 1
REMARK minimizedAffinity -3.30527234
REMARK minimizedRMSD -1
REMARK  1 active torsions:
REMARK  status: ('A' for Active; 'I' for Inactive)
REMARK    1  A    between atoms: C3_4  and  O_7 
ROOT
ATOM      1  C   UNL d   1      -0.067   0.179   0.616  0.00  0.00    -0.033 A 
ATOM      2  C1  UNL d   1      -0.182  -0.955  -0.190  0.00  0.00     0.039 A 
ATOM      3  C2  UNL d   1       0.424  -0.984  -1.448  0.00  0.00    -0.080 A 
ATOM      4  C3  UNL d   1       1.141   0.125  -1.887  0.00  0.00     0.150 A 
ATOM      5  C4  UNL d   1       1.263   1.257  -1.087  0.00  0.00    -0.007 A 
ATOM      6  C5  UNL d   1       0.657   1.285   0.168  0.00  0.00     0.039 A 
ENDROOT
BRANCH   4   7
ATOM      7  O   UNL d   1       1.746   0.145  -3.109  0.00  0.00    -0.526 OA
ATOM      8  H5  UNL d   1       1.553  -0.692  -3.561  0.00  0.00     0.418 HD
ENDBRANCH   4   7
TORSDOF 1
ENDMDL
