MODEL 1
REMARK minimizedAffinity -5.06198835
REMARK minimizedRMSD -1
REMARK  1 active torsions:
REMARK  status: ('A' for Active; 'I' for Inactive)
REMARK    1  A    between atoms: C3_4  and  O_7 
ROOT
ATOM      1  C   UNL d   1       0.021   0.604   0.029  0.00  0.00    -0.033 A 
ATOM      2  C1  UNL d   1      -0.357  -0.056   1.201  0.00  0.00     0.039 A 
ATOM      3  C2  UNL d   1      -0.313  -1.450   1.264  0.00  0.00    -0.080 A 
ATOM      4  C3  UNL d   1       0.111  -2.171   0.152  0.00  0.00     0.150 A 
ATOM      5  C4  UNL d   1       0.492  -1.521  -1.017  0.00  0.00    -0.007 A 
ATOM      6  C5  UNL d   1       0.447  -0.129  -1.079  0.00  0.00     0.039 A 
ENDROOT
BRANCH   4   7
ATOM      7  O   UNL d   1       0.166  -3.534   0.165  0.00  0.00    -0.526 OA
ATOM      8  H5  UNL d   1      -0.154  -3.846   1.027  0.00  0.00     0.418 HD
ENDBRANCH   4   7
TORSDOF 1
ENDMDL
