MODEL 1
REMARK minimizedAffinity -2.92208362
REMARK minimizedRMSD -1
REMARK  1 active torsions:
REMARK  status: ('A' for Active; 'I' for Inactive)
REMARK    1  A    between atoms: C3_4  and  O_7 
ROOT
ATOM      1  C   UNL d   1      -2.636  -0.632   2.352  0.00  0.00    -0.033 A 
ATOM      2  C1  UNL d   1      -2.949   0.340   1.401  0.00  0.00     0.039 A 
ATOM      3  C2  UNL d   1      -2.035   0.651   0.391  0.00  0.00    -0.080 A 
ATOM      4  C3  UNL d   1      -0.815  -0.017   0.344  0.00  0.00     0.150 A 
ATOM      5  C4  UNL d   1      -0.499  -0.990   1.287  0.00  0.00    -0.007 A 
ATOM      6  C5  UNL d   1      -1.412  -1.299   2.294  0.00  0.00     0.039 A 
ENDROOT
BRANCH   4   7
ATOM      7  O   UNL d   1       0.110   0.255  -0.619  0.00  0.00    -0.526 OA
ATOM      8  H5  UNL d   1      -0.233   0.968  -1.183  0.00  0.00     0.418 HD
ENDBRANCH   4   7
TORSDOF 1
ENDMDL
