MODEL 1
REMARK minimizedAffinity -3.51000881
REMARK minimizedRMSD -1
REMARK  1 active torsions:
REMARK  status: ('A' for Active; 'I' for Inactive)
REMARK    1  A    between atoms: C3_4  and  O_7 
ROOT
ATOM      1  C   UNL d   1       0.128   0.057   0.403  0.00  0.00    -0.033 A 
ATOM      2  C1  UNL d   1      -0.009  -1.068  -0.413  0.00  0.00     0.039 A 
ATOM      3  C2  UNL d   1       0.544  -1.073  -1.695  0.00  0.00    -0.080 A 
ATOM      4  C3  UNL d   1       1.232   0.049  -2.147  0.00  0.00     0.150 A 
ATOM      5  C4  UNL d   1       1.375   1.172  -1.338  0.00  0.00    -0.007 A 
ATOM      6  C5  UNL d   1       0.821   1.176  -0.059  0.00  0.00     0.039 A 
ENDROOT
BRANCH   4   7
ATOM      7  O   UNL d   1       1.785   0.092  -3.393  0.00  0.00    -0.526 OA
ATOM      8  H5  UNL d   1       1.582  -0.741  -3.849  0.00  0.00     0.418 HD
ENDBRANCH   4   7
TORSDOF 1
ENDMDL
