MODEL 1
REMARK minimizedAffinity -1.03455961
REMARK minimizedRMSD -1
REMARK  0 active torsions:
REMARK  status: ('A' for Active; 'I' for Inactive)
ROOT
ATOM      1  O1  BZF d   1      -1.344  -3.030  -3.733  0.00  0.00    -0.204 OA
ATOM      2  C2  BZF d   1      -2.304  -2.243  -4.340  0.00  0.00     0.174 A 
ATOM      3  C3  BZF d   1      -1.731  -1.236  -5.031  0.00  0.00    -0.012 A 
ATOM      4  C3A BZF d   1      -0.322  -1.459  -4.921  0.00  0.00    -0.107 A 
ATOM      5  C4  BZF d   1       0.773  -0.804  -5.409  0.00  0.00     0.055 A 
ATOM      6  C5  BZF d   1       2.012  -1.237  -5.057  0.00  0.00    -0.016 A 
ATOM      7  C6  BZF d   1       2.193  -2.316  -4.217  0.00  0.00     0.022 A 
ATOM      8  C7  BZF d   1       1.138  -3.000  -3.712  0.00  0.00     0.029 A 
ATOM      9  C7A BZF d   1      -0.115  -2.586  -4.092  0.00  0.00     0.058 A 
ENDROOT
TORSDOF 0
ENDMDL
