MODEL 1
REMARK minimizedAffinity 2.11191416
REMARK minimizedRMSD -1
REMARK  0 active torsions:
REMARK  status: ('A' for Active; 'I' for Inactive)
ROOT
ATOM      1  O1  BZF d   1       3.654   5.805  -3.758  0.00  0.00    -0.204 OA
ATOM      2  C2  BZF d   1       4.368   5.903  -4.937  0.00  0.00     0.174 A 
ATOM      3  C3  BZF d   1       3.537   5.939  -5.998  0.00  0.00    -0.012 A 
ATOM      4  C3A BZF d   1       2.218   5.951  -5.444  0.00  0.00    -0.107 A 
ATOM      5  C4  BZF d   1       0.969   5.999  -5.993  0.00  0.00     0.055 A 
ATOM      6  C5  BZF d   1      -0.115   5.922  -5.177  0.00  0.00    -0.016 A 
ATOM      7  C6  BZF d   1       0.013   5.792  -3.810  0.00  0.00     0.022 A 
ATOM      8  C7  BZF d   1       1.232   5.745  -3.218  0.00  0.00     0.029 A 
ATOM      9  C7A BZF d   1       2.329   5.856  -4.037  0.00  0.00     0.058 A 
ENDROOT
TORSDOF 0
ENDMDL
