MODEL 1
REMARK minimizedAffinity -1.47505689
REMARK minimizedRMSD -1
REMARK  0 active torsions:
REMARK  status: ('A' for Active; 'I' for Inactive)
ROOT
ATOM      1  O1  BZF d   1      -1.335   5.967  -5.505  0.00  0.00    -0.204 OA
ATOM      2  C2  BZF d   1      -0.053   5.953  -4.989  0.00  0.00     0.174 A 
ATOM      3  C3  BZF d   1      -0.079   6.000  -3.642  0.00  0.00    -0.012 A 
ATOM      4  C3A BZF d   1      -1.465   5.952  -3.290  0.00  0.00    -0.107 A 
ATOM      5  C4  BZF d   1      -2.132   5.950  -2.098  0.00  0.00     0.055 A 
ATOM      6  C5  BZF d   1      -3.491   5.971  -2.102  0.00  0.00    -0.016 A 
ATOM      7  C6  BZF d   1      -4.214   5.999  -3.276  0.00  0.00     0.022 A 
ATOM      8  C7  BZF d   1      -3.597   5.997  -4.483  0.00  0.00     0.029 A 
ATOM      9  C7A BZF d   1      -2.224   5.942  -4.483  0.00  0.00     0.058 A 
ENDROOT
TORSDOF 0
ENDMDL
