MODEL 1
REMARK minimizedAffinity -0.405169874
REMARK minimizedRMSD -1
REMARK  0 active torsions:
REMARK  status: ('A' for Active; 'I' for Inactive)
ROOT
ATOM      1  O1  BZF d   1       5.662   5.188  -4.643  0.00  0.00    -0.204 OA
ATOM      2  C2  BZF d   1       5.958   4.071  -3.888  0.00  0.00     0.174 A 
ATOM      3  C3  BZF d   1       4.864   3.298  -3.727  0.00  0.00    -0.012 A 
ATOM      4  C3A BZF d   1       3.841   3.928  -4.504  0.00  0.00    -0.107 A 
ATOM      5  C4  BZF d   1       2.534   3.626  -4.757  0.00  0.00     0.055 A 
ATOM      6  C5  BZF d   1       1.788   4.486  -5.498  0.00  0.00    -0.016 A 
ATOM      7  C6  BZF d   1       2.315   5.659  -5.998  0.00  0.00     0.022 A 
ATOM      8  C7  BZF d   1       3.609   6.000  -5.777  0.00  0.00     0.029 A 
ATOM      9  C7A BZF d   1       4.374   5.116  -5.056  0.00  0.00     0.058 A 
ENDROOT
TORSDOF 0
ENDMDL
