MODEL 1
REMARK minimizedAffinity -1.87844133
REMARK minimizedRMSD -1
REMARK  0 active torsions:
REMARK  status: ('A' for Active; 'I' for Inactive)
ROOT
ATOM      1  O1  BZF d   1       2.852   5.945  -3.779  0.00  0.00    -0.204 OA
ATOM      2  C2  BZF d   1       3.446   5.898  -5.025  0.00  0.00     0.174 A 
ATOM      3  C3  BZF d   1       2.514   5.833  -5.998  0.00  0.00    -0.012 A 
ATOM      4  C3A BZF d   1       1.257   5.933  -5.322  0.00  0.00    -0.107 A 
ATOM      5  C4  BZF d   1      -0.040   5.945  -5.748  0.00  0.00     0.055 A 
ATOM      6  C5  BZF d   1      -1.038   5.980  -4.827  0.00  0.00    -0.016 A 
ATOM      7  C6  BZF d   1      -0.776   5.999  -3.473  0.00  0.00     0.022 A 
ATOM      8  C7  BZF d   1       0.495   5.994  -3.001  0.00  0.00     0.029 A 
ATOM      9  C7A BZF d   1       1.506   5.991  -3.931  0.00  0.00     0.058 A 
ENDROOT
TORSDOF 0
ENDMDL
