MODEL 1
REMARK minimizedAffinity 10.9035425
REMARK minimizedRMSD -1
REMARK  0 active torsions:
REMARK  status: ('A' for Active; 'I' for Inactive)
ROOT
ATOM      1  O1  BZF d   1       0.565  -0.676   1.270  0.00  0.00    -0.204 OA
ATOM      2  C2  BZF d   1      -0.376  -0.921   0.288  0.00  0.00     0.174 A 
ATOM      3  C3  BZF d   1      -0.451   0.115  -0.572  0.00  0.00    -0.012 A 
ATOM      4  C3A BZF d   1       0.567   1.028  -0.151  0.00  0.00    -0.107 A 
ATOM      5  C4  BZF d   1       0.995   2.238  -0.618  0.00  0.00     0.055 A 
ATOM      6  C5  BZF d   1       1.963   2.905   0.065  0.00  0.00    -0.016 A 
ATOM      7  C6  BZF d   1       2.520   2.395   1.219  0.00  0.00     0.022 A 
ATOM      8  C7  BZF d   1       2.131   1.196   1.718  0.00  0.00     0.029 A 
ATOM      9  C7A BZF d   1       1.177   0.505   1.013  0.00  0.00     0.058 A 
ENDROOT
TORSDOF 0
ENDMDL
