MODEL 1
REMARK minimizedAffinity 4.17455673
REMARK minimizedRMSD -1
REMARK  0 active torsions:
REMARK  status: ('A' for Active; 'I' for Inactive)
ROOT
ATOM      1  O1  BZF d   1       1.663  -0.828  -5.232  0.00  0.00    -0.204 OA
ATOM      2  C2  BZF d   1       2.187  -1.844  -4.456  0.00  0.00     0.174 A 
ATOM      3  C3  BZF d   1       1.214  -2.464  -3.758  0.00  0.00    -0.012 A 
ATOM      4  C3A BZF d   1      -0.006  -1.853  -4.190  0.00  0.00    -0.107 A 
ATOM      5  C4  BZF d   1      -1.319  -2.051  -3.871  0.00  0.00     0.055 A 
ATOM      6  C5  BZF d   1      -2.261  -1.238  -4.418  0.00  0.00    -0.016 A 
ATOM      7  C6  BZF d   1      -1.925  -0.216  -5.282  0.00  0.00     0.022 A 
ATOM      8  C7  BZF d   1      -0.637   0.015  -5.632  0.00  0.00     0.029 A 
ATOM      9  C7A BZF d   1       0.314  -0.825  -5.107  0.00  0.00     0.058 A 
ENDROOT
TORSDOF 0
ENDMDL
