MODEL 1
REMARK minimizedAffinity 0.112776376
REMARK minimizedRMSD -1
REMARK  0 active torsions:
REMARK  status: ('A' for Active; 'I' for Inactive)
ROOT
ATOM      1  O1  BZF d   1      -0.411   5.916  -5.881  0.00  0.00    -0.204 OA
ATOM      2  C2  BZF d   1       0.970   5.922  -5.838  0.00  0.00     0.174 A 
ATOM      3  C3  BZF d   1       1.408   6.000  -4.565  0.00  0.00    -0.012 A 
ATOM      4  C3A BZF d   1       0.228   5.953  -3.757  0.00  0.00    -0.107 A 
ATOM      5  C4  BZF d   1       0.012   5.975  -2.409  0.00  0.00     0.055 A 
ATOM      6  C5  BZF d   1      -1.266   5.988  -1.945  0.00  0.00    -0.016 A 
ATOM      7  C6  BZF d   1      -2.349   5.985  -2.800  0.00  0.00     0.022 A 
ATOM      8  C7  BZF d   1      -2.184   5.957  -4.145  0.00  0.00     0.029 A 
ATOM      9  C7A BZF d   1      -0.894   5.911  -4.616  0.00  0.00     0.058 A 
ENDROOT
TORSDOF 0
ENDMDL
