MODEL 1
REMARK minimizedAffinity -1.0997231
REMARK minimizedRMSD -1
REMARK  0 active torsions:
REMARK  status: ('A' for Active; 'I' for Inactive)
ROOT
ATOM      1  O1  BZF d   1       0.335   5.974  -3.318  0.00  0.00    -0.204 OA
ATOM      2  C2  BZF d   1       0.599   5.968  -4.675  0.00  0.00     0.174 A 
ATOM      3  C3  BZF d   1      -0.547   5.910  -5.384  0.00  0.00    -0.012 A 
ATOM      4  C3A BZF d   1      -1.595   5.970  -4.412  0.00  0.00    -0.107 A 
ATOM      5  C4  BZF d   1      -2.958   5.968  -4.500  0.00  0.00     0.055 A 
ATOM      6  C5  BZF d   1      -3.693   5.962  -3.357  0.00  0.00    -0.016 A 
ATOM      7  C6  BZF d   1      -3.099   5.953  -2.112  0.00  0.00     0.022 A 
ATOM      8  C7  BZF d   1      -1.751   5.960  -1.974  0.00  0.00     0.029 A 
ATOM      9  C7A BZF d   1      -1.005   5.999  -3.127  0.00  0.00     0.058 A 
ENDROOT
TORSDOF 0
ENDMDL
