MODEL 1
REMARK minimizedAffinity -0.269527078
REMARK minimizedRMSD -1
REMARK  0 active torsions:
REMARK  status: ('A' for Active; 'I' for Inactive)
ROOT
ATOM      1  O1  BZF d   1       1.121   5.959  -3.123  0.00  0.00    -0.204 OA
ATOM      2  C2  BZF d   1       1.318   5.954  -4.491  0.00  0.00     0.174 A 
ATOM      3  C3  BZF d   1       0.139   5.909  -5.144  0.00  0.00    -0.012 A 
ATOM      4  C3A BZF d   1      -0.860   5.979  -4.122  0.00  0.00    -0.107 A 
ATOM      5  C4  BZF d   1      -2.226   5.992  -4.144  0.00  0.00     0.055 A 
ATOM      6  C5  BZF d   1      -2.905   5.992  -2.967  0.00  0.00    -0.016 A 
ATOM      7  C6  BZF d   1      -2.252   5.974  -1.752  0.00  0.00     0.022 A 
ATOM      8  C7  BZF d   1      -0.898   5.965  -1.680  0.00  0.00     0.029 A 
ATOM      9  C7A BZF d   1      -0.209   5.998  -2.867  0.00  0.00     0.058 A 
ENDROOT
TORSDOF 0
ENDMDL
