MODEL 1
REMARK minimizedAffinity -0.689121008
REMARK minimizedRMSD -1
REMARK  0 active torsions:
REMARK  status: ('A' for Active; 'I' for Inactive)
ROOT
ATOM      1  O1  BZF d   1       3.774   5.947  -5.990  0.00  0.00    -0.204 OA
ATOM      2  C2  BZF d   1       4.726   5.940  -4.988  0.00  0.00     0.174 A 
ATOM      3  C3  BZF d   1       4.143   6.000  -3.774  0.00  0.00    -0.012 A 
ATOM      4  C3A BZF d   1       2.736   5.954  -4.029  0.00  0.00    -0.107 A 
ATOM      5  C4  BZF d   1       1.635   5.963  -3.221  0.00  0.00     0.055 A 
ATOM      6  C5  BZF d   1       0.400   5.982  -3.789  0.00  0.00    -0.016 A 
ATOM      7  C6  BZF d   1       0.230   5.997  -5.158  0.00  0.00     0.022 A 
ATOM      8  C7  BZF d   1       1.292   5.984  -5.999  0.00  0.00     0.029 A 
ATOM      9  C7A BZF d   1       2.541   5.931  -5.429  0.00  0.00     0.058 A 
ENDROOT
TORSDOF 0
ENDMDL
