MODEL 1
REMARK minimizedAffinity 3.66840625
REMARK minimizedRMSD -1
REMARK  0 active torsions:
REMARK  status: ('A' for Active; 'I' for Inactive)
ROOT
ATOM      1  O1  BZF d   1       1.943   4.141  -4.743  0.00  0.00    -0.204 OA
ATOM      2  C2  BZF d   1       1.425   5.093  -5.599  0.00  0.00     0.174 A 
ATOM      3  C3  BZF d   1       2.366   5.999  -5.934  0.00  0.00    -0.012 A 
ATOM      4  C3A BZF d   1       3.571   5.534  -5.318  0.00  0.00    -0.107 A 
ATOM      5  C4  BZF d   1       4.855   6.000  -5.297  0.00  0.00     0.055 A 
ATOM      6  C5  BZF d   1       5.780   5.353  -4.540  0.00  0.00    -0.016 A 
ATOM      7  C6  BZF d   1       5.455   4.242  -3.789  0.00  0.00     0.022 A 
ATOM      8  C7  BZF d   1       4.196   3.741  -3.781  0.00  0.00     0.029 A 
ATOM      9  C7A BZF d   1       3.267   4.373  -4.571  0.00  0.00     0.058 A 
ENDROOT
TORSDOF 0
ENDMDL
