MODEL 1
REMARK minimizedAffinity 10.0306826
REMARK minimizedRMSD -1
REMARK  0 active torsions:
REMARK  status: ('A' for Active; 'I' for Inactive)
ROOT
ATOM      1  O1  BZF d   1       1.966   0.677   2.619  0.00  0.00    -0.204 OA
ATOM      2  C2  BZF d   1       2.748   1.803   2.448  0.00  0.00     0.174 A 
ATOM      3  C3  BZF d   1       2.348   2.503   1.367  0.00  0.00    -0.012 A 
ATOM      4  C3A BZF d   1       1.189   1.818   0.882  0.00  0.00    -0.107 A 
ATOM      5  C4  BZF d   1       0.335   2.039  -0.160  0.00  0.00     0.055 A 
ATOM      6  C5  BZF d   1      -0.655   1.140  -0.405  0.00  0.00    -0.016 A 
ATOM      7  C6  BZF d   1      -0.815   0.008   0.367  0.00  0.00     0.022 A 
ATOM      8  C7  BZF d   1       0.005  -0.252   1.415  0.00  0.00     0.029 A 
ATOM      9  C7A BZF d   1       0.985   0.672   1.685  0.00  0.00     0.058 A 
ENDROOT
TORSDOF 0
ENDMDL
