MODEL 1
REMARK minimizedAffinity -2.67901611
REMARK minimizedRMSD -1
REMARK  0 active torsions:
REMARK  status: ('A' for Active; 'I' for Inactive)
ROOT
ATOM      1  O1  BZF d   1       2.058   4.722  -4.148  0.00  0.00    -0.204 OA
ATOM      2  C2  BZF d   1       1.342   5.349  -5.150  0.00  0.00     0.174 A 
ATOM      3  C3  BZF d   1       2.169   5.990  -6.000  0.00  0.00    -0.012 A 
ATOM      4  C3A BZF d   1       3.490   5.672  -5.551  0.00  0.00    -0.107 A 
ATOM      5  C4  BZF d   1       4.738   6.000  -5.999  0.00  0.00     0.055 A 
ATOM      6  C5  BZF d   1       5.823   5.586  -5.292  0.00  0.00    -0.016 A 
ATOM      7  C6  BZF d   1       5.696   4.849  -4.133  0.00  0.00     0.022 A 
ATOM      8  C7  BZF d   1       4.479   4.495  -3.653  0.00  0.00     0.029 A 
ATOM      9  C7A BZF d   1       3.382   4.883  -4.382  0.00  0.00     0.058 A 
ENDROOT
TORSDOF 0
ENDMDL
