MODEL 1
REMARK minimizedAffinity 6.92333937
REMARK minimizedRMSD -1
REMARK  0 active torsions:
REMARK  status: ('A' for Active; 'I' for Inactive)
ROOT
ATOM      1  O1  BZF d   1       1.487   3.880  -5.249  0.00  0.00    -0.204 OA
ATOM      2  C2  BZF d   1       0.780   4.978  -5.701  0.00  0.00     0.174 A 
ATOM      3  C3  BZF d   1       1.614   5.996  -5.997  0.00  0.00    -0.012 A 
ATOM      4  C3A BZF d   1       2.931   5.473  -5.800  0.00  0.00    -0.107 A 
ATOM      5  C4  BZF d   1       4.182   6.000  -5.947  0.00  0.00     0.055 A 
ATOM      6  C5  BZF d   1       5.260   5.248  -5.602  0.00  0.00    -0.016 A 
ATOM      7  C6  BZF d   1       5.124   3.970  -5.102  0.00  0.00     0.022 A 
ATOM      8  C7  BZF d   1       3.904   3.402  -4.942  0.00  0.00     0.029 A 
ATOM      9  C7A BZF d   1       2.814   4.147  -5.321  0.00  0.00     0.058 A 
ENDROOT
TORSDOF 0
ENDMDL
