MODEL 1
REMARK minimizedAffinity 3.330055
REMARK minimizedRMSD -1
REMARK  0 active torsions:
REMARK  status: ('A' for Active; 'I' for Inactive)
ROOT
ATOM      1  O1  BZF d   1       0.944   0.235   2.052  0.00  0.00    -0.204 OA
ATOM      2  C2  BZF d   1      -0.061  -0.476   1.426  0.00  0.00     0.174 A 
ATOM      3  C3  BZF d   1      -0.274  -0.009   0.179  0.00  0.00    -0.012 A 
ATOM      4  C3A BZF d   1       0.720   1.002  -0.018  0.00  0.00    -0.107 A 
ATOM      5  C4  BZF d   1       1.031   1.820  -1.066  0.00  0.00     0.055 A 
ATOM      6  C5  BZF d   1       2.012   2.748  -0.911  0.00  0.00    -0.016 A 
ATOM      7  C6  BZF d   1       2.697   2.888   0.278  0.00  0.00     0.022 A 
ATOM      8  C7  BZF d   1       2.427   2.095   1.344  0.00  0.00     0.029 A 
ATOM      9  C7A BZF d   1       1.459   1.135   1.180  0.00  0.00     0.058 A 
ENDROOT
TORSDOF 0
ENDMDL
