MODEL 1
REMARK minimizedAffinity -0.555751264
REMARK minimizedRMSD -1
REMARK  0 active torsions:
REMARK  status: ('A' for Active; 'I' for Inactive)
ROOT
ATOM      1  O1  BZF d   1      -0.824   5.428  -4.680  0.00  0.00    -0.204 OA
ATOM      2  C2  BZF d   1      -1.879   5.877  -5.450  0.00  0.00     0.174 A 
ATOM      3  C3  BZF d   1      -2.998   5.996  -4.706  0.00  0.00    -0.012 A 
ATOM      4  C3A BZF d   1      -2.595   5.684  -3.369  0.00  0.00    -0.107 A 
ATOM      5  C4  BZF d   1      -3.257   5.642  -2.175  0.00  0.00     0.055 A 
ATOM      6  C5  BZF d   1      -2.591   5.229  -1.065  0.00  0.00    -0.016 A 
ATOM      7  C6  BZF d   1      -1.267   4.845  -1.114  0.00  0.00     0.022 A 
ATOM      8  C7  BZF d   1      -0.568   4.873  -2.274  0.00  0.00     0.029 A 
ATOM      9  C7A BZF d   1      -1.228   5.323  -3.391  0.00  0.00     0.058 A 
ENDROOT
TORSDOF 0
ENDMDL
