MODEL 1
REMARK minimizedAffinity 6.58754444
REMARK minimizedRMSD -1
REMARK  0 active torsions:
REMARK  status: ('A' for Active; 'I' for Inactive)
ROOT
ATOM      1  O1  BZF d   1      -0.018  -0.298   1.737  0.00  0.00    -0.204 OA
ATOM      2  C2  BZF d   1      -0.607  -0.935   0.663  0.00  0.00     0.174 A 
ATOM      3  C3  BZF d   1      -0.562  -0.158  -0.438  0.00  0.00    -0.012 A 
ATOM      4  C3A BZF d   1       0.180   1.003  -0.049  0.00  0.00    -0.107 A 
ATOM      5  C4  BZF d   1       0.573   2.130  -0.711  0.00  0.00     0.055 A 
ATOM      6  C5  BZF d   1       1.222   3.107  -0.024  0.00  0.00    -0.016 A 
ATOM      7  C6  BZF d   1       1.489   2.991   1.325  0.00  0.00     0.022 A 
ATOM      8  C7  BZF d   1       1.123   1.888   2.023  0.00  0.00     0.029 A 
ATOM      9  C7A BZF d   1       0.496   0.886   1.324  0.00  0.00     0.058 A 
ENDROOT
TORSDOF 0
ENDMDL
