MODEL 1
REMARK minimizedAffinity -1.1924634
REMARK minimizedRMSD -1
REMARK  0 active torsions:
REMARK  status: ('A' for Active; 'I' for Inactive)
ROOT
ATOM      1  O1  BZF d   1      -2.602   5.989  -4.462  0.00  0.00    -0.204 OA
ATOM      2  C2  BZF d   1      -2.734   5.999  -3.086  0.00  0.00     0.174 A 
ATOM      3  C3  BZF d   1      -1.526   5.936  -2.490  0.00  0.00    -0.012 A 
ATOM      4  C3A BZF d   1      -0.575   5.976  -3.559  0.00  0.00    -0.107 A 
ATOM      5  C4  BZF d   1       0.789   5.962  -3.602  0.00  0.00     0.055 A 
ATOM      6  C5  BZF d   1       1.411   5.939  -4.810  0.00  0.00    -0.016 A 
ATOM      7  C6  BZF d   1       0.701   5.924  -5.993  0.00  0.00     0.022 A 
ATOM      8  C7  BZF d   1      -0.655   5.943  -6.000  0.00  0.00     0.029 A 
ATOM      9  C7A BZF d   1      -1.285   6.000  -4.781  0.00  0.00     0.058 A 
ENDROOT
TORSDOF 0
ENDMDL
