MODEL 1
REMARK minimizedAffinity 4.26337957
REMARK minimizedRMSD -1
REMARK  1 active torsions:
REMARK  status: ('A' for Active; 'I' for Inactive)
REMARK    1  A    between atoms: C3_4  and  O_7 
ROOT
ATOM      1  C   UNL d   1       5.948  -3.295   5.975  0.00  0.00    -0.033 A 
ATOM      2  C1  UNL d   1       5.122  -4.420   5.998  0.00  0.00     0.039 A 
ATOM      3  C2  UNL d   1       4.329  -4.729   4.891  0.00  0.00    -0.080 A 
ATOM      4  C3  UNL d   1       4.373  -3.907   3.768  0.00  0.00     0.150 A 
ATOM      5  C4  UNL d   1       5.196  -2.786   3.737  0.00  0.00    -0.007 A 
ATOM      6  C5  UNL d   1       5.986  -2.479   4.844  0.00  0.00     0.039 A 
ENDROOT
BRANCH   4   7
ATOM      7  O   UNL d   1       3.614  -4.165   2.666  0.00  0.00    -0.526 OA
ATOM      8  H5  UNL d   1       3.074  -4.953   2.842  0.00  0.00     0.418 HD
ENDBRANCH   4   7
TORSDOF 1
ENDMDL
