MODEL 1
REMARK minimizedAffinity 3.63168406
REMARK minimizedRMSD -1
REMARK  1 active torsions:
REMARK  status: ('A' for Active; 'I' for Inactive)
REMARK    1  A    between atoms: C3_4  and  O_7 
ROOT
ATOM      1  C   UNL d   1       2.234  -2.763   1.807  0.00  0.00    -0.033 A 
ATOM      2  C1  UNL d   1       1.382  -1.657   1.796  0.00  0.00     0.039 A 
ATOM      3  C2  UNL d   1       1.273  -0.869   0.648  0.00  0.00    -0.080 A 
ATOM      4  C3  UNL d   1       2.019  -1.199  -0.480  0.00  0.00     0.150 A 
ATOM      5  C4  UNL d   1       2.867  -2.301  -0.477  0.00  0.00    -0.007 A 
ATOM      6  C5  UNL d   1       2.975  -3.086   0.670  0.00  0.00     0.039 A 
ENDROOT
BRANCH   4   7
ATOM      7  O   UNL d   1       1.949  -0.457  -1.622  0.00  0.00    -0.526 OA
ATOM      8  H5  UNL d   1       1.346   0.289  -1.468  0.00  0.00     0.418 HD
ENDBRANCH   4   7
TORSDOF 1
ENDMDL
