MODEL 1
REMARK minimizedAffinity 1.77819717
REMARK minimizedRMSD -1
REMARK  1 active torsions:
REMARK  status: ('A' for Active; 'I' for Inactive)
REMARK    1  A    between atoms: C3_4  and  O_7 
ROOT
ATOM      1  C   UNL d   1       3.397   1.146  -1.144  0.00  0.00    -0.033 A 
ATOM      2  C1  UNL d   1       4.342   0.383  -0.455  0.00  0.00     0.039 A 
ATOM      3  C2  UNL d   1       4.049  -0.933  -0.092  0.00  0.00    -0.080 A 
ATOM      4  C3  UNL d   1       2.810  -1.474  -0.425  0.00  0.00     0.150 A 
ATOM      5  C4  UNL d   1       1.866  -0.721  -1.115  0.00  0.00    -0.007 A 
ATOM      6  C5  UNL d   1       2.160   0.594  -1.476  0.00  0.00     0.039 A 
ENDROOT
BRANCH   4   7
ATOM      7  O   UNL d   1       2.477  -2.752  -0.089  0.00  0.00    -0.526 OA
ATOM      8  H5  UNL d   1       3.215  -3.141   0.409  0.00  0.00     0.418 HD
ENDBRANCH   4   7
TORSDOF 1
ENDMDL
