MODEL 1
REMARK minimizedAffinity 1.20081198
REMARK minimizedRMSD -1
REMARK  1 active torsions:
REMARK  status: ('A' for Active; 'I' for Inactive)
REMARK    1  A    between atoms: C3_4  and  O_7 
ROOT
ATOM      1  C   UNL d   1      -2.027  -0.348   1.503  0.00  0.00    -0.033 A 
ATOM      2  C1  UNL d   1      -2.206  -0.232   0.123  0.00  0.00     0.039 A 
ATOM      3  C2  UNL d   1      -1.111  -0.346  -0.736  0.00  0.00    -0.080 A 
ATOM      4  C3  UNL d   1       0.154  -0.578  -0.204  0.00  0.00     0.150 A 
ATOM      5  C4  UNL d   1       0.339  -0.699   1.169  0.00  0.00    -0.007 A 
ATOM      6  C5  UNL d   1      -0.755  -0.583   2.026  0.00  0.00     0.039 A 
ENDROOT
BRANCH   4   7
ATOM      7  O   UNL d   1       1.253  -0.692  -1.003  0.00  0.00    -0.526 OA
ATOM      8  H5  UNL d   1       0.978  -0.559  -1.925  0.00  0.00     0.418 HD
ENDBRANCH   4   7
TORSDOF 1
ENDMDL
