MODEL 1
REMARK minimizedAffinity 0.502696335
REMARK minimizedRMSD -1
REMARK  1 active torsions:
REMARK  status: ('A' for Active; 'I' for Inactive)
REMARK    1  A    between atoms: C3_4  and  O_7 
ROOT
ATOM      1  C   UNL d   1      -2.010   0.080   1.814  0.00  0.00    -0.033 A 
ATOM      2  C1  UNL d   1      -2.089   0.145   0.422  0.00  0.00     0.039 A 
ATOM      3  C2  UNL d   1      -0.982  -0.195  -0.359  0.00  0.00    -0.080 A 
ATOM      4  C3  UNL d   1       0.195  -0.598   0.265  0.00  0.00     0.150 A 
ATOM      5  C4  UNL d   1       0.280  -0.668   1.651  0.00  0.00    -0.007 A 
ATOM      6  C5  UNL d   1      -0.826  -0.328   2.429  0.00  0.00     0.039 A 
ENDROOT
BRANCH   4   7
ATOM      7  O   UNL d   1       1.303  -0.935  -0.455  0.00  0.00    -0.526 OA
ATOM      8  H5  UNL d   1       1.107  -0.812  -1.398  0.00  0.00     0.418 HD
ENDBRANCH   4   7
TORSDOF 1
ENDMDL
