MODEL 1
REMARK minimizedAffinity 6.24705267
REMARK minimizedRMSD -1
REMARK  1 active torsions:
REMARK  status: ('A' for Active; 'I' for Inactive)
REMARK    1  A    between atoms: C1_2  and  C2_3 
ROOT
ATOM      1  C2  UNL d   1       3.209   0.313  -0.654  0.00  0.00    -0.077 A 
ATOM      2  C3  UNL d   1       3.879   1.357  -1.308  0.00  0.00     0.002 A 
ATOM      3  C4  UNL d   1       5.269   1.464  -1.226  0.00  0.00     0.002 A 
ATOM      4  C5  UNL d   1       6.000   0.529  -0.496  0.00  0.00    -0.004 A 
ATOM      5  C6  UNL d   1       5.342  -0.511   0.160  0.00  0.00     0.002 A 
ATOM      6  C7  UNL d   1       3.953  -0.619   0.080  0.00  0.00     0.002 A 
ENDROOT
BRANCH   1   7
ATOM      7  C1  UNL d   1       1.715   0.168  -0.781  0.00  0.00     0.055 C 
ATOM      8  C   UNL d   1       1.002   0.657   0.471  0.00  0.00     0.019 C 
ENDBRANCH   1   7
TORSDOF 1
ENDMDL
