MODEL 1
REMARK minimizedAffinity 9.90255547
REMARK minimizedRMSD -1
REMARK  1 active torsions:
REMARK  status: ('A' for Active; 'I' for Inactive)
REMARK    1  A    between atoms: C1_2  and  C2_3 
ROOT
ATOM      1  C2  UNL d   1       3.706  -1.897  -0.251  0.00  0.00    -0.077 A 
ATOM      2  C3  UNL d   1       3.879  -0.696  -0.953  0.00  0.00     0.002 A 
ATOM      3  C4  UNL d   1       4.956   0.144  -0.662  0.00  0.00     0.002 A 
ATOM      4  C5  UNL d   1       5.871  -0.211   0.327  0.00  0.00    -0.004 A 
ATOM      5  C6  UNL d   1       5.707  -1.402   1.032  0.00  0.00     0.002 A 
ATOM      6  C7  UNL d   1       4.630  -2.242   0.744  0.00  0.00     0.002 A 
ENDROOT
BRANCH   1   7
ATOM      7  C1  UNL d   1       2.573  -2.828  -0.596  0.00  0.00     0.055 C 
ATOM      8  C   UNL d   1       2.619  -3.235  -2.062  0.00  0.00     0.019 C 
ENDBRANCH   1   7
TORSDOF 1
ENDMDL
