MODEL 1
REMARK minimizedAffinity 3.78496599
REMARK minimizedRMSD -1
REMARK  1 active torsions:
REMARK  status: ('A' for Active; 'I' for Inactive)
REMARK    1  A    between atoms: C1_2  and  C2_3 
ROOT
ATOM      1  C2  UNL d   1       4.731   2.457  -1.056  0.00  0.00    -0.077 A 
ATOM      2  C3  UNL d   1       4.664   3.585  -1.886  0.00  0.00     0.002 A 
ATOM      3  C4  UNL d   1       5.260   4.786  -1.495  0.00  0.00     0.002 A 
ATOM      4  C5  UNL d   1       5.929   4.869  -0.276  0.00  0.00    -0.004 A 
ATOM      5  C6  UNL d   1       5.999   3.753   0.557  0.00  0.00     0.002 A 
ATOM      6  C7  UNL d   1       5.404   2.553   0.168  0.00  0.00     0.002 A 
ENDROOT
BRANCH   1   7
ATOM      7  C1  UNL d   1       4.132   1.148  -1.498  0.00  0.00     0.055 C 
ATOM      8  C   UNL d   1       3.773   0.272  -0.306  0.00  0.00     0.019 C 
ENDBRANCH   1   7
TORSDOF 1
ENDMDL
