MODEL 1
REMARK minimizedAffinity 11.8811407
REMARK minimizedRMSD -1
REMARK  1 active torsions:
REMARK  status: ('A' for Active; 'I' for Inactive)
REMARK    1  A    between atoms: C1_2  and  C2_3 
ROOT
ATOM      1  C2  UNL d   1       1.175  -4.582   4.979  0.00  0.00    -0.077 A 
ATOM      2  C3  UNL d   1      -0.109  -4.487   4.424  0.00  0.00     0.002 A 
ATOM      3  C4  UNL d   1      -0.386  -3.531   3.445  0.00  0.00     0.002 A 
ATOM      4  C5  UNL d   1       0.616  -2.666   3.009  0.00  0.00    -0.004 A 
ATOM      5  C6  UNL d   1       1.895  -2.752   3.556  0.00  0.00     0.002 A 
ATOM      6  C7  UNL d   1       2.174  -3.706   4.536  0.00  0.00     0.002 A 
ENDROOT
BRANCH   1   7
ATOM      7  C1  UNL d   1       1.488  -5.644   6.000  0.00  0.00     0.055 C 
ATOM      8  C   UNL d   1       2.968  -6.000   5.992  0.00  0.00     0.019 C 
ENDBRANCH   1   7
TORSDOF 1
ENDMDL
