MODEL 1
REMARK minimizedAffinity 6.55315828
REMARK minimizedRMSD -1
REMARK  1 active torsions:
REMARK  status: ('A' for Active; 'I' for Inactive)
REMARK    1  A    between atoms: C1_2  and  C2_3 
ROOT
ATOM      1  C2  UNL d   1       3.782  -0.436  -1.487  0.00  0.00    -0.077 A 
ATOM      2  C3  UNL d   1       3.863  -0.936  -2.795  0.00  0.00     0.002 A 
ATOM      3  C4  UNL d   1       3.459  -2.242  -3.078  0.00  0.00     0.002 A 
ATOM      4  C5  UNL d   1       2.966  -3.056  -2.061  0.00  0.00    -0.004 A 
ATOM      5  C6  UNL d   1       2.883  -2.569  -0.757  0.00  0.00     0.002 A 
ATOM      6  C7  UNL d   1       3.288  -1.265  -0.472  0.00  0.00     0.002 A 
ENDROOT
BRANCH   1   7
ATOM      7  C1  UNL d   1       4.171   0.988  -1.189  0.00  0.00     0.055 C 
ATOM      8  C   UNL d   1       5.624   1.084  -0.746  0.00  0.00     0.019 C 
ENDBRANCH   1   7
TORSDOF 1
ENDMDL
