MODEL 1
REMARK minimizedAffinity 5.20059586
REMARK minimizedRMSD -1
REMARK  1 active torsions:
REMARK  status: ('A' for Active; 'I' for Inactive)
REMARK    1  A    between atoms: C1_2  and  C2_3 
ROOT
ATOM      1  C2  UNL d   1       4.022  -1.189  -2.530  0.00  0.00    -0.077 A 
ATOM      2  C3  UNL d   1       4.903  -0.124  -2.296  0.00  0.00     0.002 A 
ATOM      3  C4  UNL d   1       4.816   0.619  -1.117  0.00  0.00     0.002 A 
ATOM      4  C5  UNL d   1       3.852   0.303  -0.162  0.00  0.00    -0.004 A 
ATOM      5  C6  UNL d   1       2.970  -0.753  -0.387  0.00  0.00     0.002 A 
ATOM      6  C7  UNL d   1       3.055  -1.496  -1.565  0.00  0.00     0.002 A 
ENDROOT
BRANCH   1   7
ATOM      7  C1  UNL d   1       4.146  -2.023  -3.779  0.00  0.00     0.055 C 
ATOM      8  C   UNL d   1       5.584  -2.462  -4.010  0.00  0.00     0.019 C 
ENDBRANCH   1   7
TORSDOF 1
ENDMDL
