MODEL 1
REMARK minimizedAffinity 12.1231699
REMARK minimizedRMSD -1
REMARK  2 active torsions:
REMARK  status: ('A' for Active; 'I' for Inactive)
REMARK    1  A    between atoms: C2'_3  and  C1'_4 
REMARK    2  A    between atoms: C1'_4  and  C1_5 
ROOT
ATOM      1  C1  I4B d   1       0.467  -1.208   1.180  0.00  0.00    -0.075 A 
ATOM      2  C2  I4B d   1       1.356  -2.243   1.036  0.00  0.00     0.003 A 
ATOM      3  C3  I4B d   1       0.912  -3.584   1.140  0.00  0.00     0.002 A 
ATOM      4  C4  I4B d   1      -0.411  -3.840   1.437  0.00  0.00    -0.004 A 
ATOM      5  C5  I4B d   1      -1.316  -2.790   1.559  0.00  0.00     0.002 A 
ATOM      6  C6  I4B d   1      -0.877  -1.465   1.418  0.00  0.00     0.003 A 
ENDROOT
BRANCH   1   7
ATOM      7  C1' I4B d   1       0.976   0.196   1.097  0.00  0.00     0.060 C 
BRANCH   7   8
ATOM      8  C2' I4B d   1       2.433   0.190   1.511  0.00  0.00    -0.013 C 
ATOM      9  C4' I4B d   1       3.313   0.740   0.420  0.00  0.00     0.013 C 
ATOM     10  C3' I4B d   1       2.560   0.998   2.768  0.00  0.00     0.013 C 
ENDBRANCH   7   8
ENDBRANCH   1   7
TORSDOF 2
ENDMDL
