MODEL 1
REMARK minimizedAffinity 14.2493343
REMARK minimizedRMSD -1
REMARK  2 active torsions:
REMARK  status: ('A' for Active; 'I' for Inactive)
REMARK    1  A    between atoms: C2'_3  and  C1'_4 
REMARK    2  A    between atoms: C1'_4  and  C1_5 
ROOT
ATOM      1  C1  I4B d   1      -3.427   2.833  -1.258  0.00  0.00    -0.075 A 
ATOM      2  C2  I4B d   1      -3.640   2.393  -2.541  0.00  0.00     0.003 A 
ATOM      3  C3  I4B d   1      -3.126   1.142  -2.960  0.00  0.00     0.002 A 
ATOM      4  C4  I4B d   1      -2.367   0.392  -2.085  0.00  0.00    -0.004 A 
ATOM      5  C5  I4B d   1      -2.171   0.829  -0.778  0.00  0.00     0.002 A 
ATOM      6  C6  I4B d   1      -2.715   2.052  -0.358  0.00  0.00     0.003 A 
ENDROOT
BRANCH   1   7
ATOM      7  C1' I4B d   1      -3.956   4.174  -0.859  0.00  0.00     0.060 C 
BRANCH   7   8
ATOM      8  C2' I4B d   1      -5.470   4.098  -0.861  0.00  0.00    -0.013 C 
ATOM      9  C4' I4B d   1      -6.000   3.743   0.503  0.00  0.00     0.013 C 
ATOM     10  C3' I4B d   1      -5.999   5.425  -1.319  0.00  0.00     0.013 C 
ENDBRANCH   7   8
ENDBRANCH   1   7
TORSDOF 2
ENDMDL
