MODEL 1
REMARK minimizedAffinity 10.0913887
REMARK minimizedRMSD -1
REMARK  2 active torsions:
REMARK  status: ('A' for Active; 'I' for Inactive)
REMARK    1  A    between atoms: C2'_3  and  C1'_4 
REMARK    2  A    between atoms: C1'_4  and  C1_5 
ROOT
ATOM      1  C1  I4B d   1      -4.037  -1.260  -3.382  0.00  0.00    -0.075 A 
ATOM      2  C2  I4B d   1      -3.415  -0.044  -3.512  0.00  0.00     0.003 A 
ATOM      3  C3  I4B d   1      -3.672   0.991  -2.580  0.00  0.00     0.002 A 
ATOM      4  C4  I4B d   1      -4.589   0.784  -1.571  0.00  0.00    -0.004 A 
ATOM      5  C5  I4B d   1      -5.201  -0.457  -1.427  0.00  0.00     0.002 A 
ATOM      6  C6  I4B d   1      -4.914  -1.491  -2.331  0.00  0.00     0.003 A 
ENDROOT
BRANCH   1   7
ATOM      7  C1' I4B d   1      -3.768  -2.320  -4.403  0.00  0.00     0.060 C 
BRANCH   7   8
ATOM      8  C2' I4B d   1      -4.945  -3.274  -4.407  0.00  0.00    -0.013 C 
ATOM      9  C4' I4B d   1      -5.877  -2.984  -5.554  0.00  0.00     0.013 C 
ATOM     10  C3' I4B d   1      -4.408  -4.672  -4.486  0.00  0.00     0.013 C 
ENDBRANCH   7   8
ENDBRANCH   1   7
TORSDOF 2
ENDMDL
