MODEL 1
REMARK minimizedAffinity 16.1924
REMARK minimizedRMSD -1
REMARK  2 active torsions:
REMARK  status: ('A' for Active; 'I' for Inactive)
REMARK    1  A    between atoms: C2'_3  and  C1'_4 
REMARK    2  A    between atoms: C1'_4  and  C1_5 
ROOT
ATOM      1  C1  I4B d   1       1.549  -0.295   2.458  0.00  0.00    -0.075 A 
ATOM      2  C2  I4B d   1       1.020  -0.541   3.700  0.00  0.00     0.003 A 
ATOM      3  C3  I4B d   1       0.611  -1.849   4.055  0.00  0.00     0.002 A 
ATOM      4  C4  I4B d   1       0.702  -2.865   3.125  0.00  0.00    -0.004 A 
ATOM      5  C5  I4B d   1       1.261  -2.619   1.874  0.00  0.00     0.002 A 
ATOM      6  C6  I4B d   1       1.698  -1.329   1.542  0.00  0.00     0.003 A 
ENDROOT
BRANCH   1   7
ATOM      7  C1' I4B d   1       1.940   1.105   2.105  0.00  0.00     0.060 C 
BRANCH   7   8
ATOM      8  C2' I4B d   1       1.338   2.033   3.140  0.00  0.00    -0.013 C 
ATOM      9  C4' I4B d   1       2.403   2.847   3.827  0.00  0.00     0.013 C 
ATOM     10  C3' I4B d   1       0.343   2.916   2.448  0.00  0.00     0.013 C 
ENDBRANCH   7   8
ENDBRANCH   1   7
TORSDOF 2
ENDMDL
