MODEL 1
REMARK minimizedAffinity 4.06550837
REMARK minimizedRMSD -1
REMARK  2 active torsions:
REMARK  status: ('A' for Active; 'I' for Inactive)
REMARK    1  A    between atoms: C2'_3  and  C1'_4 
REMARK    2  A    between atoms: C1'_4  and  C1_5 
ROOT
ATOM      1  C1  I4B d   1       0.955  -4.872   1.274  0.00  0.00    -0.075 A 
ATOM      2  C2  I4B d   1      -0.371  -5.225   1.231  0.00  0.00     0.003 A 
ATOM      3  C3  I4B d   1      -0.913  -5.822   0.067  0.00  0.00     0.002 A 
ATOM      4  C4  I4B d   1      -0.111  -6.000  -1.041  0.00  0.00    -0.004 A 
ATOM      5  C5  I4B d   1       1.239  -5.663  -0.989  0.00  0.00     0.002 A 
ATOM      6  C6  I4B d   1       1.778  -5.106   0.180  0.00  0.00     0.003 A 
ENDROOT
BRANCH   1   7
ATOM      7  C1' I4B d   1       1.486  -4.213   2.507  0.00  0.00     0.060 C 
BRANCH   7   8
ATOM      8  C2' I4B d   1       0.751  -2.900   2.689  0.00  0.00    -0.013 C 
ATOM      9  C4' I4B d   1       0.830  -2.424   4.116  0.00  0.00     0.013 C 
ATOM     10  C3' I4B d   1       1.354  -1.898   1.750  0.00  0.00     0.013 C 
ENDBRANCH   7   8
ENDBRANCH   1   7
TORSDOF 2
ENDMDL
