MODEL 1
REMARK minimizedAffinity 9.5766983
REMARK minimizedRMSD -1
REMARK  2 active torsions:
REMARK  status: ('A' for Active; 'I' for Inactive)
REMARK    1  A    between atoms: C2'_3  and  C1'_4 
REMARK    2  A    between atoms: C1'_4  and  C1_5 
ROOT
ATOM      1  C1  I4B d   1      -5.259  -3.090  -5.008  0.00  0.00    -0.075 A 
ATOM      2  C2  I4B d   1      -4.500  -3.793  -4.106  0.00  0.00     0.003 A 
ATOM      3  C3  I4B d   1      -4.470  -5.208  -4.148  0.00  0.00     0.002 A 
ATOM      4  C4  I4B d   1      -5.249  -5.876  -5.071  0.00  0.00    -0.004 A 
ATOM      5  C5  I4B d   1      -6.000  -5.162  -6.000  0.00  0.00     0.002 A 
ATOM      6  C6  I4B d   1      -5.995  -3.759  -5.977  0.00  0.00     0.003 A 
ENDROOT
BRANCH   1   7
ATOM      7  C1' I4B d   1      -5.293  -1.598  -4.914  0.00  0.00     0.060 C 
BRANCH   7   8
ATOM      8  C2' I4B d   1      -4.813  -1.206  -3.531  0.00  0.00    -0.013 C 
ATOM      9  C4' I4B d   1      -3.376  -0.756  -3.559  0.00  0.00     0.013 C 
ATOM     10  C3' I4B d   1      -5.711  -0.119  -3.020  0.00  0.00     0.013 C 
ENDBRANCH   7   8
ENDBRANCH   1   7
TORSDOF 2
ENDMDL
