MODEL 1
REMARK minimizedAffinity 19.2712803
REMARK minimizedRMSD -1
REMARK  2 active torsions:
REMARK  status: ('A' for Active; 'I' for Inactive)
REMARK    1  A    between atoms: C2'_3  and  C1'_4 
REMARK    2  A    between atoms: C1'_4  and  C1_5 
ROOT
ATOM      1  C1  I4B d   1      -5.144   1.221  -3.060  0.00  0.00    -0.075 A 
ATOM      2  C2  I4B d   1      -5.986   1.101  -1.983  0.00  0.00     0.003 A 
ATOM      3  C3  I4B d   1      -5.997  -0.091  -1.217  0.00  0.00     0.002 A 
ATOM      4  C4  I4B d   1      -5.193  -1.147  -1.592  0.00  0.00    -0.004 A 
ATOM      5  C5  I4B d   1      -4.323  -1.014  -2.671  0.00  0.00     0.002 A 
ATOM      6  C6  I4B d   1      -4.290   0.182  -3.403  0.00  0.00     0.003 A 
ENDROOT
BRANCH   1   7
ATOM      7  C1' I4B d   1      -5.182   2.481  -3.867  0.00  0.00     0.060 C 
BRANCH   7   8
ATOM      8  C2' I4B d   1      -4.823   2.131  -5.296  0.00  0.00    -0.013 C 
ATOM      9  C4' I4B d   1      -5.971   1.453  -5.997  0.00  0.00     0.013 C 
ATOM     10  C3' I4B d   1      -4.431   3.397  -5.999  0.00  0.00     0.013 C 
ENDBRANCH   7   8
ENDBRANCH   1   7
TORSDOF 2
ENDMDL
