MODEL 1
REMARK minimizedAffinity 3.73895407
REMARK minimizedRMSD -1
REMARK  2 active torsions:
REMARK  status: ('A' for Active; 'I' for Inactive)
REMARK    1  A    between atoms: C2'_3  and  C1'_4 
REMARK    2  A    between atoms: C1'_4  and  C1_5 
ROOT
ATOM      1  C1  I4B d   1       1.213  -1.583   1.195  0.00  0.00    -0.075 A 
ATOM      2  C2  I4B d   1       1.009  -2.893   1.548  0.00  0.00     0.003 A 
ATOM      3  C3  I4B d   1      -0.265  -3.487   1.378  0.00  0.00     0.002 A 
ATOM      4  C4  I4B d   1      -1.312  -2.725   0.902  0.00  0.00    -0.004 A 
ATOM      5  C5  I4B d   1      -1.098  -1.403   0.523  0.00  0.00     0.002 A 
ATOM      6  C6  I4B d   1       0.176  -0.831   0.658  0.00  0.00     0.003 A 
ENDROOT
BRANCH   1   7
ATOM      7  C1' I4B d   1       2.563  -0.978   1.418  0.00  0.00     0.060 C 
BRANCH   7   8
ATOM      8  C2' I4B d   1       2.391   0.524   1.513  0.00  0.00    -0.013 C 
ATOM      9  C4' I4B d   1       2.245   0.967   2.945  0.00  0.00     0.013 C 
ATOM     10  C3' I4B d   1       3.581   1.168   0.866  0.00  0.00     0.013 C 
ENDBRANCH   7   8
ENDBRANCH   1   7
TORSDOF 2
ENDMDL
