MODEL 1
REMARK minimizedAffinity -0.312723756
REMARK minimizedRMSD -1
REMARK  0 active torsions:
REMARK  status: ('A' for Active; 'I' for Inactive)
ROOT
ATOM      1  C4' PXY d   1      -1.931  -4.022  -5.998  0.00  0.00     0.077 C 
ATOM      2  C1' PXY d   1      -5.999  -6.000  -2.399  0.00  0.00     0.077 C 
ATOM      3  C1  PXY d   1      -4.924  -5.481  -3.333  0.00  0.00    -0.082 A 
ATOM      4  C2  PXY d   1      -5.267  -4.776  -4.399  0.00  0.00     0.003 A 
ATOM      5  C3  PXY d   1      -4.309  -4.327  -5.271  0.00  0.00     0.003 A 
ATOM      6  C4  PXY d   1      -2.983  -4.557  -5.022  0.00  0.00    -0.082 A 
ATOM      7  C5  PXY d   1      -2.624  -5.267  -3.932  0.00  0.00     0.003 A 
ATOM      8  C6  PXY d   1      -3.614  -5.749  -3.080  0.00  0.00     0.003 A 
ENDROOT
TORSDOF 0
ENDMDL
