MODEL 1
REMARK minimizedAffinity 3.96997547
REMARK minimizedRMSD -1
REMARK  0 active torsions:
REMARK  status: ('A' for Active; 'I' for Inactive)
ROOT
ATOM      1  C4' PXY d   1       3.596  -1.727  -0.022  0.00  0.00     0.077 C 
ATOM      2  C1' PXY d   1       5.999   3.387   1.198  0.00  0.00     0.077 C 
ATOM      3  C1  PXY d   1       5.381   2.040   0.879  0.00  0.00    -0.082 A 
ATOM      4  C2  PXY d   1       4.258   1.985   0.182  0.00  0.00     0.003 A 
ATOM      5  C3  PXY d   1       3.668   0.777  -0.088  0.00  0.00     0.003 A 
ATOM      6  C4  PXY d   1       4.261  -0.389   0.315  0.00  0.00    -0.082 A 
ATOM      7  C5  PXY d   1       5.413  -0.342   1.018  0.00  0.00     0.003 A 
ATOM      8  C6  PXY d   1       5.974   0.897   1.317  0.00  0.00     0.003 A 
ENDROOT
TORSDOF 0
ENDMDL
