MODEL 1
REMARK minimizedAffinity -1.47755826
REMARK minimizedRMSD -1
REMARK  0 active torsions:
REMARK  status: ('A' for Active; 'I' for Inactive)
ROOT
ATOM      1  C4' PXY d   1      -2.124  -2.821  -3.892  0.00  0.00     0.077 C 
ATOM      2  C1' PXY d   1      -1.075  -2.897   1.792  0.00  0.00     0.077 C 
ATOM      3  C1  PXY d   1      -1.342  -2.887   0.300  0.00  0.00    -0.082 A 
ATOM      4  C2  PXY d   1      -1.772  -1.779  -0.280  0.00  0.00     0.003 A 
ATOM      5  C3  PXY d   1      -2.049  -1.761  -1.623  0.00  0.00     0.003 A 
ATOM      6  C4  PXY d   1      -1.833  -2.875  -2.390  0.00  0.00    -0.082 A 
ATOM      7  C5  PXY d   1      -1.384  -4.007  -1.807  0.00  0.00     0.003 A 
ATOM      8  C6  PXY d   1      -1.148  -4.016  -0.435  0.00  0.00     0.003 A 
ENDROOT
TORSDOF 0
ENDMDL
