MODEL 1
REMARK minimizedAffinity 6.85333061
REMARK minimizedRMSD -1
REMARK  0 active torsions:
REMARK  status: ('A' for Active; 'I' for Inactive)
ROOT
ATOM      1  C4' PXY d   1      -0.072   2.901   1.670  0.00  0.00     0.077 C 
ATOM      2  C1' PXY d   1       4.762  -0.268   1.679  0.00  0.00     0.077 C 
ATOM      3  C1  PXY d   1       3.502   0.574   1.676  0.00  0.00    -0.082 A 
ATOM      4  C2  PXY d   1       2.397   0.100   2.229  0.00  0.00     0.003 A 
ATOM      5  C3  PXY d   1       1.239   0.834   2.206  0.00  0.00     0.003 A 
ATOM      6  C4  PXY d   1       1.226   2.090   1.659  0.00  0.00    -0.082 A 
ATOM      7  C5  PXY d   1       2.352   2.585   1.102  0.00  0.00     0.003 A 
ATOM      8  C6  PXY d   1       3.506   1.806   1.099  0.00  0.00     0.003 A 
ENDROOT
TORSDOF 0
ENDMDL
