MODEL 1
REMARK minimizedAffinity 10.1447229
REMARK minimizedRMSD -1
REMARK  0 active torsions:
REMARK  status: ('A' for Active; 'I' for Inactive)
ROOT
ATOM      1  C4' PXY d   1       6.000  -1.442   0.527  0.00  0.00     0.077 C 
ATOM      2  C1' PXY d   1       5.605   4.325   0.536  0.00  0.00     0.077 C 
ATOM      3  C1  PXY d   1       5.702   2.812   0.522  0.00  0.00    -0.082 A 
ATOM      4  C2  PXY d   1       5.878   2.158   1.659  0.00  0.00     0.003 A 
ATOM      5  C3  PXY d   1       6.000   0.792   1.661  0.00  0.00     0.003 A 
ATOM      6  C4  PXY d   1       5.887   0.085   0.494  0.00  0.00    -0.082 A 
ATOM      7  C5  PXY d   1       5.696   0.744  -0.668  0.00  0.00     0.003 A 
ATOM      8  C6  PXY d   1       5.616   2.134  -0.654  0.00  0.00     0.003 A 
ENDROOT
TORSDOF 0
ENDMDL
