MODEL 1
REMARK minimizedAffinity 11.9448509
REMARK minimizedRMSD -1
REMARK  0 active torsions:
REMARK  status: ('A' for Active; 'I' for Inactive)
ROOT
ATOM      1  C4' PXY d   1       5.999   0.641  -0.703  0.00  0.00     0.077 C 
ATOM      2  C1' PXY d   1       3.237  -1.002   4.101  0.00  0.00     0.077 C 
ATOM      3  C1  PXY d   1       3.972  -0.570   2.848  0.00  0.00    -0.082 A 
ATOM      4  C2  PXY d   1       3.295  -0.044   1.840  0.00  0.00     0.003 A 
ATOM      5  C3  PXY d   1       3.940   0.323   0.687  0.00  0.00     0.003 A 
ATOM      6  C4  PXY d   1       5.300   0.199   0.585  0.00  0.00    -0.082 A 
ATOM      7  C5  PXY d   1       5.999  -0.327   1.612  0.00  0.00     0.003 A 
ATOM      8  C6  PXY d   1       5.320  -0.731   2.758  0.00  0.00     0.003 A 
ENDROOT
TORSDOF 0
ENDMDL
