MODEL 1
REMARK minimizedAffinity 5.83658648
REMARK minimizedRMSD -1
REMARK  0 active torsions:
REMARK  status: ('A' for Active; 'I' for Inactive)
ROOT
ATOM      1  C4' PXY d   1      -6.000   6.000   5.160  0.00  0.00     0.077 C 
ATOM      2  C1' PXY d   1      -3.286   1.364   3.024  0.00  0.00     0.077 C 
ATOM      3  C1  PXY d   1      -3.999   2.585   3.572  0.00  0.00    -0.082 A 
ATOM      4  C2  PXY d   1      -3.809   2.943   4.831  0.00  0.00     0.003 A 
ATOM      5  C3  PXY d   1      -4.470   4.025   5.352  0.00  0.00     0.003 A 
ATOM      6  C4  PXY d   1      -5.294   4.780   4.561  0.00  0.00    -0.082 A 
ATOM      7  C5  PXY d   1      -5.485   4.428   3.272  0.00  0.00     0.003 A 
ATOM      8  C6  PXY d   1      -4.836   3.302   2.774  0.00  0.00     0.003 A 
ENDROOT
TORSDOF 0
ENDMDL
