MODEL 1
REMARK minimizedAffinity 12.9496021
REMARK minimizedRMSD -1
REMARK  0 active torsions:
REMARK  status: ('A' for Active; 'I' for Inactive)
ROOT
ATOM      1  C4' PXY d   1       5.999  -0.235   0.748  0.00  0.00     0.077 C 
ATOM      2  C1' PXY d   1       1.385  -0.387   4.227  0.00  0.00     0.077 C 
ATOM      3  C1  PXY d   1       2.603  -0.344   3.325  0.00  0.00    -0.082 A 
ATOM      4  C2  PXY d   1       2.452  -0.092   2.035  0.00  0.00     0.003 A 
ATOM      5  C3  PXY d   1       3.539  -0.082   1.199  0.00  0.00     0.003 A 
ATOM      6  C4  PXY d   1       4.799  -0.278   1.698  0.00  0.00    -0.082 A 
ATOM      7  C5  PXY d   1       4.962  -0.525   3.015  0.00  0.00     0.003 A 
ATOM      8  C6  PXY d   1       3.841  -0.573   3.840  0.00  0.00     0.003 A 
ENDROOT
TORSDOF 0
ENDMDL
