MODEL 1
REMARK minimizedAffinity 3.0686996
REMARK minimizedRMSD -1
REMARK  0 active torsions:
REMARK  status: ('A' for Active; 'I' for Inactive)
ROOT
ATOM      1  C4' PXY d   1      -1.880  -1.471  -2.513  0.00  0.00     0.077 C 
ATOM      2  C1' PXY d   1      -0.865  -4.103   2.533  0.00  0.00     0.077 C 
ATOM      3  C1  PXY d   1      -1.140  -3.422   1.207  0.00  0.00    -0.082 A 
ATOM      4  C2  PXY d   1      -0.218  -2.640   0.669  0.00  0.00     0.003 A 
ATOM      5  C3  PXY d   1      -0.462  -1.991  -0.513  0.00  0.00     0.003 A 
ATOM      6  C4  PXY d   1      -1.642  -2.186  -1.180  0.00  0.00    -0.082 A 
ATOM      7  C5  PXY d   1      -2.584  -2.991  -0.643  0.00  0.00     0.003 A 
ATOM      8  C6  PXY d   1      -2.332  -3.608   0.579  0.00  0.00     0.003 A 
ENDROOT
TORSDOF 0
ENDMDL
