MODEL 1
REMARK minimizedAffinity 0.539857924
REMARK minimizedRMSD -1
REMARK  0 active torsions:
REMARK  status: ('A' for Active; 'I' for Inactive)
ROOT
ATOM      1  C4' PXY d   1      -4.163  -4.596  -6.000  0.00  0.00     0.077 C 
ATOM      2  C1' PXY d   1      -5.362  -6.000  -0.522  0.00  0.00     0.077 C 
ATOM      3  C1  PXY d   1      -5.060  -5.631  -1.961  0.00  0.00    -0.082 A 
ATOM      4  C2  PXY d   1      -3.900  -5.976  -2.495  0.00  0.00     0.003 A 
ATOM      5  C3  PXY d   1      -3.598  -5.622  -3.785  0.00  0.00     0.003 A 
ATOM      6  C4  PXY d   1      -4.514  -4.955  -4.553  0.00  0.00    -0.082 A 
ATOM      7  C5  PXY d   1      -5.704  -4.609  -4.019  0.00  0.00     0.003 A 
ATOM      8  C6  PXY d   1      -5.975  -4.942  -2.695  0.00  0.00     0.003 A 
ENDROOT
TORSDOF 0
ENDMDL
