MODEL 1
REMARK minimizedAffinity 11.7006798
REMARK minimizedRMSD -1
REMARK  0 active torsions:
REMARK  status: ('A' for Active; 'I' for Inactive)
ROOT
ATOM      1  C4' PXY d   1      -3.366   0.877   3.061  0.00  0.00     0.077 C 
ATOM      2  C1' PXY d   1      -6.000   6.000   3.544  0.00  0.00     0.077 C 
ATOM      3  C1  PXY d   1      -5.300   4.660   3.426  0.00  0.00    -0.082 A 
ATOM      4  C2  PXY d   1      -5.489   3.917   2.348  0.00  0.00     0.003 A 
ATOM      5  C3  PXY d   1      -4.889   2.688   2.239  0.00  0.00     0.003 A 
ATOM      6  C4  PXY d   1      -4.045   2.240   3.219  0.00  0.00    -0.082 A 
ATOM      7  C5  PXY d   1      -3.838   2.998   4.317  0.00  0.00     0.003 A 
ATOM      8  C6  PXY d   1      -4.489   4.224   4.428  0.00  0.00     0.003 A 
ENDROOT
TORSDOF 0
ENDMDL
