MODEL 1
REMARK minimizedAffinity 8.18152142
REMARK minimizedRMSD -1
REMARK  0 active torsions:
REMARK  status: ('A' for Active; 'I' for Inactive)
ROOT
ATOM      1  C4' PXY d   1      -5.087  -4.136  -5.999  0.00  0.00     0.077 C 
ATOM      2  C1' PXY d   1      -4.334  -5.980  -0.573  0.00  0.00     0.077 C 
ATOM      3  C1  PXY d   1      -4.544  -5.493  -1.993  0.00  0.00    -0.082 A 
ATOM      4  C2  PXY d   1      -3.813  -5.999  -2.973  0.00  0.00     0.003 A 
ATOM      5  C3  PXY d   1      -3.968  -5.547  -4.258  0.00  0.00     0.003 A 
ATOM      6  C4  PXY d   1      -4.916  -4.604  -4.552  0.00  0.00    -0.082 A 
ATOM      7  C5  PXY d   1      -5.673  -4.090  -3.559  0.00  0.00     0.003 A 
ATOM      8  C6  PXY d   1      -5.472  -4.533  -2.255  0.00  0.00     0.003 A 
ENDROOT
TORSDOF 0
ENDMDL
