MODEL 1
REMARK minimizedAffinity -4.17945099
REMARK minimizedRMSD -1
REMARK  0 active torsions:
REMARK  status: ('A' for Active; 'I' for Inactive)
ROOT
ATOM      1  C4' PXY d   1       5.996   5.991   5.154  0.00  0.00     0.077 C 
ATOM      2  C1' PXY d   1       4.456   2.878   0.533  0.00  0.00     0.077 C 
ATOM      3  C1  PXY d   1       4.858   3.705   1.738  0.00  0.00    -0.082 A 
ATOM      4  C2  PXY d   1       5.652   3.180   2.657  0.00  0.00     0.003 A 
ATOM      5  C3  PXY d   1       6.000   3.903   3.769  0.00  0.00     0.003 A 
ATOM      6  C4  PXY d   1       5.572   5.196   3.916  0.00  0.00    -0.082 A 
ATOM      7  C5  PXY d   1       4.770   5.742   2.978  0.00  0.00     0.003 A 
ATOM      8  C6  PXY d   1       4.396   4.978   1.877  0.00  0.00     0.003 A 
ENDROOT
TORSDOF 0
ENDMDL
