MODEL 1
REMARK minimizedAffinity 5.76558781
REMARK minimizedRMSD -1
REMARK  0 active torsions:
REMARK  status: ('A' for Active; 'I' for Inactive)
ROOT
ATOM      1  C4' PXY d   1      -1.932  -4.460  -5.990  0.00  0.00     0.077 C 
ATOM      2  C1' PXY d   1       3.258  -1.915  -5.987  0.00  0.00     0.077 C 
ATOM      3  C1  PXY d   1       1.892  -2.572  -5.983  0.00  0.00    -0.082 A 
ATOM      4  C2  PXY d   1       1.800  -3.892  -5.972  0.00  0.00     0.003 A 
ATOM      5  C3  PXY d   1       0.573  -4.502  -6.000  0.00  0.00     0.003 A 
ATOM      6  C4  PXY d   1      -0.574  -3.754  -5.985  0.00  0.00    -0.082 A 
ATOM      7  C5  PXY d   1      -0.489  -2.407  -5.986  0.00  0.00     0.003 A 
ATOM      8  C6  PXY d   1       0.767  -1.806  -5.999  0.00  0.00     0.003 A 
ENDROOT
TORSDOF 0
ENDMDL
