MODEL 1
REMARK minimizedAffinity 3.56093836
REMARK minimizedRMSD -1
REMARK  0 active torsions:
REMARK  status: ('A' for Active; 'I' for Inactive)
ROOT
ATOM      1  C4' PXY d   1      -4.411  -4.459  -1.926  0.00  0.00     0.077 C 
ATOM      2  C1' PXY d   1      -1.076  -2.074  -6.000  0.00  0.00     0.077 C 
ATOM      3  C1  PXY d   1      -1.943  -2.693  -4.922  0.00  0.00    -0.082 A 
ATOM      4  C2  PXY d   1      -2.581  -3.826  -5.167  0.00  0.00     0.003 A 
ATOM      5  C3  PXY d   1      -3.395  -4.384  -4.215  0.00  0.00     0.003 A 
ATOM      6  C4  PXY d   1      -3.516  -3.803  -2.981  0.00  0.00    -0.082 A 
ATOM      7  C5  PXY d   1      -2.861  -2.652  -2.720  0.00  0.00     0.003 A 
ATOM      8  C6  PXY d   1      -2.072  -2.081  -3.714  0.00  0.00     0.003 A 
ENDROOT
TORSDOF 0
ENDMDL
