MODEL 1
REMARK minimizedAffinity 1.64842689
REMARK minimizedRMSD -1
REMARK  0 active torsions:
REMARK  status: ('A' for Active; 'I' for Inactive)
ROOT
ATOM      1  C4' PXY d   1      -6.000  -4.557  -5.701  0.00  0.00     0.077 C 
ATOM      2  C1' PXY d   1      -2.400  -6.000  -1.414  0.00  0.00     0.077 C 
ATOM      3  C1  PXY d   1      -3.353  -5.629  -2.533  0.00  0.00    -0.082 A 
ATOM      4  C2  PXY d   1      -2.871  -5.269  -3.711  0.00  0.00     0.003 A 
ATOM      5  C3  PXY d   1      -3.718  -4.899  -4.724  0.00  0.00     0.003 A 
ATOM      6  C4  PXY d   1      -5.075  -4.949  -4.545  0.00  0.00    -0.082 A 
ATOM      7  C5  PXY d   1      -5.575  -5.325  -3.349  0.00  0.00     0.003 A 
ATOM      8  C6  PXY d   1      -4.697  -5.657  -2.321  0.00  0.00     0.003 A 
ENDROOT
TORSDOF 0
ENDMDL
