MODEL 1
REMARK minimizedAffinity 12.4244413
REMARK minimizedRMSD -1
REMARK  0 active torsions:
REMARK  status: ('A' for Active; 'I' for Inactive)
ROOT
ATOM      1  C4' PXY d   1       5.120  -0.530   1.133  0.00  0.00     0.077 C 
ATOM      2  C1' PXY d   1      -0.002   1.993   2.038  0.00  0.00     0.077 C 
ATOM      3  C1  PXY d   1       1.343   1.338   1.789  0.00  0.00    -0.082 A 
ATOM      4  C2  PXY d   1       1.620   0.176   2.359  0.00  0.00     0.003 A 
ATOM      5  C3  PXY d   1       2.843  -0.415   2.171  0.00  0.00     0.003 A 
ATOM      6  C4  PXY d   1       3.772   0.163   1.348  0.00  0.00    -0.082 A 
ATOM      7  C5  PXY d   1       3.493   1.343   0.755  0.00  0.00     0.003 A 
ATOM      8  C6  PXY d   1       2.261   1.947   0.992  0.00  0.00     0.003 A 
ENDROOT
TORSDOF 0
ENDMDL
