MODEL 1
REMARK minimizedAffinity 4.17668009
REMARK minimizedRMSD -1
REMARK  0 active torsions:
REMARK  status: ('A' for Active; 'I' for Inactive)
ROOT
ATOM      1  C4' PXY d   1       3.506  -4.117  -5.623  0.00  0.00     0.077 C 
ATOM      2  C1' PXY d   1      -1.919  -2.156  -5.999  0.00  0.00     0.077 C 
ATOM      3  C1  PXY d   1      -0.492  -2.660  -5.907  0.00  0.00    -0.082 A 
ATOM      4  C2  PXY d   1      -0.265  -3.951  -5.728  0.00  0.00     0.003 A 
ATOM      5  C3  PXY d   1       1.019  -4.419  -5.611  0.00  0.00     0.003 A 
ATOM      6  C4  PXY d   1       2.082  -3.565  -5.731  0.00  0.00    -0.082 A 
ATOM      7  C5  PXY d   1       1.858  -2.248  -5.924  0.00  0.00     0.003 A 
ATOM      8  C6  PXY d   1       0.547  -1.786  -6.000  0.00  0.00     0.003 A 
ENDROOT
TORSDOF 0
ENDMDL
