MODEL 1
REMARK minimizedAffinity 10.3809719
REMARK minimizedRMSD -1
REMARK  0 active torsions:
REMARK  status: ('A' for Active; 'I' for Inactive)
ROOT
ATOM      1  C4' PXY d   1       0.395  -3.646   0.225  0.00  0.00     0.077 C 
ATOM      2  C1' PXY d   1      -4.686  -3.453  -2.525  0.00  0.00     0.077 C 
ATOM      3  C1  PXY d   1      -3.350  -3.513  -1.812  0.00  0.00    -0.082 A 
ATOM      4  C2  PXY d   1      -3.258  -3.100  -0.558  0.00  0.00     0.003 A 
ATOM      5  C3  PXY d   1      -2.051  -3.118   0.091  0.00  0.00     0.003 A 
ATOM      6  C4  PXY d   1      -0.936  -3.613  -0.531  0.00  0.00    -0.082 A 
ATOM      7  C5  PXY d   1      -1.024  -4.046  -1.807  0.00  0.00     0.003 A 
ATOM      8  C6  PXY d   1      -2.250  -3.981  -2.462  0.00  0.00     0.003 A 
ENDROOT
TORSDOF 0
ENDMDL
