MODEL 1
REMARK minimizedAffinity 5.02654696
REMARK minimizedRMSD -1
REMARK  0 active torsions:
REMARK  status: ('A' for Active; 'I' for Inactive)
ROOT
ATOM      1  C4' PXY d   1      -1.575  -2.256  -2.998  0.00  0.00     0.077 C 
ATOM      2  C1' PXY d   1      -5.998  -5.972  -2.792  0.00  0.00     0.077 C 
ATOM      3  C1  PXY d   1      -4.833  -5.005  -2.856  0.00  0.00    -0.082 A 
ATOM      4  C2  PXY d   1      -4.536  -4.267  -1.798  0.00  0.00     0.003 A 
ATOM      5  C3  PXY d   1      -3.506  -3.364  -1.849  0.00  0.00     0.003 A 
ATOM      6  C4  PXY d   1      -2.737  -3.253  -2.976  0.00  0.00    -0.082 A 
ATOM      7  C5  PXY d   1      -3.027  -4.009  -4.056  0.00  0.00     0.003 A 
ATOM      8  C6  PXY d   1      -4.102  -4.890  -3.998  0.00  0.00     0.003 A 
ENDROOT
TORSDOF 0
ENDMDL
