MODEL 1
REMARK minimizedAffinity -2.31662345
REMARK minimizedRMSD -1
REMARK  0 active torsions:
REMARK  status: ('A' for Active; 'I' for Inactive)
ROOT
ATOM      1  C   UNL d   1       2.928  -0.894   0.625  0.00  0.00    -0.002 A 
ATOM      2  C1  UNL d   1       2.841  -0.310  -0.631  0.00  0.00     0.010 A 
ATOM      3  C2  UNL d   1       1.596  -0.037  -1.202  0.00  0.00     0.041 A 
ATOM      4  C3  UNL d   1       0.430  -0.362  -0.482  0.00  0.00    -0.075 A 
ATOM      5  S   UNL d   1      -1.202  -0.118  -0.982  0.00  0.00     0.015 SA
ATOM      6  C4  UNL d   1      -1.822  -0.783   0.460  0.00  0.00     0.022 A 
ATOM      7  C5  UNL d   1      -0.822  -1.186   1.313  0.00  0.00     0.026 A 
ATOM      8  C6  UNL d   1       0.492  -0.950   0.785  0.00  0.00    -0.082 A 
ATOM      9  C7  UNL d   1       1.769  -1.216   1.336  0.00  0.00     0.045 A 
ENDROOT
TORSDOF 0
ENDMDL
