MODEL 1
REMARK minimizedAffinity -2.68891692
REMARK minimizedRMSD -1
REMARK  0 active torsions:
REMARK  status: ('A' for Active; 'I' for Inactive)
ROOT
ATOM      1  C   UNL d   1       2.922   0.965   0.198  0.00  0.00    -0.002 A 
ATOM      2  C1  UNL d   1       2.760   0.270   1.388  0.00  0.00     0.010 A 
ATOM      3  C2  UNL d   1       1.543  -0.345   1.692  0.00  0.00     0.041 A 
ATOM      4  C3  UNL d   1       0.483  -0.250   0.770  0.00  0.00    -0.075 A 
ATOM      5  S   UNL d   1      -1.096  -0.924   0.928  0.00  0.00     0.015 SA
ATOM      6  C4  UNL d   1      -1.593  -0.306  -0.581  0.00  0.00     0.022 A 
ATOM      7  C5  UNL d   1      -0.591   0.400  -1.203  0.00  0.00     0.026 A 
ATOM      8  C6  UNL d   1       0.622   0.444  -0.436  0.00  0.00    -0.082 A 
ATOM      9  C7  UNL d   1       1.867   1.057  -0.714  0.00  0.00     0.045 A 
ENDROOT
TORSDOF 0
ENDMDL
