MODEL 1
REMARK minimizedAffinity -2.57091379
REMARK minimizedRMSD -1
REMARK  0 active torsions:
REMARK  status: ('A' for Active; 'I' for Inactive)
ROOT
ATOM      1  C   UNL d   1       3.148   0.254   1.713  0.00  0.00    -0.002 A 
ATOM      2  C1  UNL d   1       2.795  -0.892   2.412  0.00  0.00     0.010 A 
ATOM      3  C2  UNL d   1       1.544  -1.482   2.225  0.00  0.00     0.041 A 
ATOM      4  C3  UNL d   1       0.644  -0.896   1.313  0.00  0.00    -0.075 A 
ATOM      5  S   UNL d   1      -0.943  -1.443   0.921  0.00  0.00     0.015 SA
ATOM      6  C4  UNL d   1      -1.190  -0.170  -0.185  0.00  0.00     0.022 A 
ATOM      7  C5  UNL d   1      -0.099   0.662  -0.265  0.00  0.00     0.026 A 
ATOM      8  C6  UNL d   1       0.976   0.258   0.596  0.00  0.00    -0.082 A 
ATOM      9  C7  UNL d   1       2.253   0.832   0.809  0.00  0.00     0.045 A 
ENDROOT
TORSDOF 0
ENDMDL
