MODEL 1
REMARK minimizedAffinity -3.98859906
REMARK minimizedRMSD -1
REMARK  0 active torsions:
REMARK  status: ('A' for Active; 'I' for Inactive)
ROOT
ATOM      1  C   UNL d   1       3.227   0.175   0.895  0.00  0.00    -0.002 A 
ATOM      2  C1  UNL d   1       3.177  -0.892   0.009  0.00  0.00     0.010 A 
ATOM      3  C2  UNL d   1       2.003  -1.181  -0.688  0.00  0.00     0.041 A 
ATOM      4  C3  UNL d   1       0.869  -0.371  -0.479  0.00  0.00    -0.075 A 
ATOM      5  S   UNL d   1      -0.677  -0.536  -1.224  0.00  0.00     0.015 SA
ATOM      6  C4  UNL d   1      -1.308   0.806  -0.384  0.00  0.00     0.022 A 
ATOM      7  C5  UNL d   1      -0.375   1.378   0.448  0.00  0.00     0.026 A 
ATOM      8  C6  UNL d   1       0.895   0.709   0.407  0.00  0.00    -0.082 A 
ATOM      9  C7  UNL d   1       2.101   0.976   1.099  0.00  0.00     0.045 A 
ENDROOT
TORSDOF 0
ENDMDL
