MODEL 1
REMARK minimizedAffinity -2.5480907
REMARK minimizedRMSD -1
REMARK  0 active torsions:
REMARK  status: ('A' for Active; 'I' for Inactive)
ROOT
ATOM      1  C   UNL d   1       2.657   1.169   0.152  0.00  0.00    -0.002 A 
ATOM      2  C1  UNL d   1       2.742   0.001   0.896  0.00  0.00     0.010 A 
ATOM      3  C2  UNL d   1       1.609  -0.786   1.115  0.00  0.00     0.041 A 
ATOM      4  C3  UNL d   1       0.378  -0.376   0.567  0.00  0.00    -0.075 A 
ATOM      5  S   UNL d   1      -1.140  -1.181   0.704  0.00  0.00     0.015 SA
ATOM      6  C4  UNL d   1      -1.938   0.007  -0.223  0.00  0.00     0.022 A 
ATOM      7  C5  UNL d   1      -1.081   1.000  -0.635  0.00  0.00     0.026 A 
ATOM      8  C6  UNL d   1       0.268   0.796  -0.187  0.00  0.00    -0.082 A 
ATOM      9  C7  UNL d   1       1.434   1.572  -0.390  0.00  0.00     0.045 A 
ENDROOT
TORSDOF 0
ENDMDL
