MODEL 1
REMARK minimizedAffinity -3.52181816
REMARK minimizedRMSD -1
REMARK  0 active torsions:
REMARK  status: ('A' for Active; 'I' for Inactive)
ROOT
ATOM      1  C   UNL d   1       3.269  -0.288   1.413  0.00  0.00    -0.002 A 
ATOM      2  C1  UNL d   1       2.755  -1.542   1.118  0.00  0.00     0.010 A 
ATOM      3  C2  UNL d   1       1.426  -1.688   0.714  0.00  0.00     0.041 A 
ATOM      4  C3  UNL d   1       0.616  -0.541   0.609  0.00  0.00    -0.075 A 
ATOM      5  S   UNL d   1      -1.040  -0.477   0.134  0.00  0.00     0.015 SA
ATOM      6  C4  UNL d   1      -1.104   1.217   0.310  0.00  0.00     0.022 A 
ATOM      7  C5  UNL d   1       0.100   1.738   0.721  0.00  0.00     0.026 A 
ATOM      8  C6  UNL d   1       1.111   0.734   0.900  0.00  0.00    -0.082 A 
ATOM      9  C7  UNL d   1       2.462   0.848   1.307  0.00  0.00     0.045 A 
ENDROOT
TORSDOF 0
ENDMDL
