MODEL 1
REMARK minimizedAffinity 2.0615263
REMARK minimizedRMSD -1
REMARK  0 active torsions:
REMARK  status: ('A' for Active; 'I' for Inactive)
ROOT
ATOM      1  C   UNL d   1      -0.720   1.811  -1.127  0.00  0.00    -0.002 A 
ATOM      2  C1  UNL d   1      -1.478   0.763  -0.625  0.00  0.00     0.010 A 
ATOM      3  C2  UNL d   1      -0.930  -0.133   0.295  0.00  0.00     0.041 A 
ATOM      4  C3  UNL d   1       0.405   0.045   0.707  0.00  0.00    -0.075 A 
ATOM      5  S   UNL d   1       1.286  -0.928   1.825  0.00  0.00     0.015 SA
ATOM      6  C4  UNL d   1       2.690   0.025   1.663  0.00  0.00     0.022 A 
ATOM      7  C5  UNL d   1       2.509   1.064   0.781  0.00  0.00     0.026 A 
ATOM      8  C6  UNL d   1       1.189   1.093   0.216  0.00  0.00    -0.082 A 
ATOM      9  C7  UNL d   1       0.605   1.984  -0.717  0.00  0.00     0.045 A 
ENDROOT
TORSDOF 0
ENDMDL
