MODEL 1
REMARK minimizedAffinity -1.67071319
REMARK minimizedRMSD -1
REMARK  0 active torsions:
REMARK  status: ('A' for Active; 'I' for Inactive)
ROOT
ATOM      1  C   UNL d   1       2.384   1.194   0.108  0.00  0.00    -0.002 A 
ATOM      2  C1  UNL d   1       2.237   0.246   1.111  0.00  0.00     0.010 A 
ATOM      3  C2  UNL d   1       1.040  -0.458   1.253  0.00  0.00     0.041 A 
ATOM      4  C3  UNL d   1      -0.017  -0.193   0.360  0.00  0.00    -0.075 A 
ATOM      5  S   UNL d   1      -1.573  -0.934   0.342  0.00  0.00     0.015 SA
ATOM      6  C4  UNL d   1      -2.080  -0.011  -0.999  0.00  0.00     0.022 A 
ATOM      7  C5  UNL d   1      -1.098   0.847  -1.434  0.00  0.00     0.026 A 
ATOM      8  C6  UNL d   1       0.107   0.756  -0.659  0.00  0.00    -0.082 A 
ATOM      9  C7  UNL d   1       1.333   1.454  -0.776  0.00  0.00     0.045 A 
ENDROOT
TORSDOF 0
ENDMDL
