MODEL 1
REMARK minimizedAffinity -4.97544193
REMARK minimizedRMSD -1
REMARK  0 active torsions:
REMARK  status: ('A' for Active; 'I' for Inactive)
ROOT
ATOM      1  O1  BZF d   1      -0.133  -1.112   0.613  0.00  0.00    -0.204 OA
ATOM      2  C2  BZF d   1      -0.371   0.216   0.912  0.00  0.00     0.174 A 
ATOM      3  C3  BZF d   1       0.328   1.024   0.088  0.00  0.00    -0.012 A 
ATOM      4  C3A BZF d   1       0.976   0.147  -0.838  0.00  0.00    -0.107 A 
ATOM      5  C4  BZF d   1       1.799   0.354  -1.908  0.00  0.00     0.055 A 
ATOM      6  C5  BZF d   1       2.319  -0.720  -2.558  0.00  0.00    -0.016 A 
ATOM      7  C6  BZF d   1       2.042  -2.012  -2.164  0.00  0.00     0.022 A 
ATOM      8  C7  BZF d   1       1.226  -2.267  -1.112  0.00  0.00     0.029 A 
ATOM      9  C7A BZF d   1       0.673  -1.185  -0.473  0.00  0.00     0.058 A 
ENDROOT
TORSDOF 0
ENDMDL
