MODEL 1
REMARK minimizedAffinity -4.77772284
REMARK minimizedRMSD -1
REMARK  0 active torsions:
REMARK  status: ('A' for Active; 'I' for Inactive)
ROOT
ATOM      1  O1  BZF d   1      -0.007   1.023   0.666  0.00  0.00    -0.204 OA
ATOM      2  C2  BZF d   1      -0.832  -0.059   0.902  0.00  0.00     0.174 A 
ATOM      3  C3  BZF d   1      -0.790  -0.926  -0.131  0.00  0.00    -0.012 A 
ATOM      4  C3A BZF d   1       0.188  -0.395  -1.029  0.00  0.00    -0.107 A 
ATOM      5  C4  BZF d   1       0.688  -0.815  -2.228  0.00  0.00     0.055 A 
ATOM      6  C5  BZF d   1       1.582  -0.028  -2.883  0.00  0.00    -0.016 A 
ATOM      7  C6  BZF d   1       1.994   1.185  -2.371  0.00  0.00     0.022 A 
ATOM      8  C7  BZF d   1       1.530   1.641  -1.182  0.00  0.00     0.029 A 
ATOM      9  C7A BZF d   1       0.652   0.833  -0.502  0.00  0.00     0.058 A 
ENDROOT
TORSDOF 0
ENDMDL
