MODEL 1
REMARK minimizedAffinity -3.92893934
REMARK minimizedRMSD -1
REMARK  0 active torsions:
REMARK  status: ('A' for Active; 'I' for Inactive)
ROOT
ATOM      1  O1  BZF d   1      -1.471  -0.660   0.466  0.00  0.00    -0.204 OA
ATOM      2  C2  BZF d   1      -1.627   0.355   1.391  0.00  0.00     0.174 A 
ATOM      3  C3  BZF d   1      -0.740   1.346   1.168  0.00  0.00    -0.012 A 
ATOM      4  C3A BZF d   1      -0.042   0.966  -0.022  0.00  0.00    -0.107 A 
ATOM      5  C4  BZF d   1       0.950   1.551  -0.756  0.00  0.00     0.055 A 
ATOM      6  C5  BZF d   1       1.461   0.885  -1.825  0.00  0.00    -0.016 A 
ATOM      7  C6  BZF d   1       1.008  -0.367  -2.184  0.00  0.00     0.022 A 
ATOM      8  C7  BZF d   1       0.022  -0.986  -1.490  0.00  0.00     0.029 A 
ATOM      9  C7A BZF d   1      -0.520  -0.301  -0.429  0.00  0.00     0.058 A 
ENDROOT
TORSDOF 0
ENDMDL
