MODEL 1
REMARK minimizedAffinity -5.60093021
REMARK minimizedRMSD -1
REMARK  0 active torsions:
REMARK  status: ('A' for Active; 'I' for Inactive)
ROOT
ATOM      1  O1  BZF d   1      -0.492  -0.566  -0.151  0.00  0.00    -0.204 OA
ATOM      2  C2  BZF d   1      -0.391   0.696   0.401  0.00  0.00     0.174 A 
ATOM      3  C3  BZF d   1       0.739   1.308  -0.007  0.00  0.00    -0.012 A 
ATOM      4  C3A BZF d   1       1.340   0.405  -0.941  0.00  0.00    -0.107 A 
ATOM      5  C4  BZF d   1       2.475   0.455  -1.699  0.00  0.00     0.055 A 
ATOM      6  C5  BZF d   1       2.815  -0.624  -2.451  0.00  0.00    -0.016 A 
ATOM      7  C6  BZF d   1       2.047  -1.770  -2.466  0.00  0.00     0.022 A 
ATOM      8  C7  BZF d   1       0.910  -1.865  -1.735  0.00  0.00     0.029 A 
ATOM      9  C7A BZF d   1       0.546  -0.764  -0.998  0.00  0.00     0.058 A 
ENDROOT
TORSDOF 0
ENDMDL
