MODEL 1
REMARK minimizedAffinity -5.07609606
REMARK minimizedRMSD -1
REMARK  0 active torsions:
REMARK  status: ('A' for Active; 'I' for Inactive)
ROOT
ATOM      1  O1  BZF d   1      -0.162  -1.092   0.521  0.00  0.00    -0.204 OA
ATOM      2  C2  BZF d   1      -0.608   0.201   0.713  0.00  0.00     0.174 A 
ATOM      3  C3  BZF d   1      -0.125   1.021  -0.243  0.00  0.00    -0.012 A 
ATOM      4  C3A BZF d   1       0.599   0.170  -1.137  0.00  0.00    -0.107 A 
ATOM      5  C4  BZF d   1       1.294   0.395  -2.291  0.00  0.00     0.055 A 
ATOM      6  C5  BZF d   1       1.947  -0.640  -2.881  0.00  0.00    -0.016 A 
ATOM      7  C6  BZF d   1       1.931  -1.910  -2.343  0.00  0.00     0.022 A 
ATOM      8  C7  BZF d   1       1.252  -2.183  -1.202  0.00  0.00     0.029 A 
ATOM      9  C7A BZF d   1       0.564  -1.146  -0.621  0.00  0.00     0.058 A 
ENDROOT
TORSDOF 0
ENDMDL
