MODEL 1
REMARK minimizedAffinity -2.98730588
REMARK minimizedRMSD -1
REMARK  0 active torsions:
REMARK  status: ('A' for Active; 'I' for Inactive)
ROOT
ATOM      1  O1  BZF d   1       0.168   0.482   1.593  0.00  0.00    -0.204 OA
ATOM      2  C2  BZF d   1       0.683   1.719   1.256  0.00  0.00     0.174 A 
ATOM      3  C3  BZF d   1       1.094   1.732  -0.028  0.00  0.00    -0.012 A 
ATOM      4  C3A BZF d   1       0.734   0.450  -0.552  0.00  0.00    -0.107 A 
ATOM      5  C4  BZF d   1       0.867  -0.133  -1.780  0.00  0.00     0.055 A 
ATOM      6  C5  BZF d   1       0.479  -1.425  -1.943  0.00  0.00    -0.016 A 
ATOM      7  C6  BZF d   1      -0.040  -2.164  -0.900  0.00  0.00     0.022 A 
ATOM      8  C7  BZF d   1      -0.196  -1.627   0.335  0.00  0.00     0.029 A 
ATOM      9  C7A BZF d   1       0.165  -0.311   0.494  0.00  0.00     0.058 A 
ENDROOT
TORSDOF 0
ENDMDL
