MODEL 1
REMARK minimizedAffinity -4.27518463
REMARK minimizedRMSD -1
REMARK  0 active torsions:
REMARK  status: ('A' for Active; 'I' for Inactive)
ROOT
ATOM      1  O1  BZF d   1      -1.446  -0.303  -0.359  0.00  0.00    -0.204 OA
ATOM      2  C2  BZF d   1      -1.326   0.258   0.898  0.00  0.00     0.174 A 
ATOM      3  C3  BZF d   1      -0.109   0.816   1.059  0.00  0.00    -0.012 A 
ATOM      4  C3A BZF d   1       0.541   0.672  -0.207  0.00  0.00    -0.107 A 
ATOM      5  C4  BZF d   1       1.768   1.043  -0.680  0.00  0.00     0.055 A 
ATOM      6  C5  BZF d   1       2.124   0.687  -1.942  0.00  0.00    -0.016 A 
ATOM      7  C6  BZF d   1       1.282  -0.043  -2.756  0.00  0.00     0.022 A 
ATOM      8  C7  BZF d   1       0.054  -0.429  -2.332  0.00  0.00     0.029 A 
ATOM      9  C7A BZF d   1      -0.322  -0.043  -1.069  0.00  0.00     0.058 A 
ENDROOT
TORSDOF 0
ENDMDL
