MODEL 1
REMARK minimizedAffinity -4.00289249
REMARK minimizedRMSD -1
REMARK  0 active torsions:
REMARK  status: ('A' for Active; 'I' for Inactive)
ROOT
ATOM      1  O1  BZF d   1      -1.767  -0.476  -0.768  0.00  0.00    -0.204 OA
ATOM      2  C2  BZF d   1      -1.868  -0.042   0.539  0.00  0.00     0.174 A 
ATOM      3  C3  BZF d   1      -0.752   0.617   0.911  0.00  0.00    -0.012 A 
ATOM      4  C3A BZF d   1       0.062   0.674  -0.264  0.00  0.00    -0.107 A 
ATOM      5  C4  BZF d   1       1.286   1.216  -0.534  0.00  0.00     0.055 A 
ATOM      6  C5  BZF d   1       1.832   1.033  -1.765  0.00  0.00    -0.016 A 
ATOM      7  C6  BZF d   1       1.186   0.311  -2.746  0.00  0.00     0.022 A 
ATOM      8  C7  BZF d   1      -0.032  -0.241  -2.527  0.00  0.00     0.029 A 
ATOM      9  C7A BZF d   1      -0.602  -0.030  -1.296  0.00  0.00     0.058 A 
ENDROOT
TORSDOF 0
ENDMDL
