MODEL 1
REMARK minimizedAffinity -2.76162815
REMARK minimizedRMSD -1
REMARK  0 active torsions:
REMARK  status: ('A' for Active; 'I' for Inactive)
ROOT
ATOM      1  O1  BZF d   1       1.096  -0.023  -2.093  0.00  0.00    -0.204 OA
ATOM      2  C2  BZF d   1       1.530   1.279  -2.251  0.00  0.00     0.174 A 
ATOM      3  C3  BZF d   1       1.161   2.037  -1.198  0.00  0.00    -0.012 A 
ATOM      4  C3A BZF d   1       0.532   1.132  -0.285  0.00  0.00    -0.107 A 
ATOM      5  C4  BZF d   1      -0.029   1.284   0.951  0.00  0.00     0.055 A 
ATOM      6  C5  BZF d   1      -0.622   0.214   1.543  0.00  0.00    -0.016 A 
ATOM      7  C6  BZF d   1      -0.676  -1.019   0.927  0.00  0.00     0.022 A 
ATOM      8  C7  BZF d   1      -0.128  -1.220  -0.296  0.00  0.00     0.029 A 
ATOM      9  C7A BZF d   1       0.500  -0.149  -0.883  0.00  0.00     0.058 A 
ENDROOT
TORSDOF 0
ENDMDL
