MODEL 1
REMARK minimizedAffinity -1.14560497
REMARK minimizedRMSD -1
REMARK  0 active torsions:
REMARK  status: ('A' for Active; 'I' for Inactive)
ROOT
ATOM      1  O1  BZF d   1       1.729   0.712  -1.656  0.00  0.00    -0.204 OA
ATOM      2  C2  BZF d   1       1.473  -0.426  -2.398  0.00  0.00     0.174 A 
ATOM      3  C3  BZF d   1       0.504  -1.165  -1.820  0.00  0.00    -0.012 A 
ATOM      4  C3A BZF d   1       0.067  -0.399  -0.693  0.00  0.00    -0.107 A 
ATOM      5  C4  BZF d   1      -0.885  -0.597   0.265  0.00  0.00     0.055 A 
ATOM      6  C5  BZF d   1      -1.011   0.310   1.269  0.00  0.00    -0.016 A 
ATOM      7  C6  BZF d   1      -0.199   1.422   1.349  0.00  0.00     0.022 A 
ATOM      8  C7  BZF d   1       0.756   1.664   0.419  0.00  0.00     0.029 A 
ATOM      9  C7A BZF d   1       0.864   0.767  -0.615  0.00  0.00     0.058 A 
ENDROOT
TORSDOF 0
ENDMDL
