MODEL 1
REMARK minimizedAffinity -4.49014521
REMARK minimizedRMSD -1
REMARK  0 active torsions:
REMARK  status: ('A' for Active; 'I' for Inactive)
ROOT
ATOM      1  O1  BZF d   1       1.562   0.793  -2.707  0.00  0.00    -0.204 OA
ATOM      2  C2  BZF d   1       1.078  -0.313  -3.379  0.00  0.00     0.174 A 
ATOM      3  C3  BZF d   1       0.411  -1.130  -2.539  0.00  0.00    -0.012 A 
ATOM      4  C3A BZF d   1       0.403  -0.449  -1.280  0.00  0.00    -0.107 A 
ATOM      5  C4  BZF d   1      -0.122  -0.747  -0.055  0.00  0.00     0.055 A 
ATOM      6  C5  BZF d   1       0.110   0.095   0.986  0.00  0.00    -0.016 A 
ATOM      7  C6  BZF d   1       0.865   1.240   0.838  0.00  0.00     0.022 A 
ATOM      8  C7  BZF d   1       1.402   1.580  -0.359  0.00  0.00     0.029 A 
ATOM      9  C7A BZF d   1       1.142   0.748  -1.420  0.00  0.00     0.058 A 
ENDROOT
TORSDOF 0
ENDMDL
