MODEL 1
REMARK minimizedAffinity -1.60027277
REMARK minimizedRMSD -1
REMARK  0 active torsions:
REMARK  status: ('A' for Active; 'I' for Inactive)
ROOT
ATOM      1  O1  BZF d   1      -1.434  -1.205  -0.101  0.00  0.00    -0.204 OA
ATOM      2  C2  BZF d   1      -0.126  -0.830   0.137  0.00  0.00     0.174 A 
ATOM      3  C3  BZF d   1      -0.060   0.061   1.147  0.00  0.00    -0.012 A 
ATOM      4  C3A BZF d   1      -1.401   0.184   1.629  0.00  0.00    -0.107 A 
ATOM      5  C4  BZF d   1      -1.975   0.909   2.634  0.00  0.00     0.055 A 
ATOM      6  C5  BZF d   1      -3.324   0.861   2.796  0.00  0.00    -0.016 A 
ATOM      7  C6  BZF d   1      -4.128   0.104   1.969  0.00  0.00     0.022 A 
ATOM      8  C7  BZF d   1      -3.604  -0.636   0.962  0.00  0.00     0.029 A 
ATOM      9  C7A BZF d   1      -2.238  -0.616   0.817  0.00  0.00     0.058 A 
ENDROOT
TORSDOF 0
ENDMDL
