MODEL 1
REMARK minimizedAffinity -4.25275421
REMARK minimizedRMSD -1
REMARK  0 active torsions:
REMARK  status: ('A' for Active; 'I' for Inactive)
ROOT
ATOM      1  O1  BZF d   1      -0.035  -0.520   0.275  0.00  0.00    -0.204 OA
ATOM      2  C2  BZF d   1      -0.066   0.824   0.589  0.00  0.00     0.174 A 
ATOM      3  C3  BZF d   1       0.746   1.526  -0.228  0.00  0.00    -0.012 A 
ATOM      4  C3A BZF d   1       1.250   0.572  -1.167  0.00  0.00    -0.107 A 
ATOM      5  C4  BZF d   1       2.093   0.663  -2.238  0.00  0.00     0.055 A 
ATOM      6  C5  BZF d   1       2.441  -0.470  -2.903  0.00  0.00    -0.016 A 
ATOM      7  C6  BZF d   1       1.970  -1.709  -2.522  0.00  0.00     0.022 A 
ATOM      8  C7  BZF d   1       1.128  -1.849  -1.470  0.00  0.00     0.029 A 
ATOM      9  C7A BZF d   1       0.748  -0.703  -0.816  0.00  0.00     0.058 A 
ENDROOT
TORSDOF 0
ENDMDL
