MODEL 1
REMARK minimizedAffinity -1.78422654
REMARK minimizedRMSD -1
REMARK  0 active torsions:
REMARK  status: ('A' for Active; 'I' for Inactive)
ROOT
ATOM      1  O1  BZF d   1      -0.150  -2.054   1.297  0.00  0.00    -0.204 OA
ATOM      2  C2  BZF d   1       0.322  -2.964   0.372  0.00  0.00     0.174 A 
ATOM      3  C3  BZF d   1       0.581  -2.359  -0.805  0.00  0.00    -0.012 A 
ATOM      4  C3A BZF d   1       0.339  -0.968  -0.575  0.00  0.00    -0.107 A 
ATOM      5  C4  BZF d   1       0.437   0.145  -1.360  0.00  0.00     0.055 A 
ATOM      6  C5  BZF d   1       0.056   1.347  -0.853  0.00  0.00    -0.016 A 
ATOM      7  C6  BZF d   1      -0.432   1.471   0.432  0.00  0.00     0.022 A 
ATOM      8  C7  BZF d   1      -0.543   0.397   1.250  0.00  0.00     0.029 A 
ATOM      9  C7A BZF d   1      -0.128  -0.814   0.751  0.00  0.00     0.058 A 
ENDROOT
TORSDOF 0
ENDMDL
