MODEL 1
REMARK minimizedAffinity -5.37733078
REMARK minimizedRMSD -1
REMARK  0 active torsions:
REMARK  status: ('A' for Active; 'I' for Inactive)
ROOT
ATOM      1  O1  BZF d   1      -0.185  -0.963   0.648  0.00  0.00    -0.204 OA
ATOM      2  C2  BZF d   1      -0.379   0.374   0.935  0.00  0.00     0.174 A 
ATOM      3  C3  BZF d   1       0.228   1.154   0.017  0.00  0.00    -0.012 A 
ATOM      4  C3A BZF d   1       0.761   0.248  -0.953  0.00  0.00    -0.107 A 
ATOM      5  C4  BZF d   1       1.460   0.419  -2.113  0.00  0.00     0.055 A 
ATOM      6  C5  BZF d   1       1.897  -0.676  -2.789  0.00  0.00    -0.016 A 
ATOM      7  C6  BZF d   1       1.657  -1.955  -2.332  0.00  0.00     0.022 A 
ATOM      8  C7  BZF d   1       0.964  -2.176  -1.188  0.00  0.00     0.029 A 
ATOM      9  C7A BZF d   1       0.493  -1.072  -0.520  0.00  0.00     0.058 A 
ENDROOT
TORSDOF 0
ENDMDL
