MODEL 1
REMARK minimizedAffinity -4.68593645
REMARK minimizedRMSD -1
REMARK  0 active torsions:
REMARK  status: ('A' for Active; 'I' for Inactive)
ROOT
ATOM      1  O1  BZF d   1       0.005  -1.809   0.282  0.00  0.00    -0.204 OA
ATOM      2  C2  BZF d   1      -0.341  -1.343   1.536  0.00  0.00     0.174 A 
ATOM      3  C3  BZF d   1      -0.121  -0.016   1.631  0.00  0.00    -0.012 A 
ATOM      4  C3A BZF d   1       0.308   0.388   0.327  0.00  0.00    -0.107 A 
ATOM      5  C4  BZF d   1       0.662   1.591  -0.214  0.00  0.00     0.055 A 
ATOM      6  C5  BZF d   1       1.102   1.633  -1.499  0.00  0.00    -0.016 A 
ATOM      7  C6  BZF d   1       1.206   0.493  -2.269  0.00  0.00     0.022 A 
ATOM      8  C7  BZF d   1       0.861  -0.722  -1.778  0.00  0.00     0.029 A 
ATOM      9  C7A BZF d   1       0.385  -0.764  -0.490  0.00  0.00     0.058 A 
ENDROOT
TORSDOF 0
ENDMDL
