MODEL 1
REMARK minimizedAffinity -2.85291815
REMARK minimizedRMSD -1
REMARK  0 active torsions:
REMARK  status: ('A' for Active; 'I' for Inactive)
ROOT
ATOM      1  C2' OXE d   1      -5.768   1.771   1.111  0.00  0.00     0.078 C 
ATOM      2  C1' OXE d   1      -2.991   2.060   0.820  0.00  0.00     0.078 C 
ATOM      3  C1  OXE d   1      -3.817   1.902  -0.433  0.00  0.00    -0.078 A 
ATOM      4  C2  OXE d   1      -5.169   1.715  -0.278  0.00  0.00    -0.078 A 
ATOM      5  C3  OXE d   1      -5.985   1.619  -1.402  0.00  0.00     0.003 A 
ATOM      6  C4  OXE d   1      -5.422   1.558  -2.683  0.00  0.00    -0.002 A 
ATOM      7  C5  OXE d   1      -4.042   1.707  -2.860  0.00  0.00    -0.002 A 
ATOM      8  C6  OXE d   1      -3.232   1.922  -1.751  0.00  0.00     0.003 A 
ENDROOT
TORSDOF 0
ENDMDL
