MODEL 1
REMARK minimizedAffinity 8.17075634
REMARK minimizedRMSD -1
REMARK  0 active torsions:
REMARK  status: ('A' for Active; 'I' for Inactive)
ROOT
ATOM      1  C2' OXE d   1       2.357  -4.364   5.043  0.00  0.00     0.078 C 
ATOM      2  C1' OXE d   1       4.498  -3.612   3.391  0.00  0.00     0.078 C 
ATOM      3  C1  OXE d   1       3.186  -2.890   3.214  0.00  0.00    -0.078 A 
ATOM      4  C2  OXE d   1       2.131  -3.297   3.995  0.00  0.00    -0.078 A 
ATOM      5  C3  OXE d   1       0.913  -2.628   3.910  0.00  0.00     0.003 A 
ATOM      6  C4  OXE d   1       0.709  -1.648   2.931  0.00  0.00    -0.002 A 
ATOM      7  C5  OXE d   1       1.759  -1.247   2.098  0.00  0.00    -0.002 A 
ATOM      8  C6  OXE d   1       3.013  -1.827   2.256  0.00  0.00     0.003 A 
ENDROOT
TORSDOF 0
ENDMDL
