MODEL 1
REMARK minimizedAffinity -0.615255475
REMARK minimizedRMSD -1
REMARK  0 active torsions:
REMARK  status: ('A' for Active; 'I' for Inactive)
ROOT
ATOM      1  C2' OXE d   1       2.747  -6.000  -4.525  0.00  0.00     0.078 C 
ATOM      2  C1' OXE d   1       5.554  -5.979  -4.535  0.00  0.00     0.078 C 
ATOM      3  C1  OXE d   1       4.856  -5.981  -3.198  0.00  0.00    -0.078 A 
ATOM      4  C2  OXE d   1       3.482  -5.944  -3.203  0.00  0.00    -0.078 A 
ATOM      5  C3  OXE d   1       2.787  -6.000  -1.998  0.00  0.00     0.003 A 
ATOM      6  C4  OXE d   1       3.474  -5.938  -0.780  0.00  0.00    -0.002 A 
ATOM      7  C5  OXE d   1       4.873  -5.935  -0.753  0.00  0.00    -0.002 A 
ATOM      8  C6  OXE d   1       5.577  -6.000  -1.950  0.00  0.00     0.003 A 
ENDROOT
TORSDOF 0
ENDMDL
