MODEL 1
REMARK minimizedAffinity 3.74387622
REMARK minimizedRMSD -1
REMARK  0 active torsions:
REMARK  status: ('A' for Active; 'I' for Inactive)
ROOT
ATOM      1  C2' OXE d   1       2.330  -2.071   2.767  0.00  0.00     0.078 C 
ATOM      2  C1' OXE d   1       4.168  -3.147   4.597  0.00  0.00     0.078 C 
ATOM      3  C1  OXE d   1       2.812  -3.801   4.494  0.00  0.00    -0.078 A 
ATOM      4  C2  OXE d   1       1.903  -3.239   3.630  0.00  0.00    -0.078 A 
ATOM      5  C3  OXE d   1       0.658  -3.835   3.457  0.00  0.00     0.003 A 
ATOM      6  C4  OXE d   1       0.267  -4.909   4.266  0.00  0.00    -0.002 A 
ATOM      7  C5  OXE d   1       1.163  -5.471   5.181  0.00  0.00    -0.002 A 
ATOM      8  C6  OXE d   1       2.452  -4.957   5.277  0.00  0.00     0.003 A 
ENDROOT
TORSDOF 0
ENDMDL
