MODEL 1
REMARK minimizedAffinity 7.3717804
REMARK minimizedRMSD -1
REMARK  0 active torsions:
REMARK  status: ('A' for Active; 'I' for Inactive)
ROOT
ATOM      1  C2' OXE d   1       1.430  -1.035   2.098  0.00  0.00     0.078 C 
ATOM      2  C1' OXE d   1       1.792  -0.756   4.868  0.00  0.00     0.078 C 
ATOM      3  C1  OXE d   1       1.922  -2.138   4.277  0.00  0.00    -0.078 A 
ATOM      4  C2  OXE d   1       1.697  -2.272   2.928  0.00  0.00    -0.078 A 
ATOM      5  C3  OXE d   1       1.857  -3.515   2.323  0.00  0.00     0.003 A 
ATOM      6  C4  OXE d   1       2.093  -4.656   3.099  0.00  0.00    -0.002 A 
ATOM      7  C5  OXE d   1       2.286  -4.548   4.480  0.00  0.00    -0.002 A 
ATOM      8  C6  OXE d   1       2.246  -3.293   5.078  0.00  0.00     0.003 A 
ENDROOT
TORSDOF 0
ENDMDL
