MODEL 1
REMARK minimizedAffinity 9.17952728
REMARK minimizedRMSD -1
REMARK  0 active torsions:
REMARK  status: ('A' for Active; 'I' for Inactive)
ROOT
ATOM      1  C2' OXE d   1      -5.777   5.502   0.063  0.00  0.00     0.078 C 
ATOM      2  C1' OXE d   1      -5.091   4.554   2.615  0.00  0.00     0.078 C 
ATOM      3  C1  OXE d   1      -5.388   3.536   1.543  0.00  0.00    -0.078 A 
ATOM      4  C2  OXE d   1      -5.768   4.009   0.310  0.00  0.00    -0.078 A 
ATOM      5  C3  OXE d   1      -6.000   3.113  -0.730  0.00  0.00     0.003 A 
ATOM      6  C4  OXE d   1      -5.999   1.733  -0.491  0.00  0.00    -0.002 A 
ATOM      7  C5  OXE d   1      -5.653   1.231   0.768  0.00  0.00    -0.002 A 
ATOM      8  C6  OXE d   1      -5.304   2.116   1.782  0.00  0.00     0.003 A 
ENDROOT
TORSDOF 0
ENDMDL
