MODEL 1
REMARK minimizedAffinity 8.10668182
REMARK minimizedRMSD -1
REMARK  0 active torsions:
REMARK  status: ('A' for Active; 'I' for Inactive)
ROOT
ATOM      1  C2' OXE d   1      -4.881   1.862  -3.176  0.00  0.00     0.078 C 
ATOM      2  C1' OXE d   1      -2.537   2.619  -1.831  0.00  0.00     0.078 C 
ATOM      3  C1  OXE d   1      -3.729   2.222  -0.997  0.00  0.00    -0.078 A 
ATOM      4  C2  OXE d   1      -4.886   1.898  -1.663  0.00  0.00    -0.078 A 
ATOM      5  C3  OXE d   1      -5.999   1.471  -0.943  0.00  0.00     0.003 A 
ATOM      6  C4  OXE d   1      -5.998   1.517   0.456  0.00  0.00    -0.002 A 
ATOM      7  C5  OXE d   1      -4.842   1.882   1.154  0.00  0.00    -0.002 A 
ATOM      8  C6  OXE d   1      -3.688   2.196   0.444  0.00  0.00     0.003 A 
ENDROOT
TORSDOF 0
ENDMDL
