MODEL 1
REMARK minimizedAffinity 6.54587889
REMARK minimizedRMSD -1
REMARK  1 active torsions:
REMARK  status: ('A' for Active; 'I' for Inactive)
REMARK    1  A    between atoms: C1_2  and  C2_3 
ROOT
ATOM      1  C2  UNL d   1       1.512   0.881  -3.232  0.00  0.00    -0.081 A 
ATOM      2  C3  UNL d   1       0.550  -0.108  -3.470  0.00  0.00     0.006 A 
ATOM      3  C4  UNL d   1      -0.795   0.235  -3.625  0.00  0.00     0.002 A 
ATOM      4  C5  UNL d   1      -1.199   1.573  -3.551  0.00  0.00    -0.080 A 
ATOM      5  C6  UNL d   1      -2.635   1.958  -3.746  0.00  0.00     0.076 C 
ATOM      6  C7  UNL d   1      -0.240   2.559  -3.296  0.00  0.00     0.002 A 
ATOM      7  C8  UNL d   1       1.105   2.216  -3.140  0.00  0.00     0.006 A 
ENDROOT
BRANCH   1   8
ATOM      8  C1  UNL d   1       2.972   0.520  -3.129  0.00  0.00     0.054 C 
ATOM      9  C   UNL d   1       3.268  -0.797  -3.832  0.00  0.00     0.018 C 
ENDBRANCH   1   8
TORSDOF 1
ENDMDL
