MODEL 1
REMARK minimizedAffinity 4.55365992
REMARK minimizedRMSD -1
REMARK  1 active torsions:
REMARK  status: ('A' for Active; 'I' for Inactive)
REMARK    1  A    between atoms: C1_2  and  C2_3 
ROOT
ATOM      1  C2  UNL d   1      -2.196   1.116  -2.175  0.00  0.00    -0.081 A 
ATOM      2  C3  UNL d   1      -2.458   0.745  -0.850  0.00  0.00     0.006 A 
ATOM      3  C4  UNL d   1      -1.477   0.892   0.134  0.00  0.00     0.002 A 
ATOM      4  C5  UNL d   1      -0.222   1.419  -0.188  0.00  0.00    -0.080 A 
ATOM      5  C6  UNL d   1       0.829   1.610   0.864  0.00  0.00     0.076 C 
ATOM      6  C7  UNL d   1       0.046   1.773  -1.515  0.00  0.00     0.002 A 
ATOM      7  C8  UNL d   1      -0.934   1.626  -2.499  0.00  0.00     0.006 A 
ENDROOT
BRANCH   1   8
ATOM      8  C1  UNL d   1      -3.273   1.020  -3.225  0.00  0.00     0.054 C 
ATOM      9  C   UNL d   1      -2.693   1.158  -4.626  0.00  0.00     0.018 C 
ENDBRANCH   1   8
TORSDOF 1
ENDMDL
