MODEL 1
REMARK minimizedAffinity 2.354913
REMARK minimizedRMSD -1
REMARK  1 active torsions:
REMARK  status: ('A' for Active; 'I' for Inactive)
REMARK    1  A    between atoms: C1_2  and  C2_3 
ROOT
ATOM      1  C2  UNL d   1       0.926   0.695  -3.275  0.00  0.00    -0.081 A 
ATOM      2  C3  UNL d   1       0.237  -0.458  -3.672  0.00  0.00     0.006 A 
ATOM      3  C4  UNL d   1      -1.125  -0.398  -3.977  0.00  0.00     0.002 A 
ATOM      4  C5  UNL d   1      -1.817   0.814  -3.900  0.00  0.00    -0.080 A 
ATOM      5  C6  UNL d   1      -3.272   0.898  -4.255  0.00  0.00     0.076 C 
ATOM      6  C7  UNL d   1      -1.133   1.963  -3.487  0.00  0.00     0.002 A 
ATOM      7  C8  UNL d   1       0.228   1.904  -3.180  0.00  0.00     0.006 A 
ENDROOT
BRANCH   1   8
ATOM      8  C1  UNL d   1       2.409   0.647  -3.007  0.00  0.00     0.054 C 
ATOM      9  C   UNL d   1       3.054  -0.556  -3.680  0.00  0.00     0.018 C 
ENDBRANCH   1   8
TORSDOF 1
ENDMDL
