MODEL 1
REMARK minimizedAffinity 5.80046511
REMARK minimizedRMSD -1
REMARK  1 active torsions:
REMARK  status: ('A' for Active; 'I' for Inactive)
REMARK    1  A    between atoms: C1_2  and  C2_3 
ROOT
ATOM      1  C2  UNL d   1       2.771   2.107  -4.175  0.00  0.00    -0.081 A 
ATOM      2  C3  UNL d   1       2.809   2.953  -5.290  0.00  0.00     0.006 A 
ATOM      3  C4  UNL d   1       1.935   4.038  -5.386  0.00  0.00     0.002 A 
ATOM      4  C5  UNL d   1       1.015   4.301  -4.365  0.00  0.00    -0.080 A 
ATOM      5  C6  UNL d   1       0.092   5.480  -4.440  0.00  0.00     0.076 C 
ATOM      6  C7  UNL d   1       0.965   3.445  -3.259  0.00  0.00     0.002 A 
ATOM      7  C8  UNL d   1       1.839   2.359  -3.163  0.00  0.00     0.006 A 
ENDROOT
BRANCH   1   8
ATOM      8  C1  UNL d   1       3.756   0.974  -4.039  0.00  0.00     0.054 C 
ATOM      9  C   UNL d   1       3.373   0.042  -2.898  0.00  0.00     0.018 C 
ENDBRANCH   1   8
TORSDOF 1
ENDMDL
