MODEL 1
REMARK minimizedAffinity 9.41684818
REMARK minimizedRMSD -1
REMARK  1 active torsions:
REMARK  status: ('A' for Active; 'I' for Inactive)
REMARK    1  A    between atoms: C1_2  and  C2_3 
ROOT
ATOM      1  C2  UNL d   1      -1.180  -5.944   1.277  0.00  0.00    -0.081 A 
ATOM      2  C3  UNL d   1      -0.861  -5.968   2.640  0.00  0.00     0.006 A 
ATOM      3  C4  UNL d   1       0.473  -5.998   3.054  0.00  0.00     0.002 A 
ATOM      4  C5  UNL d   1       1.509  -5.996   2.114  0.00  0.00    -0.080 A 
ATOM      5  C6  UNL d   1       2.945  -5.998   2.545  0.00  0.00     0.076 C 
ATOM      6  C7  UNL d   1       1.189  -5.990   0.752  0.00  0.00     0.002 A 
ATOM      7  C8  UNL d   1      -0.145  -5.961   0.337  0.00  0.00     0.006 A 
ENDROOT
BRANCH   1   8
ATOM      8  C1  UNL d   1      -2.616  -5.846   0.829  0.00  0.00     0.054 C 
ATOM      9  C   UNL d   1      -3.091  -4.400   0.803  0.00  0.00     0.018 C 
ENDBRANCH   1   8
TORSDOF 1
ENDMDL
