MODEL 1
REMARK minimizedAffinity 13.0495062
REMARK minimizedRMSD -1
REMARK  1 active torsions:
REMARK  status: ('A' for Active; 'I' for Inactive)
REMARK    1  A    between atoms: C1_2  and  C2_3 
ROOT
ATOM      1  C2  UNL d   1       0.397  -5.415   1.670  0.00  0.00    -0.081 A 
ATOM      2  C3  UNL d   1       0.731  -4.267   2.400  0.00  0.00     0.006 A 
ATOM      3  C4  UNL d   1       2.005  -3.706   2.293  0.00  0.00     0.002 A 
ATOM      4  C5  UNL d   1       2.965  -4.278   1.451  0.00  0.00    -0.080 A 
ATOM      5  C6  UNL d   1       4.327  -3.668   1.304  0.00  0.00     0.076 C 
ATOM      6  C7  UNL d   1       2.637  -5.435   0.735  0.00  0.00     0.002 A 
ATOM      7  C8  UNL d   1       1.363  -5.997   0.842  0.00  0.00     0.006 A 
ENDROOT
BRANCH   1   8
ATOM      8  C1  UNL d   1      -0.997  -5.985   1.733  0.00  0.00     0.054 C 
ATOM      9  C   UNL d   1      -1.931  -5.269   0.768  0.00  0.00     0.018 C 
ENDBRANCH   1   8
TORSDOF 1
ENDMDL
