MODEL 1
REMARK minimizedAffinity 12.0875807
REMARK minimizedRMSD -1
REMARK  1 active torsions:
REMARK  status: ('A' for Active; 'I' for Inactive)
REMARK    1  A    between atoms: C1_2  and  C2_3 
ROOT
ATOM      1  C2  UNL d   1       3.344   2.191   0.458  0.00  0.00    -0.081 A 
ATOM      2  C3  UNL d   1       2.877   1.496   1.581  0.00  0.00     0.006 A 
ATOM      3  C4  UNL d   1       3.725   0.640   2.287  0.00  0.00     0.002 A 
ATOM      4  C5  UNL d   1       5.055   0.470   1.887  0.00  0.00    -0.080 A 
ATOM      5  C6  UNL d   1       5.984  -0.423   2.655  0.00  0.00     0.076 C 
ATOM      6  C7  UNL d   1       5.516   1.150   0.755  0.00  0.00     0.002 A 
ATOM      7  C8  UNL d   1       4.669   2.006   0.048  0.00  0.00     0.006 A 
ENDROOT
BRANCH   1   8
ATOM      8  C1  UNL d   1       2.450   3.164  -0.267  0.00  0.00     0.054 C 
ATOM      9  C   UNL d   1       2.993   4.584  -0.181  0.00  0.00     0.018 C 
ENDBRANCH   1   8
TORSDOF 1
ENDMDL
