MODEL 1
REMARK minimizedAffinity 2.88089609
REMARK minimizedRMSD -1
REMARK  1 active torsions:
REMARK  status: ('A' for Active; 'I' for Inactive)
REMARK    1  A    between atoms: C1_2  and  C2_3 
ROOT
ATOM      1  C2  UNL d   1       0.458   1.359  -0.404  0.00  0.00    -0.081 A 
ATOM      2  C3  UNL d   1       1.465   1.089  -1.339  0.00  0.00     0.006 A 
ATOM      3  C4  UNL d   1       2.802   1.021  -0.940  0.00  0.00     0.002 A 
ATOM      4  C5  UNL d   1       3.153   1.213   0.401  0.00  0.00    -0.080 A 
ATOM      5  C6  UNL d   1       4.582   1.113   0.847  0.00  0.00     0.076 C 
ATOM      6  C7  UNL d   1       2.149   1.501   1.332  0.00  0.00     0.002 A 
ATOM      7  C8  UNL d   1       0.813   1.569   0.933  0.00  0.00     0.006 A 
ENDROOT
BRANCH   1   8
ATOM      8  C1  UNL d   1      -0.991   1.369  -0.819  0.00  0.00     0.054 C 
ATOM      9  C   UNL d   1      -1.912   1.225   0.384  0.00  0.00     0.018 C 
ENDBRANCH   1   8
TORSDOF 1
ENDMDL
