MODEL 1
REMARK minimizedAffinity 10.03582
REMARK minimizedRMSD -1
REMARK  1 active torsions:
REMARK  status: ('A' for Active; 'I' for Inactive)
REMARK    1  A    between atoms: C1_2  and  C2_3 
ROOT
ATOM      1  C2  UNL d   1      -4.151   3.512   4.887  0.00  0.00    -0.081 A 
ATOM      2  C3  UNL d   1      -4.875   3.067   6.000  0.00  0.00     0.006 A 
ATOM      3  C4  UNL d   1      -5.485   1.810   5.991  0.00  0.00     0.002 A 
ATOM      4  C5  UNL d   1      -5.375   0.975   4.874  0.00  0.00    -0.080 A 
ATOM      5  C6  UNL d   1      -5.999  -0.388   4.863  0.00  0.00     0.076 C 
ATOM      6  C7  UNL d   1      -4.666   1.427   3.755  0.00  0.00     0.002 A 
ATOM      7  C8  UNL d   1      -4.057   2.684   3.763  0.00  0.00     0.006 A 
ENDROOT
BRANCH   1   8
ATOM      8  C1  UNL d   1      -3.438   4.840   4.918  0.00  0.00     0.054 C 
ATOM      9  C   UNL d   1      -4.079   5.789   5.919  0.00  0.00     0.018 C 
ENDBRANCH   1   8
TORSDOF 1
ENDMDL
