MODEL 1
REMARK minimizedAffinity -4.76685905
REMARK minimizedRMSD -1
REMARK  1 active torsions:
REMARK  status: ('A' for Active; 'I' for Inactive)
REMARK    1  A    between atoms: N_2  and  C1_3 
ROOT
ATOM      1  C1  UNL d   1       1.858   2.403   1.157  0.00  0.00     0.143 A 
ATOM      2  C2  UNL d   1       0.512   2.516   0.790  0.00  0.00    -0.057 A 
ATOM      3  C3  UNL d   1      -0.314   1.389   0.704  0.00  0.00     0.033 A 
ATOM      4  C4  UNL d   1       0.201   0.121   0.956  0.00  0.00    -0.042 A 
ATOM      5  C5  UNL d   1       1.541  -0.017   1.297  0.00  0.00     0.033 A 
ATOM      6  C6  UNL d   1       2.359   1.113   1.388  0.00  0.00    -0.057 A 
ENDROOT
BRANCH   1   7
ATOM      7  N   UNL d   1       2.754   3.475   1.164  0.00  0.00    -0.732 N 
ATOM      8  C   UNL d   1       3.652   3.693   0.050  0.00  0.00     0.284 C 
ATOM      9  H3  UNL d   1       2.340   4.326   1.536  0.00  0.00     0.395 HD
ENDBRANCH   1   7
TORSDOF 1
ENDMDL
