MODEL 1
REMARK minimizedAffinity -3.27840996
REMARK minimizedRMSD -1
REMARK  1 active torsions:
REMARK  status: ('A' for Active; 'I' for Inactive)
REMARK    1  A    between atoms: N_2  and  C1_3 
ROOT
ATOM      1  C1  UNL d   1      -0.501  -0.091  -0.407  0.00  0.00     0.143 A 
ATOM      2  C2  UNL d   1      -1.812  -0.394  -0.790  0.00  0.00    -0.057 A 
ATOM      3  C3  UNL d   1      -2.598  -1.285  -0.049  0.00  0.00     0.033 A 
ATOM      4  C4  UNL d   1      -2.074  -1.914   1.076  0.00  0.00    -0.042 A 
ATOM      5  C5  UNL d   1      -0.765  -1.647   1.461  0.00  0.00     0.033 A 
ATOM      6  C6  UNL d   1       0.012  -0.751   0.721  0.00  0.00    -0.057 A 
ENDROOT
BRANCH   1   7
ATOM      7  N   UNL d   1       0.363   0.710  -1.157  0.00  0.00    -0.732 N 
ATOM      8  C   UNL d   1       1.301   0.115  -2.084  0.00  0.00     0.284 C 
ATOM      9  H3  UNL d   1      -0.092   1.550  -1.507  0.00  0.00     0.395 HD
ENDBRANCH   1   7
TORSDOF 1
ENDMDL
