MODEL 1
REMARK minimizedAffinity 0.27779606
REMARK minimizedRMSD -1
REMARK  1 active torsions:
REMARK  status: ('A' for Active; 'I' for Inactive)
REMARK    1  A    between atoms: N_2  and  C1_3 
ROOT
ATOM      1  C1  UNL d   1       1.593   1.175   0.528  0.00  0.00     0.143 A 
ATOM      2  C2  UNL d   1       2.348   2.075  -0.232  0.00  0.00    -0.057 A 
ATOM      3  C3  UNL d   1       3.233   2.974   0.375  0.00  0.00     0.033 A 
ATOM      4  C4  UNL d   1       3.358   3.008   1.760  0.00  0.00    -0.042 A 
ATOM      5  C5  UNL d   1       2.599   2.140   2.537  0.00  0.00     0.033 A 
ATOM      6  C6  UNL d   1       1.722   1.240   1.924  0.00  0.00    -0.057 A 
ENDROOT
BRANCH   1   7
ATOM      7  N   UNL d   1       0.624   0.325  -0.010  0.00  0.00    -0.732 N 
ATOM      8  C   UNL d   1      -0.326  -0.348   0.850  0.00  0.00     0.284 C 
ATOM      9  H3  UNL d   1       0.220   0.691  -0.869  0.00  0.00     0.395 HD
ENDBRANCH   1   7
TORSDOF 1
ENDMDL
