MODEL 1
REMARK minimizedAffinity -3.44049668
REMARK minimizedRMSD -1
REMARK  1 active torsions:
REMARK  status: ('A' for Active; 'I' for Inactive)
REMARK    1  A    between atoms: N_2  and  C1_3 
ROOT
ATOM      1  C1  UNL d   1      -0.692  -0.132  -0.915  0.00  0.00     0.143 A 
ATOM      2  C2  UNL d   1      -0.345  -0.292   0.431  0.00  0.00    -0.057 A 
ATOM      3  C3  UNL d   1      -1.269  -0.770   1.368  0.00  0.00     0.033 A 
ATOM      4  C4  UNL d   1      -2.570  -1.070   0.979  0.00  0.00    -0.042 A 
ATOM      5  C5  UNL d   1      -2.945  -0.896  -0.348  0.00  0.00     0.033 A 
ATOM      6  C6  UNL d   1      -2.016  -0.424  -1.281  0.00  0.00    -0.057 A 
ENDROOT
BRANCH   1   7
ATOM      7  N   UNL d   1       0.152   0.432  -1.874  0.00  0.00    -0.732 N 
ATOM      8  C   UNL d   1       1.407  -0.203  -2.217  0.00  0.00     0.284 C 
ATOM      9  H3  UNL d   1      -0.359   0.800  -2.673  0.00  0.00     0.395 HD
ENDBRANCH   1   7
TORSDOF 1
ENDMDL
