MODEL 1
REMARK minimizedAffinity -1.46289039
REMARK minimizedRMSD -1
REMARK  1 active torsions:
REMARK  status: ('A' for Active; 'I' for Inactive)
REMARK    1  A    between atoms: N_2  and  C1_3 
ROOT
ATOM      1  C1  UNL d   1       0.598   0.172  -2.933  0.00  0.00     0.143 A 
ATOM      2  C2  UNL d   1       0.657   0.190  -4.331  0.00  0.00    -0.057 A 
ATOM      3  C3  UNL d   1       1.837  -0.134  -5.012  0.00  0.00     0.033 A 
ATOM      4  C4  UNL d   1       2.990  -0.454  -4.304  0.00  0.00    -0.042 A 
ATOM      5  C5  UNL d   1       2.962  -0.454  -2.914  0.00  0.00     0.033 A 
ATOM      6  C6  UNL d   1       1.779  -0.136  -2.240  0.00  0.00    -0.057 A 
ENDROOT
BRANCH   1   7
ATOM      7  N   UNL d   1      -0.517   0.580  -2.197  0.00  0.00    -0.732 N 
ATOM      8  C   UNL d   1      -1.002  -0.218  -1.091  0.00  0.00     0.284 C 
ATOM      9  H3  UNL d   1      -0.520   1.582  -2.019  0.00  0.00     0.395 HD
ENDBRANCH   1   7
TORSDOF 1
ENDMDL
