MODEL 1
REMARK minimizedAffinity -4.33230543
REMARK minimizedRMSD -1
REMARK  1 active torsions:
REMARK  status: ('A' for Active; 'I' for Inactive)
REMARK    1  A    between atoms: N_2  and  C1_3 
ROOT
ATOM      1  C1  UNL d   1      -0.151  -0.199  -0.334  0.00  0.00     0.143 A 
ATOM      2  C2  UNL d   1      -0.767  -0.663   0.834  0.00  0.00    -0.057 A 
ATOM      3  C3  UNL d   1      -2.159  -0.784   0.921  0.00  0.00     0.033 A 
ATOM      4  C4  UNL d   1      -2.964  -0.414  -0.151  0.00  0.00    -0.042 A 
ATOM      5  C5  UNL d   1      -2.375   0.073  -1.312  0.00  0.00     0.033 A 
ATOM      6  C6  UNL d   1      -0.984   0.185  -1.396  0.00  0.00    -0.057 A 
ENDROOT
BRANCH   1   7
ATOM      7  N   UNL d   1       1.222   0.036  -0.448  0.00  0.00    -0.732 N 
ATOM      8  C   UNL d   1       1.781   1.323  -0.094  0.00  0.00     0.284 C 
ATOM      9  H3  UNL d   1       1.779  -0.758  -0.141  0.00  0.00     0.395 HD
ENDBRANCH   1   7
TORSDOF 1
ENDMDL
