MODEL 1
REMARK minimizedAffinity -3.48482442
REMARK minimizedRMSD -1
REMARK  1 active torsions:
REMARK  status: ('A' for Active; 'I' for Inactive)
REMARK    1  A    between atoms: N_2  and  C1_3 
ROOT
ATOM      1  C1  UNL d   1      -0.334  -0.078   0.044  0.00  0.00     0.143 A 
ATOM      2  C2  UNL d   1      -0.876  -0.120  -1.245  0.00  0.00    -0.057 A 
ATOM      3  C3  UNL d   1      -2.202  -0.513  -1.463  0.00  0.00     0.033 A 
ATOM      4  C4  UNL d   1      -3.004  -0.899  -0.394  0.00  0.00    -0.042 A 
ATOM      5  C5  UNL d   1      -2.479  -0.889   0.893  0.00  0.00     0.033 A 
ATOM      6  C6  UNL d   1      -1.156  -0.490   1.105  0.00  0.00    -0.057 A 
ENDROOT
BRANCH   1   7
ATOM      7  N   UNL d   1       1.006   0.209   0.315  0.00  0.00    -0.732 N 
ATOM      8  C   UNL d   1       2.031  -0.058  -0.670  0.00  0.00     0.284 C 
ATOM      9  H3  UNL d   1       1.122   1.091   0.808  0.00  0.00     0.395 HD
ENDBRANCH   1   7
TORSDOF 1
ENDMDL
