MODEL 1
REMARK minimizedAffinity -4.50862932
REMARK minimizedRMSD -1
REMARK  1 active torsions:
REMARK  status: ('A' for Active; 'I' for Inactive)
REMARK    1  A    between atoms: N_2  and  C1_3 
ROOT
ATOM      1  C1  UNL d   1      -0.901  -0.662   0.431  0.00  0.00     0.143 A 
ATOM      2  C2  UNL d   1      -1.617  -0.014  -0.582  0.00  0.00    -0.057 A 
ATOM      3  C3  UNL d   1      -2.910  -0.421  -0.930  0.00  0.00     0.033 A 
ATOM      4  C4  UNL d   1      -3.502  -1.504  -0.289  0.00  0.00    -0.042 A 
ATOM      5  C5  UNL d   1      -2.800  -2.179   0.703  0.00  0.00     0.033 A 
ATOM      6  C6  UNL d   1      -1.511  -1.764   1.051  0.00  0.00    -0.057 A 
ENDROOT
BRANCH   1   7
ATOM      7  N   UNL d   1       0.426  -0.368   0.756  0.00  0.00    -0.732 N 
ATOM      8  C   UNL d   1       1.252   0.404  -0.147  0.00  0.00     0.284 C 
ATOM      9  H3  UNL d   1       0.540  -0.124   1.737  0.00  0.00     0.395 HD
ENDBRANCH   1   7
TORSDOF 1
ENDMDL
