MODEL 1
REMARK minimizedAffinity -1.42224813
REMARK minimizedRMSD -1
REMARK  1 active torsions:
REMARK  status: ('A' for Active; 'I' for Inactive)
REMARK    1  A    between atoms: N_2  and  C1_3 
ROOT
ATOM      1  C1  UNL d   1      -1.018  -1.386   0.630  0.00  0.00     0.143 A 
ATOM      2  C2  UNL d   1      -0.425  -0.292  -0.009  0.00  0.00    -0.057 A 
ATOM      3  C3  UNL d   1      -1.090   0.403  -1.026  0.00  0.00     0.033 A 
ATOM      4  C4  UNL d   1      -2.353  -0.005  -1.444  0.00  0.00    -0.042 A 
ATOM      5  C5  UNL d   1      -2.951  -1.105  -0.840  0.00  0.00     0.033 A 
ATOM      6  C6  UNL d   1      -2.284  -1.790   0.180  0.00  0.00    -0.057 A 
ENDROOT
BRANCH   1   7
ATOM      7  N   UNL d   1      -0.368  -2.178   1.580  0.00  0.00    -0.732 N 
ATOM      8  C   UNL d   1       1.064  -2.083   1.763  0.00  0.00     0.284 C 
ATOM      9  H3  UNL d   1      -0.894  -2.254   2.448  0.00  0.00     0.395 HD
ENDBRANCH   1   7
TORSDOF 1
ENDMDL
