MODEL 1
REMARK minimizedAffinity 5.64739799
REMARK minimizedRMSD -1
REMARK  0 active torsions:
REMARK  status: ('A' for Active; 'I' for Inactive)
ROOT
ATOM      1  C   UNL d   1       0.638  -1.049   0.510  0.00  0.00     0.124 A 
ATOM      2  C1  UNL d   1       0.221  -2.270  -0.001  0.00  0.00     0.062 A 
ATOM      3  C2  UNL d   1       1.138  -3.302  -0.184  0.00  0.00     0.162 A 
ATOM      4  C3  UNL d   1       2.481  -3.117   0.147  0.00  0.00    -0.034 A 
ATOM      5  C4  UNL d   1       2.892  -1.885   0.659  0.00  0.00     0.162 A 
ATOM      6  C5  UNL d   1       1.972  -0.857   0.840  0.00  0.00     0.062 A 
ATOM      7  F   UNL d   1       2.376   0.322   1.334  0.00  0.00    -0.097 F 
ATOM      8  F1  UNL d   1       4.175  -1.673   0.987  0.00  0.00    -0.096 F 
ATOM      9  I   UNL d   1       3.854  -4.656  -0.125  0.00  0.00    -0.060 I 
ATOM     10  F2  UNL d   1       0.708  -4.471  -0.679  0.00  0.00    -0.096 F 
ATOM     11  F3  UNL d   1      -1.067  -2.458  -0.322  0.00  0.00    -0.097 F 
ATOM     12  F4  UNL d   1      -0.246  -0.058   0.684  0.00  0.00    -0.092 F 
ENDROOT
TORSDOF 0
ENDMDL
