MODEL 1
REMARK minimizedAffinity 1.77591836
REMARK minimizedRMSD -1
REMARK  0 active torsions:
REMARK  status: ('A' for Active; 'I' for Inactive)
ROOT
ATOM      1  C   UNL d   1       0.383  -0.875   1.082  0.00  0.00     0.124 A 
ATOM      2  C1  UNL d   1       1.667  -0.482   0.731  0.00  0.00     0.062 A 
ATOM      3  C2  UNL d   1       2.587  -1.422   0.277  0.00  0.00     0.162 A 
ATOM      4  C3  UNL d   1       2.227  -2.765   0.169  0.00  0.00    -0.034 A 
ATOM      5  C4  UNL d   1       0.934  -3.153   0.525  0.00  0.00     0.162 A 
ATOM      6  C5  UNL d   1       0.018  -2.210   0.979  0.00  0.00     0.062 A 
ATOM      7  F   UNL d   1      -1.223  -2.592   1.318  0.00  0.00    -0.097 F 
ATOM      8  F1  UNL d   1       0.554  -4.436   0.434  0.00  0.00    -0.096 F 
ATOM      9  I   UNL d   1       3.600  -4.173  -0.510  0.00  0.00    -0.060 I 
ATOM     10  F2  UNL d   1       3.821  -1.013  -0.055  0.00  0.00    -0.096 F 
ATOM     11  F3  UNL d   1       2.023   0.807   0.831  0.00  0.00    -0.097 F 
ATOM     12  F4  UNL d   1      -0.500   0.031   1.520  0.00  0.00    -0.092 F 
ENDROOT
TORSDOF 0
ENDMDL
