MODEL 1
REMARK minimizedAffinity -1.19591343
REMARK minimizedRMSD -1
REMARK  0 active torsions:
REMARK  status: ('A' for Active; 'I' for Inactive)
ROOT
ATOM      1  C   UNL d   1       0.457  -1.050   0.783  0.00  0.00     0.124 A 
ATOM      2  C1  UNL d   1      -0.007  -2.305   0.417  0.00  0.00     0.062 A 
ATOM      3  C2  UNL d   1       0.892  -3.312   0.075  0.00  0.00     0.162 A 
ATOM      4  C3  UNL d   1       2.265  -3.067   0.100  0.00  0.00    -0.034 A 
ATOM      5  C4  UNL d   1       2.724  -1.801   0.468  0.00  0.00     0.162 A 
ATOM      6  C5  UNL d   1       1.822  -0.799   0.808  0.00  0.00     0.062 A 
ATOM      7  F   UNL d   1       2.272   0.414   1.162  0.00  0.00    -0.097 F 
ATOM      8  F1  UNL d   1       4.038  -1.532   0.502  0.00  0.00    -0.096 F 
ATOM      9  I   UNL d   1       3.612  -4.569  -0.410  0.00  0.00    -0.060 I 
ATOM     10  F2  UNL d   1       0.415  -4.516  -0.275  0.00  0.00    -0.096 F 
ATOM     11  F3  UNL d   1      -1.325  -2.550   0.391  0.00  0.00    -0.097 F 
ATOM     12  F4  UNL d   1      -0.410  -0.083   1.110  0.00  0.00    -0.092 F 
ENDROOT
TORSDOF 0
ENDMDL
