MODEL 1
REMARK minimizedAffinity 0.734455526
REMARK minimizedRMSD -1
REMARK  0 active torsions:
REMARK  status: ('A' for Active; 'I' for Inactive)
ROOT
ATOM      1  C   UNL d   1       0.105  -1.159   0.846  0.00  0.00     0.124 A 
ATOM      2  C1  UNL d   1       1.460  -0.896   0.998  0.00  0.00     0.062 A 
ATOM      3  C2  UNL d   1       2.403  -1.852   0.633  0.00  0.00     0.162 A 
ATOM      4  C3  UNL d   1       1.995  -3.080   0.112  0.00  0.00    -0.034 A 
ATOM      5  C4  UNL d   1       0.631  -3.337  -0.036  0.00  0.00     0.162 A 
ATOM      6  C5  UNL d   1      -0.308  -2.379   0.329  0.00  0.00     0.062 A 
ATOM      7  F   UNL d   1      -1.616  -2.634   0.182  0.00  0.00    -0.097 F 
ATOM      8  F1  UNL d   1       0.205  -4.508  -0.534  0.00  0.00    -0.096 F 
ATOM      9  I   UNL d   1       3.403  -4.513  -0.434  0.00  0.00    -0.060 I 
ATOM     10  F2  UNL d   1       3.705  -1.571   0.791  0.00  0.00    -0.096 F 
ATOM     11  F3  UNL d   1       1.861   0.282   1.498  0.00  0.00    -0.097 F 
ATOM     12  F4  UNL d   1      -0.801  -0.237   1.198  0.00  0.00    -0.092 F 
ENDROOT
TORSDOF 0
ENDMDL
