MODEL 1
REMARK minimizedAffinity 6.761446
REMARK minimizedRMSD -1
REMARK  0 active torsions:
REMARK  status: ('A' for Active; 'I' for Inactive)
ROOT
ATOM      1  C   UNL d   1      -0.179  -1.852   0.974  0.00  0.00     0.124 A 
ATOM      2  C1  UNL d   1       0.420  -0.738   1.546  0.00  0.00     0.062 A 
ATOM      3  C2  UNL d   1       1.807  -0.644   1.607  0.00  0.00     0.162 A 
ATOM      4  C3  UNL d   1       2.606  -1.665   1.093  0.00  0.00    -0.034 A 
ATOM      5  C4  UNL d   1       1.996  -2.782   0.519  0.00  0.00     0.162 A 
ATOM      6  C5  UNL d   1       0.609  -2.872   0.461  0.00  0.00     0.062 A 
ATOM      7  F   UNL d   1       0.032  -3.949  -0.092  0.00  0.00    -0.097 F 
ATOM      8  F1  UNL d   1       2.733  -3.783   0.015  0.00  0.00    -0.096 F 
ATOM      9  I   UNL d   1       4.680  -1.527   1.182  0.00  0.00    -0.060 I 
ATOM     10  F2  UNL d   1       2.359   0.444   2.166  0.00  0.00    -0.096 F 
ATOM     11  F3  UNL d   1      -0.339   0.249   2.043  0.00  0.00    -0.097 F 
ATOM     12  F4  UNL d   1      -1.514  -1.941   0.918  0.00  0.00    -0.092 F 
ENDROOT
TORSDOF 0
ENDMDL
