MODEL 1
REMARK minimizedAffinity 9.12490273
REMARK minimizedRMSD -1
REMARK  0 active torsions:
REMARK  status: ('A' for Active; 'I' for Inactive)
ROOT
ATOM      1  C   UNL d   1       0.168  -0.768   0.905  0.00  0.00     0.124 A 
ATOM      2  C1  UNL d   1       0.535  -0.485   2.213  0.00  0.00     0.062 A 
ATOM      3  C2  UNL d   1       1.875  -0.531   2.589  0.00  0.00     0.162 A 
ATOM      4  C3  UNL d   1       2.857  -0.861   1.655  0.00  0.00    -0.034 A 
ATOM      5  C4  UNL d   1       2.479  -1.146   0.342  0.00  0.00     0.162 A 
ATOM      6  C5  UNL d   1       1.139  -1.098  -0.029  0.00  0.00     0.062 A 
ATOM      7  F   UNL d   1       0.786  -1.373  -1.293  0.00  0.00    -0.097 F 
ATOM      8  F1  UNL d   1       3.398  -1.467  -0.581  0.00  0.00    -0.096 F 
ATOM      9  I   UNL d   1       4.861  -0.931   2.214  0.00  0.00    -0.060 I 
ATOM     10  F2  UNL d   1       2.201  -0.252   3.860  0.00  0.00    -0.096 F 
ATOM     11  F3  UNL d   1      -0.402  -0.166   3.117  0.00  0.00    -0.097 F 
ATOM     12  F4  UNL d   1      -1.122  -0.724   0.546  0.00  0.00    -0.092 F 
ENDROOT
TORSDOF 0
ENDMDL
