MODEL 1
REMARK minimizedAffinity -3.26458263
REMARK minimizedRMSD -1
REMARK  0 active torsions:
REMARK  status: ('A' for Active; 'I' for Inactive)
ROOT
ATOM      1  C   UNL d   1       1.779  -2.883   0.607  0.00  0.00     0.124 A 
ATOM      2  C1  UNL d   1       0.452  -3.229   0.821  0.00  0.00     0.062 A 
ATOM      3  C2  UNL d   1      -0.478  -2.255   1.172  0.00  0.00     0.162 A 
ATOM      4  C3  UNL d   1      -0.084  -0.924   1.311  0.00  0.00    -0.034 A 
ATOM      5  C4  UNL d   1       1.252  -0.584   1.095  0.00  0.00     0.162 A 
ATOM      6  C5  UNL d   1       2.178  -1.561   0.744  0.00  0.00     0.062 A 
ATOM      7  F   UNL d   1       3.459  -1.225   0.538  0.00  0.00    -0.097 F 
ATOM      8  F1  UNL d   1       1.665   0.686   1.221  0.00  0.00    -0.096 F 
ATOM      9  I   UNL d   1      -1.471   0.536   1.837  0.00  0.00    -0.060 I 
ATOM     10  F2  UNL d   1      -1.754  -2.618   1.373  0.00  0.00    -0.096 F 
ATOM     11  F3  UNL d   1       0.064  -4.506   0.690  0.00  0.00    -0.097 F 
ATOM     12  F4  UNL d   1       2.671  -3.823   0.270  0.00  0.00    -0.092 F 
ENDROOT
TORSDOF 0
ENDMDL
