MODEL 1
REMARK minimizedAffinity 4.54939651
REMARK minimizedRMSD -1
REMARK  0 active torsions:
REMARK  status: ('A' for Active; 'I' for Inactive)
ROOT
ATOM      1  C   UNL d   1       0.556  -1.007   1.275  0.00  0.00     0.124 A 
ATOM      2  C1  UNL d   1       0.088  -2.252   0.880  0.00  0.00     0.062 A 
ATOM      3  C2  UNL d   1       0.980  -3.237   0.466  0.00  0.00     0.162 A 
ATOM      4  C3  UNL d   1       2.351  -2.980   0.445  0.00  0.00    -0.034 A 
ATOM      5  C4  UNL d   1       2.815  -1.725   0.842  0.00  0.00     0.162 A 
ATOM      6  C5  UNL d   1       1.919  -0.745   1.256  0.00  0.00     0.062 A 
ATOM      7  F   UNL d   1       2.374   0.458   1.637  0.00  0.00    -0.097 F 
ATOM      8  F1  UNL d   1       4.127  -1.445   0.835  0.00  0.00    -0.096 F 
ATOM      9  I   UNL d   1       3.689  -4.450  -0.175  0.00  0.00    -0.060 I 
ATOM     10  F2  UNL d   1       0.499  -4.431   0.089  0.00  0.00    -0.096 F 
ATOM     11  F3  UNL d   1      -1.228  -2.508   0.897  0.00  0.00    -0.097 F 
ATOM     12  F4  UNL d   1      -0.304  -0.061   1.673  0.00  0.00    -0.092 F 
ENDROOT
TORSDOF 0
ENDMDL
