MODEL 1
REMARK minimizedAffinity 5.65937948
REMARK minimizedRMSD -1
REMARK  0 active torsions:
REMARK  status: ('A' for Active; 'I' for Inactive)
ROOT
ATOM      1  C   UNL d   1       0.099  -1.147   1.310  0.00  0.00     0.124 A 
ATOM      2  C1  UNL d   1      -0.368  -2.419   1.007  0.00  0.00     0.062 A 
ATOM      3  C2  UNL d   1       0.485  -3.361   0.439  0.00  0.00     0.162 A 
ATOM      4  C3  UNL d   1       1.814  -3.035   0.170  0.00  0.00    -0.034 A 
ATOM      5  C4  UNL d   1       2.277  -1.754   0.477  0.00  0.00     0.162 A 
ATOM      6  C5  UNL d   1       1.420  -0.816   1.045  0.00  0.00     0.062 A 
ATOM      7  F   UNL d   1       1.873   0.412   1.337  0.00  0.00    -0.097 F 
ATOM      8  F1  UNL d   1       3.549  -1.408   0.232  0.00  0.00    -0.096 F 
ATOM      9  I   UNL d   1       3.092  -4.441  -0.680  0.00  0.00    -0.060 I 
ATOM     10  F2  UNL d   1       0.006  -4.582   0.156  0.00  0.00    -0.096 F 
ATOM     11  F3  UNL d   1      -1.644  -2.741   1.262  0.00  0.00    -0.097 F 
ATOM     12  F4  UNL d   1      -0.724  -0.243   1.856  0.00  0.00    -0.092 F 
ENDROOT
TORSDOF 0
ENDMDL
