MODEL 1
REMARK minimizedAffinity -2.00411558
REMARK minimizedRMSD -1
REMARK  0 active torsions:
REMARK  status: ('A' for Active; 'I' for Inactive)
ROOT
ATOM      1  C   UNL d   1       0.509  -0.946   0.751  0.00  0.00     0.124 A 
ATOM      2  C1  UNL d   1       1.881  -0.730   0.746  0.00  0.00     0.062 A 
ATOM      3  C2  UNL d   1       2.754  -1.781   0.481  0.00  0.00     0.162 A 
ATOM      4  C3  UNL d   1       2.258  -3.058   0.217  0.00  0.00    -0.034 A 
ATOM      5  C4  UNL d   1       0.878  -3.268   0.225  0.00  0.00     0.162 A 
ATOM      6  C5  UNL d   1       0.010  -2.214   0.490  0.00  0.00     0.062 A 
ATOM      7  F   UNL d   1      -1.315  -2.425   0.494  0.00  0.00    -0.097 F 
ATOM      8  F1  UNL d   1       0.368  -4.483  -0.025  0.00  0.00    -0.096 F 
ATOM      9  I   UNL d   1       3.561  -4.632  -0.180  0.00  0.00    -0.060 I 
ATOM     10  F2  UNL d   1       4.074  -1.544   0.483  0.00  0.00    -0.096 F 
ATOM     11  F3  UNL d   1       2.366   0.494   0.998  0.00  0.00    -0.097 F 
ATOM     12  F4  UNL d   1      -0.328   0.067   1.007  0.00  0.00    -0.092 F 
ENDROOT
TORSDOF 0
ENDMDL
