MODEL 1
REMARK minimizedAffinity -2.48921633
REMARK minimizedRMSD -1
REMARK  0 active torsions:
REMARK  status: ('A' for Active; 'I' for Inactive)
ROOT
ATOM      1  C   UNL d   1       0.463  -0.974   0.788  0.00  0.00     0.124 A 
ATOM      2  C1  UNL d   1       1.840  -0.799   0.827  0.00  0.00     0.062 A 
ATOM      3  C2  UNL d   1       2.690  -1.874   0.588  0.00  0.00     0.162 A 
ATOM      4  C3  UNL d   1       2.166  -3.136   0.307  0.00  0.00    -0.034 A 
ATOM      5  C4  UNL d   1       0.781  -3.306   0.270  0.00  0.00     0.162 A 
ATOM      6  C5  UNL d   1      -0.065  -2.227   0.510  0.00  0.00     0.062 A 
ATOM      7  F   UNL d   1      -1.394  -2.399   0.472  0.00  0.00    -0.097 F 
ATOM      8  F1  UNL d   1       0.244  -4.505   0.003  0.00  0.00    -0.096 F 
ATOM      9  I   UNL d   1       3.434  -4.748  -0.051  0.00  0.00    -0.060 I 
ATOM     10  F2  UNL d   1       4.015  -1.676   0.632  0.00  0.00    -0.096 F 
ATOM     11  F3  UNL d   1       2.352   0.411   1.096  0.00  0.00    -0.097 F 
ATOM     12  F4  UNL d   1      -0.352   0.062   1.019  0.00  0.00    -0.092 F 
ENDROOT
TORSDOF 0
ENDMDL
