MODEL 1
REMARK minimizedAffinity 2.47011781
REMARK minimizedRMSD -1
REMARK  0 active torsions:
REMARK  status: ('A' for Active; 'I' for Inactive)
ROOT
ATOM      1  C   UNL d   1       0.241  -0.968   1.352  0.00  0.00     0.124 A 
ATOM      2  C1  UNL d   1       1.623  -0.859   1.428  0.00  0.00     0.062 A 
ATOM      3  C2  UNL d   1       2.433  -1.891   0.964  0.00  0.00     0.162 A 
ATOM      4  C3  UNL d   1       1.864  -3.042   0.419  0.00  0.00    -0.034 A 
ATOM      5  C4  UNL d   1       0.474  -3.145   0.347  0.00  0.00     0.162 A 
ATOM      6  C5  UNL d   1      -0.332  -2.110   0.812  0.00  0.00     0.062 A 
ATOM      7  F   UNL d   1      -1.666  -2.218   0.737  0.00  0.00    -0.097 F 
ATOM      8  F1  UNL d   1      -0.107  -4.237  -0.171  0.00  0.00    -0.096 F 
ATOM      9  I   UNL d   1       3.072  -4.588  -0.275  0.00  0.00    -0.060 I 
ATOM     10  F2  UNL d   1       3.765  -1.758   1.050  0.00  0.00    -0.096 F 
ATOM     11  F3  UNL d   1       2.179   0.244   1.950  0.00  0.00    -0.097 F 
ATOM     12  F4  UNL d   1      -0.536   0.027   1.799  0.00  0.00    -0.092 F 
ENDROOT
TORSDOF 0
ENDMDL
