MODEL 1
REMARK minimizedAffinity 18.3188248
REMARK minimizedRMSD -1
REMARK  0 active torsions:
REMARK  status: ('A' for Active; 'I' for Inactive)
ROOT
ATOM      1  C   UNL d   1      -0.565   0.809   2.962  0.00  0.00     0.124 A 
ATOM      2  C1  UNL d   1      -1.425   1.786   2.481  0.00  0.00     0.062 A 
ATOM      3  C2  UNL d   1      -2.584   2.105   3.184  0.00  0.00     0.162 A 
ATOM      4  C3  UNL d   1      -2.889   1.446   4.375  0.00  0.00    -0.034 A 
ATOM      5  C4  UNL d   1      -2.019   0.464   4.851  0.00  0.00     0.162 A 
ATOM      6  C5  UNL d   1      -0.862   0.149   4.146  0.00  0.00     0.062 A 
ATOM      7  F   UNL d   1      -0.032  -0.796   4.611  0.00  0.00    -0.097 F 
ATOM      8  F1  UNL d   1      -2.281  -0.189   5.993  0.00  0.00    -0.096 F 
ATOM      9  I   UNL d   1      -4.620   1.921   5.428  0.00  0.00    -0.060 I 
ATOM     10  F2  UNL d   1      -3.397   3.054   2.696  0.00  0.00    -0.096 F 
ATOM     11  F3  UNL d   1      -1.141   2.424   1.337  0.00  0.00    -0.097 F 
ATOM     12  F4  UNL d   1       0.549   0.503   2.284  0.00  0.00    -0.092 F 
ENDROOT
TORSDOF 0
ENDMDL
