MODEL 1
REMARK minimizedAffinity 14.2152586
REMARK minimizedRMSD -1
REMARK  0 active torsions:
REMARK  status: ('A' for Active; 'I' for Inactive)
ROOT
ATOM      1  C   UNL d   1       1.458  -2.653   0.011  0.00  0.00     0.124 A 
ATOM      2  C1  UNL d   1       2.631  -1.976   0.312  0.00  0.00     0.062 A 
ATOM      3  C2  UNL d   1       3.848  -2.653   0.320  0.00  0.00     0.162 A 
ATOM      4  C3  UNL d   1       3.897  -4.015   0.026  0.00  0.00    -0.034 A 
ATOM      5  C4  UNL d   1       2.712  -4.690  -0.274  0.00  0.00     0.162 A 
ATOM      6  C5  UNL d   1       1.499  -4.009  -0.281  0.00  0.00     0.062 A 
ATOM      7  F   UNL d   1       0.366  -4.665  -0.572  0.00  0.00    -0.097 F 
ATOM      8  F1  UNL d   1       2.723  -6.000  -0.561  0.00  0.00    -0.096 F 
ATOM      9  I   UNL d   1       5.713  -5.031   0.038  0.00  0.00    -0.060 I 
ATOM     10  F2  UNL d   1       4.966  -1.973   0.614  0.00  0.00    -0.096 F 
ATOM     11  F3  UNL d   1       2.594  -0.666   0.595  0.00  0.00    -0.097 F 
ATOM     12  F4  UNL d   1       0.289  -1.999   0.005  0.00  0.00    -0.092 F 
ENDROOT
TORSDOF 0
ENDMDL
