MODEL 1
REMARK minimizedAffinity 13.4666615
REMARK minimizedRMSD -1
REMARK  0 active torsions:
REMARK  status: ('A' for Active; 'I' for Inactive)
ROOT
ATOM      1  C   UNL d   1       3.303   1.705  -2.446  0.00  0.00     0.124 A 
ATOM      2  C1  UNL d   1       2.020   2.175  -2.691  0.00  0.00     0.062 A 
ATOM      3  C2  UNL d   1       1.454   3.132  -1.853  0.00  0.00     0.162 A 
ATOM      4  C3  UNL d   1       2.170   3.626  -0.763  0.00  0.00    -0.034 A 
ATOM      5  C4  UNL d   1       3.460   3.147  -0.523  0.00  0.00     0.162 A 
ATOM      6  C5  UNL d   1       4.021   2.191  -1.363  0.00  0.00     0.062 A 
ATOM      7  F   UNL d   1       5.261   1.738  -1.125  0.00  0.00    -0.097 F 
ATOM      8  F1  UNL d   1       4.177   3.601   0.516  0.00  0.00    -0.096 F 
ATOM      9  I   UNL d   1       1.327   5.056   0.491  0.00  0.00    -0.060 I 
ATOM     10  F2  UNL d   1       0.212   3.568  -2.113  0.00  0.00    -0.096 F 
ATOM     11  F3  UNL d   1       1.324   1.706  -3.736  0.00  0.00    -0.097 F 
ATOM     12  F4  UNL d   1       3.845   0.784  -3.253  0.00  0.00    -0.092 F 
ENDROOT
TORSDOF 0
ENDMDL
