MODEL 1
REMARK minimizedAffinity 1.70368242
REMARK minimizedRMSD -1
REMARK  0 active torsions:
REMARK  status: ('A' for Active; 'I' for Inactive)
ROOT
ATOM      1  C   UNL d   1      -0.250   2.700   2.469  0.00  0.00     0.172 C 
ATOM      2  N   UNL d   1      -0.079   3.028   1.073  0.00  0.00    -0.070 N 
ATOM      3  C1  UNL d   1      -0.792   2.492   0.034  0.00  0.00    -0.004 A 
ATOM      4  C2  UNL d   1      -0.330   3.062  -1.132  0.00  0.00    -0.047 A 
ATOM      5  C3  UNL d   1       0.696   3.971  -0.782  0.00  0.00    -0.047 A 
ATOM      6  C4  UNL d   1       0.831   3.930   0.589  0.00  0.00    -0.004 A 
ENDROOT
TORSDOF 0
ENDMDL
