MODEL 1
REMARK minimizedAffinity 3.96278429
REMARK minimizedRMSD -1
REMARK  0 active torsions:
REMARK  status: ('A' for Active; 'I' for Inactive)
ROOT
ATOM      1  C   UNL d   1      -0.029   2.725   1.471  0.00  0.00     0.172 C 
ATOM      2  N   UNL d   1       0.061   3.319   0.158  0.00  0.00    -0.070 N 
ATOM      3  C1  UNL d   1      -0.514   2.824  -0.982  0.00  0.00    -0.004 A 
ATOM      4  C2  UNL d   1      -0.197   3.676  -2.018  0.00  0.00    -0.047 A 
ATOM      5  C3  UNL d   1       0.597   4.718  -1.482  0.00  0.00    -0.047 A 
ATOM      6  C4  UNL d   1       0.741   4.472  -0.133  0.00  0.00    -0.004 A 
ENDROOT
TORSDOF 0
ENDMDL
