MODEL 1
REMARK minimizedAffinity 1.05494392
REMARK minimizedRMSD -1
REMARK  0 active torsions:
REMARK  status: ('A' for Active; 'I' for Inactive)
ROOT
ATOM      1  C   UNL d   1       0.345  -4.516  -1.244  0.00  0.00     0.172 C 
ATOM      2  N   UNL d   1       0.669  -3.168  -0.838  0.00  0.00    -0.070 N 
ATOM      3  C1  UNL d   1       1.817  -2.780  -0.201  0.00  0.00    -0.004 A 
ATOM      4  C2  UNL d   1       1.744  -1.421   0.010  0.00  0.00    -0.047 A 
ATOM      5  C3  UNL d   1       0.508  -0.976  -0.517  0.00  0.00    -0.047 A 
ATOM      6  C4  UNL d   1      -0.138  -2.078  -1.036  0.00  0.00    -0.004 A 
ENDROOT
TORSDOF 0
ENDMDL
