MODEL 1
REMARK minimizedAffinity 3.61042786
REMARK minimizedRMSD -1
REMARK  0 active torsions:
REMARK  status: ('A' for Active; 'I' for Inactive)
ROOT
ATOM      1  C   UNL d   1      -4.179  -0.032   3.212  0.00  0.00     0.172 C 
ATOM      2  N   UNL d   1      -4.705  -0.808   4.311  0.00  0.00    -0.070 N 
ATOM      3  C1  UNL d   1      -5.827  -0.507   5.035  0.00  0.00    -0.004 A 
ATOM      4  C2  UNL d   1      -5.990  -1.488   5.989  0.00  0.00    -0.047 A 
ATOM      5  C3  UNL d   1      -4.928  -2.411   5.832  0.00  0.00    -0.047 A 
ATOM      6  C4  UNL d   1      -4.148  -1.965   4.787  0.00  0.00    -0.004 A 
ENDROOT
TORSDOF 0
ENDMDL
