MODEL 1
REMARK minimizedAffinity 6.0749135
REMARK minimizedRMSD -1
REMARK  0 active torsions:
REMARK  status: ('A' for Active; 'I' for Inactive)
ROOT
ATOM      1  C   UNL d   1       4.330  -5.401  -3.648  0.00  0.00     0.172 C 
ATOM      2  N   UNL d   1       4.761  -4.735  -2.441  0.00  0.00    -0.070 N 
ATOM      3  C1  UNL d   1       5.019  -5.344  -1.242  0.00  0.00    -0.004 A 
ATOM      4  C2  UNL d   1       5.404  -4.368  -0.347  0.00  0.00    -0.047 A 
ATOM      5  C3  UNL d   1       5.375  -3.130  -1.032  0.00  0.00    -0.047 A 
ATOM      6  C4  UNL d   1       4.974  -3.386  -2.327  0.00  0.00    -0.004 A 
ENDROOT
TORSDOF 0
ENDMDL
