MODEL 1
REMARK minimizedAffinity 3.37284756
REMARK minimizedRMSD -1
REMARK  0 active torsions:
REMARK  status: ('A' for Active; 'I' for Inactive)
ROOT
ATOM      1  C   UNL d   1       0.380   5.998  -4.096  0.00  0.00     0.172 C 
ATOM      2  N   UNL d   1      -0.058   5.396  -2.859  0.00  0.00    -0.070 N 
ATOM      3  C1  UNL d   1       0.760   4.880  -1.889  0.00  0.00    -0.004 A 
ATOM      4  C2  UNL d   1      -0.039   4.402  -0.874  0.00  0.00    -0.047 A 
ATOM      5  C3  UNL d   1      -1.384   4.638  -1.246  0.00  0.00    -0.047 A 
ATOM      6  C4  UNL d   1      -1.366   5.254  -2.480  0.00  0.00    -0.004 A 
ENDROOT
TORSDOF 0
ENDMDL
