MODEL 1
REMARK minimizedAffinity 2.05913663
REMARK minimizedRMSD -1
REMARK  0 active torsions:
REMARK  status: ('A' for Active; 'I' for Inactive)
ROOT
ATOM      1  C   UNL d   1      -6.000   2.940  -0.812  0.00  0.00     0.172 C 
ATOM      2  N   UNL d   1      -5.514   3.601  -2.000  0.00  0.00    -0.070 N 
ATOM      3  C1  UNL d   1      -6.000   3.424  -3.268  0.00  0.00    -0.004 A 
ATOM      4  C2  UNL d   1      -5.272   4.230  -4.116  0.00  0.00    -0.047 A 
ATOM      5  C3  UNL d   1      -4.314   4.915  -3.330  0.00  0.00    -0.047 A 
ATOM      6  C4  UNL d   1      -4.486   4.507  -2.024  0.00  0.00    -0.004 A 
ENDROOT
TORSDOF 0
ENDMDL
