MODEL 1
REMARK minimizedAffinity -2.28405404
REMARK minimizedRMSD -1
REMARK  3 active torsions:
REMARK  status: ('A' for Active; 'I' for Inactive)
REMARK    1  A    between atoms: C3'_2  and  C2'_3 
REMARK    2  A    between atoms: C2'_3  and  C1'_4 
REMARK    3  A    between atoms: C1'_4  and  C1_5 
ROOT
ATOM      1  C1  N4B d   1       0.012  -0.096   0.364  0.00  0.00    -0.075 A 
ATOM      2  C2  N4B d   1       0.962   0.900   0.682  0.00  0.00     0.002 A 
ATOM      3  C3  N4B d   1       0.556   2.198   0.877  0.00  0.00     0.002 A 
ATOM      4  C4  N4B d   1      -0.785   2.525   0.742  0.00  0.00    -0.004 A 
ATOM      5  C5  N4B d   1      -1.699   1.552   0.460  0.00  0.00     0.002 A 
ATOM      6  C6  N4B d   1      -1.306   0.243   0.265  0.00  0.00     0.002 A 
ENDROOT
BRANCH   1   7
ATOM      7  C1' N4B d   1       0.419  -1.511   0.058  0.00  0.00     0.057 C 
BRANCH   7   8
ATOM      8  C2' N4B d   1      -0.802  -2.290  -0.424  0.00  0.00     0.009 C 
BRANCH   8   9
ATOM      9  C3' N4B d   1      -0.414  -3.595  -1.098  0.00  0.00     0.004 C 
ATOM     10  C4' N4B d   1       0.249  -3.387  -2.427  0.00  0.00     0.003 C 
ENDBRANCH   8   9
ENDBRANCH   7   8
ENDBRANCH   1   7
TORSDOF 3
ENDMDL
