MODEL 1
REMARK minimizedAffinity -5.04570961
REMARK minimizedRMSD -1
REMARK  3 active torsions:
REMARK  status: ('A' for Active; 'I' for Inactive)
REMARK    1  A    between atoms: C3'_2  and  C2'_3 
REMARK    2  A    between atoms: C2'_3  and  C1'_4 
REMARK    3  A    between atoms: C1'_4  and  C1_5 
ROOT
ATOM      1  C1  N4B d   1       0.069   0.276   0.332  0.00  0.00    -0.075 A 
ATOM      2  C2  N4B d   1       1.324   0.797  -0.056  0.00  0.00     0.002 A 
ATOM      3  C3  N4B d   1       1.502   2.155  -0.156  0.00  0.00     0.002 A 
ATOM      4  C4  N4B d   1       0.441   3.007   0.108  0.00  0.00    -0.004 A 
ATOM      5  C5  N4B d   1      -0.760   2.498   0.506  0.00  0.00     0.002 A 
ATOM      6  C6  N4B d   1      -0.953   1.135   0.615  0.00  0.00     0.002 A 
ENDROOT
BRANCH   1   7
ATOM      7  C1' N4B d   1      -0.198  -1.203   0.372  0.00  0.00     0.057 C 
BRANCH   7   8
ATOM      8  C2' N4B d   1      -0.134  -1.762  -1.047  0.00  0.00     0.009 C 
BRANCH   8   9
ATOM      9  C3' N4B d   1      -0.876  -3.082  -1.171  0.00  0.00     0.004 C 
ATOM     10  C4' N4B d   1      -1.808  -3.116  -2.346  0.00  0.00     0.003 C 
ENDBRANCH   8   9
ENDBRANCH   7   8
ENDBRANCH   1   7
TORSDOF 3
ENDMDL
