MODEL 1
REMARK minimizedAffinity -5.52760124
REMARK minimizedRMSD -1
REMARK  3 active torsions:
REMARK  status: ('A' for Active; 'I' for Inactive)
REMARK    1  A    between atoms: C3'_2  and  C2'_3 
REMARK    2  A    between atoms: C2'_3  and  C1'_4 
REMARK    3  A    between atoms: C1'_4  and  C1_5 
ROOT
ATOM      1  C1  N4B d   1      -0.043   0.195   0.197  0.00  0.00    -0.075 A 
ATOM      2  C2  N4B d   1       1.102   0.831  -0.333  0.00  0.00     0.002 A 
ATOM      3  C3  N4B d   1       1.172   2.202  -0.367  0.00  0.00     0.002 A 
ATOM      4  C4  N4B d   1       0.108   2.955   0.105  0.00  0.00    -0.004 A 
ATOM      5  C5  N4B d   1      -0.983   2.334   0.639  0.00  0.00     0.002 A 
ATOM      6  C6  N4B d   1      -1.066   0.957   0.683  0.00  0.00     0.002 A 
ENDROOT
BRANCH   1   7
ATOM      7  C1' N4B d   1      -0.202  -1.300   0.176  0.00  0.00     0.057 C 
BRANCH   7   8
ATOM      8  C2' N4B d   1      -0.009  -1.804  -1.251  0.00  0.00     0.009 C 
BRANCH   8   9
ATOM      9  C3' N4B d   1      -0.773  -3.092  -1.508  0.00  0.00     0.004 C 
ATOM     10  C4' N4B d   1      -0.885  -3.420  -2.966  0.00  0.00     0.003 C 
ENDBRANCH   8   9
ENDBRANCH   7   8
ENDBRANCH   1   7
TORSDOF 3
ENDMDL
