MODEL 1
REMARK minimizedAffinity -4.66548395
REMARK minimizedRMSD -1
REMARK  3 active torsions:
REMARK  status: ('A' for Active; 'I' for Inactive)
REMARK    1  A    between atoms: C3'_2  and  C2'_3 
REMARK    2  A    between atoms: C2'_3  and  C1'_4 
REMARK    3  A    between atoms: C1'_4  and  C1_5 
ROOT
ATOM      1  C1  N4B d   1       0.315  -0.665  -0.080  0.00  0.00    -0.075 A 
ATOM      2  C2  N4B d   1       1.440   0.085   0.325  0.00  0.00     0.002 A 
ATOM      3  C3  N4B d   1       1.450   1.449   0.163  0.00  0.00     0.002 A 
ATOM      4  C4  N4B d   1       0.359   2.079  -0.417  0.00  0.00    -0.004 A 
ATOM      5  C5  N4B d   1      -0.734   1.349  -0.783  0.00  0.00     0.002 A 
ATOM      6  C6  N4B d   1      -0.760  -0.021  -0.622  0.00  0.00     0.002 A 
ENDROOT
BRANCH   1   7
ATOM      7  C1' N4B d   1       0.292  -2.168  -0.002  0.00  0.00     0.057 C 
BRANCH   7   8
ATOM      8  C2' N4B d   1       0.760  -2.745  -1.335  0.00  0.00     0.009 C 
BRANCH   8   9
ATOM      9  C3' N4B d   1      -0.227  -3.755  -1.894  0.00  0.00     0.004 C 
ATOM     10  C4' N4B d   1      -1.238  -3.133  -2.811  0.00  0.00     0.003 C 
ENDBRANCH   8   9
ENDBRANCH   7   8
ENDBRANCH   1   7
TORSDOF 3
ENDMDL
