MODEL 1
REMARK minimizedAffinity -1.38954699
REMARK minimizedRMSD -1
REMARK  3 active torsions:
REMARK  status: ('A' for Active; 'I' for Inactive)
REMARK    1  A    between atoms: C3'_2  and  C2'_3 
REMARK    2  A    between atoms: C2'_3  and  C1'_4 
REMARK    3  A    between atoms: C1'_4  and  C1_5 
ROOT
ATOM      1  C1  N4B d   1       0.314   1.643   0.283  0.00  0.00    -0.075 A 
ATOM      2  C2  N4B d   1      -0.659   0.630   0.136  0.00  0.00     0.002 A 
ATOM      3  C3  N4B d   1      -0.302  -0.689   0.268  0.00  0.00     0.002 A 
ATOM      4  C4  N4B d   1       1.020  -1.019   0.528  0.00  0.00    -0.004 A 
ATOM      5  C5  N4B d   1       1.949  -0.034   0.694  0.00  0.00     0.002 A 
ATOM      6  C6  N4B d   1       1.603   1.297   0.568  0.00  0.00     0.002 A 
ENDROOT
BRANCH   1   7
ATOM      7  C1' N4B d   1      -0.012   3.095   0.062  0.00  0.00     0.057 C 
BRANCH   7   8
ATOM      8  C2' N4B d   1       0.253   3.869   1.350  0.00  0.00     0.009 C 
BRANCH   8   9
ATOM      9  C3' N4B d   1      -0.772   3.550   2.425  0.00  0.00     0.004 C 
ATOM     10  C4' N4B d   1      -0.170   3.477   3.797  0.00  0.00     0.003 C 
ENDBRANCH   8   9
ENDBRANCH   7   8
ENDBRANCH   1   7
TORSDOF 3
ENDMDL
