MODEL 1
REMARK minimizedAffinity -4.82931995
REMARK minimizedRMSD -1
REMARK  3 active torsions:
REMARK  status: ('A' for Active; 'I' for Inactive)
REMARK    1  A    between atoms: C3'_2  and  C2'_3 
REMARK    2  A    between atoms: C2'_3  and  C1'_4 
REMARK    3  A    between atoms: C1'_4  and  C1_5 
ROOT
ATOM      1  C1  N4B d   1       0.092   0.148   0.121  0.00  0.00    -0.075 A 
ATOM      2  C2  N4B d   1       1.009   1.082  -0.409  0.00  0.00     0.002 A 
ATOM      3  C3  N4B d   1       0.744   2.427  -0.325  0.00  0.00     0.002 A 
ATOM      4  C4  N4B d   1      -0.434   2.859   0.265  0.00  0.00    -0.004 A 
ATOM      5  C5  N4B d   1      -1.302   1.951   0.798  0.00  0.00     0.002 A 
ATOM      6  C6  N4B d   1      -1.048   0.596   0.724  0.00  0.00     0.002 A 
ENDROOT
BRANCH   1   7
ATOM      7  C1' N4B d   1       0.296  -1.336  -0.023  0.00  0.00     0.057 C 
BRANCH   7   8
ATOM      8  C2' N4B d   1      -0.908  -1.940  -0.740  0.00  0.00     0.009 C 
BRANCH   8   9
ATOM      9  C3' N4B d   1      -0.631  -3.353  -1.223  0.00  0.00     0.004 C 
ATOM     10  C4' N4B d   1      -0.272  -3.409  -2.678  0.00  0.00     0.003 C 
ENDBRANCH   8   9
ENDBRANCH   7   8
ENDBRANCH   1   7
TORSDOF 3
ENDMDL
