MODEL 1
REMARK minimizedAffinity -5.91714382
REMARK minimizedRMSD -1
REMARK  3 active torsions:
REMARK  status: ('A' for Active; 'I' for Inactive)
REMARK    1  A    between atoms: C3'_2  and  C2'_3 
REMARK    2  A    between atoms: C2'_3  and  C1'_4 
REMARK    3  A    between atoms: C1'_4  and  C1_5 
ROOT
ATOM      1  C1  N4B d   1      -0.395   0.571   0.142  0.00  0.00    -0.075 A 
ATOM      2  C2  N4B d   1      -1.250   1.685   0.288  0.00  0.00     0.002 A 
ATOM      3  C3  N4B d   1      -0.749   2.957   0.155  0.00  0.00     0.002 A 
ATOM      4  C4  N4B d   1       0.601   3.138  -0.105  0.00  0.00    -0.004 A 
ATOM      5  C5  N4B d   1       1.415   2.056  -0.271  0.00  0.00     0.002 A 
ATOM      6  C6  N4B d   1       0.925   0.772  -0.143  0.00  0.00     0.002 A 
ENDROOT
BRANCH   1   7
ATOM      7  C1' N4B d   1      -0.879  -0.836   0.364  0.00  0.00     0.057 C 
BRANCH   7   8
ATOM      8  C2' N4B d   1       0.184  -1.815  -0.127  0.00  0.00     0.009 C 
BRANCH   8   9
ATOM      9  C3' N4B d   1      -0.431  -3.055  -0.753  0.00  0.00     0.004 C 
ATOM     10  C4' N4B d   1      -0.541  -2.959  -2.245  0.00  0.00     0.003 C 
ENDBRANCH   8   9
ENDBRANCH   7   8
ENDBRANCH   1   7
TORSDOF 3
ENDMDL
