MODEL 1
REMARK minimizedAffinity -1.34322083
REMARK minimizedRMSD -1
REMARK  3 active torsions:
REMARK  status: ('A' for Active; 'I' for Inactive)
REMARK    1  A    between atoms: C3'_2  and  C2'_3 
REMARK    2  A    between atoms: C2'_3  and  C1'_4 
REMARK    3  A    between atoms: C1'_4  and  C1_5 
ROOT
ATOM      1  C1  N4B d   1      -0.531   0.738   0.088  0.00  0.00    -0.075 A 
ATOM      2  C2  N4B d   1       0.587   0.665  -0.771  0.00  0.00     0.002 A 
ATOM      3  C3  N4B d   1       1.431   1.742  -0.891  0.00  0.00     0.002 A 
ATOM      4  C4  N4B d   1       1.168   2.903  -0.180  0.00  0.00    -0.004 A 
ATOM      5  C5  N4B d   1       0.100   2.955   0.667  0.00  0.00     0.002 A 
ATOM      6  C6  N4B d   1      -0.755   1.880   0.801  0.00  0.00     0.002 A 
ENDROOT
BRANCH   1   7
ATOM      7  C1' N4B d   1      -1.531  -0.382   0.187  0.00  0.00     0.057 C 
BRANCH   7   8
ATOM      8  C2' N4B d   1      -1.788  -0.948  -1.207  0.00  0.00     0.009 C 
BRANCH   8   9
ATOM      9  C3' N4B d   1      -1.613  -2.456  -1.249  0.00  0.00     0.004 C 
ATOM     10  C4' N4B d   1      -1.184  -2.953  -2.598  0.00  0.00     0.003 C 
ENDBRANCH   8   9
ENDBRANCH   7   8
ENDBRANCH   1   7
TORSDOF 3
ENDMDL
