MODEL 1
REMARK minimizedAffinity -6.02928925
REMARK minimizedRMSD -1
REMARK  0 active torsions:
REMARK  status: ('A' for Active; 'I' for Inactive)
ROOT
ATOM      1  O1  BZF d   1      -0.640   0.396  -0.567  0.00  0.00    -0.204 OA
ATOM      2  C2  BZF d   1       0.716   0.195  -0.391  0.00  0.00     0.174 A 
ATOM      3  C3  BZF d   1       0.996  -0.078   0.899  0.00  0.00    -0.012 A 
ATOM      4  C3A BZF d   1      -0.274  -0.137   1.556  0.00  0.00    -0.107 A 
ATOM      5  C4  BZF d   1      -0.654  -0.387   2.843  0.00  0.00     0.055 A 
ATOM      6  C5  BZF d   1      -1.970  -0.297   3.172  0.00  0.00    -0.016 A 
ATOM      7  C6  BZF d   1      -2.929   0.045   2.242  0.00  0.00     0.022 A 
ATOM      8  C7  BZF d   1      -2.601   0.298   0.952  0.00  0.00     0.029 A 
ATOM      9  C7A BZF d   1      -1.277   0.175   0.609  0.00  0.00     0.058 A 
ENDROOT
TORSDOF 0
ENDMDL
