MODEL 1
REMARK minimizedAffinity -2.56159616
REMARK minimizedRMSD -1
REMARK  0 active torsions:
REMARK  status: ('A' for Active; 'I' for Inactive)
ROOT
ATOM      1  O1  BZF d   1       0.774   0.952  -1.049  0.00  0.00    -0.204 OA
ATOM      2  C2  BZF d   1       0.493  -0.047  -1.960  0.00  0.00     0.174 A 
ATOM      3  C3  BZF d   1       0.224  -1.208  -1.328  0.00  0.00    -0.012 A 
ATOM      4  C3A BZF d   1       0.253  -0.893   0.067  0.00  0.00    -0.107 A 
ATOM      5  C4  BZF d   1       0.047  -1.627   1.200  0.00  0.00     0.055 A 
ATOM      6  C5  BZF d   1       0.223  -1.036   2.411  0.00  0.00    -0.016 A 
ATOM      7  C6  BZF d   1       0.609   0.283   2.526  0.00  0.00     0.022 A 
ATOM      8  C7  BZF d   1       0.820   1.053   1.431  0.00  0.00     0.029 A 
ATOM      9  C7A BZF d   1       0.611   0.468   0.206  0.00  0.00     0.058 A 
ENDROOT
TORSDOF 0
ENDMDL
