MODEL 1
REMARK minimizedAffinity -4.3796587
REMARK minimizedRMSD -1
REMARK  0 active torsions:
REMARK  status: ('A' for Active; 'I' for Inactive)
ROOT
ATOM      1  O1  BZF d   1       1.828  -1.708  -2.063  0.00  0.00    -0.204 OA
ATOM      2  C2  BZF d   1       1.604  -1.313  -3.368  0.00  0.00     0.174 A 
ATOM      3  C3  BZF d   1       0.634  -0.379  -3.425  0.00  0.00    -0.012 A 
ATOM      4  C3A BZF d   1       0.289  -0.110  -2.063  0.00  0.00    -0.107 A 
ATOM      5  C4  BZF d   1      -0.601   0.738  -1.469  0.00  0.00     0.055 A 
ATOM      6  C5  BZF d   1      -0.746   0.704  -0.118  0.00  0.00    -0.016 A 
ATOM      7  C6  BZF d   1      -0.020  -0.167   0.668  0.00  0.00     0.022 A 
ATOM      8  C7  BZF d   1       0.879  -1.023   0.125  0.00  0.00     0.029 A 
ATOM      9  C7A BZF d   1       1.051  -0.969  -1.236  0.00  0.00     0.058 A 
ENDROOT
TORSDOF 0
ENDMDL
