MODEL 1
REMARK minimizedAffinity -5.9690876
REMARK minimizedRMSD -1
REMARK  0 active torsions:
REMARK  status: ('A' for Active; 'I' for Inactive)
ROOT
ATOM      1  O1  BZF d   1       0.118  -0.471   3.085  0.00  0.00    -0.204 OA
ATOM      2  C2  BZF d   1      -1.238  -0.415   3.339  0.00  0.00     0.174 A 
ATOM      3  C3  BZF d   1      -1.920  -0.082   2.224  0.00  0.00    -0.012 A 
ATOM      4  C3A BZF d   1      -0.935  -0.011   1.188  0.00  0.00    -0.107 A 
ATOM      5  C4  BZF d   1      -0.996   0.261  -0.149  0.00  0.00     0.055 A 
ATOM      6  C5  BZF d   1       0.157   0.323  -0.864  0.00  0.00    -0.016 A 
ATOM      7  C6  BZF d   1       1.388   0.122  -0.275  0.00  0.00     0.022 A 
ATOM      8  C7  BZF d   1       1.499  -0.156   1.047  0.00  0.00     0.029 A 
ATOM      9  C7A BZF d   1       0.333  -0.251   1.766  0.00  0.00     0.058 A 
ENDROOT
TORSDOF 0
ENDMDL
