MODEL 1
REMARK minimizedAffinity -3.97863698
REMARK minimizedRMSD -1
REMARK  0 active torsions:
REMARK  status: ('A' for Active; 'I' for Inactive)
ROOT
ATOM      1  O1  BZF d   1      -1.663  -0.522   1.375  0.00  0.00    -0.204 OA
ATOM      2  C2  BZF d   1      -1.232  -0.428   2.684  0.00  0.00     0.174 A 
ATOM      3  C3  BZF d   1       0.091  -0.172   2.735  0.00  0.00    -0.012 A 
ATOM      4  C3A BZF d   1       0.495  -0.010   1.372  0.00  0.00    -0.107 A 
ATOM      5  C4  BZF d   1       1.690   0.275   0.774  0.00  0.00     0.055 A 
ATOM      6  C5  BZF d   1       1.762   0.291  -0.583  0.00  0.00    -0.016 A 
ATOM      7  C6  BZF d   1       0.663   0.021  -1.372  0.00  0.00     0.022 A 
ATOM      8  C7  BZF d   1      -0.544  -0.262  -0.825  0.00  0.00     0.029 A 
ATOM      9  C7A BZF d   1      -0.628  -0.247   0.546  0.00  0.00     0.058 A 
ENDROOT
TORSDOF 0
ENDMDL
