MODEL 1
REMARK minimizedAffinity -4.32101393
REMARK minimizedRMSD -1
REMARK  0 active torsions:
REMARK  status: ('A' for Active; 'I' for Inactive)
ROOT
ATOM      1  O1  BZF d   1      -0.443   0.464  -0.581  0.00  0.00    -0.204 OA
ATOM      2  C2  BZF d   1       0.926   0.289  -0.520  0.00  0.00     0.174 A 
ATOM      3  C3  BZF d   1       1.327   0.087   0.751  0.00  0.00    -0.012 A 
ATOM      4  C3A BZF d   1       0.123   0.046   1.523  0.00  0.00    -0.107 A 
ATOM      5  C4  BZF d   1      -0.135  -0.142   2.851  0.00  0.00     0.055 A 
ATOM      6  C5  BZF d   1      -1.416  -0.052   3.294  0.00  0.00    -0.016 A 
ATOM      7  C6  BZF d   1      -2.462   0.230   2.440  0.00  0.00     0.022 A 
ATOM      8  C7  BZF d   1      -2.256   0.420   1.114  0.00  0.00     0.029 A 
ATOM      9  C7A BZF d   1      -0.966   0.296   0.657  0.00  0.00     0.058 A 
ENDROOT
TORSDOF 0
ENDMDL
