MODEL 1
REMARK minimizedAffinity -6.76349163
REMARK minimizedRMSD -1
REMARK  0 active torsions:
REMARK  status: ('A' for Active; 'I' for Inactive)
ROOT
ATOM      1  O1  BZF d   1       0.561  -0.477   2.654  0.00  0.00    -0.204 OA
ATOM      2  C2  BZF d   1       1.319   0.374   1.872  0.00  0.00     0.174 A 
ATOM      3  C3  BZF d   1       0.561   0.946   0.914  0.00  0.00    -0.012 A 
ATOM      4  C3A BZF d   1      -0.772   0.491   1.168  0.00  0.00    -0.107 A 
ATOM      5  C4  BZF d   1      -1.975   0.726   0.565  0.00  0.00     0.055 A 
ATOM      6  C5  BZF d   1      -3.077   0.069   1.013  0.00  0.00    -0.016 A 
ATOM      7  C6  BZF d   1      -3.012  -0.831   2.056  0.00  0.00     0.022 A 
ATOM      8  C7  BZF d   1      -1.843  -1.094   2.688  0.00  0.00     0.029 A 
ATOM      9  C7A BZF d   1      -0.733  -0.407   2.259  0.00  0.00     0.058 A 
ENDROOT
TORSDOF 0
ENDMDL
