MODEL 1
REMARK minimizedAffinity -5.16303015
REMARK minimizedRMSD -1
REMARK  0 active torsions:
REMARK  status: ('A' for Active; 'I' for Inactive)
ROOT
ATOM      1  O1  BZF d   1      -0.538  -0.214  -0.072  0.00  0.00    -0.204 OA
ATOM      2  C2  BZF d   1       0.832  -0.054  -0.148  0.00  0.00     0.174 A 
ATOM      3  C3  BZF d   1       1.402  -0.231   1.062  0.00  0.00    -0.012 A 
ATOM      4  C3A BZF d   1       0.331  -0.610   1.931  0.00  0.00    -0.107 A 
ATOM      5  C4  BZF d   1       0.267  -0.937   3.255  0.00  0.00     0.055 A 
ATOM      6  C5  BZF d   1      -0.946  -1.187   3.816  0.00  0.00    -0.016 A 
ATOM      7  C6  BZF d   1      -2.113  -1.115   3.084  0.00  0.00     0.022 A 
ATOM      8  C7  BZF d   1      -2.099  -0.800   1.766  0.00  0.00     0.029 A 
ATOM      9  C7A BZF d   1      -0.873  -0.579   1.189  0.00  0.00     0.058 A 
ENDROOT
TORSDOF 0
ENDMDL
