MODEL 1
REMARK minimizedAffinity -6.15378571
REMARK minimizedRMSD -1
REMARK  0 active torsions:
REMARK  status: ('A' for Active; 'I' for Inactive)
ROOT
ATOM      1  O1  BZF d   1      -0.973   0.618  -0.247  0.00  0.00    -0.204 OA
ATOM      2  C2  BZF d   1       0.404   0.573  -0.357  0.00  0.00     0.174 A 
ATOM      3  C3  BZF d   1       0.969   0.291   0.835  0.00  0.00    -0.012 A 
ATOM      4  C3A BZF d   1      -0.126   0.060   1.726  0.00  0.00    -0.107 A 
ATOM      5  C4  BZF d   1      -0.207  -0.278   3.047  0.00  0.00     0.055 A 
ATOM      6  C5  BZF d   1      -1.429  -0.356   3.635  0.00  0.00    -0.016 A 
ATOM      7  C6  BZF d   1      -2.590  -0.098   2.935  0.00  0.00     0.022 A 
ATOM      8  C7  BZF d   1      -2.560   0.235   1.622  0.00  0.00     0.029 A 
ATOM      9  C7A BZF d   1      -1.328   0.283   1.016  0.00  0.00     0.058 A 
ENDROOT
TORSDOF 0
ENDMDL
