MODEL 1
REMARK minimizedAffinity 0.546075523
REMARK minimizedRMSD -1
REMARK  0 active torsions:
REMARK  status: ('A' for Active; 'I' for Inactive)
ROOT
ATOM      1  O1  BZF d   1      -2.568   0.889   2.355  0.00  0.00    -0.204 OA
ATOM      2  C2  BZF d   1      -3.376   0.807   1.237  0.00  0.00     0.174 A 
ATOM      3  C3  BZF d   1      -2.655   0.463   0.150  0.00  0.00    -0.012 A 
ATOM      4  C3A BZF d   1      -1.329   0.230   0.636  0.00  0.00    -0.107 A 
ATOM      5  C4  BZF d   1      -0.164  -0.155   0.037  0.00  0.00     0.055 A 
ATOM      6  C5  BZF d   1       0.971  -0.219   0.781  0.00  0.00    -0.016 A 
ATOM      7  C6  BZF d   1       0.979   0.101   2.123  0.00  0.00     0.022 A 
ATOM      8  C7  BZF d   1      -0.153   0.484   2.762  0.00  0.00     0.029 A 
ATOM      9  C7A BZF d   1      -1.309   0.517   2.021  0.00  0.00     0.058 A 
ENDROOT
TORSDOF 0
ENDMDL
