MODEL 1
REMARK minimizedAffinity -4.96572876
REMARK minimizedRMSD -1
REMARK  0 active torsions:
REMARK  status: ('A' for Active; 'I' for Inactive)
ROOT
ATOM      1  O1  BZF d   1      -0.968   0.153  -0.629  0.00  0.00    -0.204 OA
ATOM      2  C2  BZF d   1       0.400   0.266  -0.788  0.00  0.00     0.174 A 
ATOM      3  C3  BZF d   1       1.025   0.227   0.406  0.00  0.00    -0.012 A 
ATOM      4  C3A BZF d   1      -0.009  -0.012   1.365  0.00  0.00    -0.107 A 
ATOM      5  C4  BZF d   1      -0.014  -0.167   2.722  0.00  0.00     0.055 A 
ATOM      6  C5  BZF d   1      -1.202  -0.313   3.366  0.00  0.00    -0.016 A 
ATOM      7  C6  BZF d   1      -2.402  -0.303   2.686  0.00  0.00     0.022 A 
ATOM      8  C7  BZF d   1      -2.448  -0.157   1.340  0.00  0.00     0.029 A 
ATOM      9  C7A BZF d   1      -1.247  -0.043   0.682  0.00  0.00     0.058 A 
ENDROOT
TORSDOF 0
ENDMDL
