MODEL 1
REMARK minimizedAffinity -4.65396309
REMARK minimizedRMSD -1
REMARK  0 active torsions:
REMARK  status: ('A' for Active; 'I' for Inactive)
ROOT
ATOM      1  O1  BZF d   1       0.318  -0.129   2.862  0.00  0.00    -0.204 OA
ATOM      2  C2  BZF d   1       1.151  -0.469   1.814  0.00  0.00     0.174 A 
ATOM      3  C3  BZF d   1       0.520  -0.315   0.632  0.00  0.00    -0.012 A 
ATOM      4  C3A BZF d   1      -0.760   0.237   0.958  0.00  0.00    -0.107 A 
ATOM      5  C4  BZF d   1      -1.833   0.626   0.208  0.00  0.00     0.055 A 
ATOM      6  C5  BZF d   1      -2.957   1.056   0.838  0.00  0.00    -0.016 A 
ATOM      7  C6  BZF d   1      -3.045   1.105   2.214  0.00  0.00     0.022 A 
ATOM      8  C7  BZF d   1      -2.005   0.735   2.999  0.00  0.00     0.029 A 
ATOM      9  C7A BZF d   1      -0.855   0.331   2.365  0.00  0.00     0.058 A 
ENDROOT
TORSDOF 0
ENDMDL
