MODEL 1
REMARK minimizedAffinity -1.87922084
REMARK minimizedRMSD -1
REMARK  0 active torsions:
REMARK  status: ('A' for Active; 'I' for Inactive)
ROOT
ATOM      1  O1  BZF d   1      -0.278  -1.089  -0.159  0.00  0.00    -0.204 OA
ATOM      2  C2  BZF d   1      -0.250   0.201   0.336  0.00  0.00     0.174 A 
ATOM      3  C3  BZF d   1       0.412   1.022  -0.505  0.00  0.00    -0.012 A 
ATOM      4  C3A BZF d   1       0.743   0.213  -1.638  0.00  0.00    -0.107 A 
ATOM      5  C4  BZF d   1       1.389   0.464  -2.814  0.00  0.00     0.055 A 
ATOM      6  C5  BZF d   1       1.613  -0.561  -3.677  0.00  0.00    -0.016 A 
ATOM      7  C6  BZF d   1       1.211  -1.850  -3.393  0.00  0.00     0.022 A 
ATOM      8  C7  BZF d   1       0.562  -2.147  -2.241  0.00  0.00     0.029 A 
ATOM      9  C7A BZF d   1       0.304  -1.107  -1.382  0.00  0.00     0.058 A 
ENDROOT
TORSDOF 0
ENDMDL
