MODEL 1
REMARK minimizedAffinity -2.33570743
REMARK minimizedRMSD -1
REMARK  0 active torsions:
REMARK  status: ('A' for Active; 'I' for Inactive)
ROOT
ATOM      1  O1  BZF d   1      -0.718  -0.904  -0.704  0.00  0.00    -0.204 OA
ATOM      2  C2  BZF d   1      -0.202   0.111   0.079  0.00  0.00     0.174 A 
ATOM      3  C3  BZF d   1       0.833   0.714  -0.541  0.00  0.00    -0.012 A 
ATOM      4  C3A BZF d   1       0.913   0.095  -1.829  0.00  0.00    -0.107 A 
ATOM      5  C4  BZF d   1       1.729   0.277  -2.908  0.00  0.00     0.055 A 
ATOM      6  C5  BZF d   1       1.592  -0.541  -3.985  0.00  0.00    -0.016 A 
ATOM      7  C6  BZF d   1       0.654  -1.552  -4.013  0.00  0.00     0.022 A 
ATOM      8  C7  BZF d   1      -0.182  -1.767  -2.968  0.00  0.00     0.029 A 
ATOM      9  C7A BZF d   1      -0.068  -0.921  -1.892  0.00  0.00     0.058 A 
ENDROOT
TORSDOF 0
ENDMDL
