MODEL 1
REMARK minimizedAffinity -4.66004801
REMARK minimizedRMSD -1
REMARK  0 active torsions:
REMARK  status: ('A' for Active; 'I' for Inactive)
ROOT
ATOM      1  O1  BZF d   1      -0.633   0.288  -0.582  0.00  0.00    -0.204 OA
ATOM      2  C2  BZF d   1       0.732   0.173  -0.407  0.00  0.00     0.174 A 
ATOM      3  C3  BZF d   1       1.051   0.210   0.903  0.00  0.00    -0.012 A 
ATOM      4  C3A BZF d   1      -0.200   0.265   1.594  0.00  0.00    -0.107 A 
ATOM      5  C4  BZF d   1      -0.542   0.305   2.915  0.00  0.00     0.055 A 
ATOM      6  C5  BZF d   1      -1.852   0.429   3.255  0.00  0.00    -0.016 A 
ATOM      7  C6  BZF d   1      -2.844   0.522   2.301  0.00  0.00     0.022 A 
ATOM      8  C7  BZF d   1      -2.554   0.482   0.978  0.00  0.00     0.029 A 
ATOM      9  C7A BZF d   1      -1.235   0.323   0.632  0.00  0.00     0.058 A 
ENDROOT
TORSDOF 0
ENDMDL
