MODEL 1
REMARK minimizedAffinity -6.50764656
REMARK minimizedRMSD -1
REMARK  0 active torsions:
REMARK  status: ('A' for Active; 'I' for Inactive)
ROOT
ATOM      1  O1  BZF d   1       0.022  -0.198   3.428  0.00  0.00    -0.204 OA
ATOM      2  C2  BZF d   1      -1.314  -0.431   3.693  0.00  0.00     0.174 A 
ATOM      3  C3  BZF d   1      -2.041  -0.387   2.558  0.00  0.00    -0.012 A 
ATOM      4  C3A BZF d   1      -1.089  -0.201   1.507  0.00  0.00    -0.107 A 
ATOM      5  C4  BZF d   1      -1.197  -0.096   0.150  0.00  0.00     0.055 A 
ATOM      6  C5  BZF d   1      -0.081   0.154  -0.584  0.00  0.00    -0.016 A 
ATOM      7  C6  BZF d   1       1.156   0.310   0.005  0.00  0.00     0.022 A 
ATOM      8  C7  BZF d   1       1.314   0.209   1.348  0.00  0.00     0.029 A 
ATOM      9  C7A BZF d   1       0.194  -0.076   2.089  0.00  0.00     0.058 A 
ENDROOT
TORSDOF 0
ENDMDL
