MODEL 1
REMARK minimizedAffinity -6.65120697
REMARK minimizedRMSD -1
REMARK  0 active torsions:
REMARK  status: ('A' for Active; 'I' for Inactive)
ROOT
ATOM      1  O1  BZF d   1      -0.981   0.762  -0.322  0.00  0.00    -0.204 OA
ATOM      2  C2  BZF d   1       0.394   0.741  -0.193  0.00  0.00     0.174 A 
ATOM      3  C3  BZF d   1       0.752   0.395   1.060  0.00  0.00    -0.012 A 
ATOM      4  C3A BZF d   1      -0.475   0.097   1.733  0.00  0.00    -0.107 A 
ATOM      5  C4  BZF d   1      -0.774  -0.320   2.999  0.00  0.00     0.055 A 
ATOM      6  C5  BZF d   1      -2.077  -0.448   3.361  0.00  0.00    -0.016 A 
ATOM      7  C6  BZF d   1      -3.105  -0.163   2.487  0.00  0.00     0.022 A 
ATOM      8  C7  BZF d   1      -2.858   0.249   1.219  0.00  0.00     0.029 A 
ATOM      9  C7A BZF d   1      -1.542   0.348   0.840  0.00  0.00     0.058 A 
ENDROOT
TORSDOF 0
ENDMDL
