MODEL 1
REMARK minimizedAffinity -6.71954584
REMARK minimizedRMSD -1
REMARK  0 active torsions:
REMARK  status: ('A' for Active; 'I' for Inactive)
ROOT
ATOM      1  O1  BZF d   1      -1.966   0.694  -0.145  0.00  0.00    -0.204 OA
ATOM      2  C2  BZF d   1      -0.700   0.349  -0.576  0.00  0.00     0.174 A 
ATOM      3  C3  BZF d   1       0.005  -0.226   0.420  0.00  0.00    -0.012 A 
ATOM      4  C3A BZF d   1      -0.908  -0.325   1.518  0.00  0.00    -0.107 A 
ATOM      5  C4  BZF d   1      -0.802  -0.823   2.785  0.00  0.00     0.055 A 
ATOM      6  C5  BZF d   1      -1.857  -0.701   3.633  0.00  0.00    -0.016 A 
ATOM      7  C6  BZF d   1      -3.029  -0.083   3.249  0.00  0.00     0.022 A 
ATOM      8  C7  BZF d   1      -3.183   0.422   2.001  0.00  0.00     0.029 A 
ATOM      9  C7A BZF d   1      -2.131   0.271   1.131  0.00  0.00     0.058 A 
ENDROOT
TORSDOF 0
ENDMDL
