MODEL 1
REMARK minimizedAffinity -5.83638811
REMARK minimizedRMSD -1
REMARK  0 active torsions:
REMARK  status: ('A' for Active; 'I' for Inactive)
ROOT
ATOM      1  O1  BZF d   1      -1.068   0.664  -0.283  0.00  0.00    -0.204 OA
ATOM      2  C2  BZF d   1       0.284   0.391  -0.371  0.00  0.00     0.174 A 
ATOM      3  C3  BZF d   1       0.753  -0.087   0.799  0.00  0.00    -0.012 A 
ATOM      4  C3A BZF d   1      -0.394  -0.201   1.646  0.00  0.00    -0.107 A 
ATOM      5  C4  BZF d   1      -0.575  -0.633   2.929  0.00  0.00     0.055 A 
ATOM      6  C5  BZF d   1      -1.811  -0.548   3.487  0.00  0.00    -0.016 A 
ATOM      7  C6  BZF d   1      -2.887  -0.033   2.793  0.00  0.00     0.022 A 
ATOM      8  C7  BZF d   1      -2.758   0.403   1.516  0.00  0.00     0.029 A 
ATOM      9  C7A BZF d   1      -1.517   0.288   0.939  0.00  0.00     0.058 A 
ENDROOT
TORSDOF 0
ENDMDL
