MODEL 1
REMARK minimizedAffinity -1.11811626
REMARK minimizedRMSD -1
REMARK  1 active torsions:
REMARK  status: ('A' for Active; 'I' for Inactive)
REMARK    1  A    between atoms: C1_2  and  C2_3 
ROOT
ATOM      1  C2  UNL d   1      -0.607  -0.683   1.760  0.00  0.00    -0.076 A 
ATOM      2  C3  UNL d   1       0.685  -0.451   1.258  0.00  0.00     0.004 A 
ATOM      3  C4  UNL d   1       0.912  -0.333  -0.112  0.00  0.00    -0.003 A 
ATOM      4  C5  UNL d   1      -0.149  -0.445  -1.003  0.00  0.00     0.000 A 
ATOM      5  C6  UNL d   1      -1.441  -0.658  -0.522  0.00  0.00     0.000 A 
ATOM      6  C7  UNL d   1      -1.690  -0.763   0.858  0.00  0.00    -0.073 A 
ATOM      7  C8  UNL d   1      -3.101  -0.999   1.321  0.00  0.00     0.078 C 
ENDROOT
BRANCH   1   8
ATOM      8  C1  UNL d   1      -0.789  -0.830   3.254  0.00  0.00     0.053 C 
ATOM      9  C   UNL d   1      -0.197   0.336   4.030  0.00  0.00     0.018 C 
ENDBRANCH   1   8
TORSDOF 1
ENDMDL
