MODEL 1
REMARK minimizedAffinity -5.44503498
REMARK minimizedRMSD -1
REMARK  1 active torsions:
REMARK  status: ('A' for Active; 'I' for Inactive)
REMARK    1  A    between atoms: C1_2  and  C2_3 
ROOT
ATOM      1  C2  UNL d   1      -0.138   0.004   0.492  0.00  0.00    -0.076 A 
ATOM      2  C3  UNL d   1       0.934  -0.338   1.336  0.00  0.00     0.004 A 
ATOM      3  C4  UNL d   1       0.735  -0.547   2.699  0.00  0.00    -0.003 A 
ATOM      4  C5  UNL d   1      -0.539  -0.419   3.242  0.00  0.00     0.000 A 
ATOM      5  C6  UNL d   1      -1.617  -0.098   2.417  0.00  0.00     0.000 A 
ATOM      6  C7  UNL d   1      -1.436   0.100   1.037  0.00  0.00    -0.073 A 
ATOM      7  C8  UNL d   1      -2.633   0.450   0.195  0.00  0.00     0.078 C 
ENDROOT
BRANCH   1   8
ATOM      8  C1  UNL d   1       0.143   0.245  -0.974  0.00  0.00     0.053 C 
ATOM      9  C   UNL d   1       0.591  -1.016  -1.697  0.00  0.00     0.018 C 
ENDBRANCH   1   8
TORSDOF 1
ENDMDL
