MODEL 1
REMARK minimizedAffinity -3.22204423
REMARK minimizedRMSD -1
REMARK  1 active torsions:
REMARK  status: ('A' for Active; 'I' for Inactive)
REMARK    1  A    between atoms: C1_2  and  C2_3 
ROOT
ATOM      1  C2  UNL d   1       0.369  -0.208   0.923  0.00  0.00    -0.076 A 
ATOM      2  C3  UNL d   1      -0.575  -1.129   1.409  0.00  0.00     0.004 A 
ATOM      3  C4  UNL d   1      -0.833  -1.238   2.775  0.00  0.00    -0.003 A 
ATOM      4  C5  UNL d   1      -0.151  -0.427   3.676  0.00  0.00     0.000 A 
ATOM      5  C6  UNL d   1       0.775   0.504   3.209  0.00  0.00     0.000 A 
ATOM      6  C7  UNL d   1       1.035   0.638   1.835  0.00  0.00    -0.073 A 
ATOM      7  C8  UNL d   1       2.049   1.656   1.387  0.00  0.00     0.078 C 
ENDROOT
BRANCH   1   8
ATOM      8  C1  UNL d   1       0.626  -0.153  -0.566  0.00  0.00     0.053 C 
ATOM      9  C   UNL d   1      -0.282   0.837  -1.279  0.00  0.00     0.018 C 
ENDBRANCH   1   8
TORSDOF 1
ENDMDL
