MODEL 1
REMARK minimizedAffinity -3.98384023
REMARK minimizedRMSD -1
REMARK  1 active torsions:
REMARK  status: ('A' for Active; 'I' for Inactive)
REMARK    1  A    between atoms: C1_2  and  C2_3 
ROOT
ATOM      1  C2  UNL d   1      -0.049   0.142   0.356  0.00  0.00    -0.076 A 
ATOM      2  C3  UNL d   1      -1.077  -0.745   0.721  0.00  0.00     0.004 A 
ATOM      3  C4  UNL d   1      -1.311  -1.060   2.059  0.00  0.00    -0.003 A 
ATOM      4  C5  UNL d   1      -0.520  -0.493   3.053  0.00  0.00     0.000 A 
ATOM      5  C6  UNL d   1       0.492   0.402   2.709  0.00  0.00     0.000 A 
ATOM      6  C7  UNL d   1       0.730   0.743   1.367  0.00  0.00    -0.073 A 
ATOM      7  C8  UNL d   1       1.840   1.709   1.053  0.00  0.00     0.078 C 
ENDROOT
BRANCH   1   8
ATOM      8  C1  UNL d   1       0.175   0.424  -1.113  0.00  0.00     0.053 C 
ATOM      9  C   UNL d   1       0.644  -0.803  -1.878  0.00  0.00     0.018 C 
ENDBRANCH   1   8
TORSDOF 1
ENDMDL
