MODEL 1
REMARK minimizedAffinity -5.6784935
REMARK minimizedRMSD -1
REMARK  1 active torsions:
REMARK  status: ('A' for Active; 'I' for Inactive)
REMARK    1  A    between atoms: C1_2  and  C2_3 
ROOT
ATOM      1  C2  UNL d   1      -0.503   0.219   0.565  0.00  0.00    -0.076 A 
ATOM      2  C3  UNL d   1      -1.900   0.200   0.723  0.00  0.00     0.004 A 
ATOM      3  C4  UNL d   1      -2.480   0.291   1.987  0.00  0.00    -0.003 A 
ATOM      4  C5  UNL d   1      -1.673   0.404   3.114  0.00  0.00     0.000 A 
ATOM      5  C6  UNL d   1      -0.287   0.443   2.974  0.00  0.00     0.000 A 
ATOM      6  C7  UNL d   1       0.314   0.368   1.706  0.00  0.00    -0.073 A 
ATOM      7  C8  UNL d   1       1.815   0.409   1.614  0.00  0.00     0.078 C 
ENDROOT
BRANCH   1   8
ATOM      8  C1  UNL d   1       0.070   0.090  -0.828  0.00  0.00     0.053 C 
ATOM      9  C   UNL d   1      -0.246   1.293  -1.702  0.00  0.00     0.018 C 
ENDBRANCH   1   8
TORSDOF 1
ENDMDL
