MODEL 1
REMARK minimizedAffinity -5.49104071
REMARK minimizedRMSD -1
REMARK  1 active torsions:
REMARK  status: ('A' for Active; 'I' for Inactive)
REMARK    1  A    between atoms: C1_2  and  C2_3 
ROOT
ATOM      1  C2  UNL d   1      -0.586   0.327   0.356  0.00  0.00    -0.076 A 
ATOM      2  C3  UNL d   1       0.576  -0.008   1.072  0.00  0.00     0.004 A 
ATOM      3  C4  UNL d   1       0.507  -0.403   2.407  0.00  0.00    -0.003 A 
ATOM      4  C5  UNL d   1      -0.726  -0.470   3.047  0.00  0.00     0.000 A 
ATOM      5  C6  UNL d   1      -1.890  -0.158   2.346  0.00  0.00     0.000 A 
ATOM      6  C7  UNL d   1      -1.840   0.227   0.995  0.00  0.00    -0.073 A 
ATOM      7  C8  UNL d   1      -3.126   0.558   0.290  0.00  0.00     0.078 C 
ENDROOT
BRANCH   1   8
ATOM      8  C1  UNL d   1      -0.446   0.775  -1.082  0.00  0.00     0.053 C 
ATOM      9  C   UNL d   1       0.739   0.127  -1.782  0.00  0.00     0.018 C 
ENDBRANCH   1   8
TORSDOF 1
ENDMDL
