MODEL 1
REMARK minimizedAffinity -4.90619755
REMARK minimizedRMSD -1
REMARK  1 active torsions:
REMARK  status: ('A' for Active; 'I' for Inactive)
REMARK    1  A    between atoms: C1_2  and  C2_3 
ROOT
ATOM      1  C2  UNL d   1      -0.072   0.074   0.625  0.00  0.00    -0.076 A 
ATOM      2  C3  UNL d   1      -1.035  -0.876   1.008  0.00  0.00     0.004 A 
ATOM      3  C4  UNL d   1      -1.348  -1.079   2.350  0.00  0.00    -0.003 A 
ATOM      4  C5  UNL d   1      -0.704  -0.335   3.333  0.00  0.00     0.000 A 
ATOM      5  C6  UNL d   1       0.241   0.624   2.971  0.00  0.00     0.000 A 
ATOM      6  C7  UNL d   1       0.557   0.852   1.620  0.00  0.00    -0.073 A 
ATOM      7  C8  UNL d   1       1.589   1.895   1.287  0.00  0.00     0.078 C 
ENDROOT
BRANCH   1   8
ATOM      8  C1  UNL d   1       0.247   0.231  -0.845  0.00  0.00     0.053 C 
ATOM      9  C   UNL d   1       0.874  -1.019  -1.442  0.00  0.00     0.018 C 
ENDBRANCH   1   8
TORSDOF 1
ENDMDL
