MODEL 1
REMARK minimizedAffinity -5.62976027
REMARK minimizedRMSD -1
REMARK  1 active torsions:
REMARK  status: ('A' for Active; 'I' for Inactive)
REMARK    1  A    between atoms: C1_2  and  C2_3 
ROOT
ATOM      1  C2  UNL d   1       0.432  -0.058   0.746  0.00  0.00    -0.076 A 
ATOM      2  C3  UNL d   1      -0.833  -0.522   1.149  0.00  0.00     0.004 A 
ATOM      3  C4  UNL d   1      -1.077  -0.883   2.473  0.00  0.00    -0.003 A 
ATOM      4  C5  UNL d   1      -0.060  -0.785   3.416  0.00  0.00     0.000 A 
ATOM      5  C6  UNL d   1       1.195  -0.310   3.039  0.00  0.00     0.000 A 
ATOM      6  C7  UNL d   1       1.453   0.073   1.711  0.00  0.00    -0.073 A 
ATOM      7  C8  UNL d   1       2.828   0.573   1.358  0.00  0.00     0.078 C 
ENDROOT
BRANCH   1   8
ATOM      8  C1  UNL d   1       0.646   0.292  -0.709  0.00  0.00     0.053 C 
ATOM      9  C   UNL d   1       0.547  -0.921  -1.621  0.00  0.00     0.018 C 
ENDBRANCH   1   8
TORSDOF 1
ENDMDL
