MODEL 1
REMARK minimizedAffinity -3.7208128
REMARK minimizedRMSD -1
REMARK  1 active torsions:
REMARK  status: ('A' for Active; 'I' for Inactive)
REMARK    1  A    between atoms: C1_2  and  C2_3 
ROOT
ATOM      1  C2  UNL d   1      -0.373   0.462   1.359  0.00  0.00    -0.076 A 
ATOM      2  C3  UNL d   1      -1.625   0.290   0.744  0.00  0.00     0.004 A 
ATOM      3  C4  UNL d   1      -1.773   0.433  -0.635  0.00  0.00    -0.003 A 
ATOM      4  C5  UNL d   1      -0.671   0.750  -1.421  0.00  0.00     0.000 A 
ATOM      5  C6  UNL d   1       0.582   0.907  -0.830  0.00  0.00     0.000 A 
ATOM      6  C7  UNL d   1       0.752   0.749   0.556  0.00  0.00    -0.073 A 
ATOM      7  C8  UNL d   1       2.125   0.936   1.141  0.00  0.00     0.078 C 
ENDROOT
BRANCH   1   8
ATOM      8  C1  UNL d   1      -0.278   0.320   2.861  0.00  0.00     0.053 C 
ATOM      9  C   UNL d   1      -1.107  -0.840   3.390  0.00  0.00     0.018 C 
ENDBRANCH   1   8
TORSDOF 1
ENDMDL
