MODEL 1
REMARK minimizedAffinity -4.36644793
REMARK minimizedRMSD -1
REMARK  1 active torsions:
REMARK  status: ('A' for Active; 'I' for Inactive)
REMARK    1  A    between atoms: C1_2  and  C2_3 
ROOT
ATOM      1  C2  UNL d   1      -0.165   0.253  -0.069  0.00  0.00    -0.076 A 
ATOM      2  C3  UNL d   1       1.047   0.281   0.643  0.00  0.00     0.004 A 
ATOM      3  C4  UNL d   1       1.085  -0.005   2.007  0.00  0.00    -0.003 A 
ATOM      4  C5  UNL d   1      -0.088  -0.324   2.681  0.00  0.00     0.000 A 
ATOM      5  C6  UNL d   1      -1.297  -0.374   1.987  0.00  0.00     0.000 A 
ATOM      6  C7  UNL d   1      -1.350  -0.104   0.609  0.00  0.00    -0.073 A 
ATOM      7  C8  UNL d   1      -2.682  -0.167  -0.088  0.00  0.00     0.078 C 
ENDROOT
BRANCH   1   8
ATOM      8  C1  UNL d   1      -0.148   0.598  -1.541  0.00  0.00     0.053 C 
ATOM      9  C   UNL d   1       0.899  -0.190  -2.312  0.00  0.00     0.018 C 
ENDBRANCH   1   8
TORSDOF 1
ENDMDL
