MODEL 1
REMARK minimizedAffinity -3.36576533
REMARK minimizedRMSD -1
REMARK  1 active torsions:
REMARK  status: ('A' for Active; 'I' for Inactive)
REMARK    1  A    between atoms: C1_2  and  C2_3 
ROOT
ATOM      1  C2  UNL d   1       0.024   0.394   0.184  0.00  0.00    -0.076 A 
ATOM      2  C3  UNL d   1      -1.172  -0.298   0.445  0.00  0.00     0.004 A 
ATOM      3  C4  UNL d   1      -1.561  -0.590   1.751  0.00  0.00    -0.003 A 
ATOM      4  C5  UNL d   1      -0.762  -0.194   2.817  0.00  0.00     0.000 A 
ATOM      5  C6  UNL d   1       0.418   0.509   2.578  0.00  0.00     0.000 A 
ATOM      6  C7  UNL d   1       0.817   0.826   1.268  0.00  0.00    -0.073 A 
ATOM      7  C8  UNL d   1       2.103   1.581   1.068  0.00  0.00     0.078 C 
ENDROOT
BRANCH   1   8
ATOM      8  C1  UNL d   1       0.408   0.659  -1.254  0.00  0.00     0.053 C 
ATOM      9  C   UNL d   1       0.852  -0.601  -1.981  0.00  0.00     0.018 C 
ENDBRANCH   1   8
TORSDOF 1
ENDMDL
