MODEL 1
REMARK minimizedAffinity -3.58599758
REMARK minimizedRMSD -1
REMARK  1 active torsions:
REMARK  status: ('A' for Active; 'I' for Inactive)
REMARK    1  A    between atoms: C1_2  and  C2_3 
ROOT
ATOM      1  C2  UNL d   1      -0.522  -0.398   0.458  0.00  0.00    -0.076 A 
ATOM      2  C3  UNL d   1       0.679  -0.380  -0.273  0.00  0.00     0.004 A 
ATOM      3  C4  UNL d   1       0.693  -0.030  -1.622  0.00  0.00    -0.003 A 
ATOM      4  C5  UNL d   1      -0.494   0.310  -2.262  0.00  0.00     0.000 A 
ATOM      5  C6  UNL d   1      -1.692   0.315  -1.548  0.00  0.00     0.000 A 
ATOM      6  C7  UNL d   1      -1.721  -0.020  -0.184  0.00  0.00    -0.073 A 
ATOM      7  C8  UNL d   1      -3.042  -0.003   0.535  0.00  0.00     0.078 C 
ENDROOT
BRANCH   1   8
ATOM      8  C1  UNL d   1      -0.480  -0.813   1.911  0.00  0.00     0.053 C 
ATOM      9  C   UNL d   1       0.113   0.264   2.807  0.00  0.00     0.018 C 
ENDBRANCH   1   8
TORSDOF 1
ENDMDL
