MODEL 1
REMARK minimizedAffinity 5.90108776
REMARK minimizedRMSD -1
REMARK  0 active torsions:
REMARK  status: ('A' for Active; 'I' for Inactive)
ROOT
ATOM      1  C   UNL d   1       4.323   1.102  -2.071  0.00  0.00     0.023 A 
ATOM      2  C1  UNL d   1       3.302   0.170  -1.879  0.00  0.00     0.003 A 
ATOM      3  C2  UNL d   1       3.040  -0.327  -0.601  0.00  0.00     0.048 A 
ATOM      4  C3  UNL d   1       3.802   0.112   0.481  0.00  0.00     0.023 A 
ATOM      5  C4  UNL d   1       4.824   1.045   0.294  0.00  0.00     0.048 A 
ATOM      6  C5  UNL d   1       5.083   1.538  -0.986  0.00  0.00     0.003 A 
ATOM      7  I   UNL d   1       3.414  -0.626   2.385  0.00  0.00    -0.146 I 
ENDROOT
TORSDOF 0
ENDMDL
