MODEL 1
REMARK minimizedAffinity 1.39147484
REMARK minimizedRMSD -1
REMARK  0 active torsions:
REMARK  status: ('A' for Active; 'I' for Inactive)
ROOT
ATOM      1  C   UNL d   1       2.502   0.440  -0.083  0.00  0.00     0.023 A 
ATOM      2  C1  UNL d   1       3.510   1.242   0.452  0.00  0.00     0.003 A 
ATOM      3  C2  UNL d   1       4.405   1.899  -0.395  0.00  0.00     0.048 A 
ATOM      4  C3  UNL d   1       4.285   1.751  -1.776  0.00  0.00     0.023 A 
ATOM      5  C4  UNL d   1       3.277   0.951  -2.317  0.00  0.00     0.048 A 
ATOM      6  C5  UNL d   1       2.386   0.294  -1.466  0.00  0.00     0.003 A 
ATOM      7  I   UNL d   1       5.615   2.729  -3.039  0.00  0.00    -0.146 I 
ENDROOT
TORSDOF 0
ENDMDL
