MODEL 1
REMARK minimizedAffinity 15.0456209
REMARK minimizedRMSD -1
REMARK  0 active torsions:
REMARK  status: ('A' for Active; 'I' for Inactive)
ROOT
ATOM      1  C   UNL d   1      -5.890   0.361  -5.861  0.00  0.00     0.023 A 
ATOM      2  C1  UNL d   1      -5.615  -0.886  -5.300  0.00  0.00     0.003 A 
ATOM      3  C2  UNL d   1      -5.449  -1.010  -3.919  0.00  0.00     0.048 A 
ATOM      4  C3  UNL d   1      -5.559   0.117  -3.105  0.00  0.00     0.023 A 
ATOM      5  C4  UNL d   1      -5.835   1.367  -3.663  0.00  0.00     0.048 A 
ATOM      6  C5  UNL d   1      -6.000   1.486  -5.044  0.00  0.00     0.003 A 
ATOM      7  I   UNL d   1      -5.312  -0.064  -1.050  0.00  0.00    -0.146 I 
ENDROOT
TORSDOF 0
ENDMDL
