MODEL 1
REMARK minimizedAffinity 10.8675833
REMARK minimizedRMSD -1
REMARK  0 active torsions:
REMARK  status: ('A' for Active; 'I' for Inactive)
ROOT
ATOM      1  C   UNL d   1      -0.185   5.379   1.837  0.00  0.00     0.023 A 
ATOM      2  C1  UNL d   1       0.462   4.173   2.103  0.00  0.00     0.003 A 
ATOM      3  C2  UNL d   1       0.161   3.036   1.350  0.00  0.00     0.048 A 
ATOM      4  C3  UNL d   1      -0.788   3.113   0.331  0.00  0.00     0.023 A 
ATOM      5  C4  UNL d   1      -1.437   4.319   0.060  0.00  0.00     0.048 A 
ATOM      6  C5  UNL d   1      -1.134   5.452   0.817  0.00  0.00     0.003 A 
ATOM      7  I   UNL d   1      -1.237   1.423  -0.792  0.00  0.00    -0.146 I 
ENDROOT
TORSDOF 0
ENDMDL
