MODEL 1
REMARK minimizedAffinity 16.8974133
REMARK minimizedRMSD -1
REMARK  0 active torsions:
REMARK  status: ('A' for Active; 'I' for Inactive)
ROOT
ATOM      1  C   UNL d   1      -4.322  -1.785  -5.387  0.00  0.00     0.023 A 
ATOM      2  C1  UNL d   1      -3.584  -0.854  -4.656  0.00  0.00     0.003 A 
ATOM      3  C2  UNL d   1      -4.039   0.461  -4.537  0.00  0.00     0.048 A 
ATOM      4  C3  UNL d   1      -5.233   0.838  -5.151  0.00  0.00     0.023 A 
ATOM      5  C4  UNL d   1      -5.975  -0.090  -5.883  0.00  0.00     0.048 A 
ATOM      6  C5  UNL d   1      -5.516  -1.404  -6.000  0.00  0.00     0.003 A 
ATOM      7  I   UNL d   1      -5.911   2.794  -4.975  0.00  0.00    -0.146 I 
ENDROOT
TORSDOF 0
ENDMDL
