MODEL 1
REMARK minimizedAffinity 1.98635244
REMARK minimizedRMSD -1
REMARK  0 active torsions:
REMARK  status: ('A' for Active; 'I' for Inactive)
ROOT
ATOM      1  C   UNL d   1       0.833   2.747   0.048  0.00  0.00     0.124 A 
ATOM      2  C1  UNL d   1       1.831   1.784  -0.008  0.00  0.00     0.062 A 
ATOM      3  C2  UNL d   1       1.556   0.469   0.355  0.00  0.00     0.162 A 
ATOM      4  C3  UNL d   1       0.277   0.108   0.777  0.00  0.00    -0.034 A 
ATOM      5  C4  UNL d   1      -0.722   1.082   0.832  0.00  0.00     0.162 A 
ATOM      6  C5  UNL d   1      -0.442   2.395   0.468  0.00  0.00     0.062 A 
ATOM      7  F   UNL d   1      -1.408   3.324   0.523  0.00  0.00    -0.097 F 
ATOM      8  F1  UNL d   1      -1.963   0.769   1.233  0.00  0.00    -0.096 F 
ATOM      9  I   UNL d   1      -0.138  -1.858   1.321  0.00  0.00    -0.060 I 
ATOM     10  F2  UNL d   1       2.540  -0.441   0.291  0.00  0.00    -0.096 F 
ATOM     11  F3  UNL d   1       3.064   2.122  -0.413  0.00  0.00    -0.097 F 
ATOM     12  F4  UNL d   1       1.100   4.012  -0.301  0.00  0.00    -0.092 F 
ENDROOT
TORSDOF 0
ENDMDL
