MODEL 1
REMARK minimizedAffinity 7.12457466
REMARK minimizedRMSD -1
REMARK  0 active torsions:
REMARK  status: ('A' for Active; 'I' for Inactive)
ROOT
ATOM      1  C   UNL d   1       0.019   1.742   0.913  0.00  0.00     0.124 A 
ATOM      2  C1  UNL d   1       0.276   0.401   0.664  0.00  0.00     0.062 A 
ATOM      3  C2  UNL d   1      -0.399  -0.585   1.378  0.00  0.00     0.162 A 
ATOM      4  C3  UNL d   1      -1.340  -0.233   2.346  0.00  0.00    -0.034 A 
ATOM      5  C4  UNL d   1      -1.592   1.117   2.591  0.00  0.00     0.162 A 
ATOM      6  C5  UNL d   1      -0.915   2.099   1.875  0.00  0.00     0.062 A 
ATOM      7  F   UNL d   1      -1.165   3.394   2.117  0.00  0.00    -0.097 F 
ATOM      8  F1  UNL d   1      -2.491   1.490   3.514  0.00  0.00    -0.096 F 
ATOM      9  I   UNL d   1      -2.352  -1.705   3.414  0.00  0.00    -0.060 I 
ATOM     10  F2  UNL d   1      -0.131  -1.873   1.117  0.00  0.00    -0.096 F 
ATOM     11  F3  UNL d   1       1.179   0.054  -0.264  0.00  0.00    -0.097 F 
ATOM     12  F4  UNL d   1       0.671   2.689   0.226  0.00  0.00    -0.092 F 
ENDROOT
TORSDOF 0
ENDMDL
