MODEL 1
REMARK minimizedAffinity 9.99244118
REMARK minimizedRMSD -1
REMARK  0 active torsions:
REMARK  status: ('A' for Active; 'I' for Inactive)
ROOT
ATOM      1  C   UNL d   1      -1.678   0.013   2.413  0.00  0.00     0.124 A 
ATOM      2  C1  UNL d   1      -1.907   1.382   2.414  0.00  0.00     0.062 A 
ATOM      3  C2  UNL d   1      -1.074   2.231   1.692  0.00  0.00     0.162 A 
ATOM      4  C3  UNL d   1      -0.005   1.715   0.960  0.00  0.00    -0.034 A 
ATOM      5  C4  UNL d   1       0.220   0.337   0.964  0.00  0.00     0.162 A 
ATOM      6  C5  UNL d   1      -0.615  -0.508   1.688  0.00  0.00     0.062 A 
ATOM      7  F   UNL d   1      -0.392  -1.831   1.686  0.00  0.00    -0.097 F 
ATOM      8  F1  UNL d   1       1.239  -0.194   0.272  0.00  0.00    -0.096 F 
ATOM      9  I   UNL d   1       1.242   2.982  -0.121  0.00  0.00    -0.060 I 
ATOM     10  F2  UNL d   1      -1.319   3.550   1.711  0.00  0.00    -0.096 F 
ATOM     11  F3  UNL d   1      -2.932   1.888   3.114  0.00  0.00    -0.097 F 
ATOM     12  F4  UNL d   1      -2.480  -0.803   3.110  0.00  0.00    -0.092 F 
ENDROOT
TORSDOF 0
ENDMDL
