MODEL 1
REMARK minimizedAffinity 10.8956232
REMARK minimizedRMSD -1
REMARK  0 active torsions:
REMARK  status: ('A' for Active; 'I' for Inactive)
ROOT
ATOM      1  C   UNL d   1       3.220   2.515   2.225  0.00  0.00     0.124 A 
ATOM      2  C1  UNL d   1       2.080   2.925   2.903  0.00  0.00     0.062 A 
ATOM      3  C2  UNL d   1       0.851   2.955   2.252  0.00  0.00     0.162 A 
ATOM      4  C3  UNL d   1       0.753   2.571   0.914  0.00  0.00    -0.034 A 
ATOM      5  C4  UNL d   1       1.904   2.161   0.239  0.00  0.00     0.162 A 
ATOM      6  C5  UNL d   1       3.130   2.133   0.894  0.00  0.00     0.062 A 
ATOM      7  F   UNL d   1       4.230   1.736   0.237  0.00  0.00    -0.097 F 
ATOM      8  F1  UNL d   1       1.846   1.785  -1.048  0.00  0.00    -0.096 F 
ATOM      9  I   UNL d   1      -1.084   2.614  -0.063  0.00  0.00    -0.060 I 
ATOM     10  F2  UNL d   1      -0.234   3.356   2.932  0.00  0.00    -0.096 F 
ATOM     11  F3  UNL d   1       2.164   3.296   4.189  0.00  0.00    -0.097 F 
ATOM     12  F4  UNL d   1       4.402   2.488   2.854  0.00  0.00    -0.092 F 
ENDROOT
TORSDOF 0
ENDMDL
