MODEL 1
REMARK minimizedAffinity 7.00221348
REMARK minimizedRMSD -1
REMARK  0 active torsions:
REMARK  status: ('A' for Active; 'I' for Inactive)
ROOT
ATOM      1  C   UNL d   1       1.357   3.413   0.139  0.00  0.00     0.124 A 
ATOM      2  C1  UNL d   1       2.414   2.522   0.265  0.00  0.00     0.062 A 
ATOM      3  C2  UNL d   1       2.171   1.188   0.576  0.00  0.00     0.162 A 
ATOM      4  C3  UNL d   1       0.864   0.735   0.763  0.00  0.00    -0.034 A 
ATOM      5  C4  UNL d   1      -0.193   1.638   0.636  0.00  0.00     0.162 A 
ATOM      6  C5  UNL d   1       0.055   2.971   0.325  0.00  0.00     0.062 A 
ATOM      7  F   UNL d   1      -0.967   3.830   0.205  0.00  0.00    -0.097 F 
ATOM      8  F1  UNL d   1      -1.461   1.236   0.809  0.00  0.00    -0.096 F 
ATOM      9  I   UNL d   1       0.497  -1.260   1.228  0.00  0.00    -0.060 I 
ATOM     10  F2  UNL d   1       3.211   0.349   0.690  0.00  0.00    -0.096 F 
ATOM     11  F3  UNL d   1       3.673   2.948   0.087  0.00  0.00    -0.097 F 
ATOM     12  F4  UNL d   1       1.594   4.697  -0.159  0.00  0.00    -0.092 F 
ENDROOT
TORSDOF 0
ENDMDL
