MODEL 1
REMARK minimizedAffinity 22.3038654
REMARK minimizedRMSD -1
REMARK  0 active torsions:
REMARK  status: ('A' for Active; 'I' for Inactive)
ROOT
ATOM      1  C   UNL d   1      -0.366   2.681   1.490  0.00  0.00     0.124 A 
ATOM      2  C1  UNL d   1      -0.886   1.471   1.928  0.00  0.00     0.062 A 
ATOM      3  C2  UNL d   1      -0.401   0.273   1.411  0.00  0.00     0.162 A 
ATOM      4  C3  UNL d   1       0.612   0.279   0.452  0.00  0.00    -0.034 A 
ATOM      5  C4  UNL d   1       1.129   1.500   0.016  0.00  0.00     0.162 A 
ATOM      6  C5  UNL d   1       0.641   2.695   0.535  0.00  0.00     0.062 A 
ATOM      7  F   UNL d   1       1.145   3.863   0.111  0.00  0.00    -0.097 F 
ATOM      8  F1  UNL d   1       2.103   1.542  -0.905  0.00  0.00    -0.096 F 
ATOM      9  I   UNL d   1       1.340  -1.510  -0.323  0.00  0.00    -0.060 I 
ATOM     10  F2  UNL d   1      -0.922  -0.881   1.852  0.00  0.00    -0.096 F 
ATOM     11  F3  UNL d   1      -1.859   1.456   2.850  0.00  0.00    -0.097 F 
ATOM     12  F4  UNL d   1      -0.835   3.833   1.988  0.00  0.00    -0.092 F 
ENDROOT
TORSDOF 0
ENDMDL
