MODEL 1
REMARK minimizedAffinity 9.37132835
REMARK minimizedRMSD -1
REMARK  0 active torsions:
REMARK  status: ('A' for Active; 'I' for Inactive)
ROOT
ATOM      1  C   UNL d   1       3.101   2.165   2.214  0.00  0.00     0.124 A 
ATOM      2  C1  UNL d   1       2.971   2.138   0.832  0.00  0.00     0.062 A 
ATOM      3  C2  UNL d   1       1.725   2.331   0.243  0.00  0.00     0.162 A 
ATOM      4  C3  UNL d   1       0.598   2.553   1.035  0.00  0.00    -0.034 A 
ATOM      5  C4  UNL d   1       0.737   2.577   2.424  0.00  0.00     0.162 A 
ATOM      6  C5  UNL d   1       1.985   2.384   3.008  0.00  0.00     0.062 A 
ATOM      7  F   UNL d   1       2.109   2.411   4.343  0.00  0.00    -0.097 F 
ATOM      8  F1  UNL d   1      -0.325   2.788   3.215  0.00  0.00    -0.096 F 
ATOM      9  I   UNL d   1      -1.267   2.841   0.157  0.00  0.00    -0.060 I 
ATOM     10  F2  UNL d   1       1.629   2.300  -1.095  0.00  0.00    -0.096 F 
ATOM     11  F3  UNL d   1       4.048   1.926   0.063  0.00  0.00    -0.097 F 
ATOM     12  F4  UNL d   1       4.301   1.979   2.778  0.00  0.00    -0.092 F 
ENDROOT
TORSDOF 0
ENDMDL
