MODEL 1
REMARK minimizedAffinity 7.73434591
REMARK minimizedRMSD -1
REMARK  0 active torsions:
REMARK  status: ('A' for Active; 'I' for Inactive)
ROOT
ATOM      1  C   UNL d   1       0.785  -5.438  -3.715  0.00  0.00     0.124 A 
ATOM      2  C1  UNL d   1       1.384  -5.151  -2.496  0.00  0.00     0.062 A 
ATOM      3  C2  UNL d   1       2.771  -5.149  -2.380  0.00  0.00     0.162 A 
ATOM      4  C3  UNL d   1       3.570  -5.434  -3.488  0.00  0.00    -0.034 A 
ATOM      5  C4  UNL d   1       2.961  -5.722  -4.710  0.00  0.00     0.162 A 
ATOM      6  C5  UNL d   1       1.574  -5.723  -4.821  0.00  0.00     0.062 A 
ATOM      7  F   UNL d   1       0.997  -6.000  -5.999  0.00  0.00    -0.097 F 
ATOM      8  F1  UNL d   1       3.699  -5.999  -5.795  0.00  0.00    -0.096 F 
ATOM      9  I   UNL d   1       5.644  -5.431  -3.319  0.00  0.00    -0.060 I 
ATOM     10  F2  UNL d   1       3.322  -4.869  -1.190  0.00  0.00    -0.096 F 
ATOM     11  F3  UNL d   1       0.624  -4.877  -1.426  0.00  0.00    -0.097 F 
ATOM     12  F4  UNL d   1      -0.550  -5.440  -3.823  0.00  0.00    -0.092 F 
ENDROOT
TORSDOF 0
ENDMDL
