MODEL 1
REMARK minimizedAffinity 10.9497414
REMARK minimizedRMSD -1
REMARK  0 active torsions:
REMARK  status: ('A' for Active; 'I' for Inactive)
ROOT
ATOM      1  C   UNL d   1       1.634   1.453  -0.104  0.00  0.00     0.124 A 
ATOM      2  C1  UNL d   1       1.504   0.124   0.274  0.00  0.00     0.062 A 
ATOM      3  C2  UNL d   1       0.487  -0.261   1.143  0.00  0.00     0.162 A 
ATOM      4  C3  UNL d   1      -0.409   0.686   1.640  0.00  0.00    -0.034 A 
ATOM      5  C4  UNL d   1      -0.272   2.021   1.256  0.00  0.00     0.162 A 
ATOM      6  C5  UNL d   1       0.746   2.400   0.387  0.00  0.00     0.062 A 
ATOM      7  F   UNL d   1       0.870   3.684   0.023  0.00  0.00    -0.097 F 
ATOM      8  F1  UNL d   1      -1.116   2.956   1.715  0.00  0.00    -0.096 F 
ATOM      9  I   UNL d   1      -1.931   0.115   2.940  0.00  0.00    -0.060 I 
ATOM     10  F2  UNL d   1       0.386  -1.552   1.492  0.00  0.00    -0.096 F 
ATOM     11  F3  UNL d   1       2.361  -0.793  -0.198  0.00  0.00    -0.097 F 
ATOM     12  F4  UNL d   1       2.613   1.820  -0.940  0.00  0.00    -0.092 F 
ENDROOT
TORSDOF 0
ENDMDL
