MODEL 1
REMARK minimizedAffinity 16.3835926
REMARK minimizedRMSD -1
REMARK  0 active torsions:
REMARK  status: ('A' for Active; 'I' for Inactive)
ROOT
ATOM      1  C   UNL d   1       2.356   1.438   2.197  0.00  0.00     0.124 A 
ATOM      2  C1  UNL d   1       1.448   1.695   1.179  0.00  0.00     0.062 A 
ATOM      3  C2  UNL d   1       1.884   1.795  -0.139  0.00  0.00     0.162 A 
ATOM      4  C3  UNL d   1       3.236   1.638  -0.447  0.00  0.00    -0.034 A 
ATOM      5  C4  UNL d   1       4.143   1.381   0.583  0.00  0.00     0.162 A 
ATOM      6  C5  UNL d   1       3.702   1.282   1.898  0.00  0.00     0.062 A 
ATOM      7  F   UNL d   1       4.581   1.034   2.881  0.00  0.00    -0.097 F 
ATOM      8  F1  UNL d   1       5.449   1.225   0.322  0.00  0.00    -0.096 F 
ATOM      9  I   UNL d   1       3.892   1.787  -2.416  0.00  0.00    -0.060 I 
ATOM     10  F2  UNL d   1       0.985   2.043  -1.102  0.00  0.00    -0.096 F 
ATOM     11  F3  UNL d   1       0.147   1.847   1.466  0.00  0.00    -0.097 F 
ATOM     12  F4  UNL d   1       1.934   1.344   3.465  0.00  0.00    -0.092 F 
ENDROOT
TORSDOF 0
ENDMDL
