MODEL 1
REMARK minimizedAffinity 5.46187067
REMARK minimizedRMSD -1
REMARK  0 active torsions:
REMARK  status: ('A' for Active; 'I' for Inactive)
ROOT
ATOM      1  C   UNL d   1      -0.328   3.018   0.946  0.00  0.00     0.124 A 
ATOM      2  C1  UNL d   1       0.430   4.141   0.642  0.00  0.00     0.062 A 
ATOM      3  C2  UNL d   1       1.796   4.156   0.908  0.00  0.00     0.162 A 
ATOM      4  C3  UNL d   1       2.414   3.044   1.481  0.00  0.00    -0.034 A 
ATOM      5  C4  UNL d   1       1.644   1.920   1.785  0.00  0.00     0.162 A 
ATOM      6  C5  UNL d   1       0.279   1.909   1.517  0.00  0.00     0.062 A 
ATOM      7  F   UNL d   1      -0.451   0.824   1.812  0.00  0.00    -0.097 F 
ATOM      8  F1  UNL d   1       2.206   0.834   2.337  0.00  0.00    -0.096 F 
ATOM      9  I   UNL d   1       4.456   3.063   1.880  0.00  0.00    -0.060 I 
ATOM     10  F2  UNL d   1       2.504   5.254   0.603  0.00  0.00    -0.096 F 
ATOM     11  F3  UNL d   1      -0.155   5.214   0.091  0.00  0.00    -0.097 F 
ATOM     12  F4  UNL d   1      -1.643   3.007   0.690  0.00  0.00    -0.092 F 
ENDROOT
TORSDOF 0
ENDMDL
