MODEL 1
REMARK minimizedAffinity 5.88097
REMARK minimizedRMSD -1
REMARK  0 active torsions:
REMARK  status: ('A' for Active; 'I' for Inactive)
ROOT
ATOM      1  C   UNL d   1       2.345   1.903   2.986  0.00  0.00     0.124 A 
ATOM      2  C1  UNL d   1       3.667   2.323   2.941  0.00  0.00     0.062 A 
ATOM      3  C2  UNL d   1       4.207   2.808   1.753  0.00  0.00     0.162 A 
ATOM      4  C3  UNL d   1       3.425   2.877   0.601  0.00  0.00    -0.034 A 
ATOM      5  C4  UNL d   1       2.096   2.451   0.654  0.00  0.00     0.162 A 
ATOM      6  C5  UNL d   1       1.561   1.967   1.843  0.00  0.00     0.062 A 
ATOM      7  F   UNL d   1       0.283   1.562   1.885  0.00  0.00    -0.097 F 
ATOM      8  F1  UNL d   1       1.315   2.504  -0.436  0.00  0.00    -0.096 F 
ATOM      9  I   UNL d   1       4.228   3.602  -1.177  0.00  0.00    -0.060 I 
ATOM     10  F2  UNL d   1       5.488   3.207   1.738  0.00  0.00    -0.096 F 
ATOM     11  F3  UNL d   1       4.427   2.260   4.044  0.00  0.00    -0.097 F 
ATOM     12  F4  UNL d   1       1.828   1.435   4.130  0.00  0.00    -0.092 F 
ENDROOT
TORSDOF 0
ENDMDL
