MODEL 1
REMARK minimizedAffinity 19.6991959
REMARK minimizedRMSD -1
REMARK  0 active torsions:
REMARK  status: ('A' for Active; 'I' for Inactive)
ROOT
ATOM      1  C   UNL d   1       2.767   1.759   2.307  0.00  0.00     0.124 A 
ATOM      2  C1  UNL d   1       4.134   1.836   2.081  0.00  0.00     0.062 A 
ATOM      3  C2  UNL d   1       4.624   1.926   0.781  0.00  0.00     0.162 A 
ATOM      4  C3  UNL d   1       3.746   1.941  -0.303  0.00  0.00    -0.034 A 
ATOM      5  C4  UNL d   1       2.372   1.862  -0.067  0.00  0.00     0.162 A 
ATOM      6  C5  UNL d   1       1.888   1.772   1.234  0.00  0.00     0.062 A 
ATOM      7  F   UNL d   1       0.566   1.697   1.451  0.00  0.00    -0.097 F 
ATOM      8  F1  UNL d   1       1.500   1.873  -1.086  0.00  0.00    -0.096 F 
ATOM      9  I   UNL d   1       4.475   2.075  -2.247  0.00  0.00    -0.060 I 
ATOM     10  F2  UNL d   1       5.950   2.000   0.592  0.00  0.00    -0.096 F 
ATOM     11  F3  UNL d   1       4.985   1.823   3.116  0.00  0.00    -0.097 F 
ATOM     12  F4  UNL d   1       2.298   1.671   3.559  0.00  0.00    -0.092 F 
ENDROOT
TORSDOF 0
ENDMDL
