MODEL 1
REMARK minimizedAffinity 7.59444809
REMARK minimizedRMSD -1
REMARK  0 active torsions:
REMARK  status: ('A' for Active; 'I' for Inactive)
ROOT
ATOM      1  C   UNL d   1       1.090   2.261   2.626  0.00  0.00     0.124 A 
ATOM      2  C1  UNL d   1       0.747   3.472   3.212  0.00  0.00     0.062 A 
ATOM      3  C2  UNL d   1       1.638   4.541   3.184  0.00  0.00     0.162 A 
ATOM      4  C3  UNL d   1       2.882   4.404   2.568  0.00  0.00    -0.034 A 
ATOM      5  C4  UNL d   1       3.220   3.183   1.982  0.00  0.00     0.162 A 
ATOM      6  C5  UNL d   1       2.326   2.118   2.012  0.00  0.00     0.062 A 
ATOM      7  F   UNL d   1       2.660   0.949   1.446  0.00  0.00    -0.097 F 
ATOM      8  F1  UNL d   1       4.408   3.017   1.381  0.00  0.00    -0.096 F 
ATOM      9  I   UNL d   1       4.217   6.000   2.524  0.00  0.00    -0.060 I 
ATOM     10  F2  UNL d   1       1.280   5.699   3.758  0.00  0.00    -0.096 F 
ATOM     11  F3  UNL d   1      -0.447   3.613   3.807  0.00  0.00    -0.097 F 
ATOM     12  F4  UNL d   1       0.231   1.234   2.655  0.00  0.00    -0.092 F 
ENDROOT
TORSDOF 0
ENDMDL
