MODEL 1
REMARK minimizedAffinity 11.5295181
REMARK minimizedRMSD -1
REMARK  0 active torsions:
REMARK  status: ('A' for Active; 'I' for Inactive)
ROOT
ATOM      1  C   UNL d   1      -1.139   1.270   0.804  0.00  0.00     0.124 A 
ATOM      2  C1  UNL d   1      -0.722   2.584   0.635  0.00  0.00     0.062 A 
ATOM      3  C2  UNL d   1       0.629   2.873   0.464  0.00  0.00     0.162 A 
ATOM      4  C3  UNL d   1       1.573   1.847   0.461  0.00  0.00    -0.034 A 
ATOM      5  C4  UNL d   1       1.147   0.529   0.633  0.00  0.00     0.162 A 
ATOM      6  C5  UNL d   1      -0.204   0.245   0.803  0.00  0.00     0.062 A 
ATOM      7  F   UNL d   1      -0.605  -1.025   0.967  0.00  0.00    -0.097 F 
ATOM      8  F1  UNL d   1       2.029  -0.482   0.635  0.00  0.00    -0.096 F 
ATOM      9  I   UNL d   1       3.594   2.276   0.206  0.00  0.00    -0.060 I 
ATOM     10  F2  UNL d   1       1.003   4.151   0.303  0.00  0.00    -0.096 F 
ATOM     11  F3  UNL d   1      -1.623   3.577   0.636  0.00  0.00    -0.097 F 
ATOM     12  F4  UNL d   1      -2.439   0.995   0.969  0.00  0.00    -0.092 F 
ENDROOT
TORSDOF 0
ENDMDL
