MODEL 1
REMARK minimizedAffinity 10.5373077
REMARK minimizedRMSD -1
REMARK  0 active torsions:
REMARK  status: ('A' for Active; 'I' for Inactive)
ROOT
ATOM      1  C   UNL d   1       2.039   2.928   0.926  0.00  0.00     0.124 A 
ATOM      2  C1  UNL d   1       0.696   2.580   0.898  0.00  0.00     0.062 A 
ATOM      3  C2  UNL d   1       0.320   1.257   0.684  0.00  0.00     0.162 A 
ATOM      4  C3  UNL d   1       1.289   0.271   0.497  0.00  0.00    -0.034 A 
ATOM      5  C4  UNL d   1       2.638   0.629   0.525  0.00  0.00     0.162 A 
ATOM      6  C5  UNL d   1       3.009   1.953   0.739  0.00  0.00     0.062 A 
ATOM      7  F   UNL d   1       4.307   2.287   0.765  0.00  0.00    -0.097 F 
ATOM      8  F1  UNL d   1       3.596  -0.293   0.348  0.00  0.00    -0.096 F 
ATOM      9  I   UNL d   1       0.731  -1.708   0.176  0.00  0.00    -0.060 I 
ATOM     10  F2  UNL d   1      -0.985   0.949   0.663  0.00  0.00    -0.096 F 
ATOM     11  F3  UNL d   1      -0.243   3.520   1.078  0.00  0.00    -0.097 F 
ATOM     12  F4  UNL d   1       2.398   4.202   1.131  0.00  0.00    -0.092 F 
ENDROOT
TORSDOF 0
ENDMDL
