MODEL 1
REMARK minimizedAffinity -0.173500389
REMARK minimizedRMSD -1
REMARK  0 active torsions:
REMARK  status: ('A' for Active; 'I' for Inactive)
ROOT
ATOM      1  C1  BNZ d   1       2.621  -2.616   1.794  0.00  0.00     0.000 A 
ATOM      2  C2  BNZ d   1       3.838  -3.023   2.271  0.00  0.00     0.000 A 
ATOM      3  C3  BNZ d   1       4.724  -3.679   1.463  0.00  0.00     0.000 A 
ATOM      4  C4  BNZ d   1       4.376  -3.962   0.191  0.00  0.00     0.000 A 
ATOM      5  C5  BNZ d   1       3.149  -3.566  -0.303  0.00  0.00     0.000 A 
ATOM      6  C6  BNZ d   1       2.276  -2.872   0.502  0.00  0.00     0.000 A 
ENDROOT
TORSDOF 0
ENDMDL
