MODEL 1
REMARK minimizedAffinity 3.93192196
REMARK minimizedRMSD -1
REMARK  0 active torsions:
REMARK  status: ('A' for Active; 'I' for Inactive)
ROOT
ATOM      1  C1  BNZ d   1       2.757   3.736  -5.074  0.00  0.00     0.000 A 
ATOM      2  C2  BNZ d   1       4.098   3.749  -5.352  0.00  0.00     0.000 A 
ATOM      3  C3  BNZ d   1       4.710   4.888  -5.796  0.00  0.00     0.000 A 
ATOM      4  C4  BNZ d   1       3.974   6.000  -6.000  0.00  0.00     0.000 A 
ATOM      5  C5  BNZ d   1       2.620   6.000  -5.733  0.00  0.00     0.000 A 
ATOM      6  C6  BNZ d   1       2.014   4.863  -5.249  0.00  0.00     0.000 A 
ENDROOT
TORSDOF 0
ENDMDL
