MODEL 1
REMARK minimizedAffinity 3.83544922
REMARK minimizedRMSD -1
REMARK  0 active torsions:
REMARK  status: ('A' for Active; 'I' for Inactive)
ROOT
ATOM      1  C1  BNZ d   1       5.913  -3.382   4.817  0.00  0.00     0.000 A 
ATOM      2  C2  BNZ d   1       5.578  -4.008   3.647  0.00  0.00     0.000 A 
ATOM      3  C3  BNZ d   1       5.129  -5.299   3.647  0.00  0.00     0.000 A 
ATOM      4  C4  BNZ d   1       5.054  -5.974   4.812  0.00  0.00     0.000 A 
ATOM      5  C5  BNZ d   1       5.397  -5.360   6.000  0.00  0.00     0.000 A 
ATOM      6  C6  BNZ d   1       5.812  -4.048   6.000  0.00  0.00     0.000 A 
ENDROOT
TORSDOF 0
ENDMDL
