MODEL 1
REMARK minimizedAffinity -0.169489056
REMARK minimizedRMSD -1
REMARK  0 active torsions:
REMARK  status: ('A' for Active; 'I' for Inactive)
ROOT
ATOM      1  C1  BNZ d   1       1.543   3.635  -5.951  0.00  0.00     0.000 A 
ATOM      2  C2  BNZ d   1       2.913   3.647  -5.959  0.00  0.00     0.000 A 
ATOM      3  C3  BNZ d   1       3.602   4.827  -5.936  0.00  0.00     0.000 A 
ATOM      4  C4  BNZ d   1       2.923   5.992  -5.945  0.00  0.00     0.000 A 
ATOM      5  C5  BNZ d   1       1.543   5.996  -5.947  0.00  0.00     0.000 A 
ATOM      6  C6  BNZ d   1       0.852   4.806  -5.931  0.00  0.00     0.000 A 
ENDROOT
TORSDOF 0
ENDMDL
