MODEL 1
REMARK minimizedAffinity 4.15467548
REMARK minimizedRMSD -1
REMARK  0 active torsions:
REMARK  status: ('A' for Active; 'I' for Inactive)
ROOT
ATOM      1  C1  BNZ d   1      -2.712   0.967  -2.016  0.00  0.00     0.000 A 
ATOM      2  C2  BNZ d   1      -1.946   2.100  -1.953  0.00  0.00     0.000 A 
ATOM      3  C3  BNZ d   1      -1.981   3.026  -2.958  0.00  0.00     0.000 A 
ATOM      4  C4  BNZ d   1      -2.751   2.799  -4.041  0.00  0.00     0.000 A 
ATOM      5  C5  BNZ d   1      -3.522   1.657  -4.124  0.00  0.00     0.000 A 
ATOM      6  C6  BNZ d   1      -3.514   0.746  -3.093  0.00  0.00     0.000 A 
ENDROOT
TORSDOF 0
ENDMDL
