MODEL 1
REMARK minimizedAffinity 0.698818803
REMARK minimizedRMSD -1
REMARK  0 active torsions:
REMARK  status: ('A' for Active; 'I' for Inactive)
ROOT
ATOM      1  C1  BNZ d   1       5.656  -5.236   3.516  0.00  0.00     0.000 A 
ATOM      2  C2  BNZ d   1       5.994  -3.921   3.692  0.00  0.00     0.000 A 
ATOM      3  C3  BNZ d   1       5.994  -3.358   4.938  0.00  0.00     0.000 A 
ATOM      4  C4  BNZ d   1       5.618  -4.099   6.000  0.00  0.00     0.000 A 
ATOM      5  C5  BNZ d   1       5.264  -5.424   5.838  0.00  0.00     0.000 A 
ATOM      6  C6  BNZ d   1       5.303  -5.997   4.588  0.00  0.00     0.000 A 
ENDROOT
TORSDOF 0
ENDMDL
