MODEL 1
REMARK minimizedAffinity 7.03443241
REMARK minimizedRMSD -1
REMARK  0 active torsions:
REMARK  status: ('A' for Active; 'I' for Inactive)
ROOT
ATOM      1  C1  BNZ d   1       4.474   3.805  -5.202  0.00  0.00     0.000 A 
ATOM      2  C2  BNZ d   1       3.229   3.824  -4.632  0.00  0.00     0.000 A 
ATOM      3  C3  BNZ d   1       2.416   4.915  -4.762  0.00  0.00     0.000 A 
ATOM      4  C4  BNZ d   1       2.863   6.000  -5.426  0.00  0.00     0.000 A 
ATOM      5  C5  BNZ d   1       4.119   6.000  -6.000  0.00  0.00     0.000 A 
ATOM      6  C6  BNZ d   1       4.920   4.885  -5.900  0.00  0.00     0.000 A 
ENDROOT
TORSDOF 0
ENDMDL
