MODEL 1
REMARK minimizedAffinity 2.47146106
REMARK minimizedRMSD -1
REMARK  0 active torsions:
REMARK  status: ('A' for Active; 'I' for Inactive)
ROOT
ATOM      1  C1  BNZ d   1       4.414   4.681  -5.974  0.00  0.00     0.000 A 
ATOM      2  C2  BNZ d   1       3.639   3.551  -5.971  0.00  0.00     0.000 A 
ATOM      3  C3  BNZ d   1       2.276   3.638  -5.999  0.00  0.00     0.000 A 
ATOM      4  C4  BNZ d   1       1.688   4.852  -5.990  0.00  0.00     0.000 A 
ATOM      5  C5  BNZ d   1       2.455   6.000  -5.985  0.00  0.00     0.000 A 
ATOM      6  C6  BNZ d   1       3.828   5.909  -5.995  0.00  0.00     0.000 A 
ENDROOT
TORSDOF 0
ENDMDL
