MODEL 1
REMARK minimizedAffinity 6.25830555
REMARK minimizedRMSD -1
REMARK  0 active torsions:
REMARK  status: ('A' for Active; 'I' for Inactive)
ROOT
ATOM      1  C1  BNZ d   1       3.958   3.687  -5.397  0.00  0.00     0.000 A 
ATOM      2  C2  BNZ d   1       4.610   4.848  -5.716  0.00  0.00     0.000 A 
ATOM      3  C3  BNZ d   1       3.911   5.991  -5.987  0.00  0.00     0.000 A 
ATOM      4  C4  BNZ d   1       2.563   5.962  -5.978  0.00  0.00     0.000 A 
ATOM      5  C5  BNZ d   1       1.891   4.796  -5.668  0.00  0.00     0.000 A 
ATOM      6  C6  BNZ d   1       2.598   3.657  -5.358  0.00  0.00     0.000 A 
ENDROOT
TORSDOF 0
ENDMDL
