MODEL 1
REMARK minimizedAffinity 4.41119623
REMARK minimizedRMSD -1
REMARK  0 active torsions:
REMARK  status: ('A' for Active; 'I' for Inactive)
ROOT
ATOM      1  C2' OXE d   1      -1.673  -4.276   0.002  0.00  0.00     0.078 C 
ATOM      2  C1' OXE d   1      -1.855  -2.150  -1.823  0.00  0.00     0.078 C 
ATOM      3  C1  OXE d   1      -2.094  -1.848  -0.364  0.00  0.00    -0.078 A 
ATOM      4  C2  OXE d   1      -2.050  -2.903   0.515  0.00  0.00    -0.078 A 
ATOM      5  C3  OXE d   1      -2.209  -2.671   1.878  0.00  0.00     0.003 A 
ATOM      6  C4  OXE d   1      -2.567  -1.400   2.344  0.00  0.00    -0.002 A 
ATOM      7  C5  OXE d   1      -2.657  -0.319   1.460  0.00  0.00    -0.002 A 
ATOM      8  C6  OXE d   1      -2.382  -0.518   0.111  0.00  0.00     0.003 A 
ENDROOT
TORSDOF 0
ENDMDL
