MODEL 1
REMARK minimizedAffinity 3.23618865
REMARK minimizedRMSD -1
REMARK  0 active torsions:
REMARK  status: ('A' for Active; 'I' for Inactive)
ROOT
ATOM      1  C2' OXE d   1      -5.626   0.546  -1.659  0.00  0.00     0.078 C 
ATOM      2  C1' OXE d   1      -6.000  -2.172  -1.065  0.00  0.00     0.078 C 
ATOM      3  C1  OXE d   1      -5.135  -1.361  -0.133  0.00  0.00    -0.078 A 
ATOM      4  C2  OXE d   1      -4.920  -0.043  -0.457  0.00  0.00    -0.078 A 
ATOM      5  C3  OXE d   1      -4.175   0.764   0.399  0.00  0.00     0.003 A 
ATOM      6  C4  OXE d   1      -3.517   0.209   1.503  0.00  0.00    -0.002 A 
ATOM      7  C5  OXE d   1      -3.690  -1.140   1.828  0.00  0.00    -0.002 A 
ATOM      8  C6  OXE d   1      -4.529  -1.927   1.047  0.00  0.00     0.003 A 
ENDROOT
TORSDOF 0
ENDMDL
