MODEL 1
REMARK minimizedAffinity 6.6821785
REMARK minimizedRMSD -1
REMARK  0 active torsions:
REMARK  status: ('A' for Active; 'I' for Inactive)
ROOT
ATOM      1  C2' OXE d   1      -1.370  -4.374  -0.423  0.00  0.00     0.078 C 
ATOM      2  C1' OXE d   1      -1.998  -2.288  -2.192  0.00  0.00     0.078 C 
ATOM      3  C1  OXE d   1      -2.350  -2.106  -0.737  0.00  0.00    -0.078 A 
ATOM      4  C2  OXE d   1      -2.082  -3.151   0.114  0.00  0.00    -0.078 A 
ATOM      5  C3  OXE d   1      -2.336  -3.015   1.475  0.00  0.00     0.003 A 
ATOM      6  C4  OXE d   1      -3.004  -1.884   1.962  0.00  0.00    -0.002 A 
ATOM      7  C5  OXE d   1      -3.322  -0.825   1.105  0.00  0.00    -0.002 A 
ATOM      8  C6  OXE d   1      -2.965  -0.902  -0.236  0.00  0.00     0.003 A 
ENDROOT
TORSDOF 0
ENDMDL
