MODEL 1
REMARK minimizedAffinity 4.55984068
REMARK minimizedRMSD -1
REMARK  0 active torsions:
REMARK  status: ('A' for Active; 'I' for Inactive)
ROOT
ATOM      1  C2' OXE d   1      -2.532  -4.584   5.999  0.00  0.00     0.078 C 
ATOM      2  C1' OXE d   1       0.072  -5.632   5.980  0.00  0.00     0.078 C 
ATOM      3  C1  OXE d   1      -0.082  -4.132   5.981  0.00  0.00    -0.078 A 
ATOM      4  C2  OXE d   1      -1.360  -3.628   5.944  0.00  0.00    -0.078 A 
ATOM      5  C3  OXE d   1      -1.560  -2.252   5.999  0.00  0.00     0.003 A 
ATOM      6  C4  OXE d   1      -0.471  -1.374   5.937  0.00  0.00    -0.002 A 
ATOM      7  C5  OXE d   1       0.838  -1.867   5.935  0.00  0.00    -0.002 A 
ATOM      8  C6  OXE d   1       1.050  -3.239   6.000  0.00  0.00     0.003 A 
ENDROOT
TORSDOF 0
ENDMDL
