MODEL 1
REMARK minimizedAffinity 13.7455044
REMARK minimizedRMSD -1
REMARK  0 active torsions:
REMARK  status: ('A' for Active; 'I' for Inactive)
ROOT
ATOM      1  C2' OXE d   1      -2.229  -1.651   0.741  0.00  0.00     0.078 C 
ATOM      2  C1' OXE d   1      -1.661  -2.117  -1.968  0.00  0.00     0.078 C 
ATOM      3  C1  OXE d   1      -1.522  -3.274  -1.011  0.00  0.00    -0.078 A 
ATOM      4  C2  OXE d   1      -1.757  -3.025   0.320  0.00  0.00    -0.078 A 
ATOM      5  C3  OXE d   1      -1.696  -4.070   1.237  0.00  0.00     0.003 A 
ATOM      6  C4  OXE d   1      -1.248  -5.336   0.841  0.00  0.00    -0.002 A 
ATOM      7  C5  OXE d   1      -0.965  -5.601  -0.503  0.00  0.00    -0.002 A 
ATOM      8  C6  OXE d   1      -1.138  -4.594  -1.446  0.00  0.00     0.003 A 
ENDROOT
TORSDOF 0
ENDMDL
