MODEL 1
REMARK minimizedAffinity 16.9841938
REMARK minimizedRMSD -1
REMARK  0 active torsions:
REMARK  status: ('A' for Active; 'I' for Inactive)
ROOT
ATOM      1  C2' OXE d   1      -5.058  -0.677  -2.224  0.00  0.00     0.078 C 
ATOM      2  C1' OXE d   1      -2.346  -1.131  -2.786  0.00  0.00     0.078 C 
ATOM      3  C1  OXE d   1      -2.707  -0.660  -1.400  0.00  0.00    -0.078 A 
ATOM      4  C2  OXE d   1      -4.032  -0.395  -1.147  0.00  0.00    -0.078 A 
ATOM      5  C3  OXE d   1      -4.427  -0.011   0.131  0.00  0.00     0.003 A 
ATOM      6  C4  OXE d   1      -3.470   0.257   1.118  0.00  0.00    -0.002 A 
ATOM      7  C5  OXE d   1      -2.112   0.033   0.869  0.00  0.00    -0.002 A 
ATOM      8  C6  OXE d   1      -1.719  -0.465  -0.368  0.00  0.00     0.003 A 
ENDROOT
TORSDOF 0
ENDMDL
