MODEL 1
REMARK minimizedAffinity 9.85586357
REMARK minimizedRMSD -1
REMARK  0 active torsions:
REMARK  status: ('A' for Active; 'I' for Inactive)
ROOT
ATOM      1  C2' OXE d   1       5.169   2.101  -1.329  0.00  0.00     0.078 C 
ATOM      2  C1' OXE d   1       3.073   0.316  -0.782  0.00  0.00     0.078 C 
ATOM      3  C1  OXE d   1       4.051   0.614   0.327  0.00  0.00    -0.078 A 
ATOM      4  C2  OXE d   1       5.100   1.453   0.036  0.00  0.00    -0.078 A 
ATOM      5  C3  OXE d   1       5.999   1.804   1.039  0.00  0.00     0.003 A 
ATOM      6  C4  OXE d   1       5.934   1.192   2.296  0.00  0.00    -0.002 A 
ATOM      7  C5  OXE d   1       4.897   0.304   2.601  0.00  0.00    -0.002 A 
ATOM      8  C6  OXE d   1       3.924   0.038   1.643  0.00  0.00     0.003 A 
ENDROOT
TORSDOF 0
ENDMDL
