MODEL 1
REMARK minimizedAffinity 14.9554663
REMARK minimizedRMSD -1
REMARK  0 active torsions:
REMARK  status: ('A' for Active; 'I' for Inactive)
ROOT
ATOM      1  C2' OXE d   1      -2.675   0.010   1.114  0.00  0.00     0.078 C 
ATOM      2  C1' OXE d   1      -2.291   0.064  -1.666  0.00  0.00     0.078 C 
ATOM      3  C1  OXE d   1      -3.612  -0.448  -1.148  0.00  0.00    -0.078 A 
ATOM      4  C2  OXE d   1      -3.774  -0.514   0.215  0.00  0.00    -0.078 A 
ATOM      5  C3  OXE d   1      -4.993  -0.927   0.745  0.00  0.00     0.003 A 
ATOM      6  C4  OXE d   1      -6.000  -1.420  -0.093  0.00  0.00    -0.002 A 
ATOM      7  C5  OXE d   1      -5.841  -1.398  -1.483  0.00  0.00    -0.002 A 
ATOM      8  C6  OXE d   1      -4.672  -0.877  -2.027  0.00  0.00     0.003 A 
ENDROOT
TORSDOF 0
ENDMDL
