MODEL 1
REMARK minimizedAffinity 20.2459297
REMARK minimizedRMSD -1
REMARK  0 active torsions:
REMARK  status: ('A' for Active; 'I' for Inactive)
ROOT
ATOM      1  C2' OXE d   1      -5.653   5.643  -0.026  0.00  0.00     0.078 C 
ATOM      2  C1' OXE d   1      -4.779   2.975  -0.019  0.00  0.00     0.078 C 
ATOM      3  C1  OXE d   1      -5.176   3.582  -1.342  0.00  0.00    -0.078 A 
ATOM      4  C2  OXE d   1      -5.647   4.873  -1.329  0.00  0.00    -0.078 A 
ATOM      5  C3  OXE d   1      -5.975   5.498  -2.528  0.00  0.00     0.003 A 
ATOM      6  C4  OXE d   1      -5.976   4.776  -3.728  0.00  0.00    -0.002 A 
ATOM      7  C5  OXE d   1      -5.538   3.448  -3.757  0.00  0.00    -0.002 A 
ATOM      8  C6  OXE d   1      -5.095   2.850  -2.582  0.00  0.00     0.003 A 
ENDROOT
TORSDOF 0
ENDMDL
