MODEL 1
REMARK minimizedAffinity 10.4941006
REMARK minimizedRMSD -1
REMARK  0 active torsions:
REMARK  status: ('A' for Active; 'I' for Inactive)
ROOT
ATOM      1  C2' OXE d   1       1.733   2.170   2.248  0.00  0.00     0.078 C 
ATOM      2  C1' OXE d   1       3.370   4.108   3.450  0.00  0.00     0.078 C 
ATOM      3  C1  OXE d   1       4.033   2.868   2.906  0.00  0.00    -0.078 A 
ATOM      4  C2  OXE d   1       3.219   1.903   2.361  0.00  0.00    -0.078 A 
ATOM      5  C3  OXE d   1       3.784   0.764   1.795  0.00  0.00     0.003 A 
ATOM      6  C4  OXE d   1       5.158   0.521   1.913  0.00  0.00    -0.002 A 
ATOM      7  C5  OXE d   1       5.999   1.472   2.500  0.00  0.00    -0.002 A 
ATOM      8  C6  OXE d   1       5.459   2.667   2.962  0.00  0.00     0.003 A 
ENDROOT
TORSDOF 0
ENDMDL
