MODEL 1
REMARK minimizedAffinity 7.72043991
REMARK minimizedRMSD -1
REMARK  0 active torsions:
REMARK  status: ('A' for Active; 'I' for Inactive)
ROOT
ATOM      1  C2' OXE d   1       1.889   1.058   3.744  0.00  0.00     0.078 C 
ATOM      2  C1' OXE d   1       3.351   3.419   4.152  0.00  0.00     0.078 C 
ATOM      3  C1  OXE d   1       4.043   2.276   3.454  0.00  0.00    -0.078 A 
ATOM      4  C2  OXE d   1       3.335   1.108   3.300  0.00  0.00    -0.078 A 
ATOM      5  C3  OXE d   1       3.907   0.040   2.614  0.00  0.00     0.003 A 
ATOM      6  C4  OXE d   1       5.249   0.091   2.215  0.00  0.00    -0.002 A 
ATOM      7  C5  OXE d   1       6.000   1.257   2.398  0.00  0.00    -0.002 A 
ATOM      8  C6  OXE d   1       5.400   2.370   2.976  0.00  0.00     0.003 A 
ENDROOT
TORSDOF 0
ENDMDL
