MODEL 1
REMARK minimizedAffinity 10.0434866
REMARK minimizedRMSD -1
REMARK  0 active torsions:
REMARK  status: ('A' for Active; 'I' for Inactive)
ROOT
ATOM      1  C2' OXE d   1      -1.884  -2.470   1.124  0.00  0.00     0.078 C 
ATOM      2  C1' OXE d   1      -1.422  -2.204  -1.633  0.00  0.00     0.078 C 
ATOM      3  C1  OXE d   1      -1.185  -3.556  -1.007  0.00  0.00    -0.078 A 
ATOM      4  C2  OXE d   1      -1.368  -3.665   0.351  0.00  0.00    -0.078 A 
ATOM      5  C3  OXE d   1      -1.216  -4.902   0.970  0.00  0.00     0.003 A 
ATOM      6  C4  OXE d   1      -0.730  -6.000   0.249  0.00  0.00    -0.002 A 
ATOM      7  C5  OXE d   1      -0.498  -5.900  -1.127  0.00  0.00    -0.002 A 
ATOM      8  C6  OXE d   1      -0.761  -4.699  -1.776  0.00  0.00     0.003 A 
ENDROOT
TORSDOF 0
ENDMDL
