MODEL 1
REMARK minimizedAffinity -3.62181282
REMARK minimizedRMSD -1
REMARK  0 active torsions:
REMARK  status: ('A' for Active; 'I' for Inactive)
ROOT
ATOM      1  C   UNL d   1       0.949   2.025  -0.250  0.00  0.00     0.124 A 
ATOM      2  C1  UNL d   1       1.573   0.937   0.344  0.00  0.00     0.062 A 
ATOM      3  C2  UNL d   1       1.142  -0.357   0.062  0.00  0.00     0.162 A 
ATOM      4  C3  UNL d   1       0.082  -0.569  -0.819  0.00  0.00    -0.034 A 
ATOM      5  C4  UNL d   1      -0.542   0.530  -1.411  0.00  0.00     0.162 A 
ATOM      6  C5  UNL d   1      -0.108   1.821  -1.127  0.00  0.00     0.062 A 
ATOM      7  F   UNL d   1      -0.712   2.871  -1.701  0.00  0.00    -0.097 F 
ATOM      8  F1  UNL d   1      -1.564   0.362  -2.263  0.00  0.00    -0.096 F 
ATOM      9  I   UNL d   1      -0.565  -2.502  -1.242  0.00  0.00    -0.060 I 
ATOM     10  F2  UNL d   1       1.764  -1.389   0.650  0.00  0.00    -0.096 F 
ATOM     11  F3  UNL d   1       2.593   1.132   1.192  0.00  0.00    -0.097 F 
ATOM     12  F4  UNL d   1       1.364   3.268   0.023  0.00  0.00    -0.092 F 
ENDROOT
TORSDOF 0
ENDMDL
