MODEL 1
REMARK minimizedAffinity -3.38485479
REMARK minimizedRMSD -1
REMARK  0 active torsions:
REMARK  status: ('A' for Active; 'I' for Inactive)
ROOT
ATOM      1  C   UNL d   1      -0.175  -2.380  -0.853  0.00  0.00     0.124 A 
ATOM      2  C1  UNL d   1      -1.242  -1.645  -1.349  0.00  0.00     0.062 A 
ATOM      3  C2  UNL d   1      -1.327  -0.278  -1.100  0.00  0.00     0.162 A 
ATOM      4  C3  UNL d   1      -0.340   0.363  -0.351  0.00  0.00    -0.034 A 
ATOM      5  C4  UNL d   1       0.730  -0.383   0.146  0.00  0.00     0.162 A 
ATOM      6  C5  UNL d   1       0.810  -1.749  -0.106  0.00  0.00     0.062 A 
ATOM      7  F   UNL d   1       1.842  -2.458   0.375  0.00  0.00    -0.097 F 
ATOM      8  F1  UNL d   1       1.695   0.202   0.870  0.00  0.00    -0.096 F 
ATOM      9  I   UNL d   1      -0.464   2.406   0.024  0.00  0.00    -0.060 I 
ATOM     10  F2  UNL d   1      -2.369   0.407  -1.593  0.00  0.00    -0.096 F 
ATOM     11  F3  UNL d   1      -2.195  -2.253  -2.071  0.00  0.00    -0.097 F 
ATOM     12  F4  UNL d   1      -0.096  -3.695  -1.093  0.00  0.00    -0.092 F 
ENDROOT
TORSDOF 0
ENDMDL
