MODEL 1
REMARK minimizedAffinity -2.50196624
REMARK minimizedRMSD -1
REMARK  0 active torsions:
REMARK  status: ('A' for Active; 'I' for Inactive)
ROOT
ATOM      1  C   UNL d   1      -0.311  -2.681  -1.490  0.00  0.00     0.124 A 
ATOM      2  C1  UNL d   1      -1.140  -1.721  -2.053  0.00  0.00     0.062 A 
ATOM      3  C2  UNL d   1      -1.128  -0.416  -1.569  0.00  0.00     0.162 A 
ATOM      4  C3  UNL d   1      -0.284  -0.063  -0.516  0.00  0.00    -0.034 A 
ATOM      5  C4  UNL d   1       0.546  -1.035   0.045  0.00  0.00     0.162 A 
ATOM      6  C5  UNL d   1       0.531  -2.338  -0.442  0.00  0.00     0.062 A 
ATOM      7  F   UNL d   1       1.332  -3.264   0.104  0.00  0.00    -0.097 F 
ATOM      8  F1  UNL d   1       1.370  -0.730   1.059  0.00  0.00    -0.096 F 
ATOM      9  I   UNL d   1      -0.264   1.887   0.210  0.00  0.00    -0.060 I 
ATOM     10  F2  UNL d   1      -1.940   0.492  -2.132  0.00  0.00    -0.096 F 
ATOM     11  F3  UNL d   1      -1.955  -2.051  -3.065  0.00  0.00    -0.097 F 
ATOM     12  F4  UNL d   1      -0.325  -3.937  -1.957  0.00  0.00    -0.092 F 
ENDROOT
TORSDOF 0
ENDMDL
