MODEL 1
REMARK minimizedAffinity -1.45023382
REMARK minimizedRMSD -1
REMARK  0 active torsions:
REMARK  status: ('A' for Active; 'I' for Inactive)
ROOT
ATOM      1  C   UNL d   1       1.152   1.916   0.853  0.00  0.00     0.124 A 
ATOM      2  C1  UNL d   1       2.035   0.858   0.682  0.00  0.00     0.062 A 
ATOM      3  C2  UNL d   1       1.566  -0.384   0.264  0.00  0.00     0.162 A 
ATOM      4  C3  UNL d   1       0.208  -0.576   0.013  0.00  0.00    -0.034 A 
ATOM      5  C4  UNL d   1      -0.674   0.493   0.189  0.00  0.00     0.162 A 
ATOM      6  C5  UNL d   1      -0.201   1.732   0.606  0.00  0.00     0.062 A 
ATOM      7  F   UNL d   1      -1.055   2.753   0.771  0.00  0.00    -0.097 F 
ATOM      8  F1  UNL d   1      -1.987   0.343  -0.044  0.00  0.00    -0.096 F 
ATOM      9  I   UNL d   1      -0.497  -2.432  -0.611  0.00  0.00    -0.060 I 
ATOM     10  F2  UNL d   1       2.442  -1.388   0.107  0.00  0.00    -0.096 F 
ATOM     11  F3  UNL d   1       3.343   1.033   0.921  0.00  0.00    -0.097 F 
ATOM     12  F4  UNL d   1       1.606   3.110   1.256  0.00  0.00    -0.092 F 
ENDROOT
TORSDOF 0
ENDMDL
