MODEL 1
REMARK minimizedAffinity -1.92368031
REMARK minimizedRMSD -1
REMARK  0 active torsions:
REMARK  status: ('A' for Active; 'I' for Inactive)
ROOT
ATOM      1  C   UNL d   1      -1.154   2.284   0.624  0.00  0.00     0.124 A 
ATOM      2  C1  UNL d   1      -1.831   1.073   0.678  0.00  0.00     0.062 A 
ATOM      3  C2  UNL d   1      -1.142  -0.123   0.500  0.00  0.00     0.162 A 
ATOM      4  C3  UNL d   1       0.233  -0.115   0.266  0.00  0.00    -0.034 A 
ATOM      5  C4  UNL d   1       0.907   1.106   0.211  0.00  0.00     0.162 A 
ATOM      6  C5  UNL d   1       0.214   2.299   0.390  0.00  0.00     0.062 A 
ATOM      7  F   UNL d   1       0.870   3.467   0.337  0.00  0.00    -0.097 F 
ATOM      8  F1  UNL d   1       2.229   1.150  -0.012  0.00  0.00    -0.096 F 
ATOM      9  I   UNL d   1       1.266  -1.902  -0.001  0.00  0.00    -0.060 I 
ATOM     10  F2  UNL d   1      -1.822  -1.278   0.558  0.00  0.00    -0.096 F 
ATOM     11  F3  UNL d   1      -3.153   1.056   0.902  0.00  0.00    -0.097 F 
ATOM     12  F4  UNL d   1      -1.819   3.433   0.794  0.00  0.00    -0.092 F 
ENDROOT
TORSDOF 0
ENDMDL
