MODEL 1
REMARK minimizedAffinity -1.97342765
REMARK minimizedRMSD -1
REMARK  0 active torsions:
REMARK  status: ('A' for Active; 'I' for Inactive)
ROOT
ATOM      1  C   UNL d   1      -0.646  -3.247  -1.674  0.00  0.00     0.124 A 
ATOM      2  C1  UNL d   1      -0.395  -3.650  -0.370  0.00  0.00     0.062 A 
ATOM      3  C2  UNL d   1      -1.334  -4.410   0.321  0.00  0.00     0.162 A 
ATOM      4  C3  UNL d   1      -2.533  -4.774  -0.292  0.00  0.00    -0.034 A 
ATOM      5  C4  UNL d   1      -2.778  -4.365  -1.604  0.00  0.00     0.162 A 
ATOM      6  C5  UNL d   1      -1.836  -3.605  -2.290  0.00  0.00     0.062 A 
ATOM      7  F   UNL d   1      -2.080  -3.217  -3.550  0.00  0.00    -0.097 F 
ATOM      8  F1  UNL d   1      -3.920  -4.698  -2.224  0.00  0.00    -0.096 F 
ATOM      9  I   UNL d   1      -3.940  -5.912   0.737  0.00  0.00    -0.060 I 
ATOM     10  F2  UNL d   1      -1.066  -4.785   1.580  0.00  0.00    -0.096 F 
ATOM     11  F3  UNL d   1       0.754  -3.304   0.228  0.00  0.00    -0.097 F 
ATOM     12  F4  UNL d   1       0.259  -2.515  -2.336  0.00  0.00    -0.092 F 
ENDROOT
TORSDOF 0
ENDMDL
