MODEL 1
REMARK minimizedAffinity -0.434797287
REMARK minimizedRMSD -1
REMARK  0 active torsions:
REMARK  status: ('A' for Active; 'I' for Inactive)
ROOT
ATOM      1  C   UNL d   1       1.316   2.562   1.177  0.00  0.00     0.124 A 
ATOM      2  C1  UNL d   1       0.010   2.255   0.819  0.00  0.00     0.062 A 
ATOM      3  C2  UNL d   1      -0.304   0.989   0.334  0.00  0.00     0.162 A 
ATOM      4  C3  UNL d   1       0.690   0.019   0.203  0.00  0.00    -0.034 A 
ATOM      5  C4  UNL d   1       2.001   0.335   0.564  0.00  0.00     0.162 A 
ATOM      6  C5  UNL d   1       2.310   1.602   1.049  0.00  0.00     0.062 A 
ATOM      7  F   UNL d   1       3.572   1.897   1.394  0.00  0.00    -0.097 F 
ATOM      8  F1  UNL d   1       2.981  -0.573   0.452  0.00  0.00    -0.096 F 
ATOM      9  I   UNL d   1       0.225  -1.875  -0.522  0.00  0.00    -0.060 I 
ATOM     10  F2  UNL d   1      -1.574   0.721  -0.004  0.00  0.00    -0.096 F 
ATOM     11  F3  UNL d   1      -0.952   3.181   0.941  0.00  0.00    -0.097 F 
ATOM     12  F4  UNL d   1       1.615   3.781   1.643  0.00  0.00    -0.092 F 
ENDROOT
TORSDOF 0
ENDMDL
