MODEL 1
REMARK minimizedAffinity 0.808474243
REMARK minimizedRMSD -1
REMARK  0 active torsions:
REMARK  status: ('A' for Active; 'I' for Inactive)
ROOT
ATOM      1  C   UNL d   1       0.886   2.054   1.357  0.00  0.00     0.124 A 
ATOM      2  C1  UNL d   1       1.745   0.988   1.126  0.00  0.00     0.062 A 
ATOM      3  C2  UNL d   1       1.252  -0.211   0.618  0.00  0.00     0.162 A 
ATOM      4  C3  UNL d   1      -0.107  -0.350   0.337  0.00  0.00    -0.034 A 
ATOM      5  C4  UNL d   1      -0.965   0.726   0.573  0.00  0.00     0.162 A 
ATOM      6  C5  UNL d   1      -0.467   1.922   1.081  0.00  0.00     0.062 A 
ATOM      7  F   UNL d   1      -1.298   2.951   1.303  0.00  0.00    -0.097 F 
ATOM      8  F1  UNL d   1      -2.277   0.626   0.314  0.00  0.00    -0.096 F 
ATOM      9  I   UNL d   1      -0.849  -2.141  -0.422  0.00  0.00    -0.060 I 
ATOM     10  F2  UNL d   1       2.104  -1.224   0.405  0.00  0.00    -0.096 F 
ATOM     11  F3  UNL d   1       3.053   1.112   1.393  0.00  0.00    -0.097 F 
ATOM     12  F4  UNL d   1       1.363   3.206   1.846  0.00  0.00    -0.092 F 
ENDROOT
TORSDOF 0
ENDMDL
