MODEL 1
REMARK minimizedAffinity -0.603488207
REMARK minimizedRMSD -1
REMARK  0 active torsions:
REMARK  status: ('A' for Active; 'I' for Inactive)
ROOT
ATOM      1  C   UNL d   1       1.446   2.914   0.891  0.00  0.00     0.124 A 
ATOM      2  C1  UNL d   1       0.101   2.684   0.634  0.00  0.00     0.062 A 
ATOM      3  C2  UNL d   1      -0.352   1.392   0.382  0.00  0.00     0.162 A 
ATOM      4  C3  UNL d   1       0.539   0.320   0.388  0.00  0.00    -0.034 A 
ATOM      5  C4  UNL d   1       1.890   0.559   0.646  0.00  0.00     0.162 A 
ATOM      6  C5  UNL d   1       2.339   1.852   0.897  0.00  0.00     0.062 A 
ATOM      7  F   UNL d   1       3.638   2.072   1.145  0.00  0.00    -0.097 F 
ATOM      8  F1  UNL d   1       2.775  -0.449   0.659  0.00  0.00    -0.096 F 
ATOM      9  I   UNL d   1      -0.135  -1.613   0.013  0.00  0.00    -0.060 I 
ATOM     10  F2  UNL d   1      -1.657   1.200   0.137  0.00  0.00    -0.096 F 
ATOM     11  F3  UNL d   1      -0.763   3.709   0.626  0.00  0.00    -0.097 F 
ATOM     12  F4  UNL d   1       1.880   4.158   1.131  0.00  0.00    -0.092 F 
ENDROOT
TORSDOF 0
ENDMDL
