MODEL 1
REMARK minimizedAffinity 1.97933114
REMARK minimizedRMSD -1
REMARK  0 active torsions:
REMARK  status: ('A' for Active; 'I' for Inactive)
ROOT
ATOM      1  C   UNL d   1       0.724   2.494   0.943  0.00  0.00     0.124 A 
ATOM      2  C1  UNL d   1       1.636   1.449   0.896  0.00  0.00     0.062 A 
ATOM      3  C2  UNL d   1       1.224   0.178   0.505  0.00  0.00     0.162 A 
ATOM      4  C3  UNL d   1      -0.106  -0.055   0.156  0.00  0.00    -0.034 A 
ATOM      5  C4  UNL d   1      -1.017   1.002   0.207  0.00  0.00     0.162 A 
ATOM      6  C5  UNL d   1      -0.601   2.270   0.598  0.00  0.00     0.062 A 
ATOM      7  F   UNL d   1      -1.483   3.279   0.643  0.00  0.00    -0.097 F 
ATOM      8  F1  UNL d   1      -2.304   0.813  -0.122  0.00  0.00    -0.096 F 
ATOM      9  I   UNL d   1      -0.726  -1.953  -0.429  0.00  0.00    -0.060 I 
ATOM     10  F2  UNL d   1       2.127  -0.814   0.469  0.00  0.00    -0.096 F 
ATOM     11  F3  UNL d   1       2.917   1.663   1.229  0.00  0.00    -0.097 F 
ATOM     12  F4  UNL d   1       1.123   3.716   1.320  0.00  0.00    -0.092 F 
ENDROOT
TORSDOF 0
ENDMDL
