MODEL 1
REMARK minimizedAffinity 2.08960915
REMARK minimizedRMSD -1
REMARK  0 active torsions:
REMARK  status: ('A' for Active; 'I' for Inactive)
ROOT
ATOM      1  C   UNL d   1       0.422  -1.574  -0.199  0.00  0.00     0.124 A 
ATOM      2  C1  UNL d   1       1.386  -0.802   0.435  0.00  0.00     0.062 A 
ATOM      3  C2  UNL d   1       1.187   0.565   0.605  0.00  0.00     0.162 A 
ATOM      4  C3  UNL d   1       0.018   1.169   0.142  0.00  0.00    -0.034 A 
ATOM      5  C4  UNL d   1      -0.946   0.387  -0.495  0.00  0.00     0.162 A 
ATOM      6  C5  UNL d   1      -0.743  -0.979  -0.663  0.00  0.00     0.062 A 
ATOM      7  F   UNL d   1      -1.676  -1.723  -1.275  0.00  0.00    -0.097 F 
ATOM      8  F1  UNL d   1      -2.082   0.935  -0.952  0.00  0.00    -0.096 F 
ATOM      9  I   UNL d   1      -0.283   3.213   0.395  0.00  0.00    -0.060 I 
ATOM     10  F2  UNL d   1       2.136   1.287   1.221  0.00  0.00    -0.096 F 
ATOM     11  F3  UNL d   1       2.513  -1.374   0.883  0.00  0.00    -0.097 F 
ATOM     12  F4  UNL d   1       0.616  -2.889  -0.362  0.00  0.00    -0.092 F 
ENDROOT
TORSDOF 0
ENDMDL
