MODEL 1
REMARK minimizedAffinity -2.63004184
REMARK minimizedRMSD -1
REMARK  0 active torsions:
REMARK  status: ('A' for Active; 'I' for Inactive)
ROOT
ATOM      1  C   UNL d   1       2.027   1.350  -0.199  0.00  0.00     0.124 A 
ATOM      2  C1  UNL d   1       0.933   2.204  -0.216  0.00  0.00     0.062 A 
ATOM      3  C2  UNL d   1      -0.288   1.786   0.305  0.00  0.00     0.162 A 
ATOM      4  C3  UNL d   1      -0.422   0.509   0.849  0.00  0.00    -0.034 A 
ATOM      5  C4  UNL d   1       0.683  -0.344   0.861  0.00  0.00     0.162 A 
ATOM      6  C5  UNL d   1       1.902   0.078   0.339  0.00  0.00     0.062 A 
ATOM      7  F   UNL d   1       2.958  -0.748   0.357  0.00  0.00    -0.097 F 
ATOM      8  F1  UNL d   1       0.590  -1.579   1.377  0.00  0.00    -0.096 F 
ATOM      9  I   UNL d   1      -2.246  -0.119   1.629  0.00  0.00    -0.060 I 
ATOM     10  F2  UNL d   1      -1.329   2.632   0.275  0.00  0.00    -0.096 F 
ATOM     11  F3  UNL d   1       1.052   3.434  -0.737  0.00  0.00    -0.097 F 
ATOM     12  F4  UNL d   1       3.201   1.754  -0.702  0.00  0.00    -0.092 F 
ENDROOT
TORSDOF 0
ENDMDL
