MODEL 1
REMARK minimizedAffinity 1.19596028
REMARK minimizedRMSD -1
REMARK  0 active torsions:
REMARK  status: ('A' for Active; 'I' for Inactive)
ROOT
ATOM      1  C   UNL d   1       1.094   2.167   0.986  0.00  0.00     0.124 A 
ATOM      2  C1  UNL d   1       2.074   1.189   0.888  0.00  0.00     0.062 A 
ATOM      3  C2  UNL d   1       1.730  -0.114   0.540  0.00  0.00     0.162 A 
ATOM      4  C3  UNL d   1       0.400  -0.447   0.287  0.00  0.00    -0.034 A 
ATOM      5  C4  UNL d   1      -0.581   0.542   0.388  0.00  0.00     0.162 A 
ATOM      6  C5  UNL d   1      -0.232   1.843   0.736  0.00  0.00     0.062 A 
ATOM      7  F   UNL d   1      -1.181   2.786   0.830  0.00  0.00    -0.097 F 
ATOM      8  F1  UNL d   1      -1.869   0.256   0.151  0.00  0.00    -0.096 F 
ATOM      9  I   UNL d   1      -0.118  -2.394  -0.234  0.00  0.00    -0.060 I 
ATOM     10  F2  UNL d   1       2.698  -1.038   0.453  0.00  0.00    -0.096 F 
ATOM     11  F3  UNL d   1       3.355   1.500   1.130  0.00  0.00    -0.097 F 
ATOM     12  F4  UNL d   1       1.427   3.420   1.322  0.00  0.00    -0.092 F 
ENDROOT
TORSDOF 0
ENDMDL
