MODEL 1
REMARK minimizedAffinity -2.92718911
REMARK minimizedRMSD -1
REMARK  0 active torsions:
REMARK  status: ('A' for Active; 'I' for Inactive)
ROOT
ATOM      1  C   UNL d   1      -0.108  -2.214  -0.602  0.00  0.00     0.124 A 
ATOM      2  C1  UNL d   1      -1.065  -1.512  -1.323  0.00  0.00     0.062 A 
ATOM      3  C2  UNL d   1      -1.123  -0.123  -1.242  0.00  0.00     0.162 A 
ATOM      4  C3  UNL d   1      -0.220   0.573  -0.438  0.00  0.00    -0.034 A 
ATOM      5  C4  UNL d   1       0.738  -0.140   0.284  0.00  0.00     0.162 A 
ATOM      6  C5  UNL d   1       0.792  -1.527   0.200  0.00  0.00     0.062 A 
ATOM      7  F   UNL d   1       1.717  -2.204   0.897  0.00  0.00    -0.097 F 
ATOM      8  F1  UNL d   1       1.621   0.498   1.067  0.00  0.00    -0.096 F 
ATOM      9  I   UNL d   1      -0.303   2.649  -0.315  0.00  0.00    -0.060 I 
ATOM     10  F2  UNL d   1      -2.057   0.529  -1.949  0.00  0.00    -0.096 F 
ATOM     11  F3  UNL d   1      -1.936  -2.173  -2.098  0.00  0.00    -0.097 F 
ATOM     12  F4  UNL d   1      -0.056  -3.550  -0.681  0.00  0.00    -0.092 F 
ENDROOT
TORSDOF 0
ENDMDL
