MODEL 1
REMARK minimizedAffinity 12.4076424
REMARK minimizedRMSD -1
REMARK  0 active torsions:
REMARK  status: ('A' for Active; 'I' for Inactive)
ROOT
ATOM      1  C4' PXY d   1       0.849   0.881   4.664  0.00  0.00     0.077 C 
ATOM      2  C1' PXY d   1       0.199   4.173  -0.043  0.00  0.00     0.077 C 
ATOM      3  C1  PXY d   1       0.381   3.305   1.187  0.00  0.00    -0.082 A 
ATOM      4  C2  PXY d   1      -0.677   2.945   1.895  0.00  0.00     0.003 A 
ATOM      5  C3  PXY d   1      -0.528   2.187   3.028  0.00  0.00     0.003 A 
ATOM      6  C4  PXY d   1       0.712   1.749   3.410  0.00  0.00    -0.082 A 
ATOM      7  C5  PXY d   1       1.795   2.103   2.686  0.00  0.00     0.003 A 
ATOM      8  C6  PXY d   1       1.626   2.908   1.563  0.00  0.00     0.003 A 
ENDROOT
TORSDOF 0
ENDMDL
