MODEL 1
REMARK minimizedAffinity 10.0788746
REMARK minimizedRMSD -1
REMARK  0 active torsions:
REMARK  status: ('A' for Active; 'I' for Inactive)
ROOT
ATOM      1  C4' PXY d   1       5.251  -4.798  -4.032  0.00  0.00     0.077 C 
ATOM      2  C1' PXY d   1       4.521  -1.147   0.390  0.00  0.00     0.077 C 
ATOM      3  C1  PXY d   1       4.717  -2.114  -0.762  0.00  0.00    -0.082 A 
ATOM      4  C2  PXY d   1       4.900  -1.645  -1.985  0.00  0.00     0.003 A 
ATOM      5  C3  PXY d   1       5.046  -2.506  -3.043  0.00  0.00     0.003 A 
ATOM      6  C4  PXY d   1       5.059  -3.859  -2.838  0.00  0.00    -0.082 A 
ATOM      7  C5  PXY d   1       4.884  -4.345  -1.591  0.00  0.00     0.003 A 
ATOM      8  C6  PXY d   1       4.696  -3.456  -0.537  0.00  0.00     0.003 A 
ENDROOT
TORSDOF 0
ENDMDL
