MODEL 1
REMARK minimizedAffinity 9.14098454
REMARK minimizedRMSD -1
REMARK  0 active torsions:
REMARK  status: ('A' for Active; 'I' for Inactive)
ROOT
ATOM      1  C4' PXY d   1      -0.292   1.921   3.305  0.00  0.00     0.077 C 
ATOM      2  C1' PXY d   1       0.140   5.517  -1.200  0.00  0.00     0.077 C 
ATOM      3  C1  PXY d   1       0.024   4.584  -0.011  0.00  0.00    -0.082 A 
ATOM      4  C2  PXY d   1       0.643   3.415  -0.034  0.00  0.00     0.003 A 
ATOM      5  C3  PXY d   1       0.523   2.545   1.020  0.00  0.00     0.003 A 
ATOM      6  C4  PXY d   1      -0.195   2.899   2.131  0.00  0.00    -0.082 A 
ATOM      7  C5  PXY d   1      -0.821   4.094   2.166  0.00  0.00     0.003 A 
ATOM      8  C6  PXY d   1      -0.720   4.945   1.070  0.00  0.00     0.003 A 
ENDROOT
TORSDOF 0
ENDMDL
