MODEL 1
REMARK minimizedAffinity 11.4971218
REMARK minimizedRMSD -1
REMARK  0 active torsions:
REMARK  status: ('A' for Active; 'I' for Inactive)
ROOT
ATOM      1  C4' PXY d   1       0.446   0.718   3.999  0.00  0.00     0.077 C 
ATOM      2  C1' PXY d   1       0.165   4.878  -0.005  0.00  0.00     0.077 C 
ATOM      3  C1  PXY d   1       0.252   3.787   1.044  0.00  0.00    -0.082 A 
ATOM      4  C2  PXY d   1      -0.801   3.019   1.277  0.00  0.00     0.003 A 
ATOM      5  C3  PXY d   1      -0.750   2.049   2.245  0.00  0.00     0.003 A 
ATOM      6  C4  PXY d   1       0.407   1.826   2.943  0.00  0.00    -0.082 A 
ATOM      7  C5  PXY d   1       1.488   2.598   2.703  0.00  0.00     0.003 A 
ATOM      8  C6  PXY d   1       1.403   3.605   1.746  0.00  0.00     0.003 A 
ENDROOT
TORSDOF 0
ENDMDL
