MODEL 1
REMARK minimizedAffinity 13.8933315
REMARK minimizedRMSD -1
REMARK  0 active torsions:
REMARK  status: ('A' for Active; 'I' for Inactive)
ROOT
ATOM      1  C4' PXY d   1      -1.172  -1.600  -2.439  0.00  0.00     0.077 C 
ATOM      2  C1' PXY d   1      -0.591   2.932   1.103  0.00  0.00     0.077 C 
ATOM      3  C1  PXY d   1      -0.755   1.741   0.179  0.00  0.00    -0.082 A 
ATOM      4  C2  PXY d   1       0.318   1.121  -0.286  0.00  0.00     0.003 A 
ATOM      5  C3  PXY d   1       0.188   0.063  -1.148  0.00  0.00     0.003 A 
ATOM      6  C4  PXY d   1      -1.053  -0.399  -1.496  0.00  0.00    -0.082 A 
ATOM      7  C5  PXY d   1      -2.153   0.221  -1.017  0.00  0.00     0.003 A 
ATOM      8  C6  PXY d   1      -1.999   1.320  -0.176  0.00  0.00     0.003 A 
ENDROOT
TORSDOF 0
ENDMDL
