MODEL 1
REMARK minimizedAffinity 11.4759455
REMARK minimizedRMSD -1
REMARK  0 active torsions:
REMARK  status: ('A' for Active; 'I' for Inactive)
ROOT
ATOM      1  C4' PXY d   1      -0.768   5.999  -1.854  0.00  0.00     0.077 C 
ATOM      2  C1' PXY d   1       0.366   2.314   2.452  0.00  0.00     0.077 C 
ATOM      3  C1  PXY d   1       0.058   3.285   1.329  0.00  0.00    -0.082 A 
ATOM      4  C2  PXY d   1       0.508   3.038   0.110  0.00  0.00     0.003 A 
ATOM      5  C3  PXY d   1       0.266   3.921  -0.911  0.00  0.00     0.003 A 
ATOM      6  C4  PXY d   1      -0.489   5.042  -0.692  0.00  0.00    -0.082 A 
ATOM      7  C5  PXY d   1      -0.960   5.296   0.547  0.00  0.00     0.003 A 
ATOM      8  C6  PXY d   1      -0.669   4.408   1.578  0.00  0.00     0.003 A 
ENDROOT
TORSDOF 0
ENDMDL
