MODEL 1
REMARK minimizedAffinity 7.84758091
REMARK minimizedRMSD -1
REMARK  0 active torsions:
REMARK  status: ('A' for Active; 'I' for Inactive)
ROOT
ATOM      1  C4' PXY d   1       0.403   0.026   4.730  0.00  0.00     0.077 C 
ATOM      2  C1' PXY d   1      -0.348   4.065   0.663  0.00  0.00     0.077 C 
ATOM      3  C1  PXY d   1      -0.139   3.004   1.726  0.00  0.00    -0.082 A 
ATOM      4  C2  PXY d   1      -1.176   2.322   2.183  0.00  0.00     0.003 A 
ATOM      5  C3  PXY d   1      -1.009   1.382   3.167  0.00  0.00     0.003 A 
ATOM      6  C4  PXY d   1       0.240   1.100   3.650  0.00  0.00    -0.082 A 
ATOM      7  C5  PXY d   1       1.305   1.784   3.182  0.00  0.00     0.003 A 
ATOM      8  C6  PXY d   1       1.109   2.763   2.212  0.00  0.00     0.003 A 
ENDROOT
TORSDOF 0
ENDMDL
