MODEL 1
REMARK minimizedAffinity -6.11334515
REMARK minimizedRMSD -1
REMARK  3 active torsions:
REMARK  status: ('A' for Active; 'I' for Inactive)
REMARK    1  A    between atoms: C3'_2  and  C2'_3 
REMARK    2  A    between atoms: C2'_3  and  C1'_4 
REMARK    3  A    between atoms: C1'_4  and  C1_5 
ROOT
ATOM      1  C1  N4B d   1      -0.023  -0.470  -3.647  0.00  0.00    -0.075 A 
ATOM      2  C2  N4B d   1      -0.669  -1.709  -3.855  0.00  0.00     0.002 A 
ATOM      3  C3  N4B d   1      -1.592  -1.841  -4.863  0.00  0.00     0.002 A 
ATOM      4  C4  N4B d   1      -1.898  -0.748  -5.661  0.00  0.00    -0.004 A 
ATOM      5  C5  N4B d   1      -1.250   0.438  -5.470  0.00  0.00     0.002 A 
ATOM      6  C6  N4B d   1      -0.318   0.584  -4.463  0.00  0.00     0.002 A 
ENDROOT
BRANCH   1   7
ATOM      7  C1' N4B d   1       0.930  -0.254  -2.503  0.00  0.00     0.057 C 
BRANCH   7   8
ATOM      8  C2' N4B d   1       0.302  -0.790  -1.220  0.00  0.00     0.009 C 
BRANCH   8   9
ATOM      9  C3' N4B d   1       0.143   0.295  -0.169  0.00  0.00     0.004 C 
ATOM     10  C4' N4B d   1      -1.047   0.077   0.717  0.00  0.00     0.003 C 
ENDBRANCH   8   9
ENDBRANCH   7   8
ENDBRANCH   1   7
TORSDOF 3
ENDMDL
