MODEL 1
REMARK minimizedAffinity -2.97992396
REMARK minimizedRMSD -1
REMARK  3 active torsions:
REMARK  status: ('A' for Active; 'I' for Inactive)
REMARK    1  A    between atoms: C3'_2  and  C2'_3 
REMARK    2  A    between atoms: C2'_3  and  C1'_4 
REMARK    3  A    between atoms: C1'_4  and  C1_5 
ROOT
ATOM      1  C1  N4B d   1       0.808  -0.472  -1.872  0.00  0.00    -0.075 A 
ATOM      2  C2  N4B d   1      -0.174  -0.680  -2.865  0.00  0.00     0.002 A 
ATOM      3  C3  N4B d   1       0.077  -0.318  -4.166  0.00  0.00     0.002 A 
ATOM      4  C4  N4B d   1       1.291   0.269  -4.492  0.00  0.00    -0.004 A 
ATOM      5  C5  N4B d   1       2.244   0.444  -3.532  0.00  0.00     0.002 A 
ATOM      6  C6  N4B d   1       2.006   0.081  -2.221  0.00  0.00     0.002 A 
ENDROOT
BRANCH   1   7
ATOM      7  C1' N4B d   1       0.547  -0.772  -0.421  0.00  0.00     0.057 C 
BRANCH   7   8
ATOM      8  C2' N4B d   1       0.023   0.486   0.264  0.00  0.00     0.009 C 
BRANCH   8   9
ATOM      9  C3' N4B d   1      -1.393   0.302   0.783  0.00  0.00     0.004 C 
ATOM     10  C4' N4B d   1      -1.467   0.302   2.281  0.00  0.00     0.003 C 
ENDBRANCH   8   9
ENDBRANCH   7   8
ENDBRANCH   1   7
TORSDOF 3
ENDMDL
