MODEL 1
REMARK minimizedAffinity -6.05421925
REMARK minimizedRMSD -1
REMARK  3 active torsions:
REMARK  status: ('A' for Active; 'I' for Inactive)
REMARK    1  A    between atoms: C3'_2  and  C2'_3 
REMARK    2  A    between atoms: C2'_3  and  C1'_4 
REMARK    3  A    between atoms: C1'_4  and  C1_5 
ROOT
ATOM      1  C1  N4B d   1       0.489  -0.314  -2.077  0.00  0.00    -0.075 A 
ATOM      2  C2  N4B d   1      -0.554  -0.278  -3.028  0.00  0.00     0.002 A 
ATOM      3  C3  N4B d   1      -0.398   0.435  -4.191  0.00  0.00     0.002 A 
ATOM      4  C4  N4B d   1       0.779   1.134  -4.415  0.00  0.00    -0.004 A 
ATOM      5  C5  N4B d   1       1.792   1.073  -3.502  0.00  0.00     0.002 A 
ATOM      6  C6  N4B d   1       1.650   0.357  -2.331  0.00  0.00     0.002 A 
ENDROOT
BRANCH   1   7
ATOM      7  C1' N4B d   1       0.332  -1.010  -0.752  0.00  0.00     0.057 C 
BRANCH   7   8
ATOM      8  C2' N4B d   1       0.411   0.022   0.368  0.00  0.00     0.009 C 
BRANCH   8   9
ATOM      9  C3' N4B d   1      -0.966   0.492   0.806  0.00  0.00     0.004 C 
ATOM     10  C4' N4B d   1      -0.952   1.159   2.149  0.00  0.00     0.003 C 
ENDBRANCH   8   9
ENDBRANCH   7   8
ENDBRANCH   1   7
TORSDOF 3
ENDMDL
