MODEL 1
REMARK minimizedAffinity 2.15794587
REMARK minimizedRMSD -1
REMARK  1 active torsions:
REMARK  status: ('A' for Active; 'I' for Inactive)
REMARK    1  A    between atoms: C1_2  and  C2_3 
ROOT
ATOM      1  C2  UNL d   1       1.277  -1.281  -1.359  0.00  0.00    -0.081 A 
ATOM      2  C3  UNL d   1       0.035  -1.926  -1.392  0.00  0.00     0.006 A 
ATOM      3  C4  UNL d   1      -0.238  -2.982  -0.519  0.00  0.00     0.002 A 
ATOM      4  C5  UNL d   1       0.722  -3.403   0.407  0.00  0.00    -0.080 A 
ATOM      5  C6  UNL d   1       0.430  -4.515   1.371  0.00  0.00     0.076 C 
ATOM      6  C7  UNL d   1       1.969  -2.770   0.429  0.00  0.00     0.002 A 
ATOM      7  C8  UNL d   1       2.243  -1.715  -0.445  0.00  0.00     0.006 A 
ENDROOT
BRANCH   1   8
ATOM      8  C1  UNL d   1       1.552  -0.100  -2.255  0.00  0.00     0.054 C 
ATOM      9  C   UNL d   1       0.576   1.037  -1.987  0.00  0.00     0.018 C 
ENDBRANCH   1   8
TORSDOF 1
ENDMDL
