MODEL 1
REMARK minimizedAffinity 2.93699074
REMARK minimizedRMSD -1
REMARK  1 active torsions:
REMARK  status: ('A' for Active; 'I' for Inactive)
REMARK    1  A    between atoms: C1_2  and  C2_3 
ROOT
ATOM      1  C2  UNL d   1       2.479   0.032  -3.300  0.00  0.00    -0.081 A 
ATOM      2  C3  UNL d   1       2.358   0.432  -4.636  0.00  0.00     0.006 A 
ATOM      3  C4  UNL d   1       3.494   0.746  -5.387  0.00  0.00     0.002 A 
ATOM      4  C5  UNL d   1       4.768   0.657  -4.817  0.00  0.00    -0.080 A 
ATOM      5  C6  UNL d   1       5.998   0.962  -5.621  0.00  0.00     0.076 C 
ATOM      6  C7  UNL d   1       4.888   0.275  -3.477  0.00  0.00     0.002 A 
ATOM      7  C8  UNL d   1       3.753  -0.038  -2.725  0.00  0.00     0.006 A 
ENDROOT
BRANCH   1   8
ATOM      8  C1  UNL d   1       1.262  -0.369  -2.507  0.00  0.00     0.054 C 
ATOM      9  C   UNL d   1       1.651  -1.048  -1.201  0.00  0.00     0.018 C 
ENDBRANCH   1   8
TORSDOF 1
ENDMDL
