MODEL 1
REMARK minimizedAffinity 0.401458919
REMARK minimizedRMSD -1
REMARK  1 active torsions:
REMARK  status: ('A' for Active; 'I' for Inactive)
REMARK    1  A    between atoms: C1_2  and  C2_3 
ROOT
ATOM      1  C2  UNL d   1      -3.657   4.055   5.347  0.00  0.00    -0.081 A 
ATOM      2  C3  UNL d   1      -2.706   3.512   4.474  0.00  0.00     0.006 A 
ATOM      3  C4  UNL d   1      -2.656   2.134   4.251  0.00  0.00     0.002 A 
ATOM      4  C5  UNL d   1      -3.559   1.278   4.890  0.00  0.00    -0.080 A 
ATOM      5  C6  UNL d   1      -3.536  -0.200   4.636  0.00  0.00     0.076 C 
ATOM      6  C7  UNL d   1      -4.498   1.819   5.775  0.00  0.00     0.002 A 
ATOM      7  C8  UNL d   1      -4.548   3.197   5.999  0.00  0.00     0.006 A 
ENDROOT
BRANCH   1   8
ATOM      8  C1  UNL d   1      -3.756   5.547   5.540  0.00  0.00     0.054 C 
ATOM      9  C   UNL d   1      -5.206   5.998   5.631  0.00  0.00     0.018 C 
ENDBRANCH   1   8
TORSDOF 1
ENDMDL
