MODEL 1
REMARK minimizedAffinity -3.10795164
REMARK minimizedRMSD -1
REMARK  1 active torsions:
REMARK  status: ('A' for Active; 'I' for Inactive)
REMARK    1  A    between atoms: C1_2  and  C2_3 
ROOT
ATOM      1  C2  UNL d   1      -4.593   1.868   5.542  0.00  0.00    -0.081 A 
ATOM      2  C3  UNL d   1      -3.498   2.210   4.738  0.00  0.00     0.006 A 
ATOM      3  C4  UNL d   1      -3.254   3.545   4.406  0.00  0.00     0.002 A 
ATOM      4  C5  UNL d   1      -4.093   4.559   4.878  0.00  0.00    -0.080 A 
ATOM      5  C6  UNL d   1      -3.824   5.999   4.554  0.00  0.00     0.076 C 
ATOM      6  C7  UNL d   1      -5.197   4.216   5.666  0.00  0.00     0.002 A 
ATOM      7  C8  UNL d   1      -5.442   2.881   5.998  0.00  0.00     0.006 A 
ENDROOT
BRANCH   1   8
ATOM      8  C1  UNL d   1      -4.822   0.437   5.955  0.00  0.00     0.054 C 
ATOM      9  C   UNL d   1      -4.446  -0.528   4.840  0.00  0.00     0.018 C 
ENDBRANCH   1   8
TORSDOF 1
ENDMDL
