MODEL 1
REMARK minimizedAffinity 3.27504253
REMARK minimizedRMSD -1
REMARK  1 active torsions:
REMARK  status: ('A' for Active; 'I' for Inactive)
REMARK    1  A    between atoms: C1_2  and  C2_3 
ROOT
ATOM      1  C2  UNL d   1       0.841   0.617  -1.544  0.00  0.00    -0.081 A 
ATOM      2  C3  UNL d   1       0.749  -0.621  -0.896  0.00  0.00     0.006 A 
ATOM      3  C4  UNL d   1       0.913  -1.809  -1.613  0.00  0.00     0.002 A 
ATOM      4  C5  UNL d   1       1.179  -1.779  -2.986  0.00  0.00    -0.080 A 
ATOM      5  C6  UNL d   1       1.387  -3.046  -3.761  0.00  0.00     0.076 C 
ATOM      6  C7  UNL d   1       1.253  -0.543  -3.636  0.00  0.00     0.002 A 
ATOM      7  C8  UNL d   1       1.089   0.645  -2.921  0.00  0.00     0.006 A 
ENDROOT
BRANCH   1   8
ATOM      8  C1  UNL d   1       0.729   1.901  -0.763  0.00  0.00     0.054 C 
ATOM      9  C   UNL d   1       1.973   2.146   0.080  0.00  0.00     0.018 C 
ENDBRANCH   1   8
TORSDOF 1
ENDMDL
