MODEL 1
REMARK minimizedAffinity -0.997553527
REMARK minimizedRMSD -1
REMARK  1 active torsions:
REMARK  status: ('A' for Active; 'I' for Inactive)
REMARK    1  A    between atoms: C1_2  and  C2_3 
ROOT
ATOM      1  C2  UNL d   1       0.540  -1.285  -0.660  0.00  0.00    -0.081 A 
ATOM      2  C3  UNL d   1       0.925  -1.636  -1.960  0.00  0.00     0.006 A 
ATOM      3  C4  UNL d   1       1.185  -0.649  -2.913  0.00  0.00     0.002 A 
ATOM      4  C5  UNL d   1       1.071   0.706  -2.580  0.00  0.00    -0.080 A 
ATOM      5  C6  UNL d   1       1.376   1.776  -3.585  0.00  0.00     0.076 C 
ATOM      6  C7  UNL d   1       0.670   1.056  -1.287  0.00  0.00     0.002 A 
ATOM      7  C8  UNL d   1       0.410   0.069  -0.334  0.00  0.00     0.006 A 
ENDROOT
BRANCH   1   8
ATOM      8  C1  UNL d   1       0.323  -2.346   0.388  0.00  0.00     0.054 C 
ATOM      9  C   UNL d   1      -0.991  -2.134   1.127  0.00  0.00     0.018 C 
ENDBRANCH   1   8
TORSDOF 1
ENDMDL
