MODEL 1
REMARK minimizedAffinity 3.94648433
REMARK minimizedRMSD -1
REMARK  1 active torsions:
REMARK  status: ('A' for Active; 'I' for Inactive)
REMARK    1  A    between atoms: C1_2  and  C2_3 
ROOT
ATOM      1  C2  UNL d   1       1.794   1.543  -0.125  0.00  0.00    -0.081 A 
ATOM      2  C3  UNL d   1       2.097   0.202   0.141  0.00  0.00     0.006 A 
ATOM      3  C4  UNL d   1       1.640  -0.809  -0.708  0.00  0.00     0.002 A 
ATOM      4  C5  UNL d   1       0.879  -0.495  -1.840  0.00  0.00    -0.080 A 
ATOM      5  C6  UNL d   1       0.408  -1.568  -2.776  0.00  0.00     0.076 C 
ATOM      6  C7  UNL d   1       0.561   0.843  -2.095  0.00  0.00     0.002 A 
ATOM      7  C8  UNL d   1       1.018   1.854  -1.247  0.00  0.00     0.006 A 
ENDROOT
BRANCH   1   8
ATOM      8  C1  UNL d   1       2.340   2.641   0.753  0.00  0.00     0.054 C 
ATOM      9  C   UNL d   1       3.526   2.154   1.574  0.00  0.00     0.018 C 
ENDBRANCH   1   8
TORSDOF 1
ENDMDL
