MODEL 1
REMARK minimizedAffinity -0.718670607
REMARK minimizedRMSD -1
REMARK  1 active torsions:
REMARK  status: ('A' for Active; 'I' for Inactive)
REMARK    1  A    between atoms: C1_2  and  C2_3 
ROOT
ATOM      1  C2  UNL d   1       1.466   0.127  -3.090  0.00  0.00    -0.081 A 
ATOM      2  C3  UNL d   1       1.597  -1.246  -2.849  0.00  0.00     0.006 A 
ATOM      3  C4  UNL d   1       1.238  -1.785  -1.611  0.00  0.00     0.002 A 
ATOM      4  C5  UNL d   1       0.735  -0.962  -0.598  0.00  0.00    -0.080 A 
ATOM      5  C6  UNL d   1       0.317  -1.532   0.725  0.00  0.00     0.076 C 
ATOM      6  C7  UNL d   1       0.621   0.413  -0.833  0.00  0.00     0.002 A 
ATOM      7  C8  UNL d   1       0.980   0.952  -2.070  0.00  0.00     0.006 A 
ENDROOT
BRANCH   1   8
ATOM      8  C1  UNL d   1       1.791   0.701  -4.445  0.00  0.00     0.054 C 
ATOM      9  C   UNL d   1       3.153   0.229  -4.934  0.00  0.00     0.018 C 
ENDBRANCH   1   8
TORSDOF 1
ENDMDL
