MODEL 1
REMARK minimizedAffinity 2.88242388
REMARK minimizedRMSD -1
REMARK  1 active torsions:
REMARK  status: ('A' for Active; 'I' for Inactive)
REMARK    1  A    between atoms: C1_2  and  C2_3 
ROOT
ATOM      1  C2  UNL d   1      -3.175   1.926   4.904  0.00  0.00    -0.081 A 
ATOM      2  C3  UNL d   1      -3.884   2.437   5.998  0.00  0.00     0.006 A 
ATOM      3  C4  UNL d   1      -4.336   3.758   5.994  0.00  0.00     0.002 A 
ATOM      4  C5  UNL d   1      -4.093   4.588   4.894  0.00  0.00    -0.080 A 
ATOM      5  C6  UNL d   1      -4.599   6.000   4.864  0.00  0.00     0.076 C 
ATOM      6  C7  UNL d   1      -3.369   4.083   3.809  0.00  0.00     0.002 A 
ATOM      7  C8  UNL d   1      -2.916   2.762   3.812  0.00  0.00     0.006 A 
ENDROOT
BRANCH   1   8
ATOM      8  C1  UNL d   1      -2.742   0.482   4.877  0.00  0.00     0.054 C 
ATOM      9  C   UNL d   1      -3.884  -0.445   5.271  0.00  0.00     0.018 C 
ENDBRANCH   1   8
TORSDOF 1
ENDMDL
