MODEL 1
REMARK minimizedAffinity 0.481116027
REMARK minimizedRMSD -1
REMARK  1 active torsions:
REMARK  status: ('A' for Active; 'I' for Inactive)
REMARK    1  A    between atoms: C1_2  and  C2_3 
ROOT
ATOM      1  C2  UNL d   1       3.557  -0.236  -4.939  0.00  0.00    -0.081 A 
ATOM      2  C3  UNL d   1       2.250  -0.554  -5.331  0.00  0.00     0.006 A 
ATOM      3  C4  UNL d   1       1.278  -0.856  -4.375  0.00  0.00     0.002 A 
ATOM      4  C5  UNL d   1       1.593  -0.839  -3.012  0.00  0.00    -0.080 A 
ATOM      5  C6  UNL d   1       0.551  -1.132  -1.974  0.00  0.00     0.076 C 
ATOM      6  C7  UNL d   1       2.903  -0.538  -2.621  0.00  0.00     0.002 A 
ATOM      7  C8  UNL d   1       3.875  -0.236  -3.577  0.00  0.00     0.006 A 
ENDROOT
BRANCH   1   8
ATOM      8  C1  UNL d   1       4.591   0.155  -5.964  0.00  0.00     0.054 C 
ATOM      9  C   UNL d   1       5.999   0.059  -5.394  0.00  0.00     0.018 C 
ENDBRANCH   1   8
TORSDOF 1
ENDMDL
