MODEL 1
REMARK minimizedAffinity -0.119597331
REMARK minimizedRMSD -1
REMARK  1 active torsions:
REMARK  status: ('A' for Active; 'I' for Inactive)
REMARK    1  A    between atoms: C1_2  and  C2_3 
ROOT
ATOM      1  C2  UNL d   1       0.965   1.184  -1.436  0.00  0.00    -0.081 A 
ATOM      2  C3  UNL d   1       0.630  -0.002  -0.773  0.00  0.00     0.006 A 
ATOM      3  C4  UNL d   1       0.704  -1.230  -1.435  0.00  0.00     0.002 A 
ATOM      4  C5  UNL d   1       1.122  -1.292  -2.769  0.00  0.00    -0.080 A 
ATOM      5  C6  UNL d   1       1.235  -2.606  -3.483  0.00  0.00     0.076 C 
ATOM      6  C7  UNL d   1       1.440  -0.105  -3.438  0.00  0.00     0.002 A 
ATOM      7  C8  UNL d   1       1.366   1.122  -2.776  0.00  0.00     0.006 A 
ENDROOT
BRANCH   1   8
ATOM      8  C1  UNL d   1       0.949   2.502  -0.705  0.00  0.00     0.054 C 
ATOM      9  C   UNL d   1       1.956   2.515   0.436  0.00  0.00     0.018 C 
ENDBRANCH   1   8
TORSDOF 1
ENDMDL
