MODEL 1
REMARK minimizedAffinity -4.22613382
REMARK minimizedRMSD -1
REMARK  2 active torsions:
REMARK  status: ('A' for Active; 'I' for Inactive)
REMARK    1  A    between atoms: C2'_3  and  C1'_4 
REMARK    2  A    between atoms: C1'_4  and  C1_5 
ROOT
ATOM      1  C1  I4B d   1      -0.741   0.163  -0.205  0.00  0.00    -0.075 A 
ATOM      2  C2  I4B d   1       0.068  -0.897   0.124  0.00  0.00     0.003 A 
ATOM      3  C3  I4B d   1       1.367  -0.669   0.638  0.00  0.00     0.002 A 
ATOM      4  C4  I4B d   1       1.833   0.624   0.760  0.00  0.00    -0.004 A 
ATOM      5  C5  I4B d   1       1.004   1.697   0.448  0.00  0.00     0.002 A 
ATOM      6  C6  I4B d   1      -0.296   1.466  -0.026  0.00  0.00     0.003 A 
ENDROOT
BRANCH   1   7
ATOM      7  C1' I4B d   1      -2.095  -0.113  -0.776  0.00  0.00     0.060 C 
BRANCH   7   8
ATOM      8  C2' I4B d   1      -2.045   0.184  -2.261  0.00  0.00    -0.013 C 
ATOM      9  C4' I4B d   1      -2.271  -1.064  -3.075  0.00  0.00     0.013 C 
ATOM     10  C3' I4B d   1      -3.084   1.222  -2.562  0.00  0.00     0.013 C 
ENDBRANCH   7   8
ENDBRANCH   1   7
TORSDOF 2
ENDMDL
