MODEL 1
REMARK minimizedAffinity -3.72154641
REMARK minimizedRMSD -1
REMARK  2 active torsions:
REMARK  status: ('A' for Active; 'I' for Inactive)
REMARK    1  A    between atoms: C2'_3  and  C1'_4 
REMARK    2  A    between atoms: C1'_4  and  C1_5 
ROOT
ATOM      1  C1  I4B d   1       1.856  -0.102   1.380  0.00  0.00    -0.075 A 
ATOM      2  C2  I4B d   1       0.539  -0.029   1.000  0.00  0.00     0.003 A 
ATOM      3  C3  I4B d   1       0.070   1.087   0.264  0.00  0.00     0.002 A 
ATOM      4  C4  I4B d   1       0.935   2.123  -0.024  0.00  0.00    -0.004 A 
ATOM      5  C5  I4B d   1       2.276   2.036   0.342  0.00  0.00     0.002 A 
ATOM      6  C6  I4B d   1       2.742   0.911   1.037  0.00  0.00     0.003 A 
ENDROOT
BRANCH   1   7
ATOM      7  C1' I4B d   1       2.310  -1.279   2.184  0.00  0.00     0.060 C 
BRANCH   7   8
ATOM      8  C2' I4B d   1       1.078  -1.981   2.719  0.00  0.00    -0.013 C 
ATOM      9  C4' I4B d   1       0.945  -3.365   2.141  0.00  0.00     0.013 C 
ATOM     10  C3' I4B d   1       1.185  -2.027   4.214  0.00  0.00     0.013 C 
ENDBRANCH   7   8
ENDBRANCH   1   7
TORSDOF 2
ENDMDL
