MODEL 1
REMARK minimizedAffinity -0.0206766464
REMARK minimizedRMSD -1
REMARK  2 active torsions:
REMARK  status: ('A' for Active; 'I' for Inactive)
REMARK    1  A    between atoms: C2'_3  and  C1'_4 
REMARK    2  A    between atoms: C1'_4  and  C1_5 
ROOT
ATOM      1  C1  I4B d   1      -0.569  -0.358   0.126  0.00  0.00    -0.075 A 
ATOM      2  C2  I4B d   1       0.132   0.744  -0.295  0.00  0.00     0.003 A 
ATOM      3  C3  I4B d   1       1.409   1.026   0.246  0.00  0.00     0.002 A 
ATOM      4  C4  I4B d   1       1.923   0.213   1.235  0.00  0.00    -0.004 A 
ATOM      5  C5  I4B d   1       1.221  -0.918   1.644  0.00  0.00     0.002 A 
ATOM      6  C6  I4B d   1      -0.027  -1.212   1.078  0.00  0.00     0.003 A 
ENDROOT
BRANCH   1   7
ATOM      7  C1' I4B d   1      -1.930  -0.608  -0.443  0.00  0.00     0.060 C 
BRANCH   7   8
ATOM      8  C2' I4B d   1      -2.009   0.086  -1.787  0.00  0.00    -0.013 C 
ATOM      9  C4' I4B d   1      -2.171  -0.909  -2.906  0.00  0.00     0.013 C 
ATOM     10  C3' I4B d   1      -3.160   1.047  -1.746  0.00  0.00     0.013 C 
ENDBRANCH   7   8
ENDBRANCH   1   7
TORSDOF 2
ENDMDL
