MODEL 1
REMARK minimizedAffinity 0.680502415
REMARK minimizedRMSD -1
REMARK  0 active torsions:
REMARK  status: ('A' for Active; 'I' for Inactive)
ROOT
ATOM      1  C1  DEN d   1       0.139   2.807  -1.408  0.00  0.00     0.130 A 
ATOM      2  C2  DEN d   1       0.408   4.232  -1.585  0.00  0.00    -0.031 A 
ATOM      3  C3  DEN d   1       0.819   4.785  -0.279  0.00  0.00     0.027 A 
ATOM      4  C4  DEN d   1       1.068   3.579   1.987  0.00  0.00     0.027 A 
ATOM      5  C5  DEN d   1       0.939   2.371   2.636  0.00  0.00    -0.003 A 
ATOM      6  C6  DEN d   1       0.506   1.241   1.996  0.00  0.00     0.001 A 
ATOM      7  C7  DEN d   1       0.228   1.285   0.655  0.00  0.00     0.017 A 
ATOM      8  C8  DEN d   1       0.349   2.501  -0.004  0.00  0.00    -0.094 A 
ATOM      9  C9  DEN d   1       0.800   3.629   0.658  0.00  0.00    -0.072 A 
ENDROOT
TORSDOF 0
ENDMDL
