MODEL 1
REMARK minimizedAffinity 2.3377924
REMARK minimizedRMSD -1
REMARK  0 active torsions:
REMARK  status: ('A' for Active; 'I' for Inactive)
ROOT
ATOM      1  C1  DEN d   1      -0.201   3.136  -0.005  0.00  0.00     0.130 A 
ATOM      2  C2  DEN d   1      -0.293   2.631  -1.372  0.00  0.00    -0.031 A 
ATOM      3  C3  DEN d   1       0.023   1.188  -1.348  0.00  0.00     0.027 A 
ATOM      4  C4  DEN d   1       0.638  -0.305   0.663  0.00  0.00     0.027 A 
ATOM      5  C5  DEN d   1       0.853  -0.323   2.023  0.00  0.00    -0.003 A 
ATOM      6  C6  DEN d   1       0.767   0.807   2.791  0.00  0.00     0.001 A 
ATOM      7  C7  DEN d   1       0.413   1.997   2.211  0.00  0.00     0.017 A 
ATOM      8  C8  DEN d   1       0.201   2.024   0.839  0.00  0.00    -0.094 A 
ATOM      9  C9  DEN d   1       0.281   0.868   0.081  0.00  0.00    -0.072 A 
ENDROOT
TORSDOF 0
ENDMDL
