MODEL 1
REMARK minimizedAffinity -3.4778986
REMARK minimizedRMSD -1
REMARK  0 active torsions:
REMARK  status: ('A' for Active; 'I' for Inactive)
ROOT
ATOM      1  C1  DEN d   1      -0.150   1.563  -0.948  0.00  0.00     0.130 A 
ATOM      2  C2  DEN d   1      -1.297   0.771  -1.384  0.00  0.00    -0.031 A 
ATOM      3  C3  DEN d   1      -2.192   1.654  -2.158  0.00  0.00     0.027 A 
ATOM      4  C4  DEN d   1      -1.912   4.155  -2.725  0.00  0.00     0.027 A 
ATOM      5  C5  DEN d   1      -1.105   5.259  -2.564  0.00  0.00    -0.003 A 
ATOM      6  C6  DEN d   1       0.051   5.217  -1.830  0.00  0.00     0.001 A 
ATOM      7  C7  DEN d   1       0.455   4.036  -1.267  0.00  0.00     0.017 A 
ATOM      8  C8  DEN d   1      -0.357   2.920  -1.419  0.00  0.00    -0.094 A 
ATOM      9  C9  DEN d   1      -1.516   2.979  -2.175  0.00  0.00    -0.072 A 
ENDROOT
TORSDOF 0
ENDMDL
