MODEL 1
REMARK minimizedAffinity 10.422946
REMARK minimizedRMSD -1
REMARK  0 active torsions:
REMARK  status: ('A' for Active; 'I' for Inactive)
ROOT
ATOM      1  C1  DEN d   1       5.518  -5.590  -2.590  0.00  0.00     0.130 A 
ATOM      2  C2  DEN d   1       5.140  -4.818  -3.771  0.00  0.00    -0.031 A 
ATOM      3  C3  DEN d   1       3.832  -4.187  -3.505  0.00  0.00     0.027 A 
ATOM      4  C4  DEN d   1       2.366  -4.324  -1.387  0.00  0.00     0.027 A 
ATOM      5  C5  DEN d   1       2.263  -4.868  -0.127  0.00  0.00    -0.003 A 
ATOM      6  C6  DEN d   1       3.213  -5.711   0.384  0.00  0.00     0.001 A 
ATOM      7  C7  DEN d   1       4.332  -5.999  -0.352  0.00  0.00     0.017 A 
ATOM      8  C8  DEN d   1       4.439  -5.460  -1.627  0.00  0.00    -0.094 A 
ATOM      9  C9  DEN d   1       3.473  -4.600  -2.121  0.00  0.00    -0.072 A 
ENDROOT
TORSDOF 0
ENDMDL
