MODEL 1
REMARK minimizedAffinity 2.48419571
REMARK minimizedRMSD -1
REMARK  0 active torsions:
REMARK  status: ('A' for Active; 'I' for Inactive)
ROOT
ATOM      1  C1  DEN d   1       0.139   3.476  -2.283  0.00  0.00     0.130 A 
ATOM      2  C2  DEN d   1       0.565   4.872  -2.225  0.00  0.00    -0.031 A 
ATOM      3  C3  DEN d   1       0.935   5.178  -0.829  0.00  0.00     0.027 A 
ATOM      4  C4  DEN d   1       0.895   3.634   1.237  0.00  0.00     0.027 A 
ATOM      5  C5  DEN d   1       0.597   2.366   1.685  0.00  0.00    -0.003 A 
ATOM      6  C6  DEN d   1       0.098   1.397   0.855  0.00  0.00     0.001 A 
ATOM      7  C7  DEN d   1      -0.076   1.667  -0.476  0.00  0.00     0.017 A 
ATOM      8  C8  DEN d   1       0.215   2.946  -0.934  0.00  0.00    -0.094 A 
ATOM      9  C9  DEN d   1       0.730   3.908  -0.082  0.00  0.00    -0.072 A 
ENDROOT
TORSDOF 0
ENDMDL
