MODEL 1
REMARK minimizedAffinity 6.12343407
REMARK minimizedRMSD -1
REMARK  0 active torsions:
REMARK  status: ('A' for Active; 'I' for Inactive)
ROOT
ATOM      1  C1  DEN d   1       0.534   4.027  -0.188  0.00  0.00     0.130 A 
ATOM      2  C2  DEN d   1       1.365   5.217  -0.026  0.00  0.00    -0.031 A 
ATOM      3  C3  DEN d   1       2.145   5.064   1.218  0.00  0.00     0.027 A 
ATOM      4  C4  DEN d   1       2.151   3.107   2.899  0.00  0.00     0.027 A 
ATOM      5  C5  DEN d   1       1.602   1.879   3.193  0.00  0.00    -0.003 A 
ATOM      6  C6  DEN d   1       0.642   1.300   2.406  0.00  0.00     0.001 A 
ATOM      7  C7  DEN d   1       0.233   1.931   1.260  0.00  0.00     0.017 A 
ATOM      8  C8  DEN d   1       0.777   3.173   0.961  0.00  0.00    -0.094 A 
ATOM      9  C9  DEN d   1       1.755   3.735   1.763  0.00  0.00    -0.072 A 
ENDROOT
TORSDOF 0
ENDMDL
