MODEL 1
REMARK minimizedAffinity -3.85574508
REMARK minimizedRMSD -1
REMARK  1 active torsions:
REMARK  status: ('A' for Active; 'I' for Inactive)
REMARK    1  A    between atoms: C1_2  and  C2_3 
ROOT
ATOM      1  C2  UNL d   1       0.611   0.972  -1.163  0.00  0.00    -0.077 A 
ATOM      2  C3  UNL d   1       1.973   1.214  -1.393  0.00  0.00     0.002 A 
ATOM      3  C4  UNL d   1       2.385   1.896  -2.539  0.00  0.00     0.002 A 
ATOM      4  C5  UNL d   1       1.443   2.345  -3.462  0.00  0.00    -0.004 A 
ATOM      5  C6  UNL d   1       0.086   2.107  -3.243  0.00  0.00     0.002 A 
ATOM      6  C7  UNL d   1      -0.327   1.425  -2.099  0.00  0.00     0.002 A 
ENDROOT
BRANCH   1   7
ATOM      7  C1  UNL d   1       0.161   0.280   0.097  0.00  0.00     0.055 C 
ATOM      8  C   UNL d   1       0.106  -1.229  -0.090  0.00  0.00     0.019 C 
ENDBRANCH   1   7
TORSDOF 1
ENDMDL
