MODEL 1
REMARK minimizedAffinity -5.0970149
REMARK minimizedRMSD -1
REMARK  1 active torsions:
REMARK  status: ('A' for Active; 'I' for Inactive)
REMARK    1  A    between atoms: C1_2  and  C2_3 
ROOT
ATOM      1  C2  UNL d   1      -0.137   0.156   0.331  0.00  0.00    -0.077 A 
ATOM      2  C3  UNL d   1      -1.412  -0.014   0.889  0.00  0.00     0.002 A 
ATOM      3  C4  UNL d   1      -1.826  -1.270   1.335  0.00  0.00     0.002 A 
ATOM      4  C5  UNL d   1      -0.970  -2.365   1.232  0.00  0.00    -0.004 A 
ATOM      5  C6  UNL d   1       0.299  -2.206   0.677  0.00  0.00     0.002 A 
ATOM      6  C7  UNL d   1       0.714  -0.952   0.229  0.00  0.00     0.002 A 
ENDROOT
BRANCH   1   7
ATOM      7  C1  UNL d   1       0.329   1.520  -0.106  0.00  0.00     0.055 C 
ATOM      8  C   UNL d   1       0.651   1.546  -1.593  0.00  0.00     0.019 C 
ENDBRANCH   1   7
TORSDOF 1
ENDMDL
