MODEL 1
REMARK minimizedAffinity -5.14383841
REMARK minimizedRMSD -1
REMARK  1 active torsions:
REMARK  status: ('A' for Active; 'I' for Inactive)
REMARK    1  A    between atoms: C1_2  and  C2_3 
ROOT
ATOM      1  C2  UNL d   1      -0.127  -0.000   0.145  0.00  0.00    -0.077 A 
ATOM      2  C3  UNL d   1       0.683  -1.139   0.248  0.00  0.00     0.002 A 
ATOM      3  C4  UNL d   1       0.138  -2.360   0.649  0.00  0.00     0.002 A 
ATOM      4  C5  UNL d   1      -1.220  -2.455   0.946  0.00  0.00    -0.004 A 
ATOM      5  C6  UNL d   1      -2.034  -1.328   0.848  0.00  0.00     0.002 A 
ATOM      6  C7  UNL d   1      -1.491  -0.106   0.449  0.00  0.00     0.002 A 
ENDROOT
BRANCH   1   7
ATOM      7  C1  UNL d   1       0.449   1.306  -0.335  0.00  0.00     0.055 C 
ATOM      8  C   UNL d   1       0.356   1.430  -1.849  0.00  0.00     0.019 C 
ENDBRANCH   1   7
TORSDOF 1
ENDMDL
