MODEL 1
REMARK minimizedAffinity -1.3870647
REMARK minimizedRMSD -1
REMARK  1 active torsions:
REMARK  status: ('A' for Active; 'I' for Inactive)
REMARK    1  A    between atoms: C1_2  and  C2_3 
ROOT
ATOM      1  C2  UNL d   1       0.604   0.063  -0.412  0.00  0.00    -0.077 A 
ATOM      2  C3  UNL d   1       0.315  -0.490  -1.667  0.00  0.00     0.002 A 
ATOM      3  C4  UNL d   1       0.339   0.308  -2.813  0.00  0.00     0.002 A 
ATOM      4  C5  UNL d   1       0.656   1.661  -2.714  0.00  0.00    -0.004 A 
ATOM      5  C6  UNL d   1       0.943   2.221  -1.470  0.00  0.00     0.002 A 
ATOM      6  C7  UNL d   1       0.918   1.425  -0.324  0.00  0.00     0.002 A 
ENDROOT
BRANCH   1   7
ATOM      7  C1  UNL d   1       0.626  -0.807   0.818  0.00  0.00     0.055 C 
ATOM      8  C   UNL d   1       0.752  -2.279   0.453  0.00  0.00     0.019 C 
ENDBRANCH   1   7
TORSDOF 1
ENDMDL
