MODEL 1
REMARK minimizedAffinity -1.91612041
REMARK minimizedRMSD -1
REMARK  1 active torsions:
REMARK  status: ('A' for Active; 'I' for Inactive)
REMARK    1  A    between atoms: C1_2  and  C2_3 
ROOT
ATOM      1  C2  UNL d   1      -0.862  -1.117   1.444  0.00  0.00    -0.077 A 
ATOM      2  C3  UNL d   1      -0.193  -2.319   1.174  0.00  0.00     0.002 A 
ATOM      3  C4  UNL d   1       0.941  -2.329   0.360  0.00  0.00     0.002 A 
ATOM      4  C5  UNL d   1       1.419  -1.140  -0.186  0.00  0.00    -0.004 A 
ATOM      5  C6  UNL d   1       0.760   0.061   0.075  0.00  0.00     0.002 A 
ATOM      6  C7  UNL d   1      -0.375   0.072   0.887  0.00  0.00     0.002 A 
ENDROOT
BRANCH   1   7
ATOM      7  C1  UNL d   1      -2.057  -1.098   2.361  0.00  0.00     0.055 C 
ATOM      8  C   UNL d   1      -2.703   0.280   2.399  0.00  0.00     0.019 C 
ENDBRANCH   1   7
TORSDOF 1
ENDMDL
