MODEL 1
REMARK minimizedAffinity -5.58714247
REMARK minimizedRMSD -1
REMARK  1 active torsions:
REMARK  status: ('A' for Active; 'I' for Inactive)
REMARK    1  A    between atoms: C1_2  and  C2_3 
ROOT
ATOM      1  C2  UNL d   1      -0.477  -0.865   0.806  0.00  0.00    -0.077 A 
ATOM      2  C3  UNL d   1      -0.852  -2.065   1.426  0.00  0.00     0.002 A 
ATOM      3  C4  UNL d   1      -1.954  -2.103   2.282  0.00  0.00     0.002 A 
ATOM      4  C5  UNL d   1      -2.692  -0.947   2.523  0.00  0.00    -0.004 A 
ATOM      5  C6  UNL d   1      -2.326   0.252   1.912  0.00  0.00     0.002 A 
ATOM      6  C7  UNL d   1      -1.225   0.293   1.057  0.00  0.00     0.002 A 
ENDROOT
BRANCH   1   7
ATOM      7  C1  UNL d   1       0.681  -0.832  -0.157  0.00  0.00     0.055 C 
ATOM      8  C   UNL d   1       0.731   0.485  -0.918  0.00  0.00     0.019 C 
ENDBRANCH   1   7
TORSDOF 1
ENDMDL
