MODEL 1
REMARK minimizedAffinity -2.66131425
REMARK minimizedRMSD -1
REMARK  1 active torsions:
REMARK  status: ('A' for Active; 'I' for Inactive)
REMARK    1  A    between atoms: C1_2  and  C2_3 
ROOT
ATOM      1  C2  UNL d   1       0.945   1.156  -0.816  0.00  0.00    -0.077 A 
ATOM      2  C3  UNL d   1       1.591  -0.084  -0.708  0.00  0.00     0.002 A 
ATOM      3  C4  UNL d   1       1.099  -1.064   0.157  0.00  0.00     0.002 A 
ATOM      4  C5  UNL d   1      -0.042  -0.815   0.917  0.00  0.00    -0.004 A 
ATOM      5  C6  UNL d   1      -0.690   0.415   0.819  0.00  0.00     0.002 A 
ATOM      6  C7  UNL d   1      -0.199   1.396  -0.044  0.00  0.00     0.002 A 
ENDROOT
BRANCH   1   7
ATOM      7  C1  UNL d   1       1.445   2.196  -1.784  0.00  0.00     0.055 C 
ATOM      8  C   UNL d   1       0.587   2.240  -3.040  0.00  0.00     0.019 C 
ENDBRANCH   1   7
TORSDOF 1
ENDMDL
