MODEL 1
REMARK minimizedAffinity 9.40638256
REMARK minimizedRMSD -1
REMARK  1 active torsions:
REMARK  status: ('A' for Active; 'I' for Inactive)
REMARK    1  A    between atoms: C1_2  and  C2_3 
ROOT
ATOM      1  C2  UNL d   1      -2.438  -4.296  -5.247  0.00  0.00    -0.077 A 
ATOM      2  C3  UNL d   1      -1.709  -5.329  -5.853  0.00  0.00     0.002 A 
ATOM      3  C4  UNL d   1      -0.705  -5.993  -5.146  0.00  0.00     0.002 A 
ATOM      4  C5  UNL d   1      -0.423  -5.634  -3.829  0.00  0.00    -0.004 A 
ATOM      5  C6  UNL d   1      -1.141  -4.606  -3.219  0.00  0.00     0.002 A 
ATOM      6  C7  UNL d   1      -2.144  -3.941  -3.924  0.00  0.00     0.002 A 
ENDROOT
BRANCH   1   7
ATOM      7  C1  UNL d   1      -3.555  -3.612  -5.991  0.00  0.00     0.055 C 
ATOM      8  C   UNL d   1      -3.449  -2.098  -5.880  0.00  0.00     0.019 C 
ENDBRANCH   1   7
TORSDOF 1
ENDMDL
