MODEL 1
REMARK minimizedAffinity -3.13979197
REMARK minimizedRMSD -1
REMARK  1 active torsions:
REMARK  status: ('A' for Active; 'I' for Inactive)
REMARK    1  A    between atoms: C1_2  and  C2_3 
ROOT
ATOM      1  C2  UNL d   1       0.648   0.876  -1.905  0.00  0.00    -0.077 A 
ATOM      2  C3  UNL d   1       1.221   2.081  -1.472  0.00  0.00     0.002 A 
ATOM      3  C4  UNL d   1       1.327   3.166  -2.345  0.00  0.00     0.002 A 
ATOM      4  C5  UNL d   1       0.859   3.059  -3.653  0.00  0.00    -0.004 A 
ATOM      5  C6  UNL d   1       0.291   1.865  -4.093  0.00  0.00     0.002 A 
ATOM      6  C7  UNL d   1       0.185   0.778  -3.223  0.00  0.00     0.002 A 
ENDROOT
BRANCH   1   7
ATOM      7  C1  UNL d   1       0.488  -0.279  -0.952  0.00  0.00     0.055 C 
ATOM      8  C   UNL d   1       0.066   0.198   0.430  0.00  0.00     0.019 C 
ENDBRANCH   1   7
TORSDOF 1
ENDMDL
