MODEL 1
REMARK minimizedAffinity -4.58756161
REMARK minimizedRMSD -1
REMARK  1 active torsions:
REMARK  status: ('A' for Active; 'I' for Inactive)
REMARK    1  A    between atoms: C1_2  and  C2_3 
ROOT
ATOM      1  C2  UNL d   1      -0.601  -0.872   0.598  0.00  0.00    -0.077 A 
ATOM      2  C3  UNL d   1      -1.406   0.162   1.097  0.00  0.00     0.002 A 
ATOM      3  C4  UNL d   1      -2.366  -0.100   2.076  0.00  0.00     0.002 A 
ATOM      4  C5  UNL d   1      -2.529  -1.393   2.567  0.00  0.00    -0.004 A 
ATOM      5  C6  UNL d   1      -1.735  -2.429   2.076  0.00  0.00     0.002 A 
ATOM      6  C7  UNL d   1      -0.775  -2.170   1.097  0.00  0.00     0.002 A 
ENDROOT
BRANCH   1   7
ATOM      7  C1  UNL d   1       0.469  -0.583  -0.422  0.00  0.00     0.055 C 
ATOM      8  C   UNL d   1       0.907   0.873  -0.366  0.00  0.00     0.019 C 
ENDBRANCH   1   7
TORSDOF 1
ENDMDL
