MODEL 1
REMARK minimizedAffinity -4.47992754
REMARK minimizedRMSD -1
REMARK  1 active torsions:
REMARK  status: ('A' for Active; 'I' for Inactive)
REMARK    1  A    between atoms: C1_2  and  C2_3 
ROOT
ATOM      1  C2  UNL d   1      -1.195  -1.167   1.467  0.00  0.00    -0.077 A 
ATOM      2  C3  UNL d   1      -0.591  -2.359   1.041  0.00  0.00     0.002 A 
ATOM      3  C4  UNL d   1       0.355  -2.344   0.015  0.00  0.00     0.002 A 
ATOM      4  C5  UNL d   1       0.708  -1.140  -0.592  0.00  0.00    -0.004 A 
ATOM      5  C6  UNL d   1       0.112   0.050  -0.177  0.00  0.00     0.002 A 
ATOM      6  C7  UNL d   1      -0.834   0.037   0.848  0.00  0.00     0.002 A 
ENDROOT
BRANCH   1   7
ATOM      7  C1  UNL d   1      -2.179  -1.174   2.607  0.00  0.00     0.055 C 
ATOM      8  C   UNL d   1      -2.816   0.194   2.798  0.00  0.00     0.019 C 
ENDBRANCH   1   7
TORSDOF 1
ENDMDL
