MODEL 1
REMARK minimizedAffinity -4.37821865
REMARK minimizedRMSD -1
REMARK  1 active torsions:
REMARK  status: ('A' for Active; 'I' for Inactive)
REMARK    1  A    between atoms: C1_2  and  C2_3 
ROOT
ATOM      1  C2  UNL d   1       0.787   1.144  -0.999  0.00  0.00    -0.077 A 
ATOM      2  C3  UNL d   1       0.467   2.495  -0.803  0.00  0.00     0.002 A 
ATOM      3  C4  UNL d   1       0.147   3.310  -1.891  0.00  0.00     0.002 A 
ATOM      4  C5  UNL d   1       0.140   2.782  -3.180  0.00  0.00    -0.004 A 
ATOM      5  C6  UNL d   1       0.458   1.440  -3.386  0.00  0.00     0.002 A 
ATOM      6  C7  UNL d   1       0.779   0.625  -2.300  0.00  0.00     0.002 A 
ENDROOT
BRANCH   1   7
ATOM      7  C1  UNL d   1       1.084   0.251   0.177  0.00  0.00     0.055 C 
ATOM      8  C   UNL d   1       0.518  -1.146  -0.031  0.00  0.00     0.019 C 
ENDBRANCH   1   7
TORSDOF 1
ENDMDL
