MODEL 1
REMARK minimizedAffinity -0.422032148
REMARK minimizedRMSD -1
REMARK  0 active torsions:
REMARK  status: ('A' for Active; 'I' for Inactive)
ROOT
ATOM      1  C   UNL d   1       5.234  -5.841  -2.715  0.00  0.00     0.023 A 
ATOM      2  C1  UNL d   1       3.905  -5.755  -2.300  0.00  0.00     0.003 A 
ATOM      3  C2  UNL d   1       2.874  -5.789  -3.241  0.00  0.00     0.048 A 
ATOM      4  C3  UNL d   1       3.179  -5.910  -4.596  0.00  0.00     0.023 A 
ATOM      5  C4  UNL d   1       4.507  -5.998  -5.016  0.00  0.00     0.048 A 
ATOM      6  C5  UNL d   1       5.534  -5.963  -4.072  0.00  0.00     0.003 A 
ATOM      7  I   UNL d   1       1.646  -5.962  -5.999  0.00  0.00    -0.146 I 
ENDROOT
TORSDOF 0
ENDMDL
