MODEL 1
REMARK minimizedAffinity -3.72932267
REMARK minimizedRMSD -1
REMARK  0 active torsions:
REMARK  status: ('A' for Active; 'I' for Inactive)
ROOT
ATOM      1  C   UNL d   1       2.401  -6.000  -2.746  0.00  0.00     0.023 A 
ATOM      2  C1  UNL d   1       2.104  -5.883  -4.104  0.00  0.00     0.003 A 
ATOM      3  C2  UNL d   1       3.133  -5.730  -5.035  0.00  0.00     0.048 A 
ATOM      4  C3  UNL d   1       4.458  -5.695  -4.601  0.00  0.00     0.023 A 
ATOM      5  C4  UNL d   1       4.760  -5.812  -3.243  0.00  0.00     0.048 A 
ATOM      6  C5  UNL d   1       3.728  -5.965  -2.316  0.00  0.00     0.003 A 
ATOM      7  I   UNL d   1       5.992  -5.467  -5.985  0.00  0.00    -0.146 I 
ENDROOT
TORSDOF 0
ENDMDL
