MODEL 1
REMARK minimizedAffinity 1.33444917
REMARK minimizedRMSD -1
REMARK  0 active torsions:
REMARK  status: ('A' for Active; 'I' for Inactive)
ROOT
ATOM      1  C   UNL d   1       2.771  -5.918  -5.714  0.00  0.00     0.023 A 
ATOM      2  C1  UNL d   1       2.329  -5.970  -4.392  0.00  0.00     0.003 A 
ATOM      3  C2  UNL d   1       3.253  -5.993  -3.346  0.00  0.00     0.048 A 
ATOM      4  C3  UNL d   1       4.618  -5.965  -3.628  0.00  0.00     0.023 A 
ATOM      5  C4  UNL d   1       5.066  -5.912  -4.950  0.00  0.00     0.048 A 
ATOM      6  C5  UNL d   1       4.138  -5.890  -5.993  0.00  0.00     0.003 A 
ATOM      7  I   UNL d   1       5.996  -6.000  -2.072  0.00  0.00    -0.146 I 
ENDROOT
TORSDOF 0
ENDMDL
