MODEL 1
REMARK minimizedAffinity -0.745975018
REMARK minimizedRMSD -1
REMARK  0 active torsions:
REMARK  status: ('A' for Active; 'I' for Inactive)
ROOT
ATOM      1  C   UNL d   1       4.854  -5.966  -6.000  0.00  0.00     0.023 A 
ATOM      2  C1  UNL d   1       5.610  -5.636  -4.875  0.00  0.00     0.003 A 
ATOM      3  C2  UNL d   1       4.975  -5.338  -3.668  0.00  0.00     0.048 A 
ATOM      4  C3  UNL d   1       3.583  -5.373  -3.591  0.00  0.00     0.023 A 
ATOM      5  C4  UNL d   1       2.822  -5.703  -4.714  0.00  0.00     0.048 A 
ATOM      6  C5  UNL d   1       3.461  -6.000  -5.919  0.00  0.00     0.003 A 
ATOM      7  I   UNL d   1       2.636  -4.929  -1.795  0.00  0.00    -0.146 I 
ENDROOT
TORSDOF 0
ENDMDL
