MODEL 1
REMARK minimizedAffinity -2.87453175
REMARK minimizedRMSD -1
REMARK  0 active torsions:
REMARK  status: ('A' for Active; 'I' for Inactive)
ROOT
ATOM      1  C   UNL d   1       5.354  -5.607  -1.876  0.00  0.00     0.023 A 
ATOM      2  C1  UNL d   1       3.968  -5.449  -1.846  0.00  0.00     0.003 A 
ATOM      3  C2  UNL d   1       3.226  -5.561  -3.023  0.00  0.00     0.048 A 
ATOM      4  C3  UNL d   1       3.875  -5.832  -4.227  0.00  0.00     0.023 A 
ATOM      5  C4  UNL d   1       5.261  -5.992  -4.262  0.00  0.00     0.048 A 
ATOM      6  C5  UNL d   1       5.999  -5.879  -3.083  0.00  0.00     0.003 A 
ATOM      7  I   UNL d   1       2.771  -5.999  -5.980  0.00  0.00    -0.146 I 
ENDROOT
TORSDOF 0
ENDMDL
