MODEL 1
REMARK minimizedAffinity -2.69856977
REMARK minimizedRMSD -1
REMARK  0 active torsions:
REMARK  status: ('A' for Active; 'I' for Inactive)
ROOT
ATOM      1  C   UNL d   1       3.004  -4.884  -2.321  0.00  0.00     0.023 A 
ATOM      2  C1  UNL d   1       4.335  -4.470  -2.280  0.00  0.00     0.003 A 
ATOM      3  C2  UNL d   1       5.197  -4.778  -3.335  0.00  0.00     0.048 A 
ATOM      4  C3  UNL d   1       4.720  -5.500  -4.428  0.00  0.00     0.023 A 
ATOM      5  C4  UNL d   1       3.388  -5.916  -4.474  0.00  0.00     0.048 A 
ATOM      6  C5  UNL d   1       2.531  -5.607  -3.417  0.00  0.00     0.003 A 
ATOM      7  I   UNL d   1       6.000  -5.960  -6.000  0.00  0.00    -0.146 I 
ENDROOT
TORSDOF 0
ENDMDL
