MODEL 1
REMARK minimizedAffinity -2.86046839
REMARK minimizedRMSD -1
REMARK  0 active torsions:
REMARK  status: ('A' for Active; 'I' for Inactive)
ROOT
ATOM      1  C   UNL d   1       3.097  -5.836  -1.968  0.00  0.00     0.023 A 
ATOM      2  C1  UNL d   1       4.486  -5.791  -1.845  0.00  0.00     0.003 A 
ATOM      3  C2  UNL d   1       5.291  -5.839  -2.985  0.00  0.00     0.048 A 
ATOM      4  C3  UNL d   1       4.701  -5.930  -4.245  0.00  0.00     0.023 A 
ATOM      5  C4  UNL d   1       3.311  -5.974  -4.373  0.00  0.00     0.048 A 
ATOM      6  C5  UNL d   1       2.511  -5.927  -3.231  0.00  0.00     0.003 A 
ATOM      7  I   UNL d   1       5.897  -6.000  -5.944  0.00  0.00    -0.146 I 
ENDROOT
TORSDOF 0
ENDMDL
