MODEL 1
REMARK minimizedAffinity -2.43627977
REMARK minimizedRMSD -1
REMARK  0 active torsions:
REMARK  status: ('A' for Active; 'I' for Inactive)
ROOT
ATOM      1  C   UNL d   1       5.984  -4.550  -2.624  0.00  0.00     0.023 A 
ATOM      2  C1  UNL d   1       4.811  -4.748  -1.896  0.00  0.00     0.003 A 
ATOM      3  C2  UNL d   1       3.647  -5.163  -2.545  0.00  0.00     0.048 A 
ATOM      4  C3  UNL d   1       3.663  -5.381  -3.922  0.00  0.00     0.023 A 
ATOM      5  C4  UNL d   1       4.835  -5.185  -4.655  0.00  0.00     0.048 A 
ATOM      6  C5  UNL d   1       5.996  -4.768  -4.002  0.00  0.00     0.003 A 
ATOM      7  I   UNL d   1       1.931  -6.000  -4.890  0.00  0.00    -0.146 I 
ENDROOT
TORSDOF 0
ENDMDL
