MODEL 1
REMARK minimizedAffinity -1.96850085
REMARK minimizedRMSD -1
REMARK  0 active torsions:
REMARK  status: ('A' for Active; 'I' for Inactive)
ROOT
ATOM      1  C   UNL d   1       2.547  -6.000  -5.478  0.00  0.00     0.023 A 
ATOM      2  C1  UNL d   1       3.891  -5.991  -5.852  0.00  0.00     0.003 A 
ATOM      3  C2  UNL d   1       4.883  -5.785  -4.891  0.00  0.00     0.048 A 
ATOM      4  C3  UNL d   1       4.524  -5.588  -3.558  0.00  0.00     0.023 A 
ATOM      5  C4  UNL d   1       3.181  -5.597  -3.179  0.00  0.00     0.048 A 
ATOM      6  C5  UNL d   1       2.192  -5.803  -4.143  0.00  0.00     0.003 A 
ATOM      7  I   UNL d   1       5.999  -5.281  -2.127  0.00  0.00    -0.146 I 
ENDROOT
TORSDOF 0
ENDMDL
