MODEL 1
REMARK minimizedAffinity -2.09589314
REMARK minimizedRMSD -1
REMARK  0 active torsions:
REMARK  status: ('A' for Active; 'I' for Inactive)
ROOT
ATOM      1  C   UNL d   1       5.939   2.586   2.649  0.00  0.00     0.023 A 
ATOM      2  C1  UNL d   1       5.289   1.361   2.489  0.00  0.00     0.003 A 
ATOM      3  C2  UNL d   1       3.967   1.324   2.042  0.00  0.00     0.048 A 
ATOM      4  C3  UNL d   1       3.301   2.515   1.755  0.00  0.00     0.023 A 
ATOM      5  C4  UNL d   1       3.947   3.742   1.912  0.00  0.00     0.048 A 
ATOM      6  C5  UNL d   1       5.268   3.774   2.361  0.00  0.00     0.003 A 
ATOM      7  I   UNL d   1       1.333   2.462   1.088  0.00  0.00    -0.146 I 
ENDROOT
TORSDOF 0
ENDMDL
