MODEL 1
REMARK minimizedAffinity -2.62091208
REMARK minimizedRMSD -1
REMARK  0 active torsions:
REMARK  status: ('A' for Active; 'I' for Inactive)
ROOT
ATOM      1  C   UNL d   1       3.003  -5.985  -2.575  0.00  0.00     0.023 A 
ATOM      2  C1  UNL d   1       4.349  -5.770  -2.279  0.00  0.00     0.003 A 
ATOM      3  C2  UNL d   1       5.211  -5.276  -3.261  0.00  0.00     0.048 A 
ATOM      4  C3  UNL d   1       4.719  -4.998  -4.536  0.00  0.00     0.023 A 
ATOM      5  C4  UNL d   1       3.373  -5.211  -4.836  0.00  0.00     0.048 A 
ATOM      6  C5  UNL d   1       2.515  -5.706  -3.852  0.00  0.00     0.003 A 
ATOM      7  I   UNL d   1       5.999  -4.263  -5.999  0.00  0.00    -0.146 I 
ENDROOT
TORSDOF 0
ENDMDL
