MODEL 1
REMARK minimizedAffinity -0.432517648
REMARK minimizedRMSD -1
REMARK  0 active torsions:
REMARK  status: ('A' for Active; 'I' for Inactive)
ROOT
ATOM      1  C   UNL d   1       5.869  -5.055  -3.157  0.00  0.00     0.023 A 
ATOM      2  C1  UNL d   1       4.672  -5.495  -2.591  0.00  0.00     0.003 A 
ATOM      3  C2  UNL d   1       3.571  -5.767  -3.405  0.00  0.00     0.048 A 
ATOM      4  C3  UNL d   1       3.673  -5.596  -4.785  0.00  0.00     0.023 A 
ATOM      5  C4  UNL d   1       4.868  -5.157  -5.356  0.00  0.00     0.048 A 
ATOM      6  C5  UNL d   1       5.967  -4.886  -4.538  0.00  0.00     0.003 A 
ATOM      7  I   UNL d   1       2.035  -5.999  -6.000  0.00  0.00    -0.146 I 
ENDROOT
TORSDOF 0
ENDMDL
