MODEL 1
REMARK minimizedAffinity -2.84491611
REMARK minimizedRMSD -1
REMARK  0 active torsions:
REMARK  status: ('A' for Active; 'I' for Inactive)
ROOT
ATOM      1  C   UNL d   1       5.669   3.308   3.556  0.00  0.00     0.023 A 
ATOM      2  C1  UNL d   1       4.777   4.259   3.060  0.00  0.00     0.003 A 
ATOM      3  C2  UNL d   1       3.671   3.857   2.310  0.00  0.00     0.048 A 
ATOM      4  C3  UNL d   1       3.461   2.501   2.061  0.00  0.00     0.023 A 
ATOM      5  C4  UNL d   1       4.349   1.545   2.556  0.00  0.00     0.048 A 
ATOM      6  C5  UNL d   1       5.455   1.953   3.304  0.00  0.00     0.003 A 
ATOM      7  I   UNL d   1       1.814   1.899   0.944  0.00  0.00    -0.146 I 
ENDROOT
TORSDOF 0
ENDMDL
