MODEL 1
REMARK minimizedAffinity -3.12976909
REMARK minimizedRMSD -1
REMARK  0 active torsions:
REMARK  status: ('A' for Active; 'I' for Inactive)
ROOT
ATOM      1  C   UNL d   1       2.803  -4.896  -2.495  0.00  0.00     0.023 A 
ATOM      2  C1  UNL d   1       2.382  -5.599  -3.624  0.00  0.00     0.003 A 
ATOM      3  C2  UNL d   1       3.296  -5.916  -4.631  0.00  0.00     0.048 A 
ATOM      4  C3  UNL d   1       4.629  -5.528  -4.502  0.00  0.00     0.023 A 
ATOM      5  C4  UNL d   1       5.055  -4.826  -3.373  0.00  0.00     0.048 A 
ATOM      6  C5  UNL d   1       4.137  -4.510  -2.370  0.00  0.00     0.003 A 
ATOM      7  I   UNL d   1       5.992  -5.999  -5.999  0.00  0.00    -0.146 I 
ENDROOT
TORSDOF 0
ENDMDL
