MODEL 1
REMARK minimizedAffinity -2.87613249
REMARK minimizedRMSD -1
REMARK  0 active torsions:
REMARK  status: ('A' for Active; 'I' for Inactive)
ROOT
ATOM      1  C   UNL d   1       3.140  -5.081  -2.161  0.00  0.00     0.023 A 
ATOM      2  C1  UNL d   1       2.619  -5.736  -3.277  0.00  0.00     0.003 A 
ATOM      3  C2  UNL d   1       3.437  -6.000  -4.378  0.00  0.00     0.048 A 
ATOM      4  C3  UNL d   1       4.774  -5.607  -4.355  0.00  0.00     0.023 A 
ATOM      5  C4  UNL d   1       5.300  -4.952  -3.240  0.00  0.00     0.048 A 
ATOM      6  C5  UNL d   1       4.479  -4.690  -2.143  0.00  0.00     0.003 A 
ATOM      7  I   UNL d   1       5.993  -5.999  -5.993  0.00  0.00    -0.146 I 
ENDROOT
TORSDOF 0
ENDMDL
