MODEL 1
REMARK minimizedAffinity -3.60121179
REMARK minimizedRMSD -1
REMARK  0 active torsions:
REMARK  status: ('A' for Active; 'I' for Inactive)
ROOT
ATOM      1  O1  BZF d   1      -0.870   1.386  -0.698  0.00  0.00    -0.204 OA
ATOM      2  C2  BZF d   1      -1.876   0.693  -0.053  0.00  0.00     0.174 A 
ATOM      3  C3  BZF d   1      -1.496  -0.576   0.201  0.00  0.00    -0.012 A 
ATOM      4  C3A BZF d   1      -0.136  -0.656  -0.236  0.00  0.00    -0.107 A 
ATOM      5  C4  BZF d   1       0.794  -1.656  -0.233  0.00  0.00     0.055 A 
ATOM      6  C5  BZF d   1       2.009  -1.430  -0.799  0.00  0.00    -0.016 A 
ATOM      7  C6  BZF d   1       2.325  -0.220  -1.381  0.00  0.00     0.022 A 
ATOM      8  C7  BZF d   1       1.437   0.804  -1.403  0.00  0.00     0.029 A 
ATOM      9  C7A BZF d   1       0.221   0.590  -0.803  0.00  0.00     0.058 A 
ENDROOT
TORSDOF 0
ENDMDL
