MODEL 1
REMARK minimizedAffinity 0.871860206
REMARK minimizedRMSD -1
REMARK  0 active torsions:
REMARK  status: ('A' for Active; 'I' for Inactive)
ROOT
ATOM      1  O1  BZF d   1       1.370  -2.708  -1.224  0.00  0.00    -0.204 OA
ATOM      2  C2  BZF d   1       0.047  -2.960  -0.917  0.00  0.00     0.174 A 
ATOM      3  C3  BZF d   1      -0.544  -1.860  -0.407  0.00  0.00    -0.012 A 
ATOM      4  C3A BZF d   1       0.448  -0.832  -0.480  0.00  0.00    -0.107 A 
ATOM      5  C4  BZF d   1       0.457   0.490  -0.139  0.00  0.00     0.055 A 
ATOM      6  C5  BZF d   1       1.610   1.198  -0.270  0.00  0.00    -0.016 A 
ATOM      7  C6  BZF d   1       2.772   0.616  -0.732  0.00  0.00     0.022 A 
ATOM      8  C7  BZF d   1       2.810  -0.692  -1.088  0.00  0.00     0.029 A 
ATOM      9  C7A BZF d   1       1.639  -1.402  -0.988  0.00  0.00     0.058 A 
ENDROOT
TORSDOF 0
ENDMDL
