MODEL 1
REMARK minimizedAffinity -2.50005484
REMARK minimizedRMSD -1
REMARK  0 active torsions:
REMARK  status: ('A' for Active; 'I' for Inactive)
ROOT
ATOM      1  O1  BZF d   1       0.091   0.966  -0.037  0.00  0.00    -0.204 OA
ATOM      2  C2  BZF d   1      -0.821   0.062   0.471  0.00  0.00     0.174 A 
ATOM      3  C3  BZF d   1      -0.483  -1.199   0.133  0.00  0.00    -0.012 A 
ATOM      4  C3A BZF d   1       0.765  -1.083  -0.556  0.00  0.00    -0.107 A 
ATOM      5  C4  BZF d   1       1.613  -1.991  -1.123  0.00  0.00     0.055 A 
ATOM      6  C5  BZF d   1       2.714  -1.544  -1.783  0.00  0.00    -0.016 A 
ATOM      7  C6  BZF d   1       2.995  -0.199  -1.899  0.00  0.00     0.022 A 
ATOM      8  C7  BZF d   1       2.186   0.740  -1.349  0.00  0.00     0.029 A 
ATOM      9  C7A BZF d   1       1.090   0.290  -0.654  0.00  0.00     0.058 A 
ENDROOT
TORSDOF 0
ENDMDL
