MODEL 1
REMARK minimizedAffinity -4.29219246
REMARK minimizedRMSD -1
REMARK  0 active torsions:
REMARK  status: ('A' for Active; 'I' for Inactive)
ROOT
ATOM      1  O1  BZF d   1       1.424  -1.664  -0.270  0.00  0.00    -0.204 OA
ATOM      2  C2  BZF d   1       2.627  -1.390  -0.893  0.00  0.00     0.174 A 
ATOM      3  C3  BZF d   1       2.631  -0.139  -1.396  0.00  0.00    -0.012 A 
ATOM      4  C3A BZF d   1       1.386   0.436  -0.986  0.00  0.00    -0.107 A 
ATOM      5  C4  BZF d   1       0.815   1.663  -1.165  0.00  0.00     0.055 A 
ATOM      6  C5  BZF d   1      -0.444   1.879  -0.701  0.00  0.00    -0.016 A 
ATOM      7  C6  BZF d   1      -1.160   0.891  -0.058  0.00  0.00     0.022 A 
ATOM      8  C7  BZF d   1      -0.633  -0.340   0.148  0.00  0.00     0.029 A 
ATOM      9  C7A BZF d   1       0.651  -0.552  -0.291  0.00  0.00     0.058 A 
ENDROOT
TORSDOF 0
ENDMDL
