MODEL 1
REMARK minimizedAffinity -4.22919273
REMARK minimizedRMSD -1
REMARK  0 active torsions:
REMARK  status: ('A' for Active; 'I' for Inactive)
ROOT
ATOM      1  O1  BZF d   1      -0.457  -1.113  -0.134  0.00  0.00    -0.204 OA
ATOM      2  C2  BZF d   1      -1.134   0.073   0.072  0.00  0.00     0.174 A 
ATOM      3  C3  BZF d   1      -0.304   1.128  -0.063  0.00  0.00    -0.012 A 
ATOM      4  C3A BZF d   1       0.951   0.570  -0.464  0.00  0.00    -0.107 A 
ATOM      5  C4  BZF d   1       2.166   1.114  -0.768  0.00  0.00     0.055 A 
ATOM      6  C5  BZF d   1       3.208   0.288  -1.050  0.00  0.00    -0.016 A 
ATOM      7  C6  BZF d   1       3.071  -1.085  -1.032  0.00  0.00     0.022 A 
ATOM      8  C7  BZF d   1       1.884  -1.671  -0.741  0.00  0.00     0.029 A 
ATOM      9  C7A BZF d   1       0.822  -0.838  -0.488  0.00  0.00     0.058 A 
ENDROOT
TORSDOF 0
ENDMDL
