MODEL 1
REMARK minimizedAffinity -3.33916903
REMARK minimizedRMSD -1
REMARK  0 active torsions:
REMARK  status: ('A' for Active; 'I' for Inactive)
ROOT
ATOM      1  O1  BZF d   1      -0.351   1.960  -1.608  0.00  0.00    -0.204 OA
ATOM      2  C2  BZF d   1       0.765   2.154  -2.399  0.00  0.00     0.174 A 
ATOM      3  C3  BZF d   1       1.627   1.125  -2.271  0.00  0.00    -0.012 A 
ATOM      4  C3A BZF d   1       0.969   0.188  -1.412  0.00  0.00    -0.107 A 
ATOM      5  C4  BZF d   1       1.312  -1.041  -0.925  0.00  0.00     0.055 A 
ATOM      6  C5  BZF d   1       0.477  -1.662  -0.051  0.00  0.00    -0.016 A 
ATOM      7  C6  BZF d   1      -0.705  -1.081   0.360  0.00  0.00     0.022 A 
ATOM      8  C7  BZF d   1      -1.091   0.134  -0.099  0.00  0.00     0.029 A 
ATOM      9  C7A BZF d   1      -0.265   0.749  -1.008  0.00  0.00     0.058 A 
ENDROOT
TORSDOF 0
ENDMDL
