MODEL 1
REMARK minimizedAffinity -4.08367395
REMARK minimizedRMSD -1
REMARK  0 active torsions:
REMARK  status: ('A' for Active; 'I' for Inactive)
ROOT
ATOM      1  O1  BZF d   1       2.673   0.639  -1.397  0.00  0.00    -0.204 OA
ATOM      2  C2  BZF d   1       3.024  -0.661  -1.085  0.00  0.00     0.174 A 
ATOM      3  C3  BZF d   1       1.947  -1.364  -0.682  0.00  0.00    -0.012 A 
ATOM      4  C3A BZF d   1       0.837  -0.473  -0.834  0.00  0.00    -0.107 A 
ATOM      5  C4  BZF d   1      -0.504  -0.598  -0.612  0.00  0.00     0.055 A 
ATOM      6  C5  BZF d   1      -1.307   0.484  -0.790  0.00  0.00    -0.016 A 
ATOM      7  C6  BZF d   1      -0.802   1.705  -1.185  0.00  0.00     0.022 A 
ATOM      8  C7  BZF d   1       0.522   1.877  -1.422  0.00  0.00     0.029 A 
ATOM      9  C7A BZF d   1       1.331   0.776  -1.274  0.00  0.00     0.058 A 
ENDROOT
TORSDOF 0
ENDMDL
