MODEL 1
REMARK minimizedAffinity -2.96490049
REMARK minimizedRMSD -1
REMARK  0 active torsions:
REMARK  status: ('A' for Active; 'I' for Inactive)
ROOT
ATOM      1  O1  BZF d   1      -0.907   1.183  -0.788  0.00  0.00    -0.204 OA
ATOM      2  C2  BZF d   1      -1.626   0.808   0.331  0.00  0.00     0.174 A 
ATOM      3  C3  BZF d   1      -1.121  -0.321   0.868  0.00  0.00    -0.012 A 
ATOM      4  C3A BZF d   1       0.039  -0.624   0.087  0.00  0.00    -0.107 A 
ATOM      5  C4  BZF d   1       0.973  -1.618   0.140  0.00  0.00     0.055 A 
ATOM      6  C5  BZF d   1       1.939  -1.669  -0.815  0.00  0.00    -0.016 A 
ATOM      7  C6  BZF d   1       1.997  -0.746  -1.839  0.00  0.00     0.022 A 
ATOM      8  C7  BZF d   1       1.094   0.261  -1.931  0.00  0.00     0.029 A 
ATOM      9  C7A BZF d   1       0.137   0.334  -0.948  0.00  0.00     0.058 A 
ENDROOT
TORSDOF 0
ENDMDL
