MODEL 1
REMARK minimizedAffinity -4.27510738
REMARK minimizedRMSD -1
REMARK  0 active torsions:
REMARK  status: ('A' for Active; 'I' for Inactive)
ROOT
ATOM      1  O1  BZF d   1      -0.277   0.359   0.768  0.00  0.00    -0.204 OA
ATOM      2  C2  BZF d   1      -1.277  -0.562   0.519  0.00  0.00     0.174 A 
ATOM      3  C3  BZF d   1      -0.867  -1.482  -0.377  0.00  0.00    -0.012 A 
ATOM      4  C3A BZF d   1       0.504  -1.168  -0.639  0.00  0.00    -0.107 A 
ATOM      5  C4  BZF d   1       1.461  -1.732  -1.434  0.00  0.00     0.055 A 
ATOM      6  C5  BZF d   1       2.680  -1.139  -1.521  0.00  0.00    -0.016 A 
ATOM      7  C6  BZF d   1       2.975   0.020  -0.832  0.00  0.00     0.022 A 
ATOM      8  C7  BZF d   1       2.060   0.613  -0.028  0.00  0.00     0.029 A 
ATOM      9  C7A BZF d   1       0.837  -0.002   0.088  0.00  0.00     0.058 A 
ENDROOT
TORSDOF 0
ENDMDL
