MODEL 1
REMARK minimizedAffinity -3.34879422
REMARK minimizedRMSD -1
REMARK  0 active torsions:
REMARK  status: ('A' for Active; 'I' for Inactive)
ROOT
ATOM      1  O1  BZF d   1      -2.909   0.808   2.837  0.00  0.00    -0.204 OA
ATOM      2  C2  BZF d   1      -2.259   0.906   4.051  0.00  0.00     0.174 A 
ATOM      3  C3  BZF d   1      -0.978   0.499   3.943  0.00  0.00    -0.012 A 
ATOM      4  C3A BZF d   1      -0.791   0.211   2.554  0.00  0.00    -0.107 A 
ATOM      5  C4  BZF d   1       0.276  -0.220   1.819  0.00  0.00     0.055 A 
ATOM      6  C5  BZF d   1       0.108  -0.474   0.495  0.00  0.00    -0.016 A 
ATOM      7  C6  BZF d   1      -1.114  -0.313  -0.125  0.00  0.00     0.022 A 
ATOM      8  C7  BZF d   1      -2.201   0.117   0.560  0.00  0.00     0.029 A 
ATOM      9  C7A BZF d   1      -2.026   0.406   1.892  0.00  0.00     0.058 A 
ENDROOT
TORSDOF 0
ENDMDL
