MODEL 1
REMARK minimizedAffinity -2.59531426
REMARK minimizedRMSD -1
REMARK  0 active torsions:
REMARK  status: ('A' for Active; 'I' for Inactive)
ROOT
ATOM      1  O1  BZF d   1      -1.039   0.739  -0.100  0.00  0.00    -0.204 OA
ATOM      2  C2  BZF d   1      -0.867   1.652  -1.122  0.00  0.00     0.174 A 
ATOM      3  C3  BZF d   1       0.199   1.325  -1.881  0.00  0.00    -0.012 A 
ATOM      4  C3A BZF d   1       0.671   0.082  -1.352  0.00  0.00    -0.107 A 
ATOM      5  C4  BZF d   1       1.694  -0.756  -1.692  0.00  0.00     0.055 A 
ATOM      6  C5  BZF d   1       1.931  -1.854  -0.927  0.00  0.00    -0.016 A 
ATOM      7  C6  BZF d   1       1.169  -2.142   0.186  0.00  0.00     0.022 A 
ATOM      8  C7  BZF d   1       0.139  -1.343   0.560  0.00  0.00     0.029 A 
ATOM      9  C7A BZF d   1      -0.123  -0.251  -0.230  0.00  0.00     0.058 A 
ENDROOT
TORSDOF 0
ENDMDL
