MODEL 1
REMARK minimizedAffinity -4.95706606
REMARK minimizedRMSD -1
REMARK  0 active torsions:
REMARK  status: ('A' for Active; 'I' for Inactive)
ROOT
ATOM      1  O1  BZF d   1      -0.642   0.472  -0.820  0.00  0.00    -0.204 OA
ATOM      2  C2  BZF d   1      -0.808  -0.517   0.130  0.00  0.00     0.174 A 
ATOM      3  C3  BZF d   1       0.296  -1.286   0.218  0.00  0.00    -0.012 A 
ATOM      4  C3A BZF d   1       1.244  -0.687  -0.672  0.00  0.00    -0.107 A 
ATOM      5  C4  BZF d   1       2.533  -0.985  -1.010  0.00  0.00     0.055 A 
ATOM      6  C5  BZF d   1       3.153  -0.245  -1.965  0.00  0.00    -0.016 A 
ATOM      7  C6  BZF d   1       2.514   0.796  -2.606  0.00  0.00     0.022 A 
ATOM      8  C7  BZF d   1       1.237   1.132  -2.302  0.00  0.00     0.029 A 
ATOM      9  C7A BZF d   1       0.618   0.407  -1.313  0.00  0.00     0.058 A 
ENDROOT
TORSDOF 0
ENDMDL
