MODEL 1
REMARK minimizedAffinity -4.5328474
REMARK minimizedRMSD -1
REMARK  0 active torsions:
REMARK  status: ('A' for Active; 'I' for Inactive)
ROOT
ATOM      1  O1  BZF d   1      -0.952  -0.764  -0.094  0.00  0.00    -0.204 OA
ATOM      2  C2  BZF d   1      -0.562  -2.085   0.015  0.00  0.00     0.174 A 
ATOM      3  C3  BZF d   1       0.749  -2.222  -0.268  0.00  0.00    -0.012 A 
ATOM      4  C3A BZF d   1       1.229  -0.892  -0.484  0.00  0.00    -0.107 A 
ATOM      5  C4  BZF d   1       2.455  -0.374  -0.787  0.00  0.00     0.055 A 
ATOM      6  C5  BZF d   1       2.573   0.963  -1.004  0.00  0.00    -0.016 A 
ATOM      7  C6  BZF d   1       1.485   1.808  -0.931  0.00  0.00     0.022 A 
ATOM      8  C7  BZF d   1       0.249   1.341  -0.629  0.00  0.00     0.029 A 
ATOM      9  C7A BZF d   1       0.133  -0.004  -0.377  0.00  0.00     0.058 A 
ENDROOT
TORSDOF 0
ENDMDL
