MODEL 1
REMARK minimizedAffinity -4.80323982
REMARK minimizedRMSD -1
REMARK  0 active torsions:
REMARK  status: ('A' for Active; 'I' for Inactive)
ROOT
ATOM      1  O1  BZF d   1      -1.030  -0.371   3.081  0.00  0.00    -0.204 OA
ATOM      2  C2  BZF d   1      -1.786   0.673   3.577  0.00  0.00     0.174 A 
ATOM      3  C3  BZF d   1      -1.925   1.644   2.652  0.00  0.00    -0.012 A 
ATOM      4  C3A BZF d   1      -1.289   1.138   1.475  0.00  0.00    -0.107 A 
ATOM      5  C4  BZF d   1      -1.110   1.636   0.216  0.00  0.00     0.055 A 
ATOM      6  C5  BZF d   1      -0.380   0.921  -0.679  0.00  0.00    -0.016 A 
ATOM      7  C6  BZF d   1       0.189  -0.292  -0.349  0.00  0.00     0.022 A 
ATOM      8  C7  BZF d   1       0.035  -0.829   0.886  0.00  0.00     0.029 A 
ATOM      9  C7A BZF d   1      -0.730  -0.124   1.783  0.00  0.00     0.058 A 
ENDROOT
TORSDOF 0
ENDMDL
