MODEL 1
REMARK minimizedAffinity -3.5696466
REMARK minimizedRMSD -1
REMARK  0 active torsions:
REMARK  status: ('A' for Active; 'I' for Inactive)
ROOT
ATOM      1  O1  BZF d   1       5.994   2.015   5.999  0.00  0.00    -0.204 OA
ATOM      2  C2  BZF d   1       5.851   2.999   5.040  0.00  0.00     0.174 A 
ATOM      3  C3  BZF d   1       5.576   2.457   3.836  0.00  0.00    -0.012 A 
ATOM      4  C3A BZF d   1       5.454   1.052   4.075  0.00  0.00    -0.107 A 
ATOM      5  C4  BZF d   1       5.172  -0.016   3.272  0.00  0.00     0.055 A 
ATOM      6  C5  BZF d   1       5.200  -1.267   3.803  0.00  0.00    -0.016 A 
ATOM      7  C6  BZF d   1       5.511  -1.486   5.129  0.00  0.00     0.022 A 
ATOM      8  C7  BZF d   1       5.792  -0.458   5.966  0.00  0.00     0.029 A 
ATOM      9  C7A BZF d   1       5.732   0.810   5.440  0.00  0.00     0.058 A 
ENDROOT
TORSDOF 0
ENDMDL
