MODEL 1
REMARK minimizedAffinity 14.9796305
REMARK minimizedRMSD -1
REMARK  1 active torsions:
REMARK  status: ('A' for Active; 'I' for Inactive)
REMARK    1  A    between atoms: C1_2  and  C2_3 
ROOT
ATOM      1  C2  UNL d   1      -3.038  -5.056  -4.226  0.00  0.00    -0.081 A 
ATOM      2  C3  UNL d   1      -3.184  -4.113  -3.201  0.00  0.00     0.006 A 
ATOM      3  C4  UNL d   1      -2.306  -4.105  -2.115  0.00  0.00     0.002 A 
ATOM      4  C5  UNL d   1      -1.263  -5.035  -2.039  0.00  0.00    -0.080 A 
ATOM      5  C6  UNL d   1      -0.295  -5.019  -0.894  0.00  0.00     0.076 C 
ATOM      6  C7  UNL d   1      -1.128  -5.988  -3.054  0.00  0.00     0.002 A 
ATOM      7  C8  UNL d   1      -2.006  -5.996  -4.140  0.00  0.00     0.006 A 
ENDROOT
BRANCH   1   8
ATOM      8  C1  UNL d   1      -3.944  -5.025  -5.431  0.00  0.00     0.054 C 
ATOM      9  C   UNL d   1      -5.268  -5.719  -5.145  0.00  0.00     0.018 C 
ENDBRANCH   1   8
TORSDOF 1
ENDMDL
