MODEL 1
REMARK minimizedAffinity 12.1292973
REMARK minimizedRMSD -1
REMARK  1 active torsions:
REMARK  status: ('A' for Active; 'I' for Inactive)
REMARK    1  A    between atoms: C1_2  and  C2_3 
ROOT
ATOM      1  C2  UNL d   1       4.134   0.223  -1.088  0.00  0.00    -0.081 A 
ATOM      2  C3  UNL d   1       3.584  -0.258   0.106  0.00  0.00     0.006 A 
ATOM      3  C4  UNL d   1       2.967  -1.511   0.147  0.00  0.00     0.002 A 
ATOM      4  C5  UNL d   1       2.897  -2.306  -1.002  0.00  0.00    -0.080 A 
ATOM      5  C6  UNL d   1       2.265  -3.666  -0.964  0.00  0.00     0.076 C 
ATOM      6  C7  UNL d   1       3.431  -1.818  -2.199  0.00  0.00     0.002 A 
ATOM      7  C8  UNL d   1       4.047  -0.565  -2.241  0.00  0.00     0.006 A 
ENDROOT
BRANCH   1   8
ATOM      8  C1  UNL d   1       4.857   1.545  -1.121  0.00  0.00     0.054 C 
ATOM      9  C   UNL d   1       5.997   1.528  -2.129  0.00  0.00     0.018 C 
ENDBRANCH   1   8
TORSDOF 1
ENDMDL
