MODEL 1
REMARK minimizedAffinity 14.0524883
REMARK minimizedRMSD -1
REMARK  1 active torsions:
REMARK  status: ('A' for Active; 'I' for Inactive)
REMARK    1  A    between atoms: C1_2  and  C2_3 
ROOT
ATOM      1  C2  UNL d   1       3.091  -2.116  -1.320  0.00  0.00    -0.081 A 
ATOM      2  C3  UNL d   1       3.748  -0.919  -1.629  0.00  0.00     0.006 A 
ATOM      3  C4  UNL d   1       4.681  -0.373  -0.744  0.00  0.00     0.002 A 
ATOM      4  C5  UNL d   1       4.978  -1.020   0.460  0.00  0.00    -0.080 A 
ATOM      5  C6  UNL d   1       6.000  -0.461   1.406  0.00  0.00     0.076 C 
ATOM      6  C7  UNL d   1       4.310  -2.207   0.777  0.00  0.00     0.002 A 
ATOM      7  C8  UNL d   1       3.376  -2.752  -0.107  0.00  0.00     0.006 A 
ENDROOT
BRANCH   1   8
ATOM      8  C1  UNL d   1       2.133  -2.740  -2.302  0.00  0.00     0.054 C 
ATOM      9  C   UNL d   1       2.874  -3.517  -3.381  0.00  0.00     0.018 C 
ENDBRANCH   1   8
TORSDOF 1
ENDMDL
