MODEL 1
REMARK minimizedAffinity 14.672452
REMARK minimizedRMSD -1
REMARK  1 active torsions:
REMARK  status: ('A' for Active; 'I' for Inactive)
REMARK    1  A    between atoms: C1_2  and  C2_3 
ROOT
ATOM      1  C2  UNL d   1       0.860  -2.616   3.388  0.00  0.00    -0.081 A 
ATOM      2  C3  UNL d   1      -0.211  -3.460   3.707  0.00  0.00     0.006 A 
ATOM      3  C4  UNL d   1      -0.019  -4.563   4.542  0.00  0.00     0.002 A 
ATOM      4  C5  UNL d   1       1.244  -4.836   5.078  0.00  0.00    -0.080 A 
ATOM      5  C6  UNL d   1       1.458  -6.000   6.000  0.00  0.00     0.076 C 
ATOM      6  C7  UNL d   1       2.318  -4.003   4.746  0.00  0.00     0.002 A 
ATOM      7  C8  UNL d   1       2.126  -2.900   3.911  0.00  0.00     0.006 A 
ENDROOT
BRANCH   1   8
ATOM      8  C1  UNL d   1       0.642  -1.388   2.541  0.00  0.00     0.054 C 
ATOM      9  C   UNL d   1       1.495  -0.224   3.024  0.00  0.00     0.018 C 
ENDBRANCH   1   8
TORSDOF 1
ENDMDL
