MODEL 1
REMARK minimizedAffinity 7.64550018
REMARK minimizedRMSD -1
REMARK  1 active torsions:
REMARK  status: ('A' for Active; 'I' for Inactive)
REMARK    1  A    between atoms: C1_2  and  C2_3 
ROOT
ATOM      1  C2  UNL d   1       5.035   1.472  -0.399  0.00  0.00    -0.081 A 
ATOM      2  C3  UNL d   1       5.389   2.469   0.518  0.00  0.00     0.006 A 
ATOM      3  C4  UNL d   1       5.708   3.756   0.077  0.00  0.00     0.002 A 
ATOM      4  C5  UNL d   1       5.671   4.068  -1.286  0.00  0.00    -0.080 A 
ATOM      5  C6  UNL d   1       5.981   5.453  -1.770  0.00  0.00     0.076 C 
ATOM      6  C7  UNL d   1       5.335   3.067  -2.204  0.00  0.00     0.002 A 
ATOM      7  C8  UNL d   1       5.016   1.780  -1.764  0.00  0.00     0.006 A 
ENDROOT
BRANCH   1   8
ATOM      8  C1  UNL d   1       4.628   0.101   0.078  0.00  0.00     0.054 C 
ATOM      9  C   UNL d   1       3.187  -0.211  -0.299  0.00  0.00     0.018 C 
ENDBRANCH   1   8
TORSDOF 1
ENDMDL
