MODEL 1
REMARK minimizedAffinity 8.14568424
REMARK minimizedRMSD -1
REMARK  1 active torsions:
REMARK  status: ('A' for Active; 'I' for Inactive)
REMARK    1  A    between atoms: C1_2  and  C2_3 
ROOT
ATOM      1  C2  UNL d   1       3.333  -1.154  -1.598  0.00  0.00    -0.081 A 
ATOM      2  C3  UNL d   1       4.343  -0.689  -2.450  0.00  0.00     0.006 A 
ATOM      3  C4  UNL d   1       4.971   0.534  -2.202  0.00  0.00     0.002 A 
ATOM      4  C5  UNL d   1       4.606   1.308  -1.096  0.00  0.00    -0.080 A 
ATOM      5  C6  UNL d   1       5.294   2.608  -0.801  0.00  0.00     0.076 C 
ATOM      6  C7  UNL d   1       3.585   0.852  -0.255  0.00  0.00     0.002 A 
ATOM      7  C8  UNL d   1       2.957  -0.370  -0.502  0.00  0.00     0.006 A 
ENDROOT
BRANCH   1   8
ATOM      8  C1  UNL d   1       2.699  -2.502  -1.826  0.00  0.00     0.054 C 
ATOM      9  C   UNL d   1       3.358  -3.235  -2.986  0.00  0.00     0.018 C 
ENDBRANCH   1   8
TORSDOF 1
ENDMDL
