MODEL 1
REMARK minimizedAffinity 9.33201694
REMARK minimizedRMSD -1
REMARK  1 active torsions:
REMARK  status: ('A' for Active; 'I' for Inactive)
REMARK    1  A    between atoms: C1_2  and  C2_3 
ROOT
ATOM      1  C2  UNL d   1       4.190  -1.496  -2.890  0.00  0.00    -0.081 A 
ATOM      2  C3  UNL d   1       4.988  -0.412  -2.506  0.00  0.00     0.006 A 
ATOM      3  C4  UNL d   1       4.726   0.276  -1.319  0.00  0.00     0.002 A 
ATOM      4  C5  UNL d   1       3.667  -0.114  -0.492  0.00  0.00    -0.080 A 
ATOM      5  C6  UNL d   1       3.393   0.596   0.800  0.00  0.00     0.076 C 
ATOM      6  C7  UNL d   1       2.859  -1.187  -0.884  0.00  0.00     0.002 A 
ATOM      7  C8  UNL d   1       3.120  -1.874  -2.071  0.00  0.00     0.006 A 
ENDROOT
BRANCH   1   8
ATOM      8  C1  UNL d   1       4.510  -2.280  -4.137  0.00  0.00     0.054 C 
ATOM      9  C   UNL d   1       5.991  -2.623  -4.211  0.00  0.00     0.018 C 
ENDBRANCH   1   8
TORSDOF 1
ENDMDL
