MODEL 1
REMARK minimizedAffinity -4.23870277
REMARK minimizedRMSD -1
REMARK  1 active torsions:
REMARK  status: ('A' for Active; 'I' for Inactive)
REMARK    1  A    between atoms: C1_2  and  C2_3 
ROOT
ATOM      1  C2  UNL d   1      -4.851  -3.275  -4.874  0.00  0.00    -0.081 A 
ATOM      2  C3  UNL d   1      -3.539  -2.921  -4.540  0.00  0.00     0.006 A 
ATOM      3  C4  UNL d   1      -2.470  -3.749  -4.892  0.00  0.00     0.002 A 
ATOM      4  C5  UNL d   1      -2.695  -4.940  -5.590  0.00  0.00    -0.080 A 
ATOM      5  C6  UNL d   1      -1.554  -5.823  -6.000  0.00  0.00     0.076 C 
ATOM      6  C7  UNL d   1      -4.008  -5.303  -5.908  0.00  0.00     0.002 A 
ATOM      7  C8  UNL d   1      -5.077  -4.476  -5.556  0.00  0.00     0.006 A 
ENDROOT
BRANCH   1   8
ATOM      8  C1  UNL d   1      -6.000  -2.353  -4.553  0.00  0.00     0.054 C 
ATOM      9  C   UNL d   1      -5.838  -1.007  -5.245  0.00  0.00     0.018 C 
ENDBRANCH   1   8
TORSDOF 1
ENDMDL
