MODEL 1
REMARK minimizedAffinity -3.85307813
REMARK minimizedRMSD -1
REMARK  1 active torsions:
REMARK  status: ('A' for Active; 'I' for Inactive)
REMARK    1  A    between atoms: C1_2  and  C2_3 
ROOT
ATOM      1  C2  UNL d   1      -4.101  -3.230  -5.012  0.00  0.00    -0.081 A 
ATOM      2  C3  UNL d   1      -4.139  -4.503  -4.430  0.00  0.00     0.006 A 
ATOM      3  C4  UNL d   1      -3.089  -5.403  -4.627  0.00  0.00     0.002 A 
ATOM      4  C5  UNL d   1      -1.981  -5.043  -5.402  0.00  0.00    -0.080 A 
ATOM      5  C6  UNL d   1      -0.834  -5.989  -5.597  0.00  0.00     0.076 C 
ATOM      6  C7  UNL d   1      -1.951  -3.778  -5.998  0.00  0.00     0.002 A 
ATOM      7  C8  UNL d   1      -3.001  -2.878  -5.802  0.00  0.00     0.006 A 
ENDROOT
BRANCH   1   8
ATOM      8  C1  UNL d   1      -5.201  -2.234  -4.748  0.00  0.00     0.054 C 
ATOM      9  C   UNL d   1      -5.243  -1.159  -5.825  0.00  0.00     0.018 C 
ENDBRANCH   1   8
TORSDOF 1
ENDMDL
