MODEL 1
REMARK minimizedAffinity -1.41402984
REMARK minimizedRMSD -1
REMARK  1 active torsions:
REMARK  status: ('A' for Active; 'I' for Inactive)
REMARK    1  A    between atoms: C1_2  and  C2_3 
ROOT
ATOM      1  C2  UNL d   1      -4.742  -3.662  -5.079  0.00  0.00    -0.081 A 
ATOM      2  C3  UNL d   1      -4.809  -4.942  -5.643  0.00  0.00     0.006 A 
ATOM      3  C4  UNL d   1      -3.641  -5.641  -5.953  0.00  0.00     0.002 A 
ATOM      4  C5  UNL d   1      -2.387  -5.077  -5.698  0.00  0.00    -0.080 A 
ATOM      5  C6  UNL d   1      -1.124  -5.829  -5.999  0.00  0.00     0.076 C 
ATOM      6  C7  UNL d   1      -2.319  -3.791  -5.152  0.00  0.00     0.002 A 
ATOM      7  C8  UNL d   1      -3.487  -3.090  -4.842  0.00  0.00     0.006 A 
ENDROOT
BRANCH   1   8
ATOM      8  C1  UNL d   1      -6.000  -2.931  -4.683  0.00  0.00     0.054 C 
ATOM      9  C   UNL d   1      -5.844  -1.427  -4.857  0.00  0.00     0.018 C 
ENDBRANCH   1   8
TORSDOF 1
ENDMDL
