MODEL 1
REMARK minimizedAffinity 1.21637666
REMARK minimizedRMSD -1
REMARK  1 active torsions:
REMARK  status: ('A' for Active; 'I' for Inactive)
REMARK    1  A    between atoms: C1_2  and  C2_3 
ROOT
ATOM      1  C2  UNL d   1      -3.444  -4.891  -5.348  0.00  0.00    -0.081 A 
ATOM      2  C3  UNL d   1      -2.945  -4.134  -4.281  0.00  0.00     0.006 A 
ATOM      3  C4  UNL d   1      -3.756  -3.194  -3.639  0.00  0.00     0.002 A 
ATOM      4  C5  UNL d   1      -5.079  -3.001  -4.048  0.00  0.00    -0.080 A 
ATOM      5  C6  UNL d   1      -5.969  -2.017  -3.348  0.00  0.00     0.076 C 
ATOM      6  C7  UNL d   1      -5.573  -3.745  -5.126  0.00  0.00     0.002 A 
ATOM      7  C8  UNL d   1      -4.763  -4.684  -5.768  0.00  0.00     0.006 A 
ENDROOT
BRANCH   1   8
ATOM      8  C1  UNL d   1      -2.593  -5.951  -6.000  0.00  0.00     0.054 C 
ATOM      9  C   UNL d   1      -1.123  -5.558  -5.999  0.00  0.00     0.018 C 
ENDBRANCH   1   8
TORSDOF 1
ENDMDL
