MODEL 1
REMARK minimizedAffinity -0.129014745
REMARK minimizedRMSD -1
REMARK  1 active torsions:
REMARK  status: ('A' for Active; 'I' for Inactive)
REMARK    1  A    between atoms: C1_2  and  C2_3 
ROOT
ATOM      1  C2  UNL d   1      -0.348  -1.724   0.916  0.00  0.00    -0.081 A 
ATOM      2  C3  UNL d   1      -1.621  -1.662   0.336  0.00  0.00     0.006 A 
ATOM      3  C4  UNL d   1      -2.732  -1.298   1.101  0.00  0.00     0.002 A 
ATOM      4  C5  UNL d   1      -2.587  -0.983   2.456  0.00  0.00    -0.080 A 
ATOM      5  C6  UNL d   1      -3.766  -0.562   3.282  0.00  0.00     0.076 C 
ATOM      6  C7  UNL d   1      -1.319  -1.062   3.041  0.00  0.00     0.002 A 
ATOM      7  C8  UNL d   1      -0.208  -1.427   2.276  0.00  0.00     0.006 A 
ENDROOT
BRANCH   1   8
ATOM      8  C1  UNL d   1       0.861  -2.054   0.079  0.00  0.00     0.054 C 
ATOM      9  C   UNL d   1       2.034  -2.488   0.947  0.00  0.00     0.018 C 
ENDBRANCH   1   8
TORSDOF 1
ENDMDL
