MODEL 1
REMARK minimizedAffinity 1.55894506
REMARK minimizedRMSD -1
REMARK  1 active torsions:
REMARK  status: ('A' for Active; 'I' for Inactive)
REMARK    1  A    between atoms: C1_2  and  C2_3 
ROOT
ATOM      1  C2  UNL d   1      -4.843  -3.738  -4.348  0.00  0.00    -0.081 A 
ATOM      2  C3  UNL d   1      -4.426  -3.543  -3.025  0.00  0.00     0.006 A 
ATOM      3  C4  UNL d   1      -3.317  -4.229  -2.524  0.00  0.00     0.002 A 
ATOM      4  C5  UNL d   1      -2.602  -5.114  -3.338  0.00  0.00    -0.080 A 
ATOM      5  C6  UNL d   1      -1.391  -5.833  -2.822  0.00  0.00     0.076 C 
ATOM      6  C7  UNL d   1      -3.029  -5.322  -4.654  0.00  0.00     0.002 A 
ATOM      7  C8  UNL d   1      -4.138  -4.637  -5.156  0.00  0.00     0.006 A 
ENDROOT
BRANCH   1   8
ATOM      8  C1  UNL d   1      -5.999  -2.952  -4.910  0.00  0.00     0.054 C 
ATOM      9  C   UNL d   1      -5.999  -1.521  -4.393  0.00  0.00     0.018 C 
ENDBRANCH   1   8
TORSDOF 1
ENDMDL
