MODEL 1
REMARK minimizedAffinity 0.576589465
REMARK minimizedRMSD -1
REMARK  1 active torsions:
REMARK  status: ('A' for Active; 'I' for Inactive)
REMARK    1  A    between atoms: C1_2  and  C2_3 
ROOT
ATOM      1  C2  UNL d   1      -2.603  -4.755  -4.861  0.00  0.00    -0.081 A 
ATOM      2  C3  UNL d   1      -2.905  -4.000  -3.721  0.00  0.00     0.006 A 
ATOM      3  C4  UNL d   1      -3.997  -3.127  -3.718  0.00  0.00     0.002 A 
ATOM      4  C5  UNL d   1      -4.808  -3.001  -4.851  0.00  0.00    -0.080 A 
ATOM      5  C6  UNL d   1      -6.000  -2.091  -4.851  0.00  0.00     0.076 C 
ATOM      6  C7  UNL d   1      -4.495  -3.743  -5.996  0.00  0.00     0.002 A 
ATOM      7  C8  UNL d   1      -3.404  -4.614  -6.000  0.00  0.00     0.006 A 
ENDROOT
BRANCH   1   8
ATOM      8  C1  UNL d   1      -1.466  -5.744  -4.846  0.00  0.00     0.054 C 
ATOM      9  C   UNL d   1      -0.622  -5.597  -3.587  0.00  0.00     0.018 C 
ENDBRANCH   1   8
TORSDOF 1
ENDMDL
