MODEL 1
REMARK minimizedAffinity -2.75697732
REMARK minimizedRMSD -1
REMARK  1 active torsions:
REMARK  status: ('A' for Active; 'I' for Inactive)
REMARK    1  A    between atoms: C1_2  and  C2_3 
ROOT
ATOM      1  C2  UNL d   1      -4.702  -3.930  -5.708  0.00  0.00    -0.081 A 
ATOM      2  C3  UNL d   1      -4.688  -5.324  -5.572  0.00  0.00     0.006 A 
ATOM      3  C4  UNL d   1      -3.492  -5.998  -5.315  0.00  0.00     0.002 A 
ATOM      4  C5  UNL d   1      -2.293  -5.291  -5.182  0.00  0.00    -0.080 A 
ATOM      5  C6  UNL d   1      -1.007  -6.000  -4.876  0.00  0.00     0.076 C 
ATOM      6  C7  UNL d   1      -2.304  -3.900  -5.335  0.00  0.00     0.002 A 
ATOM      7  C8  UNL d   1      -3.499  -3.225  -5.593  0.00  0.00     0.006 A 
ENDROOT
BRANCH   1   8
ATOM      8  C1  UNL d   1      -6.000  -3.194  -5.921  0.00  0.00     0.054 C 
ATOM      9  C   UNL d   1      -5.849  -1.709  -5.621  0.00  0.00     0.018 C 
ENDBRANCH   1   8
TORSDOF 1
ENDMDL
