MODEL 1
REMARK minimizedAffinity 8.22263908
REMARK minimizedRMSD -1
REMARK  1 active torsions:
REMARK  status: ('A' for Active; 'I' for Inactive)
REMARK    1  A    between atoms: C1_2  and  C2_3 
ROOT
ATOM      1  C2  UNL d   1       0.187  -2.571   2.179  0.00  0.00    -0.081 A 
ATOM      2  C3  UNL d   1      -0.091  -1.198   2.195  0.00  0.00     0.006 A 
ATOM      3  C4  UNL d   1      -1.235  -0.699   1.568  0.00  0.00     0.002 A 
ATOM      4  C5  UNL d   1      -2.124  -1.564   0.922  0.00  0.00    -0.080 A 
ATOM      5  C6  UNL d   1      -3.372  -1.045   0.271  0.00  0.00     0.076 C 
ATOM      6  C7  UNL d   1      -1.838  -2.933   0.890  0.00  0.00     0.002 A 
ATOM      7  C8  UNL d   1      -0.694  -3.433   1.516  0.00  0.00     0.006 A 
ENDROOT
BRANCH   1   8
ATOM      8  C1  UNL d   1       1.386  -3.119   2.909  0.00  0.00     0.054 C 
ATOM      9  C   UNL d   1       1.212  -3.012   4.418  0.00  0.00     0.018 C 
ENDBRANCH   1   8
TORSDOF 1
ENDMDL
