MODEL 1
REMARK minimizedAffinity 3.80668736
REMARK minimizedRMSD -1
REMARK  1 active torsions:
REMARK  status: ('A' for Active; 'I' for Inactive)
REMARK    1  A    between atoms: C1_2  and  C2_3 
ROOT
ATOM      1  C2  UNL d   1       1.126  -2.427   3.314  0.00  0.00    -0.081 A 
ATOM      2  C3  UNL d   1       1.761  -2.413   2.066  0.00  0.00     0.006 A 
ATOM      3  C4  UNL d   1       1.337  -1.535   1.066  0.00  0.00     0.002 A 
ATOM      4  C5  UNL d   1       0.277  -0.652   1.299  0.00  0.00    -0.080 A 
ATOM      5  C6  UNL d   1      -0.168   0.316   0.243  0.00  0.00     0.076 C 
ATOM      6  C7  UNL d   1      -0.369  -0.679   2.539  0.00  0.00     0.002 A 
ATOM      7  C8  UNL d   1       0.055  -1.556   3.540  0.00  0.00     0.006 A 
ENDROOT
BRANCH   1   8
ATOM      8  C1  UNL d   1       1.623  -3.327   4.417  0.00  0.00     0.054 C 
ATOM      9  C   UNL d   1       0.886  -3.061   5.722  0.00  0.00     0.018 C 
ENDBRANCH   1   8
TORSDOF 1
ENDMDL
