MODEL 1
REMARK minimizedAffinity -2.08985186
REMARK minimizedRMSD -1
REMARK  1 active torsions:
REMARK  status: ('A' for Active; 'I' for Inactive)
REMARK    1  A    between atoms: C1_2  and  C2_3 
ROOT
ATOM      1  C2  UNL d   1      -4.769  -3.694  -4.843  0.00  0.00    -0.081 A 
ATOM      2  C3  UNL d   1      -4.581  -4.940  -4.231  0.00  0.00     0.006 A 
ATOM      3  C4  UNL d   1      -3.436  -5.694  -4.499  0.00  0.00     0.002 A 
ATOM      4  C5  UNL d   1      -2.458  -5.213  -5.375  0.00  0.00    -0.080 A 
ATOM      5  C6  UNL d   1      -1.210  -5.999  -5.647  0.00  0.00     0.076 C 
ATOM      6  C7  UNL d   1      -2.654  -3.976  -6.000  0.00  0.00     0.002 A 
ATOM      7  C8  UNL d   1      -3.798  -3.222  -5.733  0.00  0.00     0.006 A 
ENDROOT
BRANCH   1   8
ATOM      8  C1  UNL d   1      -5.971  -2.849  -4.507  0.00  0.00     0.054 C 
ATOM      9  C   UNL d   1      -6.000  -1.573  -5.336  0.00  0.00     0.018 C 
ENDBRANCH   1   8
TORSDOF 1
ENDMDL
