MODEL 1
REMARK minimizedAffinity -2.19626379
REMARK minimizedRMSD -1
REMARK  1 active torsions:
REMARK  status: ('A' for Active; 'I' for Inactive)
REMARK    1  A    between atoms: C1_2  and  C2_3 
ROOT
ATOM      1  C2  UNL d   1      -4.096  -4.986  -5.038  0.00  0.00    -0.081 A 
ATOM      2  C3  UNL d   1      -3.236  -5.790  -5.796  0.00  0.00     0.006 A 
ATOM      3  C4  UNL d   1      -1.918  -6.000  -5.386  0.00  0.00     0.002 A 
ATOM      4  C5  UNL d   1      -1.439  -5.415  -4.209  0.00  0.00    -0.080 A 
ATOM      5  C6  UNL d   1      -0.034  -5.656  -3.741  0.00  0.00     0.076 C 
ATOM      6  C7  UNL d   1      -2.293  -4.597  -3.461  0.00  0.00     0.002 A 
ATOM      7  C8  UNL d   1      -3.611  -4.387  -3.870  0.00  0.00     0.006 A 
ENDROOT
BRANCH   1   8
ATOM      8  C1  UNL d   1      -5.537  -4.811  -5.443  0.00  0.00     0.054 C 
ATOM      9  C   UNL d   1      -6.000  -3.375  -5.237  0.00  0.00     0.018 C 
ENDBRANCH   1   8
TORSDOF 1
ENDMDL
