MODEL 1
REMARK minimizedAffinity -4.44637251
REMARK minimizedRMSD -1
REMARK  1 active torsions:
REMARK  status: ('A' for Active; 'I' for Inactive)
REMARK    1  A    between atoms: C1_2  and  C2_3 
ROOT
ATOM      1  C2  UNL d   1      -4.104  -3.662  -4.962  0.00  0.00    -0.081 A 
ATOM      2  C3  UNL d   1      -3.322  -4.317  -5.922  0.00  0.00     0.006 A 
ATOM      3  C4  UNL d   1      -2.193  -5.045  -5.538  0.00  0.00     0.002 A 
ATOM      4  C5  UNL d   1      -1.832  -5.136  -4.189  0.00  0.00    -0.080 A 
ATOM      5  C6  UNL d   1      -0.640  -5.940  -3.761  0.00  0.00     0.076 C 
ATOM      6  C7  UNL d   1      -2.604  -4.468  -3.233  0.00  0.00     0.002 A 
ATOM      7  C8  UNL d   1      -3.732  -3.740  -3.616  0.00  0.00     0.006 A 
ENDROOT
BRANCH   1   8
ATOM      8  C1  UNL d   1      -5.359  -2.930  -5.366  0.00  0.00     0.054 C 
ATOM      9  C   UNL d   1      -5.035  -1.585  -5.999  0.00  0.00     0.018 C 
ENDBRANCH   1   8
TORSDOF 1
ENDMDL
