MODEL 1
REMARK minimizedAffinity -1.98627913
REMARK minimizedRMSD -1
REMARK  1 active torsions:
REMARK  status: ('A' for Active; 'I' for Inactive)
REMARK    1  A    between atoms: C1_2  and  C2_3 
ROOT
ATOM      1  C2  UNL d   1      -4.602  -4.587  -4.816  0.00  0.00    -0.081 A 
ATOM      2  C3  UNL d   1      -3.578  -4.150  -3.966  0.00  0.00     0.006 A 
ATOM      3  C4  UNL d   1      -2.271  -4.615  -4.135  0.00  0.00     0.002 A 
ATOM      4  C5  UNL d   1      -1.965  -5.516  -5.160  0.00  0.00    -0.080 A 
ATOM      5  C6  UNL d   1      -0.561  -5.998  -5.371  0.00  0.00     0.076 C 
ATOM      6  C7  UNL d   1      -2.991  -5.965  -5.998  0.00  0.00     0.002 A 
ATOM      7  C8  UNL d   1      -4.298  -5.502  -5.830  0.00  0.00     0.006 A 
ENDROOT
BRANCH   1   8
ATOM      8  C1  UNL d   1      -5.999  -4.038  -4.677  0.00  0.00     0.054 C 
ATOM      9  C   UNL d   1      -5.986  -2.630  -4.101  0.00  0.00     0.018 C 
ENDBRANCH   1   8
TORSDOF 1
ENDMDL
