MODEL 1
REMARK minimizedAffinity 2.92560792
REMARK minimizedRMSD -1
REMARK  1 active torsions:
REMARK  status: ('A' for Active; 'I' for Inactive)
REMARK    1  A    between atoms: C1_2  and  C2_3 
ROOT
ATOM      1  C2  UNL d   1       5.169  -3.892  -5.045  0.00  0.00    -0.073 A 
ATOM      2  C3  UNL d   1       5.986  -3.215  -5.958  0.00  0.00    -0.002 A 
ATOM      3  C4  UNL d   1       6.000  -1.820  -5.992  0.00  0.00     0.004 A 
ATOM      4  C5  UNL d   1       5.203  -1.089  -5.112  0.00  0.00    -0.004 A 
ATOM      5  C6  UNL d   1       4.389  -1.747  -4.184  0.00  0.00    -0.075 A 
ATOM      6  C7  UNL d   1       3.524  -0.974  -3.232  0.00  0.00     0.076 C 
ATOM      7  C8  UNL d   1       4.379  -3.148  -4.158  0.00  0.00     0.001 A 
ENDROOT
BRANCH   1   8
ATOM      8  C1  UNL d   1       5.156  -5.398  -5.000  0.00  0.00     0.053 C 
ATOM      9  C   UNL d   1       5.997  -5.941  -3.856  0.00  0.00     0.018 C 
ENDBRANCH   1   8
TORSDOF 1
ENDMDL
