MODEL 1
REMARK minimizedAffinity -3.3268106
REMARK minimizedRMSD -1
REMARK  1 active torsions:
REMARK  status: ('A' for Active; 'I' for Inactive)
REMARK    1  A    between atoms: C1_2  and  C2_3 
ROOT
ATOM      1  C2  UNL d   1       5.386  -2.269  -5.382  0.00  0.00    -0.073 A 
ATOM      2  C3  UNL d   1       4.528  -2.318  -4.277  0.00  0.00    -0.002 A 
ATOM      3  C4  UNL d   1       4.143  -3.546  -3.738  0.00  0.00     0.004 A 
ATOM      4  C5  UNL d   1       4.615  -4.736  -4.293  0.00  0.00    -0.004 A 
ATOM      5  C6  UNL d   1       5.483  -4.707  -5.389  0.00  0.00    -0.075 A 
ATOM      6  C7  UNL d   1       5.998  -5.978  -5.999  0.00  0.00     0.076 C 
ATOM      7  C8  UNL d   1       5.863  -3.470  -5.927  0.00  0.00     0.001 A 
ENDROOT
BRANCH   1   8
ATOM      8  C1  UNL d   1       5.810  -0.945  -5.964  0.00  0.00     0.053 C 
ATOM      9  C   UNL d   1       4.665   0.055  -6.000  0.00  0.00     0.018 C 
ENDBRANCH   1   8
TORSDOF 1
ENDMDL
