MODEL 1
REMARK minimizedAffinity -3.6036458
REMARK minimizedRMSD -1
REMARK  1 active torsions:
REMARK  status: ('A' for Active; 'I' for Inactive)
REMARK    1  A    between atoms: C1_2  and  C2_3 
ROOT
ATOM      1  C2  UNL d   1       5.181  -2.122  -5.744  0.00  0.00    -0.073 A 
ATOM      2  C3  UNL d   1       3.819  -2.154  -5.422  0.00  0.00    -0.002 A 
ATOM      3  C4  UNL d   1       3.166  -3.374  -5.242  0.00  0.00     0.004 A 
ATOM      4  C5  UNL d   1       3.868  -4.572  -5.375  0.00  0.00    -0.004 A 
ATOM      5  C6  UNL d   1       5.231  -4.560  -5.684  0.00  0.00    -0.075 A 
ATOM      6  C7  UNL d   1       6.000  -5.841  -5.832  0.00  0.00     0.076 C 
ATOM      7  C8  UNL d   1       5.880  -3.331  -5.866  0.00  0.00     0.001 A 
ENDROOT
BRANCH   1   8
ATOM      8  C1  UNL d   1       5.892  -0.807  -5.932  0.00  0.00     0.053 C 
ATOM      9  C   UNL d   1       4.921   0.362  -6.000  0.00  0.00     0.018 C 
ENDBRANCH   1   8
TORSDOF 1
ENDMDL
