MODEL 1
REMARK minimizedAffinity 3.23979545
REMARK minimizedRMSD -1
REMARK  2 active torsions:
REMARK  status: ('A' for Active; 'I' for Inactive)
REMARK    1  A    between atoms: C1_2  and  C2_3 
REMARK    2  A    between atoms: C2_3  and  C3_4 
ROOT
ATOM      1  C3  UNL d   1      -5.581   2.875  -3.296  0.00  0.00    -0.075 A 
ATOM      2  C4  UNL d   1      -5.631   3.807  -4.343  0.00  0.00     0.002 A 
ATOM      3  C5  UNL d   1      -5.280   3.434  -5.641  0.00  0.00     0.002 A 
ATOM      4  C6  UNL d   1      -4.867   2.130  -5.906  0.00  0.00    -0.004 A 
ATOM      5  C7  UNL d   1      -4.797   1.200  -4.871  0.00  0.00     0.002 A 
ATOM      6  C8  UNL d   1      -5.152   1.570  -3.572  0.00  0.00     0.002 A 
ENDROOT
BRANCH   1   7
ATOM      7  C2  UNL d   1      -5.987   3.264  -1.895  0.00  0.00     0.056 C 
BRANCH   7   8
ATOM      8  C1  UNL d   1      -5.307   4.537  -1.379  0.00  0.00     0.007 C 
ATOM      9  C   UNL d   1      -5.991   5.130  -0.155  0.00  0.00     0.009 C 
ENDBRANCH   7   8
ENDBRANCH   1   7
TORSDOF 2
ENDMDL
