MODEL 1
REMARK minimizedAffinity 7.03667974
REMARK minimizedRMSD -1
REMARK  2 active torsions:
REMARK  status: ('A' for Active; 'I' for Inactive)
REMARK    1  A    between atoms: C1_2  and  C2_3 
REMARK    2  A    between atoms: C2_3  and  C3_4 
ROOT
ATOM      1  C3  UNL d   1       1.817  -2.205   3.298  0.00  0.00    -0.075 A 
ATOM      2  C4  UNL d   1       1.099  -1.447   4.235  0.00  0.00     0.002 A 
ATOM      3  C5  UNL d   1       1.073  -1.822   5.578  0.00  0.00     0.002 A 
ATOM      4  C6  UNL d   1       1.753  -2.963   6.000  0.00  0.00    -0.004 A 
ATOM      5  C7  UNL d   1       2.455  -3.732   5.075  0.00  0.00     0.002 A 
ATOM      6  C8  UNL d   1       2.487  -3.357   3.731  0.00  0.00     0.002 A 
ENDROOT
BRANCH   1   7
ATOM      7  C2  UNL d   1       1.873  -1.789   1.848  0.00  0.00     0.056 C 
BRANCH   7   8
ATOM      8  C1  UNL d   1       2.494  -2.839   0.921  0.00  0.00     0.007 C 
ATOM      9  C   UNL d   1       3.593  -2.277   0.028  0.00  0.00     0.009 C 
ENDBRANCH   7   8
ENDBRANCH   1   7
TORSDOF 2
ENDMDL
