MODEL 1
REMARK minimizedAffinity 1.40386069
REMARK minimizedRMSD -1
REMARK  2 active torsions:
REMARK  status: ('A' for Active; 'I' for Inactive)
REMARK    1  A    between atoms: C1_2  and  C2_3 
REMARK    2  A    between atoms: C2_3  and  C3_4 
ROOT
ATOM      1  C3  UNL d   1       1.139  -1.911   4.561  0.00  0.00    -0.075 A 
ATOM      2  C4  UNL d   1       1.926  -2.827   3.849  0.00  0.00     0.002 A 
ATOM      3  C5  UNL d   1       2.394  -2.515   2.572  0.00  0.00     0.002 A 
ATOM      4  C6  UNL d   1       2.073  -1.292   1.988  0.00  0.00    -0.004 A 
ATOM      5  C7  UNL d   1       1.277  -0.381   2.681  0.00  0.00     0.002 A 
ATOM      6  C8  UNL d   1       0.811  -0.688   3.960  0.00  0.00     0.002 A 
ENDROOT
BRANCH   1   7
ATOM      7  C2  UNL d   1       0.654  -2.230   5.956  0.00  0.00     0.056 C 
BRANCH   7   8
ATOM      8  C1  UNL d   1      -0.557  -3.169   5.995  0.00  0.00     0.007 C 
ATOM      9  C   UNL d   1      -0.173  -4.643   5.991  0.00  0.00     0.009 C 
ENDBRANCH   7   8
ENDBRANCH   1   7
TORSDOF 2
ENDMDL
