MODEL 1
REMARK minimizedAffinity 9.82427788
REMARK minimizedRMSD -1
REMARK  2 active torsions:
REMARK  status: ('A' for Active; 'I' for Inactive)
REMARK    1  A    between atoms: C1_2  and  C2_3 
REMARK    2  A    between atoms: C2_3  and  C3_4 
ROOT
ATOM      1  C3  UNL d   1      -1.096   0.320   0.647  0.00  0.00    -0.075 A 
ATOM      2  C4  UNL d   1      -0.351   1.436   0.239  0.00  0.00     0.002 A 
ATOM      3  C5  UNL d   1      -0.992   2.580  -0.238  0.00  0.00     0.002 A 
ATOM      4  C6  UNL d   1      -2.381   2.618  -0.324  0.00  0.00    -0.004 A 
ATOM      5  C7  UNL d   1      -3.131   1.509   0.062  0.00  0.00     0.002 A 
ATOM      6  C8  UNL d   1      -2.492   0.365   0.545  0.00  0.00     0.002 A 
ENDROOT
BRANCH   1   7
ATOM      7  C2  UNL d   1      -0.410  -0.909   1.193  0.00  0.00     0.056 C 
BRANCH   7   8
ATOM      8  C1  UNL d   1       0.885  -0.614   1.957  0.00  0.00     0.007 C 
ATOM      9  C   UNL d   1       1.960  -1.673   1.749  0.00  0.00     0.009 C 
ENDBRANCH   7   8
ENDBRANCH   1   7
TORSDOF 2
ENDMDL
