MODEL 1
REMARK minimizedAffinity 15.939538
REMARK minimizedRMSD -1
REMARK  2 active torsions:
REMARK  status: ('A' for Active; 'I' for Inactive)
REMARK    1  A    between atoms: C1_2  and  C2_3 
REMARK    2  A    between atoms: C2_3  and  C3_4 
ROOT
ATOM      1  C3  UNL d   1       0.022   0.210   1.488  0.00  0.00    -0.075 A 
ATOM      2  C4  UNL d   1      -1.059  -0.598   1.106  0.00  0.00     0.002 A 
ATOM      3  C5  UNL d   1      -2.034  -0.111   0.234  0.00  0.00     0.002 A 
ATOM      4  C6  UNL d   1      -1.946   1.189  -0.258  0.00  0.00    -0.004 A 
ATOM      5  C7  UNL d   1      -0.885   2.006   0.128  0.00  0.00     0.002 A 
ATOM      6  C8  UNL d   1       0.094   1.520   0.997  0.00  0.00     0.002 A 
ENDROOT
BRANCH   1   7
ATOM      7  C2  UNL d   1       1.096  -0.321   2.408  0.00  0.00     0.056 C 
BRANCH   7   8
ATOM      8  C1  UNL d   1       2.208  -1.091   1.689  0.00  0.00     0.007 C 
ATOM      9  C   UNL d   1       2.097  -2.601   1.857  0.00  0.00     0.009 C 
ENDBRANCH   7   8
ENDBRANCH   1   7
TORSDOF 2
ENDMDL
