MODEL 1
REMARK minimizedAffinity 16.3648739
REMARK minimizedRMSD -1
REMARK  2 active torsions:
REMARK  status: ('A' for Active; 'I' for Inactive)
REMARK    1  A    between atoms: C1_2  and  C2_3 
REMARK    2  A    between atoms: C2_3  and  C3_4 
ROOT
ATOM      1  C3  UNL d   1       3.667  -3.972  -1.941  0.00  0.00    -0.075 A 
ATOM      2  C4  UNL d   1       4.842  -4.653  -2.290  0.00  0.00     0.002 A 
ATOM      3  C5  UNL d   1       6.000  -4.506  -1.525  0.00  0.00     0.002 A 
ATOM      4  C6  UNL d   1       6.000  -3.671  -0.410  0.00  0.00    -0.004 A 
ATOM      5  C7  UNL d   1       4.843  -2.978  -0.063  0.00  0.00     0.002 A 
ATOM      6  C8  UNL d   1       3.682  -3.126  -0.824  0.00  0.00     0.002 A 
ENDROOT
BRANCH   1   7
ATOM      7  C2  UNL d   1       2.403  -4.149  -2.748  0.00  0.00     0.056 C 
BRANCH   7   8
ATOM      8  C1  UNL d   1       1.420  -5.163  -2.152  0.00  0.00     0.007 C 
ATOM      9  C   UNL d   1       0.232  -4.510  -1.457  0.00  0.00     0.009 C 
ENDBRANCH   7   8
ENDBRANCH   1   7
TORSDOF 2
ENDMDL
