MODEL 1
REMARK minimizedAffinity -1.98855817
REMARK minimizedRMSD -1
REMARK  2 active torsions:
REMARK  status: ('A' for Active; 'I' for Inactive)
REMARK    1  A    between atoms: C1_2  and  C2_3 
REMARK    2  A    between atoms: C2_3  and  C3_4 
ROOT
ATOM      1  C3  UNL d   1      -0.846  -1.774   1.005  0.00  0.00    -0.075 A 
ATOM      2  C4  UNL d   1      -1.283  -3.065   1.338  0.00  0.00     0.002 A 
ATOM      3  C5  UNL d   1      -2.300  -3.679   0.607  0.00  0.00     0.002 A 
ATOM      4  C6  UNL d   1      -2.900  -3.010  -0.457  0.00  0.00    -0.004 A 
ATOM      5  C7  UNL d   1      -2.485  -1.721  -0.787  0.00  0.00     0.002 A 
ATOM      6  C8  UNL d   1      -1.465  -1.105  -0.060  0.00  0.00     0.002 A 
ENDROOT
BRANCH   1   7
ATOM      7  C2  UNL d   1       0.274  -1.115   1.773  0.00  0.00     0.056 C 
BRANCH   7   8
ATOM      8  C1  UNL d   1       1.212  -2.102   2.477  0.00  0.00     0.007 C 
ATOM      9  C   UNL d   1       1.037  -2.122   3.989  0.00  0.00     0.009 C 
ENDBRANCH   7   8
ENDBRANCH   1   7
TORSDOF 2
ENDMDL
