MODEL 1
REMARK minimizedAffinity 5.08119822
REMARK minimizedRMSD -1
REMARK  2 active torsions:
REMARK  status: ('A' for Active; 'I' for Inactive)
REMARK    1  A    between atoms: C1_2  and  C2_3 
REMARK    2  A    between atoms: C2_3  and  C3_4 
ROOT
ATOM      1  C3  UNL d   1       2.279  -2.428   3.082  0.00  0.00    -0.075 A 
ATOM      2  C4  UNL d   1       2.199  -2.775   4.438  0.00  0.00     0.002 A 
ATOM      3  C5  UNL d   1       1.632  -1.897   5.362  0.00  0.00     0.002 A 
ATOM      4  C6  UNL d   1       1.148  -0.658   4.945  0.00  0.00    -0.004 A 
ATOM      5  C7  UNL d   1       1.238  -0.296   3.602  0.00  0.00     0.002 A 
ATOM      6  C8  UNL d   1       1.801  -1.175   2.675  0.00  0.00     0.002 A 
ENDROOT
BRANCH   1   7
ATOM      7  C2  UNL d   1       2.865  -3.386   2.072  0.00  0.00     0.056 C 
BRANCH   7   8
ATOM      8  C1  UNL d   1       1.931  -4.540   1.693  0.00  0.00     0.007 C 
ATOM      9  C   UNL d   1       1.977  -5.699   2.678  0.00  0.00     0.009 C 
ENDBRANCH   7   8
ENDBRANCH   1   7
TORSDOF 2
ENDMDL
