MODEL 1
REMARK minimizedAffinity 2.6927197
REMARK minimizedRMSD -1
REMARK  0 active torsions:
REMARK  status: ('A' for Active; 'I' for Inactive)
ROOT
ATOM      1  C1  DEN d   1       1.594  -0.559   1.175  0.00  0.00     0.130 A 
ATOM      2  C2  DEN d   1       2.245   0.620   1.740  0.00  0.00    -0.031 A 
ATOM      3  C3  DEN d   1       1.543   1.816   1.232  0.00  0.00     0.027 A 
ATOM      4  C4  DEN d   1      -0.480   1.956  -0.361  0.00  0.00     0.027 A 
ATOM      5  C5  DEN d   1      -1.370   1.221  -1.113  0.00  0.00    -0.003 A 
ATOM      6  C6  DEN d   1      -1.314  -0.146  -1.180  0.00  0.00     0.001 A 
ATOM      7  C7  DEN d   1      -0.375  -0.823  -0.449  0.00  0.00     0.017 A 
ATOM      8  C8  DEN d   1       0.531  -0.089   0.305  0.00  0.00    -0.094 A 
ATOM      9  C9  DEN d   1       0.450   1.292   0.370  0.00  0.00    -0.072 A 
ENDROOT
TORSDOF 0
ENDMDL
