MODEL 1
REMARK minimizedAffinity 8.95050526
REMARK minimizedRMSD -1
REMARK  0 active torsions:
REMARK  status: ('A' for Active; 'I' for Inactive)
ROOT
ATOM      1  C1  DEN d   1      -5.950   1.108   1.477  0.00  0.00     0.130 A 
ATOM      2  C2  DEN d   1      -6.000   0.288   0.270  0.00  0.00    -0.031 A 
ATOM      3  C3  DEN d   1      -4.647   0.262  -0.321  0.00  0.00     0.027 A 
ATOM      4  C4  DEN d   1      -2.489   1.402   0.515  0.00  0.00     0.027 A 
ATOM      5  C5  DEN d   1      -1.954   2.213   1.491  0.00  0.00    -0.003 A 
ATOM      6  C6  DEN d   1      -2.714   2.736   2.504  0.00  0.00     0.001 A 
ATOM      7  C7  DEN d   1      -4.043   2.416   2.589  0.00  0.00     0.017 A 
ATOM      8  C8  DEN d   1      -4.592   1.605   1.604  0.00  0.00    -0.094 A 
ATOM      9  C9  DEN d   1      -3.804   1.077   0.595  0.00  0.00    -0.072 A 
ENDROOT
TORSDOF 0
ENDMDL
