MODEL 1
REMARK minimizedAffinity 4.97999573
REMARK minimizedRMSD -1
REMARK  0 active torsions:
REMARK  status: ('A' for Active; 'I' for Inactive)
ROOT
ATOM      1  C1  DEN d   1      -3.344   1.508  -3.471  0.00  0.00     0.130 A 
ATOM      2  C2  DEN d   1      -3.763   0.921  -2.202  0.00  0.00    -0.031 A 
ATOM      3  C3  DEN d   1      -4.880   1.728  -1.672  0.00  0.00     0.027 A 
ATOM      4  C4  DEN d   1      -6.000   3.816  -2.691  0.00  0.00     0.027 A 
ATOM      5  C5  DEN d   1      -5.981   4.695  -3.752  0.00  0.00    -0.003 A 
ATOM      6  C6  DEN d   1      -5.067   4.594  -4.767  0.00  0.00     0.001 A 
ATOM      7  C7  DEN d   1      -4.163   3.566  -4.767  0.00  0.00     0.017 A 
ATOM      8  C8  DEN d   1      -4.171   2.680  -3.698  0.00  0.00    -0.094 A 
ATOM      9  C9  DEN d   1      -5.110   2.791  -2.687  0.00  0.00    -0.072 A 
ENDROOT
TORSDOF 0
ENDMDL
