MODEL 1
REMARK minimizedAffinity 1.98830807
REMARK minimizedRMSD -1
REMARK  0 active torsions:
REMARK  status: ('A' for Active; 'I' for Inactive)
ROOT
ATOM      1  C1  DEN d   1      -1.316   2.206   0.778  0.00  0.00     0.130 A 
ATOM      2  C2  DEN d   1      -0.552   1.830  -0.409  0.00  0.00    -0.031 A 
ATOM      3  C3  DEN d   1      -1.417   0.991  -1.262  0.00  0.00     0.027 A 
ATOM      4  C4  DEN d   1      -3.854   0.246  -0.866  0.00  0.00     0.027 A 
ATOM      5  C5  DEN d   1      -4.919   0.307   0.006  0.00  0.00    -0.003 A 
ATOM      6  C6  DEN d   1      -4.847   0.971   1.201  0.00  0.00     0.001 A 
ATOM      7  C7  DEN d   1      -3.700   1.639   1.538  0.00  0.00     0.017 A 
ATOM      8  C8  DEN d   1      -2.619   1.577   0.668  0.00  0.00    -0.094 A 
ATOM      9  C9  DEN d   1      -2.716   0.910  -0.542  0.00  0.00    -0.072 A 
ENDROOT
TORSDOF 0
ENDMDL
