MODEL 1
REMARK minimizedAffinity 7.17556667
REMARK minimizedRMSD -1
REMARK  0 active torsions:
REMARK  status: ('A' for Active; 'I' for Inactive)
ROOT
ATOM      1  C1  DEN d   1       2.534   1.742   0.784  0.00  0.00     0.130 A 
ATOM      2  C2  DEN d   1       1.511   2.635   0.246  0.00  0.00    -0.031 A 
ATOM      3  C3  DEN d   1       0.574   1.823  -0.557  0.00  0.00     0.027 A 
ATOM      4  C4  DEN d   1       0.605  -0.715  -1.012  0.00  0.00     0.027 A 
ATOM      5  C5  DEN d   1       1.286  -1.889  -0.778  0.00  0.00    -0.003 A 
ATOM      6  C6  DEN d   1       2.439  -1.930  -0.040  0.00  0.00     0.001 A 
ATOM      7  C7  DEN d   1       2.923  -0.781   0.527  0.00  0.00     0.017 A 
ATOM      8  C8  DEN d   1       2.246   0.408   0.289  0.00  0.00    -0.094 A 
ATOM      9  C9  DEN d   1       1.075   0.427  -0.449  0.00  0.00    -0.072 A 
ENDROOT
TORSDOF 0
ENDMDL
