MODEL 1
REMARK minimizedAffinity 6.99377966
REMARK minimizedRMSD -1
REMARK  0 active torsions:
REMARK  status: ('A' for Active; 'I' for Inactive)
ROOT
ATOM      1  C1  DEN d   1       1.522   2.558   0.035  0.00  0.00     0.130 A 
ATOM      2  C2  DEN d   1       2.114   1.239   0.238  0.00  0.00    -0.031 A 
ATOM      3  C3  DEN d   1       1.408   0.590   1.361  0.00  0.00     0.027 A 
ATOM      4  C4  DEN d   1      -0.537   1.493   2.794  0.00  0.00     0.027 A 
ATOM      5  C5  DEN d   1      -1.371   2.569   3.005  0.00  0.00    -0.003 A 
ATOM      6  C6  DEN d   1      -1.277   3.720   2.269  0.00  0.00     0.001 A 
ATOM      7  C7  DEN d   1      -0.359   3.806   1.257  0.00  0.00     0.017 A 
ATOM      8  C8  DEN d   1       0.490   2.728   1.043  0.00  0.00    -0.094 A 
ATOM      9  C9  DEN d   1       0.372   1.568   1.789  0.00  0.00    -0.072 A 
ENDROOT
TORSDOF 0
ENDMDL
