MODEL 1
REMARK minimizedAffinity -1.87910521
REMARK minimizedRMSD -1
REMARK  0 active torsions:
REMARK  status: ('A' for Active; 'I' for Inactive)
ROOT
ATOM      1  C1  DEN d   1      -3.518   1.064  -0.238  0.00  0.00     0.130 A 
ATOM      2  C2  DEN d   1      -4.647   0.995   0.686  0.00  0.00    -0.031 A 
ATOM      3  C3  DEN d   1      -4.141   1.271   2.046  0.00  0.00     0.027 A 
ATOM      4  C4  DEN d   1      -1.733   1.800   2.805  0.00  0.00     0.027 A 
ATOM      5  C5  DEN d   1      -0.432   1.957   2.382  0.00  0.00    -0.003 A 
ATOM      6  C6  DEN d   1      -0.065   1.796   1.072  0.00  0.00     0.001 A 
ATOM      7  C7  DEN d   1      -1.019   1.511   0.130  0.00  0.00     0.017 A 
ATOM      8  C8  DEN d   1      -2.332   1.344   0.550  0.00  0.00    -0.094 A 
ATOM      9  C9  DEN d   1      -2.684   1.524   1.877  0.00  0.00    -0.072 A 
ENDROOT
TORSDOF 0
ENDMDL
