MODEL 1
REMARK minimizedAffinity 2.79334784
REMARK minimizedRMSD -1
REMARK  0 active torsions:
REMARK  status: ('A' for Active; 'I' for Inactive)
ROOT
ATOM      1  C1  DEN d   1      -1.454   0.885  -0.807  0.00  0.00     0.130 A 
ATOM      2  C2  DEN d   1      -0.627   1.391   0.286  0.00  0.00    -0.031 A 
ATOM      3  C3  DEN d   1      -1.489   1.549   1.475  0.00  0.00     0.027 A 
ATOM      4  C4  DEN d   1      -4.007   1.055   1.731  0.00  0.00     0.027 A 
ATOM      5  C5  DEN d   1      -5.138   0.621   1.076  0.00  0.00    -0.003 A 
ATOM      6  C6  DEN d   1      -5.128   0.279  -0.251  0.00  0.00     0.001 A 
ATOM      7  C7  DEN d   1      -3.953   0.323  -0.954  0.00  0.00     0.017 A 
ATOM      8  C8  DEN d   1      -2.810   0.767  -0.302  0.00  0.00    -0.094 A 
ATOM      9  C9  DEN d   1      -2.838   1.096   1.043  0.00  0.00    -0.072 A 
ENDROOT
TORSDOF 0
ENDMDL
