MODEL 1
REMARK minimizedAffinity 2.96161199
REMARK minimizedRMSD -1
REMARK  0 active torsions:
REMARK  status: ('A' for Active; 'I' for Inactive)
ROOT
ATOM      1  C1  DEN d   1      -5.997   1.099  -2.310  0.00  0.00     0.130 A 
ATOM      2  C2  DEN d   1      -5.204   0.084  -1.623  0.00  0.00    -0.031 A 
ATOM      3  C3  DEN d   1      -3.876   0.030  -2.266  0.00  0.00     0.027 A 
ATOM      4  C4  DEN d   1      -2.974   1.416  -4.245  0.00  0.00     0.027 A 
ATOM      5  C5  DEN d   1      -3.283   2.393  -5.165  0.00  0.00    -0.003 A 
ATOM      6  C6  DEN d   1      -4.520   2.980  -5.219  0.00  0.00     0.001 A 
ATOM      7  C7  DEN d   1      -5.480   2.625  -4.308  0.00  0.00     0.017 A 
ATOM      8  C8  DEN d   1      -5.177   1.635  -3.382  0.00  0.00    -0.094 A 
ATOM      9  C9  DEN d   1      -3.917   1.063  -3.336  0.00  0.00    -0.072 A 
ENDROOT
TORSDOF 0
ENDMDL
