MODEL 1
REMARK minimizedAffinity 14.7892103
REMARK minimizedRMSD -1
REMARK  0 active torsions:
REMARK  status: ('A' for Active; 'I' for Inactive)
ROOT
ATOM      1  C   UNL d   1      -0.009  -3.897  -2.959  0.00  0.00    -0.002 A 
ATOM      2  C1  UNL d   1      -0.007  -3.792  -1.575  0.00  0.00     0.010 A 
ATOM      3  C2  UNL d   1       1.066  -4.281  -0.827  0.00  0.00     0.041 A 
ATOM      4  C3  UNL d   1       2.148  -4.882  -1.500  0.00  0.00    -0.075 A 
ATOM      5  S   UNL d   1       3.570  -5.551  -0.792  0.00  0.00     0.015 SA
ATOM      6  C4  UNL d   1       4.209  -5.991  -2.309  0.00  0.00     0.022 A 
ATOM      7  C5  UNL d   1       3.371  -5.644  -3.342  0.00  0.00     0.026 A 
ATOM      8  C6  UNL d   1       2.170  -4.998  -2.893  0.00  0.00    -0.082 A 
ATOM      9  C7  UNL d   1       1.067  -4.493  -3.623  0.00  0.00     0.045 A 
ENDROOT
TORSDOF 0
ENDMDL
