MODEL 1
REMARK minimizedAffinity 7.43246841
REMARK minimizedRMSD -1
REMARK  0 active torsions:
REMARK  status: ('A' for Active; 'I' for Inactive)
ROOT
ATOM      1  C   UNL d   1       2.785  -4.204  -0.432  0.00  0.00    -0.002 A 
ATOM      2  C1  UNL d   1       1.420  -4.183  -0.179  0.00  0.00     0.010 A 
ATOM      3  C2  UNL d   1       0.503  -4.177  -1.232  0.00  0.00     0.041 A 
ATOM      4  C3  UNL d   1       0.984  -4.194  -2.555  0.00  0.00    -0.075 A 
ATOM      5  S   UNL d   1       0.047  -4.192  -4.002  0.00  0.00     0.015 SA
ATOM      6  C4  UNL d   1       1.435  -4.220  -4.991  0.00  0.00     0.022 A 
ATOM      7  C5  UNL d   1       2.594  -4.231  -4.251  0.00  0.00     0.026 A 
ATOM      8  C6  UNL d   1       2.353  -4.217  -2.836  0.00  0.00    -0.082 A 
ATOM      9  C7  UNL d   1       3.258  -4.221  -1.747  0.00  0.00     0.045 A 
ENDROOT
TORSDOF 0
ENDMDL
