MODEL 1
REMARK minimizedAffinity 9.48451996
REMARK minimizedRMSD -1
REMARK  0 active torsions:
REMARK  status: ('A' for Active; 'I' for Inactive)
ROOT
ATOM      1  C   UNL d   1      -1.442  -4.950  -4.234  0.00  0.00    -0.002 A 
ATOM      2  C1  UNL d   1      -1.505  -3.662  -4.746  0.00  0.00     0.010 A 
ATOM      3  C2  UNL d   1      -2.686  -3.179  -5.312  0.00  0.00     0.041 A 
ATOM      4  C3  UNL d   1      -3.816  -4.019  -5.352  0.00  0.00    -0.075 A 
ATOM      5  S   UNL d   1      -5.370  -3.642  -5.996  0.00  0.00     0.015 SA
ATOM      6  C4  UNL d   1      -5.989  -5.181  -5.605  0.00  0.00     0.022 A 
ATOM      7  C5  UNL d   1      -5.046  -5.977  -4.998  0.00  0.00     0.026 A 
ATOM      8  C6  UNL d   1      -3.778  -5.320  -4.841  0.00  0.00    -0.082 A 
ATOM      9  C7  UNL d   1      -2.565  -5.781  -4.276  0.00  0.00     0.045 A 
ENDROOT
TORSDOF 0
ENDMDL
