MODEL 1
REMARK minimizedAffinity 18.9575138
REMARK minimizedRMSD -1
REMARK  0 active torsions:
REMARK  status: ('A' for Active; 'I' for Inactive)
ROOT
ATOM      1  C   UNL d   1       2.252   4.952  -2.701  0.00  0.00    -0.002 A 
ATOM      2  C1  UNL d   1       3.281   5.522  -1.965  0.00  0.00     0.010 A 
ATOM      3  C2  UNL d   1       3.607   5.031  -0.700  0.00  0.00     0.041 A 
ATOM      4  C3  UNL d   1       2.874   3.945  -0.181  0.00  0.00    -0.075 A 
ATOM      5  S   UNL d   1       3.096   3.176   1.346  0.00  0.00     0.015 SA
ATOM      6  C4  UNL d   1       1.830   2.072   1.058  0.00  0.00     0.022 A 
ATOM      7  C5  UNL d   1       1.242   2.271  -0.168  0.00  0.00     0.026 A 
ATOM      8  C6  UNL d   1       1.834   3.353  -0.903  0.00  0.00    -0.082 A 
ATOM      9  C7  UNL d   1       1.528   3.875  -2.183  0.00  0.00     0.045 A 
ENDROOT
TORSDOF 0
ENDMDL
