MODEL 1
REMARK minimizedAffinity 18.0120735
REMARK minimizedRMSD -1
REMARK  0 active torsions:
REMARK  status: ('A' for Active; 'I' for Inactive)
ROOT
ATOM      1  C   UNL d   1       3.094  -1.721   1.607  0.00  0.00    -0.002 A 
ATOM      2  C1  UNL d   1       3.265  -0.827   0.560  0.00  0.00     0.010 A 
ATOM      3  C2  UNL d   1       2.780  -1.124  -0.715  0.00  0.00     0.041 A 
ATOM      4  C3  UNL d   1       2.111  -2.347  -0.921  0.00  0.00    -0.075 A 
ATOM      5  S   UNL d   1       1.432  -2.924  -2.397  0.00  0.00     0.015 SA
ATOM      6  C4  UNL d   1       0.898  -4.371  -1.672  0.00  0.00     0.022 A 
ATOM      7  C5  UNL d   1       1.222  -4.430  -0.338  0.00  0.00     0.026 A 
ATOM      8  C6  UNL d   1       1.926  -3.264   0.117  0.00  0.00    -0.082 A 
ATOM      9  C7  UNL d   1       2.431  -2.934   1.398  0.00  0.00     0.045 A 
ENDROOT
TORSDOF 0
ENDMDL
