MODEL 1
REMARK minimizedAffinity 21.6689434
REMARK minimizedRMSD -1
REMARK  0 active torsions:
REMARK  status: ('A' for Active; 'I' for Inactive)
ROOT
ATOM      1  C   UNL d   1       1.868   1.112   2.310  0.00  0.00    -0.002 A 
ATOM      2  C1  UNL d   1       0.740   1.530   3.002  0.00  0.00     0.010 A 
ATOM      3  C2  UNL d   1       0.139   0.697   3.949  0.00  0.00     0.041 A 
ATOM      4  C3  UNL d   1       0.698  -0.573   4.192  0.00  0.00    -0.075 A 
ATOM      5  S   UNL d   1       0.133  -1.761   5.306  0.00  0.00     0.015 SA
ATOM      6  C4  UNL d   1       1.376  -2.850   4.890  0.00  0.00     0.022 A 
ATOM      7  C5  UNL d   1       2.210  -2.336   3.925  0.00  0.00     0.026 A 
ATOM      8  C6  UNL d   1       1.834  -1.015   3.508  0.00  0.00    -0.082 A 
ATOM      9  C7  UNL d   1       2.419  -0.148   2.554  0.00  0.00     0.045 A 
ENDROOT
TORSDOF 0
ENDMDL
