MODEL 1
REMARK minimizedAffinity 17.7794342
REMARK minimizedRMSD -1
REMARK  0 active torsions:
REMARK  status: ('A' for Active; 'I' for Inactive)
ROOT
ATOM      1  C   UNL d   1       1.160  -2.890   5.988  0.00  0.00    -0.002 A 
ATOM      2  C1  UNL d   1       2.233  -3.170   5.154  0.00  0.00     0.010 A 
ATOM      3  C2  UNL d   1       2.505  -2.358   4.051  0.00  0.00     0.041 A 
ATOM      4  C3  UNL d   1       1.674  -1.248   3.800  0.00  0.00    -0.075 A 
ATOM      5  S   UNL d   1       1.816  -0.114   2.510  0.00  0.00     0.015 SA
ATOM      6  C4  UNL d   1       0.457   0.769   3.037  0.00  0.00     0.022 A 
ATOM      7  C5  UNL d   1      -0.104   0.225   4.168  0.00  0.00     0.026 A 
ATOM      8  C6  UNL d   1       0.588  -0.946   4.627  0.00  0.00    -0.082 A 
ATOM      9  C7  UNL d   1       0.338  -1.789   5.736  0.00  0.00     0.045 A 
ENDROOT
TORSDOF 0
ENDMDL
