MODEL 1
REMARK minimizedAffinity 17.4837971
REMARK minimizedRMSD -1
REMARK  0 active torsions:
REMARK  status: ('A' for Active; 'I' for Inactive)
ROOT
ATOM      1  C   UNL d   1       0.253   1.652   2.031  0.00  0.00    -0.002 A 
ATOM      2  C1  UNL d   1      -1.102   1.906   1.872  0.00  0.00     0.010 A 
ATOM      3  C2  UNL d   1      -1.569   2.589   0.748  0.00  0.00     0.041 A 
ATOM      4  C3  UNL d   1      -0.643   3.015  -0.225  0.00  0.00    -0.075 A 
ATOM      5  S   UNL d   1      -0.985   3.867  -1.684  0.00  0.00     0.015 SA
ATOM      6  C4  UNL d   1       0.659   3.913  -2.131  0.00  0.00     0.022 A 
ATOM      7  C5  UNL d   1       1.463   3.298  -1.201  0.00  0.00     0.026 A 
ATOM      8  C6  UNL d   1       0.726   2.770  -0.087  0.00  0.00    -0.082 A 
ATOM      9  C7  UNL d   1       1.169   2.076   1.064  0.00  0.00     0.045 A 
ENDROOT
TORSDOF 0
ENDMDL
