MODEL 1
REMARK minimizedAffinity 18.8109188
REMARK minimizedRMSD -1
REMARK  0 active torsions:
REMARK  status: ('A' for Active; 'I' for Inactive)
ROOT
ATOM      1  C   UNL d   1      -1.413   3.020  -0.784  0.00  0.00    -0.002 A 
ATOM      2  C1  UNL d   1      -0.062   3.032  -1.103  0.00  0.00     0.010 A 
ATOM      3  C2  UNL d   1       0.876   2.463  -0.239  0.00  0.00     0.041 A 
ATOM      4  C3  UNL d   1       0.430   1.875   0.960  0.00  0.00    -0.075 A 
ATOM      5  S   UNL d   1       1.397   1.117   2.169  0.00  0.00     0.015 SA
ATOM      6  C4  UNL d   1       0.041   0.759   3.137  0.00  0.00     0.022 A 
ATOM      7  C5  UNL d   1      -1.130   1.200   2.567  0.00  0.00     0.026 A 
ATOM      8  C6  UNL d   1      -0.925   1.850   1.302  0.00  0.00    -0.082 A 
ATOM      9  C7  UNL d   1      -1.852   2.436   0.407  0.00  0.00     0.045 A 
ENDROOT
TORSDOF 0
ENDMDL
