MODEL 1
REMARK minimizedAffinity 13.6815796
REMARK minimizedRMSD -1
REMARK  0 active torsions:
REMARK  status: ('A' for Active; 'I' for Inactive)
ROOT
ATOM      1  C   UNL d   1      -1.047   3.016  -0.707  0.00  0.00    -0.002 A 
ATOM      2  C1  UNL d   1       0.214   3.554  -0.924  0.00  0.00     0.010 A 
ATOM      3  C2  UNL d   1       1.224   3.401   0.028  0.00  0.00     0.041 A 
ATOM      4  C3  UNL d   1       0.943   2.691   1.212  0.00  0.00    -0.075 A 
ATOM      5  S   UNL d   1       2.024   2.378   2.518  0.00  0.00     0.015 SA
ATOM      6  C4  UNL d   1       0.838   1.523   3.393  0.00  0.00     0.022 A 
ATOM      7  C5  UNL d   1      -0.360   1.468   2.721  0.00  0.00     0.026 A 
ATOM      8  C6  UNL d   1      -0.319   2.140   1.452  0.00  0.00    -0.082 A 
ATOM      9  C7  UNL d   1      -1.322   2.313   0.468  0.00  0.00     0.045 A 
ENDROOT
TORSDOF 0
ENDMDL
