MODEL 1
REMARK minimizedAffinity 28.343214
REMARK minimizedRMSD -1
REMARK  0 active torsions:
REMARK  status: ('A' for Active; 'I' for Inactive)
ROOT
ATOM      1  C   UNL d   1      -0.490  -1.894   6.000  0.00  0.00    -0.002 A 
ATOM      2  C1  UNL d   1      -1.615  -2.615   5.623  0.00  0.00     0.010 A 
ATOM      3  C2  UNL d   1      -2.376  -2.220   4.521  0.00  0.00     0.041 A 
ATOM      4  C3  UNL d   1      -1.983  -1.078   3.796  0.00  0.00    -0.075 A 
ATOM      5  S   UNL d   1      -2.761  -0.408   2.411  0.00  0.00     0.015 SA
ATOM      6  C4  UNL d   1      -1.619   0.850   2.285  0.00  0.00     0.022 A 
ATOM      7  C5  UNL d   1      -0.660   0.777   3.268  0.00  0.00     0.026 A 
ATOM      8  C6  UNL d   1      -0.854  -0.336   4.154  0.00  0.00    -0.082 A 
ATOM      9  C7  UNL d   1      -0.104  -0.762   5.277  0.00  0.00     0.045 A 
ENDROOT
TORSDOF 0
ENDMDL
