MODEL 1
REMARK minimizedAffinity 3.35411692
REMARK minimizedRMSD -1
REMARK  0 active torsions:
REMARK  status: ('A' for Active; 'I' for Inactive)
ROOT
ATOM      1  C   UNL d   1      -0.126   0.265  -2.314  0.00  0.00     0.077 C 
ATOM      2  C1  UNL d   1      -0.066   1.230  -1.168  0.00  0.00    -0.074 A 
ATOM      3  C2  UNL d   1      -0.350   2.587  -1.354  0.00  0.00    -0.005 A 
ATOM      4  C3  UNL d   1      -0.300   3.470  -0.276  0.00  0.00     0.006 A 
ATOM      5  C4  UNL d   1       0.034   3.007   0.997  0.00  0.00    -0.005 A 
ATOM      6  C5  UNL d   1       0.321   1.654   1.203  0.00  0.00    -0.074 A 
ATOM      7  C6  UNL d   1       0.672   1.138   2.567  0.00  0.00     0.077 C 
ATOM      8  C7  UNL d   1       0.261   0.771   0.116  0.00  0.00    -0.001 A 
ENDROOT
TORSDOF 0
ENDMDL
