MODEL 1
REMARK minimizedAffinity 3.95872378
REMARK minimizedRMSD -1
REMARK  0 active torsions:
REMARK  status: ('A' for Active; 'I' for Inactive)
ROOT
ATOM      1  C   UNL d   1       0.836   2.437   0.866  0.00  0.00     0.077 C 
ATOM      2  C1  UNL d   1       0.465   1.500   1.977  0.00  0.00    -0.074 A 
ATOM      3  C2  UNL d   1      -0.781   1.588   2.605  0.00  0.00    -0.005 A 
ATOM      4  C3  UNL d   1      -1.116   0.704   3.630  0.00  0.00     0.006 A 
ATOM      5  C4  UNL d   1      -0.209  -0.276   4.037  0.00  0.00    -0.005 A 
ATOM      6  C5  UNL d   1       1.041  -0.380   3.419  0.00  0.00    -0.074 A 
ATOM      7  C6  UNL d   1       2.023  -1.434   3.837  0.00  0.00     0.077 C 
ATOM      8  C7  UNL d   1       1.367   0.508   2.385  0.00  0.00    -0.001 A 
ENDROOT
TORSDOF 0
ENDMDL
