MODEL 1
REMARK minimizedAffinity 3.72970986
REMARK minimizedRMSD -1
REMARK  0 active torsions:
REMARK  status: ('A' for Active; 'I' for Inactive)
ROOT
ATOM      1  C   UNL d   1      -0.403   2.238  -1.003  0.00  0.00     0.077 C 
ATOM      2  C1  UNL d   1      -0.595   2.127   0.481  0.00  0.00    -0.074 A 
ATOM      3  C2  UNL d   1      -1.647   2.789   1.121  0.00  0.00    -0.005 A 
ATOM      4  C3  UNL d   1      -1.818   2.670   2.500  0.00  0.00     0.006 A 
ATOM      5  C4  UNL d   1      -0.939   1.888   3.252  0.00  0.00    -0.005 A 
ATOM      6  C5  UNL d   1       0.118   1.218   2.629  0.00  0.00    -0.074 A 
ATOM      7  C6  UNL d   1       1.066   0.366   3.420  0.00  0.00     0.077 C 
ATOM      8  C7  UNL d   1       0.279   1.338   1.241  0.00  0.00    -0.001 A 
ENDROOT
TORSDOF 0
ENDMDL
