MODEL 1
REMARK minimizedAffinity 5.19530725
REMARK minimizedRMSD -1
REMARK  0 active torsions:
REMARK  status: ('A' for Active; 'I' for Inactive)
ROOT
ATOM      1  C   UNL d   1       1.872  -1.375   4.144  0.00  0.00     0.077 C 
ATOM      2  C1  UNL d   1       0.916  -0.285   3.761  0.00  0.00    -0.074 A 
ATOM      3  C2  UNL d   1      -0.227  -0.030   4.525  0.00  0.00    -0.005 A 
ATOM      4  C3  UNL d   1      -1.102   0.994   4.163  0.00  0.00     0.006 A 
ATOM      5  C4  UNL d   1      -0.843   1.773   3.034  0.00  0.00    -0.005 A 
ATOM      6  C5  UNL d   1       0.296   1.533   2.258  0.00  0.00    -0.074 A 
ATOM      7  C6  UNL d   1       0.594   2.367   1.047  0.00  0.00     0.077 C 
ATOM      8  C7  UNL d   1       1.173   0.507   2.633  0.00  0.00    -0.001 A 
ENDROOT
TORSDOF 0
ENDMDL
