MODEL 1
REMARK minimizedAffinity 6.91296482
REMARK minimizedRMSD -1
REMARK  0 active torsions:
REMARK  status: ('A' for Active; 'I' for Inactive)
ROOT
ATOM      1  C   UNL d   1      -0.027   2.187   0.266  0.00  0.00     0.077 C 
ATOM      2  C1  UNL d   1      -0.612   1.279  -0.775  0.00  0.00    -0.074 A 
ATOM      3  C2  UNL d   1       0.087   0.990  -1.951  0.00  0.00    -0.005 A 
ATOM      4  C3  UNL d   1      -0.465   0.136  -2.905  0.00  0.00     0.006 A 
ATOM      5  C4  UNL d   1      -1.720  -0.436  -2.694  0.00  0.00    -0.005 A 
ATOM      6  C5  UNL d   1      -2.434  -0.159  -1.523  0.00  0.00    -0.074 A 
ATOM      7  C6  UNL d   1      -3.780  -0.773  -1.276  0.00  0.00     0.077 C 
ATOM      8  C7  UNL d   1      -1.869   0.695  -0.566  0.00  0.00    -0.001 A 
ENDROOT
TORSDOF 0
ENDMDL
