MODEL 1
REMARK minimizedAffinity 4.1778903
REMARK minimizedRMSD -1
REMARK  0 active torsions:
REMARK  status: ('A' for Active; 'I' for Inactive)
ROOT
ATOM      1  C   UNL d   1      -0.660   1.763  -2.453  0.00  0.00     0.077 C 
ATOM      2  C1  UNL d   1      -2.060   2.283  -2.309  0.00  0.00    -0.074 A 
ATOM      3  C2  UNL d   1      -3.044   1.530  -1.661  0.00  0.00    -0.005 A 
ATOM      4  C3  UNL d   1      -4.338   2.030  -1.527  0.00  0.00     0.006 A 
ATOM      5  C4  UNL d   1      -4.662   3.288  -2.038  0.00  0.00    -0.005 A 
ATOM      6  C5  UNL d   1      -3.692   4.056  -2.689  0.00  0.00    -0.074 A 
ATOM      7  C6  UNL d   1      -4.020   5.413  -3.236  0.00  0.00     0.077 C 
ATOM      8  C7  UNL d   1      -2.391   3.549  -2.814  0.00  0.00    -0.001 A 
ENDROOT
TORSDOF 0
ENDMDL
