MODEL 1
REMARK minimizedAffinity 4.81159639
REMARK minimizedRMSD -1
REMARK  0 active torsions:
REMARK  status: ('A' for Active; 'I' for Inactive)
ROOT
ATOM      1  C   UNL d   1      -0.784   1.432  -1.438  0.00  0.00     0.077 C 
ATOM      2  C1  UNL d   1      -1.157   1.938  -0.077  0.00  0.00    -0.074 A 
ATOM      3  C2  UNL d   1      -0.830   1.213   1.074  0.00  0.00    -0.005 A 
ATOM      4  C3  UNL d   1      -1.176   1.700   2.334  0.00  0.00     0.006 A 
ATOM      5  C4  UNL d   1      -1.850   2.916   2.457  0.00  0.00    -0.005 A 
ATOM      6  C5  UNL d   1      -2.185   3.655   1.318  0.00  0.00    -0.074 A 
ATOM      7  C6  UNL d   1      -2.901   4.968   1.433  0.00  0.00     0.077 C 
ATOM      8  C7  UNL d   1      -1.828   3.162   0.055  0.00  0.00    -0.001 A 
ENDROOT
TORSDOF 0
ENDMDL
