MODEL 1
REMARK minimizedAffinity 10.4060535
REMARK minimizedRMSD -1
REMARK  0 active torsions:
REMARK  status: ('A' for Active; 'I' for Inactive)
ROOT
ATOM      1  C   UNL d   1      -1.561  -1.818  -0.952  0.00  0.00     0.077 C 
ATOM      2  C1  UNL d   1      -2.740  -1.036  -0.453  0.00  0.00    -0.074 A 
ATOM      3  C2  UNL d   1      -3.530  -0.288  -1.331  0.00  0.00    -0.005 A 
ATOM      4  C3  UNL d   1      -4.629   0.427  -0.854  0.00  0.00     0.006 A 
ATOM      5  C4  UNL d   1      -4.948   0.401   0.504  0.00  0.00    -0.005 A 
ATOM      6  C5  UNL d   1      -4.170  -0.343   1.397  0.00  0.00    -0.074 A 
ATOM      7  C6  UNL d   1      -4.505  -0.389   2.859  0.00  0.00     0.077 C 
ATOM      8  C7  UNL d   1      -3.072  -1.064   0.909  0.00  0.00    -0.001 A 
ENDROOT
TORSDOF 0
ENDMDL
