MODEL 1
REMARK minimizedAffinity 1.59784758
REMARK minimizedRMSD -1
REMARK  0 active torsions:
REMARK  status: ('A' for Active; 'I' for Inactive)
ROOT
ATOM      1  C   UNL d   1       4.851  -5.931  -4.077  0.00  0.00     0.077 C 
ATOM      2  C1  UNL d   1       4.939  -5.148  -2.801  0.00  0.00    -0.074 A 
ATOM      3  C2  UNL d   1       5.755  -5.578  -1.749  0.00  0.00    -0.005 A 
ATOM      4  C3  UNL d   1       5.834  -4.834  -0.571  0.00  0.00     0.006 A 
ATOM      5  C4  UNL d   1       5.100  -3.655  -0.434  0.00  0.00    -0.005 A 
ATOM      6  C5  UNL d   1       4.280  -3.210  -1.475  0.00  0.00    -0.074 A 
ATOM      7  C6  UNL d   1       3.492  -1.940  -1.348  0.00  0.00     0.077 C 
ATOM      8  C7  UNL d   1       4.211  -3.959  -2.658  0.00  0.00    -0.001 A 
ENDROOT
TORSDOF 0
ENDMDL
