MODEL 1
REMARK minimizedAffinity -3.50885487
REMARK minimizedRMSD -1
REMARK  0 active torsions:
REMARK  status: ('A' for Active; 'I' for Inactive)
ROOT
ATOM      1  C   UNL d   1      -5.609  -1.150   1.476  0.00  0.00     0.077 C 
ATOM      2  C1  UNL d   1      -5.404  -1.217   2.961  0.00  0.00    -0.074 A 
ATOM      3  C2  UNL d   1      -4.826  -2.343   3.556  0.00  0.00    -0.005 A 
ATOM      4  C3  UNL d   1      -4.633  -2.387   4.937  0.00  0.00     0.006 A 
ATOM      5  C4  UNL d   1      -5.014  -1.308   5.735  0.00  0.00    -0.005 A 
ATOM      6  C5  UNL d   1      -5.593  -0.173   5.157  0.00  0.00    -0.074 A 
ATOM      7  C6  UNL d   1      -5.999   1.000   5.999  0.00  0.00     0.077 C 
ATOM      8  C7  UNL d   1      -5.777  -0.134   3.768  0.00  0.00    -0.001 A 
ENDROOT
TORSDOF 0
ENDMDL
