MODEL 1
REMARK minimizedAffinity 6.41554785
REMARK minimizedRMSD -1
REMARK  0 active torsions:
REMARK  status: ('A' for Active; 'I' for Inactive)
ROOT
ATOM      1  C   UNL d   1      -0.275   0.110  -1.513  0.00  0.00     0.077 C 
ATOM      2  C1  UNL d   1       0.217   0.138  -0.097  0.00  0.00    -0.074 A 
ATOM      3  C2  UNL d   1       0.679  -1.025   0.527  0.00  0.00    -0.005 A 
ATOM      4  C3  UNL d   1       1.142  -0.982   1.842  0.00  0.00     0.006 A 
ATOM      5  C4  UNL d   1       1.148   0.224   2.545  0.00  0.00    -0.005 A 
ATOM      6  C5  UNL d   1       0.690   1.397   1.938  0.00  0.00    -0.074 A 
ATOM      7  C6  UNL d   1       0.699   2.703   2.677  0.00  0.00     0.077 C 
ATOM      8  C7  UNL d   1       0.233   1.347   0.614  0.00  0.00    -0.001 A 
ENDROOT
TORSDOF 0
ENDMDL
