MODEL 1
REMARK minimizedAffinity 7.52991533
REMARK minimizedRMSD -1
REMARK  0 active torsions:
REMARK  status: ('A' for Active; 'I' for Inactive)
ROOT
ATOM      1  C   UNL d   1       0.534   0.734   3.635  0.00  0.00     0.077 C 
ATOM      2  C1  UNL d   1       0.591   0.551   2.148  0.00  0.00    -0.074 A 
ATOM      3  C2  UNL d   1       1.733   0.029   1.531  0.00  0.00    -0.005 A 
ATOM      4  C3  UNL d   1       1.768  -0.144   0.148  0.00  0.00     0.006 A 
ATOM      5  C4  UNL d   1       0.663   0.201  -0.632  0.00  0.00    -0.005 A 
ATOM      6  C5  UNL d   1      -0.488   0.723  -0.033  0.00  0.00    -0.074 A 
ATOM      7  C6  UNL d   1      -1.687   1.090  -0.855  0.00  0.00     0.077 C 
ATOM      8  C7  UNL d   1      -0.517   0.888   1.359  0.00  0.00    -0.001 A 
ENDROOT
TORSDOF 0
ENDMDL
