MODEL 1
REMARK minimizedAffinity -3.94926071
REMARK minimizedRMSD -1
REMARK  1 active torsions:
REMARK  status: ('A' for Active; 'I' for Inactive)
REMARK    1  A    between atoms: C1_2  and  C2_3 
ROOT
ATOM      1  C2  UNL d   1      -0.587   0.279   0.309  0.00  0.00    -0.081 A 
ATOM      2  C3  UNL d   1       0.709   0.053  -0.171  0.00  0.00     0.006 A 
ATOM      3  C4  UNL d   1       1.396  -1.115   0.168  0.00  0.00     0.002 A 
ATOM      4  C5  UNL d   1       0.797  -2.079   0.985  0.00  0.00    -0.080 A 
ATOM      5  C6  UNL d   1       1.512  -3.351   1.332  0.00  0.00     0.076 C 
ATOM      6  C7  UNL d   1      -0.491  -1.846   1.479  0.00  0.00     0.002 A 
ATOM      7  C8  UNL d   1      -1.179  -0.678   1.141  0.00  0.00     0.006 A 
ENDROOT
BRANCH   1   8
ATOM      8  C1  UNL d   1      -1.355   1.507  -0.107  0.00  0.00     0.054 C 
ATOM      9  C   UNL d   1      -2.260   1.217  -1.296  0.00  0.00     0.018 C 
ENDBRANCH   1   8
TORSDOF 1
ENDMDL
