MODEL 1
REMARK minimizedAffinity -4.12656879
REMARK minimizedRMSD -1
REMARK  1 active torsions:
REMARK  status: ('A' for Active; 'I' for Inactive)
REMARK    1  A    between atoms: C1_2  and  C2_3 
ROOT
ATOM      1  C2  UNL d   1      -0.745   0.576  -0.426  0.00  0.00    -0.081 A 
ATOM      2  C3  UNL d   1       0.568   0.448  -0.896  0.00  0.00     0.006 A 
ATOM      3  C4  UNL d   1       1.400  -0.560  -0.406  0.00  0.00     0.002 A 
ATOM      4  C5  UNL d   1       0.932  -1.462   0.556  0.00  0.00    -0.080 A 
ATOM      5  C6  UNL d   1       1.806  -2.568   1.069  0.00  0.00     0.076 C 
ATOM      6  C7  UNL d   1      -0.373  -1.323   1.039  0.00  0.00     0.002 A 
ATOM      7  C8  UNL d   1      -1.206  -0.314   0.550  0.00  0.00     0.006 A 
ENDROOT
BRANCH   1   8
ATOM      8  C1  UNL d   1      -1.666   1.623  -1.000  0.00  0.00     0.054 C 
ATOM      9  C   UNL d   1      -2.063   1.286  -2.430  0.00  0.00     0.018 C 
ENDBRANCH   1   8
TORSDOF 1
ENDMDL
