MODEL 1
REMARK minimizedAffinity -3.23913836
REMARK minimizedRMSD -1
REMARK  1 active torsions:
REMARK  status: ('A' for Active; 'I' for Inactive)
REMARK    1  A    between atoms: C1_2  and  C2_3 
ROOT
ATOM      1  C2  UNL d   1      -0.170   1.027  -0.368  0.00  0.00    -0.081 A 
ATOM      2  C3  UNL d   1       1.126   0.616  -0.702  0.00  0.00     0.006 A 
ATOM      3  C4  UNL d   1       1.645  -0.576  -0.191  0.00  0.00     0.002 A 
ATOM      4  C5  UNL d   1       0.874  -1.381   0.654  0.00  0.00    -0.080 A 
ATOM      5  C6  UNL d   1       1.408  -2.679   1.184  0.00  0.00     0.076 C 
ATOM      6  C7  UNL d   1      -0.415  -0.962   1.002  0.00  0.00     0.002 A 
ATOM      7  C8  UNL d   1      -0.934   0.230   0.492  0.00  0.00     0.006 A 
ENDROOT
BRANCH   1   8
ATOM      8  C1  UNL d   1      -0.756   2.279  -0.968  0.00  0.00     0.054 C 
ATOM      9  C   UNL d   1      -1.399   1.998  -2.318  0.00  0.00     0.018 C 
ENDBRANCH   1   8
TORSDOF 1
ENDMDL
