MODEL 1
REMARK minimizedAffinity -4.04368305
REMARK minimizedRMSD -1
REMARK  1 active torsions:
REMARK  status: ('A' for Active; 'I' for Inactive)
REMARK    1  A    between atoms: C1_2  and  C2_3 
ROOT
ATOM      1  C2  UNL d   1      -0.127   0.623  -0.296  0.00  0.00    -0.081 A 
ATOM      2  C3  UNL d   1       1.119   0.211  -0.785  0.00  0.00     0.006 A 
ATOM      3  C4  UNL d   1       1.736  -0.934  -0.275  0.00  0.00     0.002 A 
ATOM      4  C5  UNL d   1       1.113  -1.691   0.724  0.00  0.00    -0.080 A 
ATOM      5  C6  UNL d   1       1.750  -2.939   1.257  0.00  0.00     0.076 C 
ATOM      6  C7  UNL d   1      -0.123  -1.269   1.223  0.00  0.00     0.002 A 
ATOM      7  C8  UNL d   1      -0.740  -0.124   0.715  0.00  0.00     0.006 A 
ENDROOT
BRANCH   1   8
ATOM      8  C1  UNL d   1      -0.823   1.822  -0.889  0.00  0.00     0.054 C 
ATOM      9  C   UNL d   1      -1.752   1.416  -2.025  0.00  0.00     0.018 C 
ENDBRANCH   1   8
TORSDOF 1
ENDMDL
