MODEL 1
REMARK minimizedAffinity -5.22139263
REMARK minimizedRMSD -1
REMARK  1 active torsions:
REMARK  status: ('A' for Active; 'I' for Inactive)
REMARK    1  A    between atoms: C1_2  and  C2_3 
ROOT
ATOM      1  C2  UNL d   1       0.441   1.482   0.141  0.00  0.00    -0.081 A 
ATOM      2  C3  UNL d   1      -0.637   0.678   0.531  0.00  0.00     0.006 A 
ATOM      3  C4  UNL d   1      -0.456  -0.688   0.758  0.00  0.00     0.002 A 
ATOM      4  C5  UNL d   1       0.806  -1.272   0.606  0.00  0.00    -0.080 A 
ATOM      5  C6  UNL d   1       1.020  -2.732   0.875  0.00  0.00     0.076 C 
ATOM      6  C7  UNL d   1       1.880  -0.472   0.200  0.00  0.00     0.002 A 
ATOM      7  C8  UNL d   1       1.699   0.894  -0.028  0.00  0.00     0.006 A 
ENDROOT
BRANCH   1   8
ATOM      8  C1  UNL d   1       0.263   2.968  -0.041  0.00  0.00     0.054 C 
ATOM      9  C   UNL d   1       1.512   3.730   0.377  0.00  0.00     0.018 C 
ENDBRANCH   1   8
TORSDOF 1
ENDMDL
