MODEL 1
REMARK minimizedAffinity -0.993778408
REMARK minimizedRMSD -1
REMARK  1 active torsions:
REMARK  status: ('A' for Active; 'I' for Inactive)
REMARK    1  A    between atoms: C1_2  and  C2_3 
ROOT
ATOM      1  C2  UNL d   1      -0.661   0.026  -0.231  0.00  0.00    -0.081 A 
ATOM      2  C3  UNL d   1       0.704  -0.053  -0.530  0.00  0.00     0.006 A 
ATOM      3  C4  UNL d   1       1.475  -1.112  -0.043  0.00  0.00     0.002 A 
ATOM      4  C5  UNL d   1       0.892  -2.112   0.743  0.00  0.00    -0.080 A 
ATOM      5  C6  UNL d   1       1.702  -3.269   1.246  0.00  0.00     0.076 C 
ATOM      6  C7  UNL d   1      -0.468  -2.023   1.055  0.00  0.00     0.002 A 
ATOM      7  C8  UNL d   1      -1.239  -0.964   0.570  0.00  0.00     0.006 A 
ENDROOT
BRANCH   1   8
ATOM      8  C1  UNL d   1      -1.509   1.132  -0.808  0.00  0.00     0.054 C 
ATOM      9  C   UNL d   1      -1.987   0.787  -2.212  0.00  0.00     0.018 C 
ENDBRANCH   1   8
TORSDOF 1
ENDMDL
