MODEL 1
REMARK minimizedAffinity -3.91726255
REMARK minimizedRMSD -1
REMARK  1 active torsions:
REMARK  status: ('A' for Active; 'I' for Inactive)
REMARK    1  A    between atoms: C1_2  and  C2_3 
ROOT
ATOM      1  C2  UNL d   1      -0.044   0.329  -0.126  0.00  0.00    -0.081 A 
ATOM      2  C3  UNL d   1       1.223  -0.235  -0.318  0.00  0.00     0.006 A 
ATOM      3  C4  UNL d   1       1.571  -1.428   0.320  0.00  0.00     0.002 A 
ATOM      4  C5  UNL d   1       0.657  -2.080   1.155  0.00  0.00    -0.080 A 
ATOM      5  C6  UNL d   1       1.008  -3.376   1.822  0.00  0.00     0.076 C 
ATOM      6  C7  UNL d   1      -0.602  -1.507   1.361  0.00  0.00     0.002 A 
ATOM      7  C8  UNL d   1      -0.951  -0.314   0.724  0.00  0.00     0.006 A 
ENDROOT
BRANCH   1   8
ATOM      8  C1  UNL d   1      -0.446   1.581  -0.863  0.00  0.00     0.054 C 
ATOM      9  C   UNL d   1      -1.497   1.284  -1.924  0.00  0.00     0.018 C 
ENDBRANCH   1   8
TORSDOF 1
ENDMDL
