MODEL 1
REMARK minimizedAffinity -1.33472061
REMARK minimizedRMSD -1
REMARK  1 active torsions:
REMARK  status: ('A' for Active; 'I' for Inactive)
REMARK    1  A    between atoms: C1_2  and  C2_3 
ROOT
ATOM      1  C2  UNL d   1       1.062   2.582  -0.241  0.00  0.00    -0.081 A 
ATOM      2  C3  UNL d   1       0.607   1.265  -0.100  0.00  0.00     0.006 A 
ATOM      3  C4  UNL d   1      -0.472   0.804  -0.858  0.00  0.00     0.002 A 
ATOM      4  C5  UNL d   1      -1.109   1.648  -1.774  0.00  0.00    -0.080 A 
ATOM      5  C6  UNL d   1      -2.250   1.156  -2.615  0.00  0.00     0.076 C 
ATOM      6  C7  UNL d   1      -0.666   2.969  -1.902  0.00  0.00     0.002 A 
ATOM      7  C8  UNL d   1       0.412   3.431  -1.144  0.00  0.00     0.006 A 
ENDROOT
BRANCH   1   8
ATOM      8  C1  UNL d   1       2.266   3.063   0.527  0.00  0.00     0.054 C 
ATOM      9  C   UNL d   1       1.922   4.261   1.401  0.00  0.00     0.018 C 
ENDBRANCH   1   8
TORSDOF 1
ENDMDL
