MODEL 1
REMARK minimizedAffinity -1.516348
REMARK minimizedRMSD -1
REMARK  1 active torsions:
REMARK  status: ('A' for Active; 'I' for Inactive)
REMARK    1  A    between atoms: C1_2  and  C2_3 
ROOT
ATOM      1  C2  UNL d   1       0.908   1.117   0.411  0.00  0.00    -0.081 A 
ATOM      2  C3  UNL d   1      -0.329   0.496   0.620  0.00  0.00     0.006 A 
ATOM      3  C4  UNL d   1      -0.406  -0.887   0.797  0.00  0.00     0.002 A 
ATOM      4  C5  UNL d   1       0.752  -1.671   0.777  0.00  0.00    -0.080 A 
ATOM      5  C6  UNL d   1       0.686  -3.153   0.996  0.00  0.00     0.076 C 
ATOM      6  C7  UNL d   1       1.987  -1.053   0.551  0.00  0.00     0.002 A 
ATOM      7  C8  UNL d   1       2.064   0.330   0.373  0.00  0.00     0.006 A 
ENDROOT
BRANCH   1   8
ATOM      8  C1  UNL d   1       1.002   2.616   0.284  0.00  0.00     0.054 C 
ATOM      9  C   UNL d   1       2.398   3.115   0.631  0.00  0.00     0.018 C 
ENDBRANCH   1   8
TORSDOF 1
ENDMDL
