MODEL 1
REMARK minimizedAffinity -4.83116865
REMARK minimizedRMSD -1
REMARK  1 active torsions:
REMARK  status: ('A' for Active; 'I' for Inactive)
REMARK    1  A    between atoms: C1_2  and  C2_3 
ROOT
ATOM      1  C2  UNL d   1       1.411   2.327  -0.211  0.00  0.00    -0.081 A 
ATOM      2  C3  UNL d   1       0.056   1.971  -0.210  0.00  0.00     0.006 A 
ATOM      3  C4  UNL d   1      -0.323   0.630  -0.307  0.00  0.00     0.002 A 
ATOM      4  C5  UNL d   1       0.644  -0.376  -0.398  0.00  0.00    -0.080 A 
ATOM      5  C6  UNL d   1       0.250  -1.822  -0.472  0.00  0.00     0.076 C 
ATOM      6  C7  UNL d   1       1.996  -0.019  -0.416  0.00  0.00     0.002 A 
ATOM      7  C8  UNL d   1       2.377   1.321  -0.320  0.00  0.00     0.006 A 
ENDROOT
BRANCH   1   8
ATOM      8  C1  UNL d   1       1.825   3.767  -0.042  0.00  0.00     0.054 C 
ATOM      9  C   UNL d   1       3.284   3.877   0.378  0.00  0.00     0.018 C 
ENDBRANCH   1   8
TORSDOF 1
ENDMDL
