MODEL 1
REMARK minimizedAffinity -2.99431562
REMARK minimizedRMSD -1
REMARK  1 active torsions:
REMARK  status: ('A' for Active; 'I' for Inactive)
REMARK    1  A    between atoms: C1_2  and  C2_3 
ROOT
ATOM      1  C2  UNL d   1      -0.431   0.549   0.375  0.00  0.00    -0.076 A 
ATOM      2  C3  UNL d   1      -1.548   1.292  -0.043  0.00  0.00     0.004 A 
ATOM      3  C4  UNL d   1      -1.918   2.464   0.615  0.00  0.00    -0.003 A 
ATOM      4  C5  UNL d   1      -1.175   2.912   1.702  0.00  0.00     0.000 A 
ATOM      5  C6  UNL d   1      -0.053   2.196   2.120  0.00  0.00     0.000 A 
ATOM      6  C7  UNL d   1       0.342   1.022   1.457  0.00  0.00    -0.073 A 
ATOM      7  C8  UNL d   1       1.557   0.287   1.954  0.00  0.00     0.078 C 
ENDROOT
BRANCH   1   8
ATOM      8  C1  UNL d   1      -0.095  -0.729  -0.360  0.00  0.00     0.053 C 
ATOM      9  C   UNL d   1       1.340  -0.751  -0.864  0.00  0.00     0.018 C 
ENDBRANCH   1   8
TORSDOF 1
ENDMDL
