MODEL 1
REMARK minimizedAffinity -1.6461947
REMARK minimizedRMSD -1
REMARK  1 active torsions:
REMARK  status: ('A' for Active; 'I' for Inactive)
REMARK    1  A    between atoms: C1_2  and  C2_3 
ROOT
ATOM      1  C2  UNL d   1       0.253   0.024  -0.148  0.00  0.00    -0.076 A 
ATOM      2  C3  UNL d   1       0.597  -0.538   1.094  0.00  0.00     0.004 A 
ATOM      3  C4  UNL d   1       0.348   0.144   2.284  0.00  0.00    -0.003 A 
ATOM      4  C5  UNL d   1      -0.249   1.400   2.251  0.00  0.00     0.000 A 
ATOM      5  C6  UNL d   1      -0.612   1.965   1.029  0.00  0.00     0.000 A 
ATOM      6  C7  UNL d   1      -0.383   1.283  -0.179  0.00  0.00    -0.073 A 
ATOM      7  C8  UNL d   1      -0.790   1.942  -1.468  0.00  0.00     0.078 C 
ENDROOT
BRANCH   1   8
ATOM      8  C1  UNL d   1       0.572  -0.751  -1.406  0.00  0.00     0.053 C 
ATOM      9  C   UNL d   1       0.575  -2.255  -1.179  0.00  0.00     0.018 C 
ENDBRANCH   1   8
TORSDOF 1
ENDMDL
