MODEL 1
REMARK minimizedAffinity -3.15636683
REMARK minimizedRMSD -1
REMARK  1 active torsions:
REMARK  status: ('A' for Active; 'I' for Inactive)
REMARK    1  A    between atoms: C1_2  and  C2_3 
ROOT
ATOM      1  C2  UNL d   1      -0.053   0.154  -0.204  0.00  0.00    -0.076 A 
ATOM      2  C3  UNL d   1      -1.098   0.967  -0.677  0.00  0.00     0.004 A 
ATOM      3  C4  UNL d   1      -1.656   1.959   0.129  0.00  0.00    -0.003 A 
ATOM      4  C5  UNL d   1      -1.178   2.153   1.420  0.00  0.00     0.000 A 
ATOM      5  C6  UNL d   1      -0.130   1.368   1.899  0.00  0.00     0.000 A 
ATOM      6  C7  UNL d   1       0.454   0.375   1.094  0.00  0.00    -0.073 A 
ATOM      7  C8  UNL d   1       1.578  -0.447   1.664  0.00  0.00     0.078 C 
ENDROOT
BRANCH   1   8
ATOM      8  C1  UNL d   1       0.494  -0.923  -1.113  0.00  0.00     0.053 C 
ATOM      9  C   UNL d   1      -0.554  -1.960  -1.485  0.00  0.00     0.018 C 
ENDBRANCH   1   8
TORSDOF 1
ENDMDL
