MODEL 1
REMARK minimizedAffinity -5.98278379
REMARK minimizedRMSD -1
REMARK  1 active torsions:
REMARK  status: ('A' for Active; 'I' for Inactive)
REMARK    1  A    between atoms: C1_2  and  C2_3 
ROOT
ATOM      1  C2  UNL d   1      -0.633   1.132   0.437  0.00  0.00    -0.076 A 
ATOM      2  C3  UNL d   1       0.157   0.226   1.166  0.00  0.00     0.004 A 
ATOM      3  C4  UNL d   1       1.069  -0.610   0.523  0.00  0.00    -0.003 A 
ATOM      4  C5  UNL d   1       1.205  -0.553  -0.860  0.00  0.00     0.000 A 
ATOM      5  C6  UNL d   1       0.442   0.352  -1.597  0.00  0.00     0.000 A 
ATOM      6  C7  UNL d   1      -0.470   1.213  -0.962  0.00  0.00    -0.073 A 
ATOM      7  C8  UNL d   1      -1.272   2.165  -1.807  0.00  0.00     0.078 C 
ENDROOT
BRANCH   1   8
ATOM      8  C1  UNL d   1      -1.624   1.994   1.186  0.00  0.00     0.053 C 
ATOM      9  C   UNL d   1      -0.962   2.843   2.261  0.00  0.00     0.018 C 
ENDBRANCH   1   8
TORSDOF 1
ENDMDL
