MODEL 1
REMARK minimizedAffinity -4.42398024
REMARK minimizedRMSD -1
REMARK  1 active torsions:
REMARK  status: ('A' for Active; 'I' for Inactive)
REMARK    1  A    between atoms: C1_2  and  C2_3 
ROOT
ATOM      1  C2  UNL d   1       0.240   0.328  -0.257  0.00  0.00    -0.076 A 
ATOM      2  C3  UNL d   1       0.262   0.126   1.134  0.00  0.00     0.004 A 
ATOM      3  C4  UNL d   1      -0.047   1.162   2.014  0.00  0.00    -0.003 A 
ATOM      4  C5  UNL d   1      -0.384   2.416   1.517  0.00  0.00     0.000 A 
ATOM      5  C6  UNL d   1      -0.428   2.630   0.140  0.00  0.00     0.000 A 
ATOM      6  C7  UNL d   1      -0.135   1.592  -0.761  0.00  0.00    -0.073 A 
ATOM      7  C8  UNL d   1      -0.192   1.880  -2.237  0.00  0.00     0.078 C 
ENDROOT
BRANCH   1   8
ATOM      8  C1  UNL d   1       0.611  -0.825  -1.162  0.00  0.00     0.053 C 
ATOM      9  C   UNL d   1      -0.253  -2.054  -0.924  0.00  0.00     0.018 C 
ENDBRANCH   1   8
TORSDOF 1
ENDMDL
