MODEL 1
REMARK minimizedAffinity -3.56813741
REMARK minimizedRMSD -1
REMARK  1 active torsions:
REMARK  status: ('A' for Active; 'I' for Inactive)
REMARK    1  A    between atoms: C1_2  and  C2_3 
ROOT
ATOM      1  C2  UNL d   1      -0.442   0.948   0.570  0.00  0.00    -0.076 A 
ATOM      2  C3  UNL d   1       0.219  -0.003   1.367  0.00  0.00     0.004 A 
ATOM      3  C4  UNL d   1       0.797  -1.138   0.800  0.00  0.00    -0.003 A 
ATOM      4  C5  UNL d   1       0.724  -1.339  -0.574  0.00  0.00     0.000 A 
ATOM      5  C6  UNL d   1       0.088  -0.397  -1.382  0.00  0.00     0.000 A 
ATOM      6  C7  UNL d   1      -0.486   0.760  -0.828  0.00  0.00    -0.073 A 
ATOM      7  C8  UNL d   1      -1.165   1.739  -1.745  0.00  0.00     0.078 C 
ENDROOT
BRANCH   1   8
ATOM      8  C1  UNL d   1      -1.073   2.145   1.245  0.00  0.00     0.053 C 
ATOM      9  C   UNL d   1      -0.062   2.979   2.017  0.00  0.00     0.018 C 
ENDBRANCH   1   8
TORSDOF 1
ENDMDL
