MODEL 1
REMARK minimizedAffinity -2.75748634
REMARK minimizedRMSD -1
REMARK  1 active torsions:
REMARK  status: ('A' for Active; 'I' for Inactive)
REMARK    1  A    between atoms: C1_2  and  C2_3 
ROOT
ATOM      1  C2  UNL d   1       0.312  -1.696  -0.503  0.00  0.00    -0.076 A 
ATOM      2  C3  UNL d   1       0.041  -2.947   0.077  0.00  0.00     0.004 A 
ATOM      3  C4  UNL d   1      -0.181  -4.072  -0.716  0.00  0.00    -0.003 A 
ATOM      4  C5  UNL d   1      -0.136  -3.964  -2.101  0.00  0.00     0.000 A 
ATOM      5  C6  UNL d   1       0.149  -2.734  -2.693  0.00  0.00     0.000 A 
ATOM      6  C7  UNL d   1       0.392  -1.593  -1.908  0.00  0.00    -0.073 A 
ATOM      7  C8  UNL d   1       0.688  -0.291  -2.600  0.00  0.00     0.078 C 
ENDROOT
BRANCH   1   8
ATOM      8  C1  UNL d   1       0.518  -0.505   0.406  0.00  0.00     0.053 C 
ATOM      9  C   UNL d   1      -0.609   0.511   0.301  0.00  0.00     0.018 C 
ENDBRANCH   1   8
TORSDOF 1
ENDMDL
