MODEL 1
REMARK minimizedAffinity -5.37952518
REMARK minimizedRMSD -1
REMARK  1 active torsions:
REMARK  status: ('A' for Active; 'I' for Inactive)
REMARK    1  A    between atoms: C1_2  and  C2_3 
ROOT
ATOM      1  C2  UNL d   1      -0.292   1.217  -0.145  0.00  0.00    -0.076 A 
ATOM      2  C3  UNL d   1      -0.420   0.988   1.236  0.00  0.00     0.004 A 
ATOM      3  C4  UNL d   1      -0.944   1.965   2.080  0.00  0.00    -0.003 A 
ATOM      4  C5  UNL d   1      -1.349   3.188   1.557  0.00  0.00     0.000 A 
ATOM      5  C6  UNL d   1      -1.246   3.426   0.187  0.00  0.00     0.000 A 
ATOM      6  C7  UNL d   1      -0.735   2.446  -0.680  0.00  0.00    -0.073 A 
ATOM      7  C8  UNL d   1      -0.640   2.759  -2.148  0.00  0.00     0.078 C 
ENDROOT
BRANCH   1   8
ATOM      8  C1  UNL d   1       0.309   0.130  -1.007  0.00  0.00     0.053 C 
ATOM      9  C   UNL d   1       0.917  -0.996  -0.185  0.00  0.00     0.018 C 
ENDBRANCH   1   8
TORSDOF 1
ENDMDL
