MODEL 1
REMARK minimizedAffinity 16.5427017
REMARK minimizedRMSD -1
REMARK  0 active torsions:
REMARK  status: ('A' for Active; 'I' for Inactive)
ROOT
ATOM      1  C   UNL d   1      -1.993   1.458  -0.062  0.00  0.00     0.020 A 
ATOM      2  C1  UNL d   1      -1.733   2.011  -1.315  0.00  0.00     0.020 A 
ATOM      3  C2  UNL d   1      -0.834   3.073  -1.437  0.00  0.00     0.034 A 
ATOM      4  C3  UNL d   1      -0.192   3.585  -0.304  0.00  0.00     0.017 A 
ATOM      5  C4  UNL d   1      -0.454   3.029   0.954  0.00  0.00     0.017 A 
ATOM      6  C5  UNL d   1      -1.354   1.966   1.070  0.00  0.00     0.034 A 
ATOM      7 Cl   UNL d   1       0.300   3.608   2.397  0.00  0.00    -0.070 Cl
ATOM      8 Cl1  UNL d   1       0.907   4.899  -0.528  0.00  0.00    -0.070 Cl
ENDROOT
TORSDOF 0
ENDMDL
