MODEL 1
REMARK minimizedAffinity -1.01191652
REMARK minimizedRMSD -1
REMARK  0 active torsions:
REMARK  status: ('A' for Active; 'I' for Inactive)
ROOT
ATOM      1  C   UNL d   1       2.848  -3.378   6.000  0.00  0.00     0.020 A 
ATOM      2  C1  UNL d   1       1.513  -3.007   5.840  0.00  0.00     0.020 A 
ATOM      3  C2  UNL d   1       1.084  -2.448   4.634  0.00  0.00     0.034 A 
ATOM      4  C3  UNL d   1       1.990  -2.256   3.585  0.00  0.00     0.017 A 
ATOM      5  C4  UNL d   1       3.330  -2.629   3.747  0.00  0.00     0.017 A 
ATOM      6  C5  UNL d   1       3.754  -3.189   4.956  0.00  0.00     0.034 A 
ATOM      7 Cl   UNL d   1       4.506  -2.424   2.498  0.00  0.00    -0.070 Cl
ATOM      8 Cl1  UNL d   1       1.390  -1.559   2.122  0.00  0.00    -0.070 Cl
ENDROOT
TORSDOF 0
ENDMDL
