MODEL 1
REMARK minimizedAffinity -1.68754101
REMARK minimizedRMSD -1
REMARK  0 active torsions:
REMARK  status: ('A' for Active; 'I' for Inactive)
ROOT
ATOM      1  C   UNL d   1       1.168  -2.105   1.824  0.00  0.00     0.020 A 
ATOM      2  C1  UNL d   1       0.546  -2.047   3.070  0.00  0.00     0.020 A 
ATOM      3  C2  UNL d   1       0.348  -3.218   3.806  0.00  0.00     0.034 A 
ATOM      4  C3  UNL d   1       0.772  -4.450   3.296  0.00  0.00     0.017 A 
ATOM      5  C4  UNL d   1       1.396  -4.507   2.045  0.00  0.00     0.017 A 
ATOM      6  C5  UNL d   1       1.592  -3.332   1.312  0.00  0.00     0.034 A 
ATOM      7 Cl   UNL d   1       1.946  -5.990   1.349  0.00  0.00    -0.070 Cl
ATOM      8 Cl1  UNL d   1       0.495  -5.857   4.260  0.00  0.00    -0.070 Cl
ENDROOT
TORSDOF 0
ENDMDL
