MODEL 1
REMARK minimizedAffinity 12.4402704
REMARK minimizedRMSD -1
REMARK  0 active torsions:
REMARK  status: ('A' for Active; 'I' for Inactive)
ROOT
ATOM      1  C   UNL d   1       2.270   2.063   2.454  0.00  0.00     0.020 A 
ATOM      2  C1  UNL d   1       2.829   2.291   1.197  0.00  0.00     0.020 A 
ATOM      3  C2  UNL d   1       2.850   1.268   0.246  0.00  0.00     0.034 A 
ATOM      4  C3  UNL d   1       2.310   0.013   0.551  0.00  0.00     0.017 A 
ATOM      5  C4  UNL d   1       1.749  -0.215   1.813  0.00  0.00     0.017 A 
ATOM      6  C5  UNL d   1       1.731   0.813   2.761  0.00  0.00     0.034 A 
ATOM      7 Cl   UNL d   1       1.064  -1.737   2.262  0.00  0.00    -0.070 Cl
ATOM      8 Cl1  UNL d   1       2.369  -1.206  -0.673  0.00  0.00    -0.070 Cl
ENDROOT
TORSDOF 0
ENDMDL
