MODEL 1
REMARK minimizedAffinity 7.8191185
REMARK minimizedRMSD -1
REMARK  0 active torsions:
REMARK  status: ('A' for Active; 'I' for Inactive)
ROOT
ATOM      1  C   UNL d   1       5.700   5.887  -1.835  0.00  0.00     0.020 A 
ATOM      2  C1  UNL d   1       5.999   5.968  -3.195  0.00  0.00     0.020 A 
ATOM      3  C2  UNL d   1       4.968   5.999  -4.136  0.00  0.00     0.034 A 
ATOM      4  C3  UNL d   1       3.633   5.950  -3.719  0.00  0.00     0.017 A 
ATOM      5  C4  UNL d   1       3.334   5.869  -2.354  0.00  0.00     0.017 A 
ATOM      6  C5  UNL d   1       4.370   5.838  -1.416  0.00  0.00     0.034 A 
ATOM      7 Cl   UNL d   1       1.711   5.805  -1.764  0.00  0.00    -0.070 Cl
ATOM      8 Cl1  UNL d   1       2.409   5.994  -4.938  0.00  0.00    -0.070 Cl
ENDROOT
TORSDOF 0
ENDMDL
