MODEL 1
REMARK minimizedAffinity 15.409812
REMARK minimizedRMSD -1
REMARK  0 active torsions:
REMARK  status: ('A' for Active; 'I' for Inactive)
ROOT
ATOM      1  C   UNL d   1       0.781  -2.268   3.280  0.00  0.00     0.020 A 
ATOM      2  C1  UNL d   1       1.602  -1.904   2.214  0.00  0.00     0.020 A 
ATOM      3  C2  UNL d   1       2.967  -2.193   2.253  0.00  0.00     0.034 A 
ATOM      4  C3  UNL d   1       3.516  -2.848   3.361  0.00  0.00     0.017 A 
ATOM      5  C4  UNL d   1       2.691  -3.213   4.432  0.00  0.00     0.017 A 
ATOM      6  C5  UNL d   1       1.325  -2.921   4.387  0.00  0.00     0.034 A 
ATOM      7 Cl   UNL d   1       3.296  -4.024   5.833  0.00  0.00    -0.070 Cl
ATOM      8 Cl1  UNL d   1       5.213  -3.175   3.343  0.00  0.00    -0.070 Cl
ENDROOT
TORSDOF 0
ENDMDL
