MODEL 1
REMARK minimizedAffinity 9.04634476
REMARK minimizedRMSD -1
REMARK  0 active torsions:
REMARK  status: ('A' for Active; 'I' for Inactive)
ROOT
ATOM      1  C   UNL d   1      -5.324  -5.702  -5.970  0.00  0.00     0.020 A 
ATOM      2  C1  UNL d   1      -5.957  -4.459  -5.997  0.00  0.00     0.020 A 
ATOM      3  C2  UNL d   1      -5.609  -3.478  -5.067  0.00  0.00     0.034 A 
ATOM      4  C3  UNL d   1      -4.626  -3.737  -4.105  0.00  0.00     0.017 A 
ATOM      5  C4  UNL d   1      -3.991  -4.985  -4.078  0.00  0.00     0.017 A 
ATOM      6  C5  UNL d   1      -4.344  -5.964  -5.013  0.00  0.00     0.034 A 
ATOM      7 Cl   UNL d   1      -2.769  -5.378  -2.922  0.00  0.00    -0.070 Cl
ATOM      8 Cl1  UNL d   1      -4.245  -2.478  -2.985  0.00  0.00    -0.070 Cl
ENDROOT
TORSDOF 0
ENDMDL
