MODEL 1
REMARK minimizedAffinity -3.7871232
REMARK minimizedRMSD -1
REMARK  1 active torsions:
REMARK  status: ('A' for Active; 'I' for Inactive)
REMARK    1  A    between atoms: N_2  and  C1_3 
ROOT
ATOM      1  C1  UNL d   1       2.145  -2.905   2.516  0.00  0.00     0.143 A 
ATOM      2  C2  UNL d   1       1.151  -2.296   3.290  0.00  0.00    -0.057 A 
ATOM      3  C3  UNL d   1       0.370  -1.252   2.780  0.00  0.00     0.033 A 
ATOM      4  C4  UNL d   1       0.590  -0.777   1.491  0.00  0.00    -0.042 A 
ATOM      5  C5  UNL d   1       1.589  -1.350   0.712  0.00  0.00     0.033 A 
ATOM      6  C6  UNL d   1       2.361  -2.397   1.225  0.00  0.00    -0.057 A 
ENDROOT
BRANCH   1   7
ATOM      7  N   UNL d   1       3.020  -3.880   3.000  0.00  0.00    -0.732 N 
ATOM      8  C   UNL d   1       3.593  -3.765   4.324  0.00  0.00     0.284 C 
ATOM      9  H3  UNL d   1       2.724  -4.823   2.755  0.00  0.00     0.395 HD
ENDBRANCH   1   7
TORSDOF 1
ENDMDL
