MODEL 1
REMARK minimizedAffinity 12.4584618
REMARK minimizedRMSD -1
REMARK  1 active torsions:
REMARK  status: ('A' for Active; 'I' for Inactive)
REMARK    1  A    between atoms: N_2  and  C1_3 
ROOT
ATOM      1  C1  UNL d   1       4.816  -3.929   4.127  0.00  0.00     0.143 A 
ATOM      2  C2  UNL d   1       5.320  -3.243   3.017  0.00  0.00    -0.057 A 
ATOM      3  C3  UNL d   1       5.453  -3.871   1.773  0.00  0.00     0.033 A 
ATOM      4  C4  UNL d   1       5.108  -5.211   1.624  0.00  0.00    -0.042 A 
ATOM      5  C5  UNL d   1       4.628  -5.919   2.719  0.00  0.00     0.033 A 
ATOM      6  C6  UNL d   1       4.492  -5.284   3.957  0.00  0.00    -0.057 A 
ENDROOT
BRANCH   1   7
ATOM      7  N   UNL d   1       4.753  -3.388   5.413  0.00  0.00    -0.732 N 
ATOM      8  C   UNL d   1       5.822  -2.551   5.914  0.00  0.00     0.284 C 
ATOM      9  H3  UNL d   1       3.820  -3.057   5.650  0.00  0.00     0.395 HD
ENDBRANCH   1   7
TORSDOF 1
ENDMDL
