MODEL 1
REMARK minimizedAffinity -0.501008809
REMARK minimizedRMSD -1
REMARK  1 active torsions:
REMARK  status: ('A' for Active; 'I' for Inactive)
REMARK    1  A    between atoms: N_2  and  C1_3 
ROOT
ATOM      1  C1  UNL d   1       1.110  -2.910   1.881  0.00  0.00     0.143 A 
ATOM      2  C2  UNL d   1       1.038  -1.949   0.867  0.00  0.00    -0.057 A 
ATOM      3  C3  UNL d   1       0.155  -0.866   0.953  0.00  0.00     0.033 A 
ATOM      4  C4  UNL d   1      -0.696  -0.741   2.047  0.00  0.00    -0.042 A 
ATOM      5  C5  UNL d   1      -0.660  -1.698   3.055  0.00  0.00     0.033 A 
ATOM      6  C6  UNL d   1       0.230  -2.773   2.966  0.00  0.00    -0.057 A 
ENDROOT
BRANCH   1   7
ATOM      7  N   UNL d   1       1.897  -4.062   1.807  0.00  0.00    -0.732 N 
ATOM      8  C   UNL d   1       2.929  -4.186   0.800  0.00  0.00     0.284 C 
ATOM      9  H3  UNL d   1       2.169  -4.406   2.725  0.00  0.00     0.395 HD
ENDBRANCH   1   7
TORSDOF 1
ENDMDL
