MODEL 1
REMARK minimizedAffinity 7.37385178
REMARK minimizedRMSD -1
REMARK  1 active torsions:
REMARK  status: ('A' for Active; 'I' for Inactive)
REMARK    1  A    between atoms: C1_2  and  C2_3 
ROOT
ATOM      1  C2  UNL d   1      -3.589   2.251  -1.345  0.00  0.00    -0.076 A 
ATOM      2  C3  UNL d   1      -4.894   2.134  -0.835  0.00  0.00     0.004 A 
ATOM      3  C4  UNL d   1      -5.127   1.576   0.420  0.00  0.00    -0.003 A 
ATOM      4  C5  UNL d   1      -4.058   1.127   1.188  0.00  0.00     0.000 A 
ATOM      5  C6  UNL d   1      -2.755   1.252   0.706  0.00  0.00     0.000 A 
ATOM      6  C7  UNL d   1      -2.502   1.827  -0.551  0.00  0.00    -0.073 A 
ATOM      7  C8  UNL d   1      -1.078   1.931  -1.024  0.00  0.00     0.078 C 
ENDROOT
BRANCH   1   8
ATOM      8  C1  UNL d   1      -3.400   2.840  -2.725  0.00  0.00     0.053 C 
ATOM      9  C   UNL d   1      -3.664   1.829  -3.830  0.00  0.00     0.018 C 
ENDBRANCH   1   8
TORSDOF 1
ENDMDL
