MODEL 1
REMARK minimizedAffinity -0.555641174
REMARK minimizedRMSD -1
REMARK  1 active torsions:
REMARK  status: ('A' for Active; 'I' for Inactive)
REMARK    1  A    between atoms: C1_2  and  C2_3 
ROOT
ATOM      1  C2  UNL d   1      -4.398   0.138   1.500  0.00  0.00    -0.076 A 
ATOM      2  C3  UNL d   1      -3.108  -0.392   1.323  0.00  0.00     0.004 A 
ATOM      3  C4  UNL d   1      -2.091   0.372   0.752  0.00  0.00    -0.003 A 
ATOM      4  C5  UNL d   1      -2.347   1.679   0.351  0.00  0.00     0.000 A 
ATOM      5  C6  UNL d   1      -3.616   2.226   0.536  0.00  0.00     0.000 A 
ATOM      6  C7  UNL d   1      -4.648   1.475   1.124  0.00  0.00    -0.073 A 
ATOM      7  C8  UNL d   1      -6.000   2.114   1.294  0.00  0.00     0.078 C 
ENDROOT
BRANCH   1   8
ATOM      8  C1  UNL d   1      -5.468  -0.746   2.099  0.00  0.00     0.053 C 
ATOM      9  C   UNL d   1      -5.963  -1.804   1.125  0.00  0.00     0.018 C 
ENDBRANCH   1   8
TORSDOF 1
ENDMDL
