MODEL 1
REMARK minimizedAffinity 1.96917903
REMARK minimizedRMSD -1
REMARK  1 active torsions:
REMARK  status: ('A' for Active; 'I' for Inactive)
REMARK    1  A    between atoms: C1_2  and  C2_3 
ROOT
ATOM      1  C2  UNL d   1      -3.547   0.454   1.223  0.00  0.00    -0.076 A 
ATOM      2  C3  UNL d   1      -4.674  -0.081   1.870  0.00  0.00     0.004 A 
ATOM      3  C4  UNL d   1      -5.889   0.601   1.875  0.00  0.00    -0.003 A 
ATOM      4  C5  UNL d   1      -5.998   1.829   1.233  0.00  0.00     0.000 A 
ATOM      5  C6  UNL d   1      -4.895   2.367   0.571  0.00  0.00     0.000 A 
ATOM      6  C7  UNL d   1      -3.666   1.685   0.542  0.00  0.00    -0.073 A 
ATOM      7  C8  UNL d   1      -2.508   2.314  -0.182  0.00  0.00     0.078 C 
ENDROOT
BRANCH   1   8
ATOM      8  C1  UNL d   1      -2.248  -0.318   1.273  0.00  0.00     0.053 C 
ATOM      9  C   UNL d   1      -1.466  -0.059   2.552  0.00  0.00     0.018 C 
ENDBRANCH   1   8
TORSDOF 1
ENDMDL
