MODEL 1
REMARK minimizedAffinity 8.70812321
REMARK minimizedRMSD -1
REMARK  1 active torsions:
REMARK  status: ('A' for Active; 'I' for Inactive)
REMARK    1  A    between atoms: C1_2  and  C2_3 
ROOT
ATOM      1  C2  UNL d   1      -1.929   1.187   1.614  0.00  0.00    -0.076 A 
ATOM      2  C3  UNL d   1      -1.525   2.194   2.507  0.00  0.00     0.004 A 
ATOM      3  C4  UNL d   1      -1.434   1.945   3.876  0.00  0.00    -0.003 A 
ATOM      4  C5  UNL d   1      -1.745   0.684   4.373  0.00  0.00     0.000 A 
ATOM      5  C6  UNL d   1      -2.131  -0.332   3.499  0.00  0.00     0.000 A 
ATOM      6  C7  UNL d   1      -2.212  -0.102   2.115  0.00  0.00    -0.073 A 
ATOM      7  C8  UNL d   1      -2.640  -1.232   1.219  0.00  0.00     0.078 C 
ENDROOT
BRANCH   1   8
ATOM      8  C1  UNL d   1      -2.036   1.523   0.144  0.00  0.00     0.053 C 
ATOM      9  C   UNL d   1      -3.297   2.307  -0.185  0.00  0.00     0.018 C 
ENDBRANCH   1   8
TORSDOF 1
ENDMDL
