MODEL 1
REMARK minimizedAffinity 9.43999672
REMARK minimizedRMSD -1
REMARK  1 active torsions:
REMARK  status: ('A' for Active; 'I' for Inactive)
REMARK    1  A    between atoms: C1_2  and  C2_3 
ROOT
ATOM      1  C2  UNL d   1      -3.639   0.439   0.747  0.00  0.00    -0.076 A 
ATOM      2  C3  UNL d   1      -2.291   0.272   0.384  0.00  0.00     0.004 A 
ATOM      3  C4  UNL d   1      -1.649   1.197  -0.438  0.00  0.00    -0.003 A 
ATOM      4  C5  UNL d   1      -2.345   2.305  -0.909  0.00  0.00     0.000 A 
ATOM      5  C6  UNL d   1      -3.677   2.496  -0.545  0.00  0.00     0.000 A 
ATOM      6  C7  UNL d   1      -4.334   1.582   0.296  0.00  0.00    -0.073 A 
ATOM      7  C8  UNL d   1      -5.773   1.834   0.653  0.00  0.00     0.078 C 
ENDROOT
BRANCH   1   8
ATOM      8  C1  UNL d   1      -4.290  -0.611   1.619  0.00  0.00     0.053 C 
ATOM      9  C   UNL d   1      -3.652  -0.702   2.996  0.00  0.00     0.018 C 
ENDBRANCH   1   8
TORSDOF 1
ENDMDL
