MODEL 1
REMARK minimizedAffinity 19.4010448
REMARK minimizedRMSD -1
REMARK  1 active torsions:
REMARK  status: ('A' for Active; 'I' for Inactive)
REMARK    1  A    between atoms: C1_2  and  C2_3 
ROOT
ATOM      1  C2  UNL d   1      -3.527   2.098  -0.002  0.00  0.00    -0.076 A 
ATOM      2  C3  UNL d   1      -3.365   2.901  -1.145  0.00  0.00     0.004 A 
ATOM      3  C4  UNL d   1      -2.212   2.817  -1.923  0.00  0.00    -0.003 A 
ATOM      4  C5  UNL d   1      -1.201   1.929  -1.572  0.00  0.00     0.000 A 
ATOM      5  C6  UNL d   1      -1.352   1.113  -0.451  0.00  0.00     0.000 A 
ATOM      6  C7  UNL d   1      -2.516   1.173   0.335  0.00  0.00    -0.073 A 
ATOM      7  C8  UNL d   1      -2.623   0.273   1.536  0.00  0.00     0.078 C 
ENDROOT
BRANCH   1   8
ATOM      8  C1  UNL d   1      -4.787   2.252   0.818  0.00  0.00     0.053 C 
ATOM      9  C   UNL d   1      -6.000   2.593  -0.034  0.00  0.00     0.018 C 
ENDBRANCH   1   8
TORSDOF 1
ENDMDL
