MODEL 1
REMARK minimizedAffinity 10.4522524
REMARK minimizedRMSD -1
REMARK  1 active torsions:
REMARK  status: ('A' for Active; 'I' for Inactive)
REMARK    1  A    between atoms: C1_2  and  C2_3 
ROOT
ATOM      1  C2  UNL d   1       1.492   1.001   0.561  0.00  0.00    -0.076 A 
ATOM      2  C3  UNL d   1       0.103   1.159   0.708  0.00  0.00     0.004 A 
ATOM      3  C4  UNL d   1      -0.423   2.065   1.627  0.00  0.00    -0.003 A 
ATOM      4  C5  UNL d   1       0.431   2.830   2.413  0.00  0.00     0.000 A 
ATOM      5  C6  UNL d   1       1.812   2.699   2.268  0.00  0.00     0.000 A 
ATOM      6  C7  UNL d   1       2.359   1.802   1.335  0.00  0.00    -0.073 A 
ATOM      7  C8  UNL d   1       3.855   1.698   1.224  0.00  0.00     0.078 C 
ENDROOT
BRANCH   1   8
ATOM      8  C1  UNL d   1       2.004  -0.017  -0.433  0.00  0.00     0.053 C 
ATOM      9  C   UNL d   1       1.989   0.505  -1.861  0.00  0.00     0.018 C 
ENDBRANCH   1   8
TORSDOF 1
ENDMDL
