MODEL 1
REMARK minimizedAffinity 10.5389977
REMARK minimizedRMSD -1
REMARK  1 active torsions:
REMARK  status: ('A' for Active; 'I' for Inactive)
REMARK    1  A    between atoms: C1_2  and  C2_3 
ROOT
ATOM      1  C2  UNL d   1       1.713   1.287   0.238  0.00  0.00    -0.076 A 
ATOM      2  C3  UNL d   1       0.321   1.111   0.156  0.00  0.00     0.004 A 
ATOM      3  C4  UNL d   1      -0.512   1.484   1.209  0.00  0.00    -0.003 A 
ATOM      4  C5  UNL d   1       0.033   2.040   2.361  0.00  0.00     0.000 A 
ATOM      5  C6  UNL d   1       1.410   2.238   2.453  0.00  0.00     0.000 A 
ATOM      6  C7  UNL d   1       2.263   1.883   1.394  0.00  0.00    -0.073 A 
ATOM      7  C8  UNL d   1       3.741   2.113   1.549  0.00  0.00     0.078 C 
ENDROOT
BRANCH   1   8
ATOM      8  C1  UNL d   1       2.570   0.839  -0.925  0.00  0.00     0.053 C 
ATOM      9  C   UNL d   1       1.971   1.218  -2.270  0.00  0.00     0.018 C 
ENDBRANCH   1   8
TORSDOF 1
ENDMDL
