MODEL 1
REMARK minimizedAffinity 4.95202112
REMARK minimizedRMSD -1
REMARK  1 active torsions:
REMARK  status: ('A' for Active; 'I' for Inactive)
REMARK    1  A    between atoms: C1_2  and  C2_3 
ROOT
ATOM      1  C2  UNL d   1      -1.022   2.427  -5.286  0.00  0.00    -0.076 A 
ATOM      2  C3  UNL d   1      -0.824   3.711  -5.824  0.00  0.00     0.004 A 
ATOM      3  C4  UNL d   1      -1.892   4.588  -6.000  0.00  0.00    -0.003 A 
ATOM      4  C5  UNL d   1      -3.177   4.196  -5.641  0.00  0.00     0.000 A 
ATOM      5  C6  UNL d   1      -3.390   2.934  -5.089  0.00  0.00     0.000 A 
ATOM      6  C7  UNL d   1      -2.321   2.043  -4.889  0.00  0.00    -0.073 A 
ATOM      7  C8  UNL d   1      -2.609   0.691  -4.296  0.00  0.00     0.078 C 
ENDROOT
BRANCH   1   8
ATOM      8  C1  UNL d   1       0.171   1.509  -5.143  0.00  0.00     0.053 C 
ATOM      9  C   UNL d   1       0.802   1.585  -3.761  0.00  0.00     0.018 C 
ENDBRANCH   1   8
TORSDOF 1
ENDMDL
