MODEL 1
REMARK minimizedAffinity 4.6636157
REMARK minimizedRMSD -1
REMARK  1 active torsions:
REMARK  status: ('A' for Active; 'I' for Inactive)
REMARK    1  A    between atoms: C1_2  and  C2_3 
ROOT
ATOM      1  C2  UNL d   1       1.648   1.267   0.471  0.00  0.00    -0.076 A 
ATOM      2  C3  UNL d   1       0.259   1.441   0.599  0.00  0.00     0.004 A 
ATOM      3  C4  UNL d   1      -0.270   2.321   1.542  0.00  0.00    -0.003 A 
ATOM      4  C5  UNL d   1       0.581   3.041   2.372  0.00  0.00     0.000 A 
ATOM      5  C6  UNL d   1       1.962   2.894   2.247  0.00  0.00     0.000 A 
ATOM      6  C7  UNL d   1       2.512   2.023   1.291  0.00  0.00    -0.073 A 
ATOM      7  C8  UNL d   1       4.009   1.899   1.204  0.00  0.00     0.078 C 
ENDROOT
BRANCH   1   8
ATOM      8  C1  UNL d   1       2.163   0.279  -0.551  0.00  0.00     0.053 C 
ATOM      9  C   UNL d   1       1.835   0.692  -1.977  0.00  0.00     0.018 C 
ENDBRANCH   1   8
TORSDOF 1
ENDMDL
