MODEL 1
REMARK minimizedAffinity 4.83019924
REMARK minimizedRMSD -1
REMARK  1 active torsions:
REMARK  status: ('A' for Active; 'I' for Inactive)
REMARK    1  A    between atoms: C1_2  and  C2_3 
ROOT
ATOM      1  C2  UNL d   1       1.931   1.033   0.737  0.00  0.00    -0.076 A 
ATOM      2  C3  UNL d   1       0.542   1.117   0.537  0.00  0.00     0.004 A 
ATOM      3  C4  UNL d   1      -0.209   2.131   1.129  0.00  0.00    -0.003 A 
ATOM      4  C5  UNL d   1       0.417   3.078   1.931  0.00  0.00     0.000 A 
ATOM      5  C6  UNL d   1       1.797   3.021   2.127  0.00  0.00     0.000 A 
ATOM      6  C7  UNL d   1       2.571   2.015   1.524  0.00  0.00    -0.073 A 
ATOM      7  C8  UNL d   1       4.054   1.998   1.774  0.00  0.00     0.078 C 
ENDROOT
BRANCH   1   8
ATOM      8  C1  UNL d   1       2.689  -0.105   0.091  0.00  0.00     0.053 C 
ATOM      9  C   UNL d   1       3.039   0.179  -1.361  0.00  0.00     0.018 C 
ENDBRANCH   1   8
TORSDOF 1
ENDMDL
