MODEL 1
REMARK minimizedAffinity 9.07888317
REMARK minimizedRMSD -1
REMARK  1 active torsions:
REMARK  status: ('A' for Active; 'I' for Inactive)
REMARK    1  A    between atoms: C1_2  and  C2_3 
ROOT
ATOM      1  C2  UNL d   1       1.121   1.267  -1.407  0.00  0.00    -0.076 A 
ATOM      2  C3  UNL d   1       2.433   0.815  -1.635  0.00  0.00     0.004 A 
ATOM      3  C4  UNL d   1       3.273   0.486  -0.573  0.00  0.00    -0.003 A 
ATOM      4  C5  UNL d   1       2.815   0.602   0.735  0.00  0.00     0.000 A 
ATOM      5  C6  UNL d   1       1.511   1.032   0.979  0.00  0.00     0.000 A 
ATOM      6  C7  UNL d   1       0.646   1.352  -0.081  0.00  0.00    -0.073 A 
ATOM      7  C8  UNL d   1      -0.748   1.816   0.240  0.00  0.00     0.078 C 
ENDROOT
BRANCH   1   8
ATOM      8  C1  UNL d   1       0.265   1.635  -2.597  0.00  0.00     0.053 C 
ATOM      9  C   UNL d   1       1.069   1.735  -3.885  0.00  0.00     0.018 C 
ENDBRANCH   1   8
TORSDOF 1
ENDMDL
