MODEL 1
REMARK minimizedAffinity -2.55474257
REMARK minimizedRMSD -1
REMARK  2 active torsions:
REMARK  status: ('A' for Active; 'I' for Inactive)
REMARK    1  A    between atoms: C2'_3  and  C1'_4 
REMARK    2  A    between atoms: C1'_4  and  C1_5 
ROOT
ATOM      1  C1  I4B d   1      -5.232   3.858   4.227  0.00  0.00    -0.075 A 
ATOM      2  C2  I4B d   1      -5.795   5.088   4.459  0.00  0.00     0.003 A 
ATOM      3  C3  I4B d   1      -5.999   5.992   3.388  0.00  0.00     0.002 A 
ATOM      4  C4  I4B d   1      -5.580   5.648   2.119  0.00  0.00    -0.004 A 
ATOM      5  C5  I4B d   1      -5.030   4.391   1.882  0.00  0.00     0.002 A 
ATOM      6  C6  I4B d   1      -4.865   3.486   2.941  0.00  0.00     0.003 A 
ENDROOT
BRANCH   1   7
ATOM      7  C1' I4B d   1      -5.001   2.941   5.387  0.00  0.00     0.060 C 
BRANCH   7   8
ATOM      8  C2' I4B d   1      -3.708   2.192   5.139  0.00  0.00    -0.013 C 
ATOM      9  C4' I4B d   1      -2.511   3.058   5.433  0.00  0.00     0.013 C 
ATOM     10  C3' I4B d   1      -3.712   0.964   5.999  0.00  0.00     0.013 C 
ENDBRANCH   7   8
ENDBRANCH   1   7
TORSDOF 2
ENDMDL
