MODEL 1
REMARK minimizedAffinity -3.72210789
REMARK minimizedRMSD -1
REMARK  2 active torsions:
REMARK  status: ('A' for Active; 'I' for Inactive)
REMARK    1  A    between atoms: C2'_3  and  C1'_4 
REMARK    2  A    between atoms: C1'_4  and  C1_5 
ROOT
ATOM      1  C1  I4B d   1       0.359   0.079  -3.423  0.00  0.00    -0.075 A 
ATOM      2  C2  I4B d   1       1.180  -0.239  -2.370  0.00  0.00     0.003 A 
ATOM      3  C3  I4B d   1       2.514  -0.651  -2.606  0.00  0.00     0.002 A 
ATOM      4  C4  I4B d   1       2.966  -0.781  -3.903  0.00  0.00    -0.004 A 
ATOM      5  C5  I4B d   1       2.140  -0.437  -4.969  0.00  0.00     0.002 A 
ATOM      6  C6  I4B d   1       0.831   0.008  -4.727  0.00  0.00     0.003 A 
ENDROOT
BRANCH   1   7
ATOM      7  C1' I4B d   1      -1.054   0.479  -3.140  0.00  0.00     0.060 C 
BRANCH   7   8
ATOM      8  C2' I4B d   1      -1.466  -0.159  -1.829  0.00  0.00    -0.013 C 
ATOM      9  C4' I4B d   1      -1.794   0.885  -0.794  0.00  0.00     0.013 C 
ATOM     10  C3' I4B d   1      -2.646  -1.046  -2.096  0.00  0.00     0.013 C 
ENDBRANCH   7   8
ENDBRANCH   1   7
TORSDOF 2
ENDMDL
