MODEL 1
REMARK minimizedAffinity 0.31303066
REMARK minimizedRMSD -1
REMARK  2 active torsions:
REMARK  status: ('A' for Active; 'I' for Inactive)
REMARK    1  A    between atoms: C2'_3  and  C1'_4 
REMARK    2  A    between atoms: C1'_4  and  C1_5 
ROOT
ATOM      1  C1  I4B d   1      -5.205   4.145   1.720  0.00  0.00    -0.075 A 
ATOM      2  C2  I4B d   1      -5.521   5.461   1.489  0.00  0.00     0.003 A 
ATOM      3  C3  I4B d   1      -5.593   5.955   0.164  0.00  0.00     0.002 A 
ATOM      4  C4  I4B d   1      -5.295   5.117  -0.891  0.00  0.00    -0.004 A 
ATOM      5  C5  I4B d   1      -4.997   3.777  -0.656  0.00  0.00     0.002 A 
ATOM      6  C6  I4B d   1      -4.964   3.285   0.656  0.00  0.00     0.003 A 
ENDROOT
BRANCH   1   7
ATOM      7  C1' I4B d   1      -5.105   3.664   3.133  0.00  0.00     0.060 C 
BRANCH   7   8
ATOM      8  C2' I4B d   1      -4.130   2.505   3.164  0.00  0.00    -0.013 C 
ATOM      9  C4' I4B d   1      -3.921   2.006   4.569  0.00  0.00     0.013 C 
ATOM     10  C3' I4B d   1      -4.671   1.422   2.279  0.00  0.00     0.013 C 
ENDBRANCH   7   8
ENDBRANCH   1   7
TORSDOF 2
ENDMDL
