MODEL 1
REMARK minimizedAffinity -2.20424676
REMARK minimizedRMSD -1
REMARK  2 active torsions:
REMARK  status: ('A' for Active; 'I' for Inactive)
REMARK    1  A    between atoms: C2'_3  and  C1'_4 
REMARK    2  A    between atoms: C1'_4  and  C1_5 
ROOT
ATOM      1  C1  I4B d   1      -2.270  -1.947  -1.476  0.00  0.00    -0.075 A 
ATOM      2  C2  I4B d   1      -2.650  -1.722  -2.775  0.00  0.00     0.003 A 
ATOM      3  C3  I4B d   1      -2.830  -2.809  -3.664  0.00  0.00     0.002 A 
ATOM      4  C4  I4B d   1      -2.572  -4.093  -3.229  0.00  0.00    -0.004 A 
ATOM      5  C5  I4B d   1      -2.209  -4.321  -1.905  0.00  0.00     0.002 A 
ATOM      6  C6  I4B d   1      -2.069  -3.243  -1.019  0.00  0.00     0.003 A 
ENDROOT
BRANCH   1   7
ATOM      7  C1' I4B d   1      -2.057  -0.774  -0.573  0.00  0.00     0.060 C 
BRANCH   7   8
ATOM      8  C2' I4B d   1      -0.930  -1.117   0.381  0.00  0.00    -0.013 C 
ATOM      9  C4' I4B d   1       0.335  -0.386   0.016  0.00  0.00     0.013 C 
ATOM     10  C3' I4B d   1      -1.376  -0.768   1.769  0.00  0.00     0.013 C 
ENDBRANCH   7   8
ENDBRANCH   1   7
TORSDOF 2
ENDMDL
