MODEL 1
REMARK minimizedAffinity 2.00491476
REMARK minimizedRMSD -1
REMARK  2 active torsions:
REMARK  status: ('A' for Active; 'I' for Inactive)
REMARK    1  A    between atoms: C2'_3  and  C1'_4 
REMARK    2  A    between atoms: C1'_4  and  C1_5 
ROOT
ATOM      1  C1  I4B d   1      -0.594  -0.360  -2.209  0.00  0.00    -0.075 A 
ATOM      2  C2  I4B d   1      -1.619  -1.031  -2.828  0.00  0.00     0.003 A 
ATOM      3  C3  I4B d   1      -2.489  -1.855  -2.073  0.00  0.00     0.002 A 
ATOM      4  C4  I4B d   1      -2.269  -2.017  -0.721  0.00  0.00    -0.004 A 
ATOM      5  C5  I4B d   1      -1.243  -1.318  -0.091  0.00  0.00     0.002 A 
ATOM      6  C6  I4B d   1      -0.407  -0.474  -0.838  0.00  0.00     0.003 A 
ENDROOT
BRANCH   1   7
ATOM      7  C1' I4B d   1       0.326   0.476  -3.041  0.00  0.00     0.060 C 
BRANCH   7   8
ATOM      8  C2' I4B d   1       1.205  -0.459  -3.847  0.00  0.00    -0.013 C 
ATOM      9  C4' I4B d   1       1.421   0.062  -5.243  0.00  0.00     0.013 C 
ATOM     10  C3' I4B d   1       2.508  -0.612  -3.119  0.00  0.00     0.013 C 
ENDBRANCH   7   8
ENDBRANCH   1   7
TORSDOF 2
ENDMDL
