MODEL 1
REMARK minimizedAffinity 1.52242887
REMARK minimizedRMSD -1
REMARK  2 active torsions:
REMARK  status: ('A' for Active; 'I' for Inactive)
REMARK    1  A    between atoms: C2'_3  and  C1'_4 
REMARK    2  A    between atoms: C1'_4  and  C1_5 
ROOT
ATOM      1  C1  I4B d   1      -2.170  -2.133  -1.809  0.00  0.00    -0.075 A 
ATOM      2  C2  I4B d   1      -2.331  -1.159  -2.763  0.00  0.00     0.003 A 
ATOM      3  C3  I4B d   1      -2.717  -1.508  -4.079  0.00  0.00     0.002 A 
ATOM      4  C4  I4B d   1      -2.882  -2.837  -4.410  0.00  0.00    -0.004 A 
ATOM      5  C5  I4B d   1      -2.741  -3.822  -3.435  0.00  0.00     0.002 A 
ATOM      6  C6  I4B d   1      -2.395  -3.467  -2.124  0.00  0.00     0.003 A 
ENDROOT
BRANCH   1   7
ATOM      7  C1' I4B d   1      -1.729  -1.732  -0.437  0.00  0.00     0.060 C 
BRANCH   7   8
ATOM      8  C2' I4B d   1      -1.549  -0.228  -0.425  0.00  0.00    -0.013 C 
ATOM      9  C4' I4B d   1      -2.273   0.400   0.737  0.00  0.00     0.013 C 
ATOM     10  C3' I4B d   1      -0.078   0.061  -0.367  0.00  0.00     0.013 C 
ENDBRANCH   7   8
ENDBRANCH   1   7
TORSDOF 2
ENDMDL
