MODEL 1
REMARK minimizedAffinity 4.12977314
REMARK minimizedRMSD -1
REMARK  2 active torsions:
REMARK  status: ('A' for Active; 'I' for Inactive)
REMARK    1  A    between atoms: C2'_3  and  C1'_4 
REMARK    2  A    between atoms: C1'_4  and  C1_5 
ROOT
ATOM      1  C1  I4B d   1      -3.181  -3.162  -1.475  0.00  0.00    -0.075 A 
ATOM      2  C2  I4B d   1      -2.851  -2.267  -2.462  0.00  0.00     0.003 A 
ATOM      3  C3  I4B d   1      -1.809  -1.331  -2.257  0.00  0.00     0.002 A 
ATOM      4  C4  I4B d   1      -1.161  -1.291  -1.039  0.00  0.00    -0.004 A 
ATOM      5  C5  I4B d   1      -1.481  -2.214  -0.047  0.00  0.00     0.002 A 
ATOM      6  C6  I4B d   1      -2.489  -3.164  -0.270  0.00  0.00     0.003 A 
ENDROOT
BRANCH   1   7
ATOM      7  C1' I4B d   1      -4.309  -4.115  -1.713  0.00  0.00     0.060 C 
BRANCH   7   8
ATOM      8  C2' I4B d   1      -4.959  -4.412  -0.377  0.00  0.00    -0.013 C 
ATOM      9  C4' I4B d   1      -5.999  -3.377  -0.035  0.00  0.00     0.013 C 
ATOM     10  C3' I4B d   1      -5.563  -5.783  -0.450  0.00  0.00     0.013 C 
ENDBRANCH   7   8
ENDBRANCH   1   7
TORSDOF 2
ENDMDL
