MODEL 1
REMARK minimizedAffinity 1.27132905
REMARK minimizedRMSD -1
REMARK  2 active torsions:
REMARK  status: ('A' for Active; 'I' for Inactive)
REMARK    1  A    between atoms: C2'_3  and  C1'_4 
REMARK    2  A    between atoms: C1'_4  and  C1_5 
ROOT
ATOM      1  C1  I4B d   1      -3.172  -0.465   4.282  0.00  0.00    -0.075 A 
ATOM      2  C2  I4B d   1      -4.071   0.159   5.109  0.00  0.00     0.003 A 
ATOM      3  C3  I4B d   1      -4.877  -0.602   5.991  0.00  0.00     0.002 A 
ATOM      4  C4  I4B d   1      -4.786  -1.979   5.975  0.00  0.00    -0.004 A 
ATOM      5  C5  I4B d   1      -3.857  -2.609   5.152  0.00  0.00     0.002 A 
ATOM      6  C6  I4B d   1      -3.036  -1.847   4.309  0.00  0.00     0.003 A 
ENDROOT
BRANCH   1   7
ATOM      7  C1' I4B d   1      -2.360   0.367   3.340  0.00  0.00     0.060 C 
BRANCH   7   8
ATOM      8  C2' I4B d   1      -3.097   0.429   2.018  0.00  0.00    -0.013 C 
ATOM      9  C4' I4B d   1      -3.935   1.676   1.918  0.00  0.00     0.013 C 
ATOM     10  C3' I4B d   1      -2.080   0.370   0.918  0.00  0.00     0.013 C 
ENDBRANCH   7   8
ENDBRANCH   1   7
TORSDOF 2
ENDMDL
