MODEL 1
REMARK minimizedAffinity 7.08110428
REMARK minimizedRMSD -1
REMARK  2 active torsions:
REMARK  status: ('A' for Active; 'I' for Inactive)
REMARK    1  A    between atoms: C2'_3  and  C1'_4 
REMARK    2  A    between atoms: C1'_4  and  C1_5 
ROOT
ATOM      1  C1  I4B d   1      -2.167  -0.905  -2.423  0.00  0.00    -0.075 A 
ATOM      2  C2  I4B d   1      -1.865  -0.322  -3.628  0.00  0.00     0.003 A 
ATOM      3  C3  I4B d   1      -1.967  -1.068  -4.827  0.00  0.00     0.002 A 
ATOM      4  C4  I4B d   1      -2.324  -2.400  -4.770  0.00  0.00    -0.004 A 
ATOM      5  C5  I4B d   1      -2.652  -2.983  -3.549  0.00  0.00     0.002 A 
ATOM      6  C6  I4B d   1      -2.585  -2.228  -2.370  0.00  0.00     0.003 A 
ENDROOT
BRANCH   1   7
ATOM      7  C1' I4B d   1      -2.016  -0.097  -1.173  0.00  0.00     0.060 C 
BRANCH   7   8
ATOM      8  C2' I4B d   1      -0.536   0.106  -0.924  0.00  0.00    -0.013 C 
ATOM      9  C4' I4B d   1      -0.167   1.565  -0.986  0.00  0.00     0.013 C 
ATOM     10  C3' I4B d   1      -0.208  -0.479   0.417  0.00  0.00     0.013 C 
ENDBRANCH   7   8
ENDBRANCH   1   7
TORSDOF 2
ENDMDL
