MODEL 1
REMARK minimizedAffinity 3.05951548
REMARK minimizedRMSD -1
REMARK  2 active torsions:
REMARK  status: ('A' for Active; 'I' for Inactive)
REMARK    1  A    between atoms: C2'_3  and  C1'_4 
REMARK    2  A    between atoms: C1'_4  and  C1_5 
ROOT
ATOM      1  C1  I4B d   1      -2.221  -2.421  -1.996  0.00  0.00    -0.075 A 
ATOM      2  C2  I4B d   1      -1.995  -1.404  -2.890  0.00  0.00     0.003 A 
ATOM      3  C3  I4B d   1      -2.502  -1.489  -4.209  0.00  0.00     0.002 A 
ATOM      4  C4  I4B d   1      -3.181  -2.623  -4.605  0.00  0.00    -0.004 A 
ATOM      5  C5  I4B d   1      -3.429  -3.643  -3.690  0.00  0.00     0.002 A 
ATOM      6  C6  I4B d   1      -2.957  -3.536  -2.374  0.00  0.00     0.003 A 
ENDROOT
BRANCH   1   7
ATOM      7  C1' I4B d   1      -1.644  -2.313  -0.620  0.00  0.00     0.060 C 
BRANCH   7   8
ATOM      8  C2' I4B d   1      -1.195  -0.881  -0.413  0.00  0.00    -0.013 C 
ATOM      9  C4' I4B d   1      -2.093  -0.163   0.560  0.00  0.00     0.013 C 
ATOM     10  C3' I4B d   1       0.223  -0.906   0.075  0.00  0.00     0.013 C 
ENDBRANCH   7   8
ENDBRANCH   1   7
TORSDOF 2
ENDMDL
