MODEL 1
REMARK minimizedAffinity -4.22841358
REMARK minimizedRMSD -1
REMARK  2 active torsions:
REMARK  status: ('A' for Active; 'I' for Inactive)
REMARK    1  A    between atoms: C2'_3  and  C1'_4 
REMARK    2  A    between atoms: C1'_4  and  C1_5 
ROOT
ATOM      1  C1  I4B d   1      -4.281   3.149   3.441  0.00  0.00    -0.075 A 
ATOM      2  C2  I4B d   1      -3.821   2.412   2.378  0.00  0.00     0.003 A 
ATOM      3  C3  I4B d   1      -3.783   0.998   2.454  0.00  0.00     0.002 A 
ATOM      4  C4  I4B d   1      -4.165   0.370   3.622  0.00  0.00    -0.004 A 
ATOM      5  C5  I4B d   1      -4.653   1.117   4.690  0.00  0.00     0.002 A 
ATOM      6  C6  I4B d   1      -4.723   2.515   4.595  0.00  0.00     0.003 A 
ENDROOT
BRANCH   1   7
ATOM      7  C1' I4B d   1      -4.276   4.641   3.339  0.00  0.00     0.060 C 
BRANCH   7   8
ATOM      8  C2' I4B d   1      -5.715   5.114   3.341  0.00  0.00    -0.013 C 
ATOM      9  C4' I4B d   1      -5.998   5.995   4.529  0.00  0.00     0.013 C 
ATOM     10  C3' I4B d   1      -5.965   5.843   2.055  0.00  0.00     0.013 C 
ENDBRANCH   7   8
ENDBRANCH   1   7
TORSDOF 2
ENDMDL
