MODEL 1
REMARK minimizedAffinity 4.26465845
REMARK minimizedRMSD -1
REMARK  2 active torsions:
REMARK  status: ('A' for Active; 'I' for Inactive)
REMARK    1  A    between atoms: C2'_3  and  C1'_4 
REMARK    2  A    between atoms: C1'_4  and  C1_5 
ROOT
ATOM      1  C1  I4B d   1      -3.701  -3.861  -3.205  0.00  0.00    -0.075 A 
ATOM      2  C2  I4B d   1      -3.664  -3.452  -4.515  0.00  0.00     0.003 A 
ATOM      3  C3  I4B d   1      -2.918  -2.306  -4.883  0.00  0.00     0.002 A 
ATOM      4  C4  I4B d   1      -2.271  -1.575  -3.909  0.00  0.00    -0.004 A 
ATOM      5  C5  I4B d   1      -2.290  -2.003  -2.585  0.00  0.00     0.002 A 
ATOM      6  C6  I4B d   1      -3.000  -3.160  -2.232  0.00  0.00     0.003 A 
ENDROOT
BRANCH   1   7
ATOM      7  C1' I4B d   1      -4.525  -5.056  -2.845  0.00  0.00     0.060 C 
BRANCH   7   8
ATOM      8  C2' I4B d   1      -5.162  -4.795  -1.496  0.00  0.00    -0.013 C 
ATOM      9  C4' I4B d   1      -5.996  -3.542  -1.519  0.00  0.00     0.013 C 
ATOM     10  C3' I4B d   1      -5.993  -5.991  -1.137  0.00  0.00     0.013 C 
ENDBRANCH   7   8
ENDBRANCH   1   7
TORSDOF 2
ENDMDL
