MODEL 1
REMARK minimizedAffinity 9.03377056
REMARK minimizedRMSD -1
REMARK  0 active torsions:
REMARK  status: ('A' for Active; 'I' for Inactive)
ROOT
ATOM      1  C   UNL d   1      -4.820   0.747   0.514  0.00  0.00     0.078 C 
ATOM      2  C1  UNL d   1      -4.816   0.530  -0.970  0.00  0.00    -0.077 A 
ATOM      3  C2  UNL d   1      -6.000   0.607  -1.713  0.00  0.00    -0.001 A 
ATOM      4  C3  UNL d   1      -5.983   0.393  -3.092  0.00  0.00     0.003 A 
ATOM      5  C4  UNL d   1      -4.784   0.099  -3.740  0.00  0.00    -0.005 A 
ATOM      6  C5  UNL d   1      -3.601   0.018  -3.008  0.00  0.00     0.003 A 
ATOM      7  C6  UNL d   1      -3.617   0.232  -1.629  0.00  0.00    -0.001 A 
ENDROOT
TORSDOF 0
ENDMDL
