MODEL 1
REMARK minimizedAffinity 4.62764931
REMARK minimizedRMSD -1
REMARK  0 active torsions:
REMARK  status: ('A' for Active; 'I' for Inactive)
ROOT
ATOM      1  C   UNL d   1       5.148   4.796   0.318  0.00  0.00     0.078 C 
ATOM      2  C1  UNL d   1       4.475   3.540  -0.150  0.00  0.00    -0.077 A 
ATOM      3  C2  UNL d   1       4.172   3.346  -1.503  0.00  0.00    -0.001 A 
ATOM      4  C3  UNL d   1       3.536   2.176  -1.924  0.00  0.00     0.003 A 
ATOM      5  C4  UNL d   1       3.197   1.193  -0.997  0.00  0.00    -0.005 A 
ATOM      6  C5  UNL d   1       3.493   1.378   0.352  0.00  0.00     0.003 A 
ATOM      7  C6  UNL d   1       4.128   2.547   0.774  0.00  0.00    -0.001 A 
ENDROOT
TORSDOF 0
ENDMDL
