MODEL 1
REMARK minimizedAffinity 9.30193901
REMARK minimizedRMSD -1
REMARK  0 active torsions:
REMARK  status: ('A' for Active; 'I' for Inactive)
ROOT
ATOM      1  C   UNL d   1       1.781  -1.168  -1.210  0.00  0.00     0.078 C 
ATOM      2  C1  UNL d   1       2.668   0.017  -0.973  0.00  0.00    -0.077 A 
ATOM      3  C2  UNL d   1       3.338   0.640  -2.033  0.00  0.00    -0.001 A 
ATOM      4  C3  UNL d   1       4.168   1.737  -1.796  0.00  0.00     0.003 A 
ATOM      5  C4  UNL d   1       4.337   2.220  -0.500  0.00  0.00    -0.005 A 
ATOM      6  C5  UNL d   1       3.676   1.605   0.561  0.00  0.00     0.003 A 
ATOM      7  C6  UNL d   1       2.846   0.508   0.326  0.00  0.00    -0.001 A 
ENDROOT
TORSDOF 0
ENDMDL
