MODEL 1
REMARK minimizedAffinity 2.13355803
REMARK minimizedRMSD -1
REMARK  0 active torsions:
REMARK  status: ('A' for Active; 'I' for Inactive)
ROOT
ATOM      1  C   UNL d   1       2.890  -1.476   1.496  0.00  0.00     0.078 C 
ATOM      2  C1  UNL d   1       2.943  -0.291   0.578  0.00  0.00    -0.077 A 
ATOM      3  C2  UNL d   1       3.615   0.879   0.949  0.00  0.00    -0.001 A 
ATOM      4  C3  UNL d   1       3.648   1.978   0.088  0.00  0.00     0.003 A 
ATOM      5  C4  UNL d   1       3.008   1.917  -1.149  0.00  0.00    -0.005 A 
ATOM      6  C5  UNL d   1       2.334   0.757  -1.525  0.00  0.00     0.003 A 
ATOM      7  C6  UNL d   1       2.301  -0.342  -0.666  0.00  0.00    -0.001 A 
ENDROOT
TORSDOF 0
ENDMDL
