MODEL 1
REMARK minimizedAffinity 6.00222063
REMARK minimizedRMSD -1
REMARK  0 active torsions:
REMARK  status: ('A' for Active; 'I' for Inactive)
ROOT
ATOM      1  C   UNL d   1       5.381   3.431   1.779  0.00  0.00     0.078 C 
ATOM      2  C1  UNL d   1       4.551   2.692   0.772  0.00  0.00    -0.077 A 
ATOM      3  C2  UNL d   1       4.679   2.952  -0.598  0.00  0.00    -0.001 A 
ATOM      4  C3  UNL d   1       3.894   2.264  -1.524  0.00  0.00     0.003 A 
ATOM      5  C4  UNL d   1       2.974   1.312  -1.090  0.00  0.00    -0.005 A 
ATOM      6  C5  UNL d   1       2.838   1.047   0.271  0.00  0.00     0.003 A 
ATOM      7  C6  UNL d   1       3.622   1.735   1.199  0.00  0.00    -0.001 A 
ENDROOT
TORSDOF 0
ENDMDL
