MODEL 1
REMARK minimizedAffinity 11.090806
REMARK minimizedRMSD -1
REMARK  0 active torsions:
REMARK  status: ('A' for Active; 'I' for Inactive)
ROOT
ATOM      1  C   UNL d   1       0.932  -3.814   0.343  0.00  0.00     0.078 C 
ATOM      2  C1  UNL d   1      -0.311  -4.491  -0.151  0.00  0.00    -0.077 A 
ATOM      3  C2  UNL d   1      -1.047  -5.343   0.682  0.00  0.00    -0.001 A 
ATOM      4  C3  UNL d   1      -2.197  -5.975   0.205  0.00  0.00     0.003 A 
ATOM      5  C4  UNL d   1      -2.621  -5.762  -1.105  0.00  0.00    -0.005 A 
ATOM      6  C5  UNL d   1      -1.894  -4.917  -1.941  0.00  0.00     0.003 A 
ATOM      7  C6  UNL d   1      -0.744  -4.285  -1.467  0.00  0.00    -0.001 A 
ENDROOT
TORSDOF 0
ENDMDL
