MODEL 1
REMARK minimizedAffinity 6.16208124
REMARK minimizedRMSD -1
REMARK  0 active torsions:
REMARK  status: ('A' for Active; 'I' for Inactive)
ROOT
ATOM      1  C   UNL d   1       5.999   5.615  -3.015  0.00  0.00     0.078 C 
ATOM      2  C1  UNL d   1       5.301   4.288  -3.032  0.00  0.00    -0.077 A 
ATOM      3  C2  UNL d   1       5.801   3.220  -3.786  0.00  0.00    -0.001 A 
ATOM      4  C3  UNL d   1       5.136   1.993  -3.800  0.00  0.00     0.003 A 
ATOM      5  C4  UNL d   1       3.965   1.824  -3.063  0.00  0.00    -0.005 A 
ATOM      6  C5  UNL d   1       3.458   2.882  -2.311  0.00  0.00     0.003 A 
ATOM      7  C6  UNL d   1       4.123   4.110  -2.296  0.00  0.00    -0.001 A 
ENDROOT
TORSDOF 0
ENDMDL
