MODEL 1
REMARK minimizedAffinity 7.93908453
REMARK minimizedRMSD -1
REMARK  0 active torsions:
REMARK  status: ('A' for Active; 'I' for Inactive)
ROOT
ATOM      1  C   UNL d   1       2.247   0.477  -0.001  0.00  0.00     0.078 C 
ATOM      2  C1  UNL d   1       2.921   1.335  -1.030  0.00  0.00    -0.077 A 
ATOM      3  C2  UNL d   1       3.570   0.765  -2.132  0.00  0.00    -0.001 A 
ATOM      4  C3  UNL d   1       4.201   1.575  -3.077  0.00  0.00     0.003 A 
ATOM      5  C4  UNL d   1       4.191   2.960  -2.929  0.00  0.00    -0.005 A 
ATOM      6  C5  UNL d   1       3.551   3.537  -1.835  0.00  0.00     0.003 A 
ATOM      7  C6  UNL d   1       2.919   2.729  -0.889  0.00  0.00    -0.001 A 
ENDROOT
TORSDOF 0
ENDMDL
