MODEL 1
REMARK minimizedAffinity 12.6166477
REMARK minimizedRMSD -1
REMARK  0 active torsions:
REMARK  status: ('A' for Active; 'I' for Inactive)
ROOT
ATOM      1  C   UNL d   1      -3.248   3.018   0.548  0.00  0.00     0.078 C 
ATOM      2  C1  UNL d   1      -3.338   1.815  -0.343  0.00  0.00    -0.077 A 
ATOM      3  C2  UNL d   1      -2.378   1.579  -1.335  0.00  0.00    -0.001 A 
ATOM      4  C3  UNL d   1      -2.480   0.460  -2.163  0.00  0.00     0.003 A 
ATOM      5  C4  UNL d   1      -3.540  -0.431  -2.009  0.00  0.00    -0.005 A 
ATOM      6  C5  UNL d   1      -4.501  -0.203  -1.026  0.00  0.00     0.003 A 
ATOM      7  C6  UNL d   1      -4.401   0.915  -0.197  0.00  0.00    -0.001 A 
ENDROOT
TORSDOF 0
ENDMDL
