MODEL 1
REMARK minimizedAffinity 3.77952981
REMARK minimizedRMSD -1
REMARK  0 active torsions:
REMARK  status: ('A' for Active; 'I' for Inactive)
ROOT
ATOM      1  C   UNL d   1      -2.425   5.627   4.875  0.00  0.00     0.078 C 
ATOM      2  C1  UNL d   1      -3.677   5.015   4.322  0.00  0.00    -0.077 A 
ATOM      3  C2  UNL d   1      -4.844   4.940   5.093  0.00  0.00    -0.001 A 
ATOM      4  C3  UNL d   1      -6.000   4.359   4.569  0.00  0.00     0.003 A 
ATOM      5  C4  UNL d   1      -6.000   3.846   3.273  0.00  0.00    -0.005 A 
ATOM      6  C5  UNL d   1      -4.843   3.913   2.500  0.00  0.00     0.003 A 
ATOM      7  C6  UNL d   1      -3.686   4.494   3.022  0.00  0.00    -0.001 A 
ENDROOT
TORSDOF 0
ENDMDL
