MODEL 1
REMARK minimizedAffinity 2.20037436
REMARK minimizedRMSD -1
REMARK  0 active torsions:
REMARK  status: ('A' for Active; 'I' for Inactive)
ROOT
ATOM      1  C   UNL d   1      -4.485   3.901   1.880  0.00  0.00     0.078 C 
ATOM      2  C1  UNL d   1      -4.632   4.331   3.309  0.00  0.00    -0.077 A 
ATOM      3  C2  UNL d   1      -3.561   4.906   4.003  0.00  0.00    -0.001 A 
ATOM      4  C3  UNL d   1      -3.710   5.293   5.336  0.00  0.00     0.003 A 
ATOM      5  C4  UNL d   1      -4.929   5.108   5.986  0.00  0.00    -0.005 A 
ATOM      6  C5  UNL d   1      -6.000   4.534   5.304  0.00  0.00     0.003 A 
ATOM      7  C6  UNL d   1      -5.853   4.147   3.971  0.00  0.00    -0.001 A 
ENDROOT
TORSDOF 0
ENDMDL
