MODEL 1
REMARK minimizedAffinity -1.52481329
REMARK minimizedRMSD -1
REMARK  0 active torsions:
REMARK  status: ('A' for Active; 'I' for Inactive)
ROOT
ATOM      1  C   UNL d   1       0.367   0.735   2.744  0.00  0.00     0.023 A 
ATOM      2  C1  UNL d   1      -0.301   1.799   2.138  0.00  0.00     0.003 A 
ATOM      3  C2  UNL d   1      -0.425   1.847   0.748  0.00  0.00     0.048 A 
ATOM      4  C3  UNL d   1       0.121   0.827  -0.030  0.00  0.00     0.023 A 
ATOM      5  C4  UNL d   1       0.789  -0.240   0.571  0.00  0.00     0.048 A 
ATOM      6  C5  UNL d   1       0.911  -0.284   1.961  0.00  0.00     0.003 A 
ATOM      7  I   UNL d   1      -0.062   0.897  -2.099  0.00  0.00    -0.146 I 
ENDROOT
TORSDOF 0
ENDMDL
