MODEL 1
REMARK minimizedAffinity -4.48915195
REMARK minimizedRMSD -1
REMARK  0 active torsions:
REMARK  status: ('A' for Active; 'I' for Inactive)
ROOT
ATOM      1  C   UNL d   1      -1.009   3.641   0.425  0.00  0.00     0.023 A 
ATOM      2  C1  UNL d   1      -0.854   3.166  -0.877  0.00  0.00     0.003 A 
ATOM      3  C2  UNL d   1      -0.552   1.820  -1.099  0.00  0.00     0.048 A 
ATOM      4  C3  UNL d   1      -0.408   0.956  -0.014  0.00  0.00     0.023 A 
ATOM      5  C4  UNL d   1      -0.564   1.427   1.291  0.00  0.00     0.048 A 
ATOM      6  C5  UNL d   1      -0.864   2.773   1.508  0.00  0.00     0.003 A 
ATOM      7  I   UNL d   1       0.040  -1.047  -0.342  0.00  0.00    -0.146 I 
ENDROOT
TORSDOF 0
ENDMDL
