MODEL 1
REMARK minimizedAffinity -4.14926195
REMARK minimizedRMSD -1
REMARK  0 active torsions:
REMARK  status: ('A' for Active; 'I' for Inactive)
ROOT
ATOM      1  C   UNL d   1      -0.651   2.282   1.488  0.00  0.00     0.023 A 
ATOM      2  C1  UNL d   1      -0.015   1.233   2.153  0.00  0.00     0.003 A 
ATOM      3  C2  UNL d   1       0.250   0.038   1.481  0.00  0.00     0.048 A 
ATOM      4  C3  UNL d   1      -0.121  -0.101   0.144  0.00  0.00     0.023 A 
ATOM      5  C4  UNL d   1      -0.756   0.947  -0.525  0.00  0.00     0.048 A 
ATOM      6  C5  UNL d   1      -1.021   2.139   0.151  0.00  0.00     0.003 A 
ATOM      7  I   UNL d   1       0.274  -1.878  -0.858  0.00  0.00    -0.146 I 
ENDROOT
TORSDOF 0
ENDMDL
