MODEL 1
REMARK minimizedAffinity -3.36538577
REMARK minimizedRMSD -1
REMARK  0 active torsions:
REMARK  status: ('A' for Active; 'I' for Inactive)
ROOT
ATOM      1  C   UNL d   1       1.029  -0.502  -0.809  0.00  0.00     0.023 A 
ATOM      2  C1  UNL d   1       0.958  -0.506   0.584  0.00  0.00     0.003 A 
ATOM      3  C2  UNL d   1       0.256   0.500   1.252  0.00  0.00     0.048 A 
ATOM      4  C3  UNL d   1      -0.373   1.507   0.520  0.00  0.00     0.023 A 
ATOM      5  C4  UNL d   1      -0.305   1.514  -0.874  0.00  0.00     0.048 A 
ATOM      6  C5  UNL d   1       0.398   0.507  -1.537  0.00  0.00     0.003 A 
ATOM      7  I   UNL d   1      -1.418   3.005   1.512  0.00  0.00    -0.146 I 
ENDROOT
TORSDOF 0
ENDMDL
