MODEL 1
REMARK minimizedAffinity -5.34537935
REMARK minimizedRMSD -1
REMARK  0 active torsions:
REMARK  status: ('A' for Active; 'I' for Inactive)
ROOT
ATOM      1  C   UNL d   1      -1.221   3.656   1.057  0.00  0.00     0.023 A 
ATOM      2  C1  UNL d   1      -0.750   2.642   1.891  0.00  0.00     0.003 A 
ATOM      3  C2  UNL d   1      -0.356   1.417   1.349  0.00  0.00     0.048 A 
ATOM      4  C3  UNL d   1      -0.436   1.212  -0.028  0.00  0.00     0.023 A 
ATOM      5  C4  UNL d   1      -0.906   2.224  -0.867  0.00  0.00     0.048 A 
ATOM      6  C5  UNL d   1      -1.299   3.447  -0.320  0.00  0.00     0.003 A 
ATOM      7  I   UNL d   1       0.150  -0.610  -0.836  0.00  0.00    -0.146 I 
ENDROOT
TORSDOF 0
ENDMDL
