MODEL 1
REMARK minimizedAffinity -3.24567294
REMARK minimizedRMSD -1
REMARK  2 active torsions:
REMARK  status: ('A' for Active; 'I' for Inactive)
REMARK    1  A    between atoms: C1_2  and  C2_3 
REMARK    2  A    between atoms: C2_3  and  C3_4 
ROOT
ATOM      1  C3  UNL d   1      -0.338   1.142  -2.144  0.00  0.00    -0.075 A 
ATOM      2  C4  UNL d   1      -1.559   1.423  -2.775  0.00  0.00     0.002 A 
ATOM      3  C5  UNL d   1      -1.826   2.702  -3.264  0.00  0.00     0.002 A 
ATOM      4  C6  UNL d   1      -0.883   3.717  -3.120  0.00  0.00    -0.004 A 
ATOM      5  C7  UNL d   1       0.326   3.454  -2.480  0.00  0.00     0.002 A 
ATOM      6  C8  UNL d   1       0.598   2.174  -1.994  0.00  0.00     0.002 A 
ENDROOT
BRANCH   1   7
ATOM      7  C2  UNL d   1      -0.031  -0.247  -1.640  0.00  0.00     0.056 C 
BRANCH   7   8
ATOM      8  C1  UNL d   1       0.469  -0.289  -0.192  0.00  0.00     0.007 C 
ATOM      9  C   UNL d   1       1.865  -0.881  -0.055  0.00  0.00     0.009 C 
ENDBRANCH   7   8
ENDBRANCH   1   7
TORSDOF 2
ENDMDL
