MODEL 1
REMARK minimizedAffinity -4.44205761
REMARK minimizedRMSD -1
REMARK  2 active torsions:
REMARK  status: ('A' for Active; 'I' for Inactive)
REMARK    1  A    between atoms: C1_2  and  C2_3 
REMARK    2  A    between atoms: C2_3  and  C3_4 
ROOT
ATOM      1  C3  UNL d   1      -0.143  -0.348   0.241  0.00  0.00    -0.075 A 
ATOM      2  C4  UNL d   1       1.247  -0.462   0.390  0.00  0.00     0.002 A 
ATOM      3  C5  UNL d   1       1.805  -0.735   1.639  0.00  0.00     0.002 A 
ATOM      4  C6  UNL d   1       0.985  -0.887   2.754  0.00  0.00    -0.004 A 
ATOM      5  C7  UNL d   1      -0.396  -0.759   2.622  0.00  0.00     0.002 A 
ATOM      6  C8  UNL d   1      -0.958  -0.490   1.372  0.00  0.00     0.002 A 
ENDROOT
BRANCH   1   7
ATOM      7  C2  UNL d   1      -0.756  -0.081  -1.113  0.00  0.00     0.056 C 
BRANCH   7   8
ATOM      8  C1  UNL d   1      -0.501   1.332  -1.646  0.00  0.00     0.007 C 
ATOM      9  C   UNL d   1      -1.722   1.953  -2.312  0.00  0.00     0.009 C 
ENDBRANCH   7   8
ENDBRANCH   1   7
TORSDOF 2
ENDMDL
