MODEL 1
REMARK minimizedAffinity -4.37339735
REMARK minimizedRMSD -1
REMARK  2 active torsions:
REMARK  status: ('A' for Active; 'I' for Inactive)
REMARK    1  A    between atoms: C1_2  and  C2_3 
REMARK    2  A    between atoms: C2_3  and  C3_4 
ROOT
ATOM      1  C3  UNL d   1       0.405  -0.703   0.975  0.00  0.00    -0.075 A 
ATOM      2  C4  UNL d   1      -0.513  -0.146   0.073  0.00  0.00     0.002 A 
ATOM      3  C5  UNL d   1      -1.872  -0.098   0.384  0.00  0.00     0.002 A 
ATOM      4  C6  UNL d   1      -2.331  -0.613   1.594  0.00  0.00    -0.004 A 
ATOM      5  C7  UNL d   1      -1.430  -1.183   2.491  0.00  0.00     0.002 A 
ATOM      6  C8  UNL d   1      -0.069  -1.230   2.184  0.00  0.00     0.002 A 
ENDROOT
BRANCH   1   7
ATOM      7  C2  UNL d   1       1.881  -0.732   0.657  0.00  0.00     0.056 C 
BRANCH   7   8
ATOM      8  C1  UNL d   1       2.769  -0.150   1.761  0.00  0.00     0.007 C 
ATOM      9  C   UNL d   1       2.284   1.200   2.273  0.00  0.00     0.009 C 
ENDBRANCH   7   8
ENDBRANCH   1   7
TORSDOF 2
ENDMDL
