MODEL 1
REMARK minimizedAffinity -5.43215275
REMARK minimizedRMSD -1
REMARK  2 active torsions:
REMARK  status: ('A' for Active; 'I' for Inactive)
REMARK    1  A    between atoms: C1_2  and  C2_3 
REMARK    2  A    between atoms: C2_3  and  C3_4 
ROOT
ATOM      1  C3  UNL d   1      -0.131   0.180  -0.085  0.00  0.00    -0.075 A 
ATOM      2  C4  UNL d   1       1.063  -0.431  -0.494  0.00  0.00     0.002 A 
ATOM      3  C5  UNL d   1       1.904  -1.039   0.438  0.00  0.00     0.002 A 
ATOM      4  C6  UNL d   1       1.568  -1.035   1.790  0.00  0.00    -0.004 A 
ATOM      5  C7  UNL d   1       0.392  -0.417   2.210  0.00  0.00     0.002 A 
ATOM      6  C8  UNL d   1      -0.454   0.188   1.279  0.00  0.00     0.002 A 
ENDROOT
BRANCH   1   7
ATOM      7  C2  UNL d   1      -1.060   0.814  -1.093  0.00  0.00     0.056 C 
BRANCH   7   8
ATOM      8  C1  UNL d   1      -0.450   2.003  -1.842  0.00  0.00     0.007 C 
ATOM      9  C   UNL d   1      -1.493   2.903  -2.491  0.00  0.00     0.009 C 
ENDBRANCH   7   8
ENDBRANCH   1   7
TORSDOF 2
ENDMDL
