MODEL 1
REMARK minimizedAffinity 2.68050575
REMARK minimizedRMSD -1
REMARK  0 active torsions:
REMARK  status: ('A' for Active; 'I' for Inactive)
ROOT
ATOM      1  O1  BZF d   1       3.978   0.421  -2.203  0.00  0.00    -0.204 OA
ATOM      2  C2  BZF d   1       4.067   1.105  -1.006  0.00  0.00     0.174 A 
ATOM      3  C3  BZF d   1       3.657   0.331   0.019  0.00  0.00    -0.012 A 
ATOM      4  C3A BZF d   1       3.377  -0.946  -0.562  0.00  0.00    -0.107 A 
ATOM      5  C4  BZF d   1       2.947  -2.137  -0.049  0.00  0.00     0.055 A 
ATOM      6  C5  BZF d   1       2.702  -3.170  -0.897  0.00  0.00    -0.016 A 
ATOM      7  C6  BZF d   1       2.870  -3.047  -2.260  0.00  0.00     0.022 A 
ATOM      8  C7  BZF d   1       3.298  -1.887  -2.815  0.00  0.00     0.029 A 
ATOM      9  C7A BZF d   1       3.579  -0.850  -1.958  0.00  0.00     0.058 A 
ENDROOT
TORSDOF 0
ENDMDL
