MODEL 1
REMARK minimizedAffinity 5.77512646
REMARK minimizedRMSD -1
REMARK  0 active torsions:
REMARK  status: ('A' for Active; 'I' for Inactive)
ROOT
ATOM      1  O1  BZF d   1       3.438   4.291   4.054  0.00  0.00    -0.204 OA
ATOM      2  C2  BZF d   1       3.799   3.411   5.055  0.00  0.00     0.174 A 
ATOM      3  C3  BZF d   1       2.838   3.338   5.999  0.00  0.00    -0.012 A 
ATOM      4  C3A BZF d   1       1.772   4.158   5.513  0.00  0.00    -0.107 A 
ATOM      5  C4  BZF d   1       0.535   4.475   5.998  0.00  0.00     0.055 A 
ATOM      6  C5  BZF d   1      -0.235   5.363   5.315  0.00  0.00    -0.016 A 
ATOM      7  C6  BZF d   1       0.202   5.956   4.149  0.00  0.00     0.022 A 
ATOM      8  C7  BZF d   1       1.419   5.670   3.627  0.00  0.00     0.029 A 
ATOM      9  C7A BZF d   1       2.186   4.748   4.296  0.00  0.00     0.058 A 
ENDROOT
TORSDOF 0
ENDMDL
