MODEL 1
REMARK minimizedAffinity 1.8152225
REMARK minimizedRMSD -1
REMARK  0 active torsions:
REMARK  status: ('A' for Active; 'I' for Inactive)
ROOT
ATOM      1  O1  BZF d   1       2.613   1.192  -0.694  0.00  0.00    -0.204 OA
ATOM      2  C2  BZF d   1       3.000  -0.060  -1.132  0.00  0.00     0.174 A 
ATOM      3  C3  BZF d   1       4.292  -0.295  -0.826  0.00  0.00    -0.012 A 
ATOM      4  C3A BZF d   1       4.715   0.846  -0.074  0.00  0.00    -0.107 A 
ATOM      5  C4  BZF d   1       5.893   1.194   0.523  0.00  0.00     0.055 A 
ATOM      6  C5  BZF d   1       5.998   2.411   1.117  0.00  0.00    -0.016 A 
ATOM      7  C6  BZF d   1       4.950   3.307   1.128  0.00  0.00     0.022 A 
ATOM      8  C7  BZF d   1       3.760   3.006   0.553  0.00  0.00     0.029 A 
ATOM      9  C7A BZF d   1       3.639   1.763  -0.019  0.00  0.00     0.058 A 
ENDROOT
TORSDOF 0
ENDMDL
