MODEL 1
REMARK minimizedAffinity 7.34509897
REMARK minimizedRMSD -1
REMARK  0 active torsions:
REMARK  status: ('A' for Active; 'I' for Inactive)
ROOT
ATOM      1  O1  BZF d   1       2.609   1.151  -1.134  0.00  0.00    -0.204 OA
ATOM      2  C2  BZF d   1       2.646  -0.192  -0.813  0.00  0.00     0.174 A 
ATOM      3  C3  BZF d   1       3.769  -0.489  -0.127  0.00  0.00    -0.012 A 
ATOM      4  C3A BZF d   1       4.433   0.764   0.068  0.00  0.00    -0.107 A 
ATOM      5  C4  BZF d   1       5.591   1.124   0.695  0.00  0.00     0.055 A 
ATOM      6  C5  BZF d   1       5.994   2.421   0.642  0.00  0.00    -0.016 A 
ATOM      7  C6  BZF d   1       5.268   3.381  -0.032  0.00  0.00     0.022 A 
ATOM      8  C7  BZF d   1       4.109   3.072  -0.664  0.00  0.00     0.029 A 
ATOM      9  C7A BZF d   1       3.682   1.769  -0.585  0.00  0.00     0.058 A 
ENDROOT
TORSDOF 0
ENDMDL
