MODEL 1
REMARK minimizedAffinity 6.05527878
REMARK minimizedRMSD -1
REMARK  1 active torsions:
REMARK  status: ('A' for Active; 'I' for Inactive)
REMARK    1  A    between atoms: N_2  and  C1_3 
ROOT
ATOM      1  C1  UNL d   1       0.603   1.985   2.322  0.00  0.00     0.143 A 
ATOM      2  C2  UNL d   1      -0.316   1.910   1.271  0.00  0.00    -0.057 A 
ATOM      3  C3  UNL d   1      -0.743   0.675   0.767  0.00  0.00     0.033 A 
ATOM      4  C4  UNL d   1      -0.234  -0.510   1.289  0.00  0.00    -0.042 A 
ATOM      5  C5  UNL d   1       0.700  -0.458   2.318  0.00  0.00     0.033 A 
ATOM      6  C6  UNL d   1       1.117   0.778   2.821  0.00  0.00    -0.057 A 
ENDROOT
BRANCH   1   7
ATOM      7  N   UNL d   1       1.140   3.183   2.801  0.00  0.00    -0.732 N 
ATOM      8  C   UNL d   1       2.354   3.183   3.590  0.00  0.00     0.284 C 
ATOM      9  H3  UNL d   1       1.091   3.933   2.115  0.00  0.00     0.395 HD
ENDBRANCH   1   7
TORSDOF 1
ENDMDL
