MODEL 1
REMARK minimizedAffinity 6.47481537
REMARK minimizedRMSD -1
REMARK  1 active torsions:
REMARK  status: ('A' for Active; 'I' for Inactive)
REMARK    1  A    between atoms: N_2  and  C1_3 
ROOT
ATOM      1  C1  UNL d   1       0.684   2.076   2.313  0.00  0.00     0.143 A 
ATOM      2  C2  UNL d   1       1.643   1.876   3.311  0.00  0.00    -0.057 A 
ATOM      3  C3  UNL d   1       2.479   2.917   3.734  0.00  0.00     0.033 A 
ATOM      4  C4  UNL d   1       2.389   4.173   3.142  0.00  0.00    -0.042 A 
ATOM      5  C5  UNL d   1       1.460   4.388   2.130  0.00  0.00     0.033 A 
ATOM      6  C6  UNL d   1       0.624   3.346   1.717  0.00  0.00    -0.057 A 
ENDROOT
BRANCH   1   7
ATOM      7  N   UNL d   1      -0.109   1.056   1.781  0.00  0.00    -0.732 N 
ATOM      8  C   UNL d   1       0.412   0.175   0.758  0.00  0.00     0.284 C 
ATOM      9  H3  UNL d   1      -0.665   0.585   2.491  0.00  0.00     0.395 HD
ENDBRANCH   1   7
TORSDOF 1
ENDMDL
