MODEL 1
REMARK minimizedAffinity -2.61961222
REMARK minimizedRMSD -1
REMARK  1 active torsions:
REMARK  status: ('A' for Active; 'I' for Inactive)
REMARK    1  A    between atoms: N_2  and  C1_3 
ROOT
ATOM      1  C1  UNL d   1       0.042   0.964   0.630  0.00  0.00     0.143 A 
ATOM      2  C2  UNL d   1       0.464   1.941   1.539  0.00  0.00    -0.057 A 
ATOM      3  C3  UNL d   1      -0.130   3.208   1.570  0.00  0.00     0.033 A 
ATOM      4  C4  UNL d   1      -1.140   3.532   0.670  0.00  0.00    -0.042 A 
ATOM      5  C5  UNL d   1      -1.558   2.586  -0.259  0.00  0.00     0.033 A 
ATOM      6  C6  UNL d   1      -0.966   1.319  -0.280  0.00  0.00    -0.057 A 
ENDROOT
BRANCH   1   7
ATOM      7  N   UNL d   1       0.659  -0.281   0.484  0.00  0.00    -0.732 N 
ATOM      8  C   UNL d   1       0.272  -1.174  -0.586  0.00  0.00     0.284 C 
ATOM      9  H3  UNL d   1       1.663  -0.238   0.648  0.00  0.00     0.395 HD
ENDBRANCH   1   7
TORSDOF 1
ENDMDL
