MODEL 1
REMARK minimizedAffinity -4.16488028
REMARK minimizedRMSD -1
REMARK  1 active torsions:
REMARK  status: ('A' for Active; 'I' for Inactive)
REMARK    1  A    between atoms: N_2  and  C1_3 
ROOT
ATOM      1  C1  UNL d   1      -0.327   1.207   0.319  0.00  0.00     0.143 A 
ATOM      2  C2  UNL d   1      -0.747   1.969   1.415  0.00  0.00    -0.057 A 
ATOM      3  C3  UNL d   1      -1.430   3.179   1.239  0.00  0.00     0.033 A 
ATOM      4  C4  UNL d   1      -1.679   3.664  -0.041  0.00  0.00    -0.042 A 
ATOM      5  C5  UNL d   1      -1.249   2.936  -1.144  0.00  0.00     0.033 A 
ATOM      6  C6  UNL d   1      -0.574   1.725  -0.962  0.00  0.00    -0.057 A 
ENDROOT
BRANCH   1   7
ATOM      7  N   UNL d   1       0.442   0.046   0.428  0.00  0.00    -0.732 N 
ATOM      8  C   UNL d   1       0.358  -0.991  -0.577  0.00  0.00     0.284 C 
ATOM      9  H3  UNL d   1       1.388   0.236   0.752  0.00  0.00     0.395 HD
ENDBRANCH   1   7
TORSDOF 1
ENDMDL
