MODEL 1
REMARK minimizedAffinity 1.88099194
REMARK minimizedRMSD -1
REMARK  1 active torsions:
REMARK  status: ('A' for Active; 'I' for Inactive)
REMARK    1  A    between atoms: N_2  and  C1_3 
ROOT
ATOM      1  C1  UNL d   1      -0.133  -1.065  -0.544  0.00  0.00     0.143 A 
ATOM      2  C2  UNL d   1       0.639   0.100  -0.476  0.00  0.00    -0.057 A 
ATOM      3  C3  UNL d   1       0.141   1.328  -0.929  0.00  0.00     0.033 A 
ATOM      4  C4  UNL d   1      -1.131   1.407  -1.485  0.00  0.00    -0.042 A 
ATOM      5  C5  UNL d   1      -1.906   0.257  -1.585  0.00  0.00     0.033 A 
ATOM      6  C6  UNL d   1      -1.406  -0.965  -1.126  0.00  0.00    -0.057 A 
ENDROOT
BRANCH   1   7
ATOM      7  N   UNL d   1       0.342  -2.334  -0.202  0.00  0.00    -0.732 N 
ATOM      8  C   UNL d   1      -0.294  -3.524  -0.724  0.00  0.00     0.284 C 
ATOM      9  H3  UNL d   1       1.359  -2.377  -0.188  0.00  0.00     0.395 HD
ENDBRANCH   1   7
TORSDOF 1
ENDMDL
