MODEL 1
REMARK minimizedAffinity 4.58174467
REMARK minimizedRMSD -1
REMARK  0 active torsions:
REMARK  status: ('A' for Active; 'I' for Inactive)
ROOT
ATOM      1  C   UNL d   1      -4.434   4.294   2.255  0.00  0.00     0.078 C 
ATOM      2  C1  UNL d   1      -3.979   4.890   3.554  0.00  0.00    -0.077 A 
ATOM      3  C2  UNL d   1      -2.626   4.887   3.914  0.00  0.00    -0.001 A 
ATOM      4  C3  UNL d   1      -2.217   5.437   5.130  0.00  0.00     0.003 A 
ATOM      5  C4  UNL d   1      -3.155   5.993   5.996  0.00  0.00    -0.005 A 
ATOM      6  C5  UNL d   1      -4.504   6.000   5.648  0.00  0.00     0.003 A 
ATOM      7  C6  UNL d   1      -4.915   5.450   4.432  0.00  0.00    -0.001 A 
ENDROOT
TORSDOF 0
ENDMDL
