MODEL 1
REMARK minimizedAffinity 7.32715654
REMARK minimizedRMSD -1
REMARK  0 active torsions:
REMARK  status: ('A' for Active; 'I' for Inactive)
ROOT
ATOM      1  C   UNL d   1       4.749   0.214  -2.987  0.00  0.00     0.078 C 
ATOM      2  C1  UNL d   1       3.302   0.154  -2.600  0.00  0.00    -0.077 A 
ATOM      3  C2  UNL d   1       2.869  -0.664  -1.549  0.00  0.00    -0.001 A 
ATOM      4  C3  UNL d   1       1.517  -0.716  -1.206  0.00  0.00     0.003 A 
ATOM      5  C4  UNL d   1       0.587   0.046  -1.909  0.00  0.00    -0.005 A 
ATOM      6  C5  UNL d   1       1.007   0.861  -2.958  0.00  0.00     0.003 A 
ATOM      7  C6  UNL d   1       2.358   0.915  -3.302  0.00  0.00    -0.001 A 
ENDROOT
TORSDOF 0
ENDMDL
