MODEL 1
REMARK minimizedAffinity -0.839430571
REMARK minimizedRMSD -1
REMARK  0 active torsions:
REMARK  status: ('A' for Active; 'I' for Inactive)
ROOT
ATOM      1  C   UNL d   1       2.691  -5.937   2.064  0.00  0.00     0.078 C 
ATOM      2  C1  UNL d   1       3.700  -5.930   3.174  0.00  0.00    -0.077 A 
ATOM      3  C2  UNL d   1       5.071  -5.998   2.901  0.00  0.00    -0.001 A 
ATOM      4  C3  UNL d   1       5.999  -6.000   3.944  0.00  0.00     0.003 A 
ATOM      5  C4  UNL d   1       5.565  -5.935   5.267  0.00  0.00    -0.005 A 
ATOM      6  C5  UNL d   1       4.202  -5.870   5.548  0.00  0.00     0.003 A 
ATOM      7  C6  UNL d   1       3.273  -5.867   4.506  0.00  0.00    -0.001 A 
ENDROOT
TORSDOF 0
ENDMDL
