MODEL 1
REMARK minimizedAffinity 7.25252247
REMARK minimizedRMSD -1
REMARK  0 active torsions:
REMARK  status: ('A' for Active; 'I' for Inactive)
ROOT
ATOM      1  C   UNL d   1       2.688   3.474  -2.208  0.00  0.00     0.078 C 
ATOM      2  C1  UNL d   1       1.975   2.209  -2.581  0.00  0.00    -0.077 A 
ATOM      3  C2  UNL d   1       1.250   2.115  -3.775  0.00  0.00    -0.001 A 
ATOM      4  C3  UNL d   1       0.583   0.934  -4.104  0.00  0.00     0.003 A 
ATOM      5  C4  UNL d   1       0.633  -0.161  -3.244  0.00  0.00    -0.005 A 
ATOM      6  C5  UNL d   1       1.350  -0.076  -2.052  0.00  0.00     0.003 A 
ATOM      7  C6  UNL d   1       2.018   1.104  -1.721  0.00  0.00    -0.001 A 
ENDROOT
TORSDOF 0
ENDMDL
