MODEL 1
REMARK minimizedAffinity 5.18444347
REMARK minimizedRMSD -1
REMARK  0 active torsions:
REMARK  status: ('A' for Active; 'I' for Inactive)
ROOT
ATOM      1  C   UNL d   1      -5.830   5.303   3.749  0.00  0.00     0.078 C 
ATOM      2  C1  UNL d   1      -4.423   5.552   4.203  0.00  0.00    -0.077 A 
ATOM      3  C2  UNL d   1      -3.363   5.580   3.287  0.00  0.00    -0.001 A 
ATOM      4  C3  UNL d   1      -2.057   5.803   3.726  0.00  0.00     0.003 A 
ATOM      5  C4  UNL d   1      -1.798   5.999   5.081  0.00  0.00    -0.005 A 
ATOM      6  C5  UNL d   1      -2.845   5.972   5.999  0.00  0.00     0.003 A 
ATOM      7  C6  UNL d   1      -4.152   5.748   5.563  0.00  0.00    -0.001 A 
ENDROOT
TORSDOF 0
ENDMDL
