MODEL 1
REMARK minimizedAffinity 9.54286194
REMARK minimizedRMSD -1
REMARK  0 active torsions:
REMARK  status: ('A' for Active; 'I' for Inactive)
ROOT
ATOM      1  C   UNL d   1      -2.440  -1.573  -0.154  0.00  0.00     0.078 C 
ATOM      2  C1  UNL d   1      -2.589  -0.710   1.064  0.00  0.00    -0.077 A 
ATOM      3  C2  UNL d   1      -3.611  -0.943   1.993  0.00  0.00    -0.001 A 
ATOM      4  C3  UNL d   1      -3.744  -0.126   3.116  0.00  0.00     0.003 A 
ATOM      5  C4  UNL d   1      -2.859   0.930   3.322  0.00  0.00    -0.005 A 
ATOM      6  C5  UNL d   1      -1.841   1.172   2.402  0.00  0.00     0.003 A 
ATOM      7  C6  UNL d   1      -1.706   0.356   1.278  0.00  0.00    -0.001 A 
ENDROOT
TORSDOF 0
ENDMDL
