MODEL 1
REMARK minimizedAffinity 11.6897488
REMARK minimizedRMSD -1
REMARK  0 active torsions:
REMARK  status: ('A' for Active; 'I' for Inactive)
ROOT
ATOM      1  C   UNL d   1      -3.450  -2.536   0.259  0.00  0.00     0.078 C 
ATOM      2  C1  UNL d   1      -3.318  -1.397   1.225  0.00  0.00    -0.077 A 
ATOM      3  C2  UNL d   1      -3.970  -1.424   2.464  0.00  0.00    -0.001 A 
ATOM      4  C3  UNL d   1      -3.846  -0.352   3.350  0.00  0.00     0.003 A 
ATOM      5  C4  UNL d   1      -3.072   0.754   3.006  0.00  0.00    -0.005 A 
ATOM      6  C5  UNL d   1      -2.422   0.791   1.774  0.00  0.00     0.003 A 
ATOM      7  C6  UNL d   1      -2.545  -0.279   0.887  0.00  0.00    -0.001 A 
ENDROOT
TORSDOF 0
ENDMDL
