MODEL 1
REMARK minimizedAffinity -1.75964248
REMARK minimizedRMSD -1
REMARK  0 active torsions:
REMARK  status: ('A' for Active; 'I' for Inactive)
ROOT
ATOM      1  C   UNL d   1      -3.163   5.964   5.504  0.00  0.00     0.078 C 
ATOM      2  C1  UNL d   1      -3.553   5.587   4.106  0.00  0.00    -0.077 A 
ATOM      3  C2  UNL d   1      -4.865   5.767   3.650  0.00  0.00    -0.001 A 
ATOM      4  C3  UNL d   1      -5.217   5.403   2.349  0.00  0.00     0.003 A 
ATOM      5  C4  UNL d   1      -4.263   4.855   1.494  0.00  0.00    -0.005 A 
ATOM      6  C5  UNL d   1      -2.956   4.670   1.939  0.00  0.00     0.003 A 
ATOM      7  C6  UNL d   1      -2.602   5.033   3.239  0.00  0.00    -0.001 A 
ENDROOT
TORSDOF 0
ENDMDL
