MODEL 1
REMARK minimizedAffinity 1.68417454
REMARK minimizedRMSD -1
REMARK  0 active torsions:
REMARK  status: ('A' for Active; 'I' for Inactive)
ROOT
ATOM      1  C   UNL d   1      -2.946   5.990   5.964  0.00  0.00     0.078 C 
ATOM      2  C1  UNL d   1      -3.380   5.363   4.673  0.00  0.00    -0.077 A 
ATOM      3  C2  UNL d   1      -4.597   5.711   4.075  0.00  0.00    -0.001 A 
ATOM      4  C3  UNL d   1      -4.992   5.112   2.878  0.00  0.00     0.003 A 
ATOM      5  C4  UNL d   1      -4.177   4.160   2.269  0.00  0.00    -0.005 A 
ATOM      6  C5  UNL d   1      -2.965   3.805   2.858  0.00  0.00     0.003 A 
ATOM      7  C6  UNL d   1      -2.568   4.404   4.055  0.00  0.00    -0.001 A 
ENDROOT
TORSDOF 0
ENDMDL
