MODEL 1
REMARK minimizedAffinity 8.87904167
REMARK minimizedRMSD -1
REMARK  0 active torsions:
REMARK  status: ('A' for Active; 'I' for Inactive)
ROOT
ATOM      1  C   UNL d   1      -3.042   5.210   5.097  0.00  0.00     0.078 C 
ATOM      2  C1  UNL d   1      -3.834   4.909   3.860  0.00  0.00    -0.077 A 
ATOM      3  C2  UNL d   1      -3.341   4.037   2.882  0.00  0.00    -0.001 A 
ATOM      4  C3  UNL d   1      -4.086   3.774   1.730  0.00  0.00     0.003 A 
ATOM      5  C4  UNL d   1      -5.327   4.380   1.546  0.00  0.00    -0.005 A 
ATOM      6  C5  UNL d   1      -5.825   5.251   2.513  0.00  0.00     0.003 A 
ATOM      7  C6  UNL d   1      -5.082   5.516   3.664  0.00  0.00    -0.001 A 
ENDROOT
TORSDOF 0
ENDMDL
