MODEL 1
REMARK minimizedAffinity 9.35870361
REMARK minimizedRMSD -1
REMARK  0 active torsions:
REMARK  status: ('A' for Active; 'I' for Inactive)
ROOT
ATOM      1  C   UNL d   1      -1.088   0.197  -0.427  0.00  0.00     0.078 C 
ATOM      2  C1  UNL d   1       0.046   0.425  -1.382  0.00  0.00    -0.077 A 
ATOM      3  C2  UNL d   1       1.251  -0.274  -1.251  0.00  0.00    -0.001 A 
ATOM      4  C3  UNL d   1       2.301  -0.045  -2.142  0.00  0.00     0.003 A 
ATOM      5  C4  UNL d   1       2.156   0.886  -3.169  0.00  0.00    -0.005 A 
ATOM      6  C5  UNL d   1       0.961   1.588  -3.306  0.00  0.00     0.003 A 
ATOM      7  C6  UNL d   1      -0.090   1.360  -2.417  0.00  0.00    -0.001 A 
ENDROOT
TORSDOF 0
ENDMDL
