MODEL 1
REMARK minimizedAffinity 6.99359083
REMARK minimizedRMSD -1
REMARK  0 active torsions:
REMARK  status: ('A' for Active; 'I' for Inactive)
ROOT
ATOM      1  C   UNL d   1       5.184  -1.745   5.042  0.00  0.00     0.078 C 
ATOM      2  C1  UNL d   1       5.002  -3.221   5.230  0.00  0.00    -0.077 A 
ATOM      3  C2  UNL d   1       5.994  -3.999   5.840  0.00  0.00    -0.001 A 
ATOM      4  C3  UNL d   1       5.815  -5.374   6.000  0.00  0.00     0.003 A 
ATOM      5  C4  UNL d   1       4.645  -5.984   5.552  0.00  0.00    -0.005 A 
ATOM      6  C5  UNL d   1       3.653  -5.219   4.942  0.00  0.00     0.003 A 
ATOM      7  C6  UNL d   1       3.830  -3.844   4.781  0.00  0.00    -0.001 A 
ENDROOT
TORSDOF 0
ENDMDL
