MODEL 1
REMARK minimizedAffinity 1.92932653
REMARK minimizedRMSD -1
REMARK  0 active torsions:
REMARK  status: ('A' for Active; 'I' for Inactive)
ROOT
ATOM      1  C   UNL d   1      -5.939  -0.265   5.999  0.00  0.00     0.078 C 
ATOM      2  C1  UNL d   1      -5.283   0.568   4.939  0.00  0.00    -0.077 A 
ATOM      3  C2  UNL d   1      -4.495  -0.021   3.943  0.00  0.00    -0.001 A 
ATOM      4  C3  UNL d   1      -3.883   0.768   2.968  0.00  0.00     0.003 A 
ATOM      5  C4  UNL d   1      -4.052   2.151   2.980  0.00  0.00    -0.005 A 
ATOM      6  C5  UNL d   1      -4.832   2.747   3.968  0.00  0.00     0.003 A 
ATOM      7  C6  UNL d   1      -5.445   1.959   4.944  0.00  0.00    -0.001 A 
ENDROOT
TORSDOF 0
ENDMDL
