MODEL 1
REMARK minimizedAffinity 3.9971652
REMARK minimizedRMSD -1
REMARK  0 active torsions:
REMARK  status: ('A' for Active; 'I' for Inactive)
ROOT
ATOM      1  C   UNL d   1       1.867  -3.025  -3.158  0.00  0.00     0.078 C 
ATOM      2  C1  UNL d   1       1.820  -1.540  -2.956  0.00  0.00    -0.077 A 
ATOM      3  C2  UNL d   1       2.404  -0.946  -1.830  0.00  0.00    -0.001 A 
ATOM      4  C3  UNL d   1       2.343   0.437  -1.650  0.00  0.00     0.003 A 
ATOM      5  C4  UNL d   1       1.698   1.238  -2.591  0.00  0.00    -0.005 A 
ATOM      6  C5  UNL d   1       1.112   0.656  -3.713  0.00  0.00     0.003 A 
ATOM      7  C6  UNL d   1       1.172  -0.727  -3.895  0.00  0.00    -0.001 A 
ENDROOT
TORSDOF 0
ENDMDL
