MODEL 1
REMARK minimizedAffinity 10.8915634
REMARK minimizedRMSD -1
REMARK  0 active torsions:
REMARK  status: ('A' for Active; 'I' for Inactive)
ROOT
ATOM      1  C   UNL d   1      -5.986  -1.474   1.999  0.00  0.00     0.078 C 
ATOM      2  C1  UNL d   1      -5.524  -0.760   3.234  0.00  0.00    -0.077 A 
ATOM      3  C2  UNL d   1      -6.000  -1.126   4.499  0.00  0.00    -0.001 A 
ATOM      4  C3  UNL d   1      -5.568  -0.446   5.639  0.00  0.00     0.003 A 
ATOM      5  C4  UNL d   1      -4.660   0.605   5.525  0.00  0.00    -0.005 A 
ATOM      6  C5  UNL d   1      -4.182   0.977   4.270  0.00  0.00     0.003 A 
ATOM      7  C6  UNL d   1      -4.612   0.298   3.129  0.00  0.00    -0.001 A 
ENDROOT
TORSDOF 0
ENDMDL
