MODEL 1
REMARK minimizedAffinity 6.09882975
REMARK minimizedRMSD -1
REMARK  0 active torsions:
REMARK  status: ('A' for Active; 'I' for Inactive)
ROOT
ATOM      1  C   UNL d   1       1.295   1.122  -5.116  0.00  0.00     0.078 C 
ATOM      2  C1  UNL d   1       1.544   0.348  -3.855  0.00  0.00    -0.077 A 
ATOM      3  C2  UNL d   1       1.304  -1.030  -3.796  0.00  0.00    -0.001 A 
ATOM      4  C3  UNL d   1       1.532  -1.736  -2.613  0.00  0.00     0.003 A 
ATOM      5  C4  UNL d   1       2.000  -1.071  -1.481  0.00  0.00    -0.005 A 
ATOM      6  C5  UNL d   1       2.239   0.300  -1.530  0.00  0.00     0.003 A 
ATOM      7  C6  UNL d   1       2.012   1.008  -2.712  0.00  0.00    -0.001 A 
ENDROOT
TORSDOF 0
ENDMDL
