MODEL 1
REMARK minimizedAffinity 3.11164379
REMARK minimizedRMSD -1
REMARK  0 active torsions:
REMARK  status: ('A' for Active; 'I' for Inactive)
ROOT
ATOM      1  C   UNL d   1       2.490   3.860  -0.406  0.00  0.00     0.078 C 
ATOM      2  C1  UNL d   1       2.115   2.770  -1.365  0.00  0.00    -0.077 A 
ATOM      3  C2  UNL d   1       1.524   1.584  -0.913  0.00  0.00    -0.001 A 
ATOM      4  C3  UNL d   1       1.189   0.574  -1.816  0.00  0.00     0.003 A 
ATOM      5  C4  UNL d   1       1.443   0.738  -3.176  0.00  0.00    -0.005 A 
ATOM      6  C5  UNL d   1       2.033   1.914  -3.635  0.00  0.00     0.003 A 
ATOM      7  C6  UNL d   1       2.368   2.926  -2.734  0.00  0.00    -0.001 A 
ENDROOT
TORSDOF 0
ENDMDL
