MODEL 1
REMARK minimizedAffinity 7.23495674
REMARK minimizedRMSD -1
REMARK  0 active torsions:
REMARK  status: ('A' for Active; 'I' for Inactive)
ROOT
ATOM      1  C4' PXY d   1      -3.716   1.332   1.900  0.00  0.00     0.077 C 
ATOM      2  C1' PXY d   1      -0.363  -3.377   1.888  0.00  0.00     0.077 C 
ATOM      3  C1  PXY d   1      -1.250  -2.148   1.882  0.00  0.00    -0.082 A 
ATOM      4  C2  PXY d   1      -0.737  -0.969   2.196  0.00  0.00     0.003 A 
ATOM      5  C3  PXY d   1      -1.533   0.147   2.228  0.00  0.00     0.003 A 
ATOM      6  C4  PXY d   1      -2.855   0.065   1.883  0.00  0.00    -0.082 A 
ATOM      7  C5  PXY d   1      -3.383  -1.132   1.551  0.00  0.00     0.003 A 
ATOM      8  C6  PXY d   1      -2.569  -2.260   1.565  0.00  0.00     0.003 A 
ENDROOT
TORSDOF 0
ENDMDL
