MODEL 1
REMARK minimizedAffinity -2.23585391
REMARK minimizedRMSD -1
REMARK  0 active torsions:
REMARK  status: ('A' for Active; 'I' for Inactive)
ROOT
ATOM      1  C4' PXY d   1       4.106   0.327  -3.203  0.00  0.00     0.077 C 
ATOM      2  C1' PXY d   1       0.569  -0.836   1.219  0.00  0.00     0.077 C 
ATOM      3  C1  PXY d   1       1.489  -0.520   0.057  0.00  0.00    -0.082 A 
ATOM      4  C2  PXY d   1       2.184  -1.493  -0.510  0.00  0.00     0.003 A 
ATOM      5  C3  PXY d   1       3.046  -1.220  -1.542  0.00  0.00     0.003 A 
ATOM      6  C4  PXY d   1       3.157   0.053  -2.033  0.00  0.00    -0.082 A 
ATOM      7  C5  PXY d   1       2.444   1.050  -1.466  0.00  0.00     0.003 A 
ATOM      8  C6  PXY d   1       1.606   0.759  -0.394  0.00  0.00     0.003 A 
ENDROOT
TORSDOF 0
ENDMDL
