MODEL 1
REMARK minimizedAffinity 4.02752686
REMARK minimizedRMSD -1
REMARK  0 active torsions:
REMARK  status: ('A' for Active; 'I' for Inactive)
ROOT
ATOM      1  C4' PXY d   1       4.391  -0.362  -2.034  0.00  0.00     0.077 C 
ATOM      2  C1' PXY d   1       0.495  -3.031   1.300  0.00  0.00     0.077 C 
ATOM      3  C1  PXY d   1       1.514  -2.320   0.431  0.00  0.00    -0.082 A 
ATOM      4  C2  PXY d   1       1.822  -2.816  -0.756  0.00  0.00     0.003 A 
ATOM      5  C3  PXY d   1       2.765  -2.204  -1.540  0.00  0.00     0.003 A 
ATOM      6  C4  PXY d   1       3.361  -1.042  -1.128  0.00  0.00    -0.082 A 
ATOM      7  C5  PXY d   1       3.044  -0.523   0.077  0.00  0.00     0.003 A 
ATOM      8  C6  PXY d   1       2.114  -1.183   0.876  0.00  0.00     0.003 A 
ENDROOT
TORSDOF 0
ENDMDL
