MODEL 1
REMARK minimizedAffinity -0.754970849
REMARK minimizedRMSD -1
REMARK  0 active torsions:
REMARK  status: ('A' for Active; 'I' for Inactive)
ROOT
ATOM      1  C4' PXY d   1       1.885   2.828  -0.997  0.00  0.00     0.077 C 
ATOM      2  C1' PXY d   1       1.123  -2.536   1.018  0.00  0.00     0.077 C 
ATOM      3  C1  PXY d   1       1.333  -1.134   0.482  0.00  0.00    -0.082 A 
ATOM      4  C2  PXY d   1       0.881  -0.097   1.169  0.00  0.00     0.003 A 
ATOM      5  C3  PXY d   1       1.035   1.176   0.684  0.00  0.00     0.003 A 
ATOM      6  C4  PXY d   1       1.704   1.394  -0.490  0.00  0.00    -0.082 A 
ATOM      7  C5  PXY d   1       2.176   0.342  -1.192  0.00  0.00     0.003 A 
ATOM      8  C6  PXY d   1       1.974  -0.945  -0.703  0.00  0.00     0.003 A 
ENDROOT
TORSDOF 0
ENDMDL
