MODEL 1
REMARK minimizedAffinity -3.22895789
REMARK minimizedRMSD -1
REMARK  0 active torsions:
REMARK  status: ('A' for Active; 'I' for Inactive)
ROOT
ATOM      1  C4' PXY d   1       0.131   3.404  -3.792  0.00  0.00     0.077 C 
ATOM      2  C1' PXY d   1      -5.391   3.041  -2.123  0.00  0.00     0.077 C 
ATOM      3  C1  PXY d   1      -3.943   3.149  -2.560  0.00  0.00    -0.082 A 
ATOM      4  C2  PXY d   1      -3.402   2.177  -3.276  0.00  0.00     0.003 A 
ATOM      5  C3  PXY d   1      -2.085   2.244  -3.652  0.00  0.00     0.003 A 
ATOM      6  C4  PXY d   1      -1.329   3.341  -3.337  0.00  0.00    -0.082 A 
ATOM      7  C5  PXY d   1      -1.878   4.342  -2.615  0.00  0.00     0.003 A 
ATOM      8  C6  PXY d   1      -3.204   4.236  -2.208  0.00  0.00     0.003 A 
ENDROOT
TORSDOF 0
ENDMDL
