MODEL 1
REMARK minimizedAffinity 1.26981294
REMARK minimizedRMSD -1
REMARK  0 active torsions:
REMARK  status: ('A' for Active; 'I' for Inactive)
ROOT
ATOM      1  C4' PXY d   1      -0.517   4.151  -3.000  0.00  0.00     0.077 C 
ATOM      2  C1' PXY d   1      -5.999   2.542  -3.882  0.00  0.00     0.077 C 
ATOM      3  C1  PXY d   1      -4.558   2.961  -3.663  0.00  0.00    -0.082 A 
ATOM      4  C2  PXY d   1      -4.049   2.938  -2.443  0.00  0.00     0.003 A 
ATOM      5  C3  PXY d   1      -2.758   3.344  -2.222  0.00  0.00     0.003 A 
ATOM      6  C4  PXY d   1      -1.964   3.728  -3.269  0.00  0.00    -0.082 A 
ATOM      7  C5  PXY d   1      -2.473   3.744  -4.519  0.00  0.00     0.003 A 
ATOM      8  C6  PXY d   1      -3.798   3.367  -4.717  0.00  0.00     0.003 A 
ENDROOT
TORSDOF 0
ENDMDL
