MODEL 1
REMARK minimizedAffinity 4.85211849
REMARK minimizedRMSD -1
REMARK  0 active torsions:
REMARK  status: ('A' for Active; 'I' for Inactive)
ROOT
ATOM      1  C4' PXY d   1       2.355  -2.605  -2.379  0.00  0.00     0.077 C 
ATOM      2  C1' PXY d   1       0.886   1.136   1.776  0.00  0.00     0.077 C 
ATOM      3  C1  PXY d   1       1.272   0.165   0.677  0.00  0.00    -0.082 A 
ATOM      4  C2  PXY d   1       0.951  -1.114   0.792  0.00  0.00     0.003 A 
ATOM      5  C3  PXY d   1       1.320  -2.011  -0.176  0.00  0.00     0.003 A 
ATOM      6  C4  PXY d   1       1.978  -1.587  -1.299  0.00  0.00    -0.082 A 
ATOM      7  C5  PXY d   1       2.300  -0.283  -1.429  0.00  0.00     0.003 A 
ATOM      8  C6  PXY d   1       1.952   0.606  -0.415  0.00  0.00     0.003 A 
ENDROOT
TORSDOF 0
ENDMDL
