MODEL 1
REMARK minimizedAffinity 6.95415163
REMARK minimizedRMSD -1
REMARK  0 active torsions:
REMARK  status: ('A' for Active; 'I' for Inactive)
ROOT
ATOM      1  C4' PXY d   1       1.766   2.311   0.007  0.00  0.00     0.077 C 
ATOM      2  C1' PXY d   1       2.159  -3.446  -0.335  0.00  0.00     0.077 C 
ATOM      3  C1  PXY d   1       2.045  -1.937  -0.239  0.00  0.00    -0.082 A 
ATOM      4  C2  PXY d   1       2.721  -1.175  -1.083  0.00  0.00     0.003 A 
ATOM      5  C3  PXY d   1       2.654   0.191  -0.991  0.00  0.00     0.003 A 
ATOM      6  C4  PXY d   1       1.845   0.783  -0.058  0.00  0.00    -0.082 A 
ATOM      7  C5  PXY d   1       1.143   0.013   0.800  0.00  0.00     0.003 A 
ATOM      8  C6  PXY d   1       1.257  -1.372   0.716  0.00  0.00     0.003 A 
ENDROOT
TORSDOF 0
ENDMDL
