MODEL 1
REMARK minimizedAffinity -1.94430208
REMARK minimizedRMSD -1
REMARK  0 active torsions:
REMARK  status: ('A' for Active; 'I' for Inactive)
ROOT
ATOM      1  C4' PXY d   1       4.424  -0.385  -2.416  0.00  0.00     0.077 C 
ATOM      2  C1' PXY d   1       0.118  -0.532   1.438  0.00  0.00     0.077 C 
ATOM      3  C1  PXY d   1       1.242  -0.483   0.422  0.00  0.00    -0.082 A 
ATOM      4  C2  PXY d   1       1.899  -1.591   0.119  0.00  0.00     0.003 A 
ATOM      5  C3  PXY d   1       2.939  -1.558  -0.774  0.00  0.00     0.003 A 
ATOM      6  C4  PXY d   1       3.276  -0.390  -1.403  0.00  0.00    -0.082 A 
ATOM      7  C5  PXY d   1       2.603   0.743  -1.107  0.00  0.00     0.003 A 
ATOM      8  C6  PXY d   1       1.578   0.697  -0.167  0.00  0.00     0.003 A 
ENDROOT
TORSDOF 0
ENDMDL
