MODEL 1
REMARK minimizedAffinity -1.49852812
REMARK minimizedRMSD -1
REMARK  0 active torsions:
REMARK  status: ('A' for Active; 'I' for Inactive)
ROOT
ATOM      1  C4' PXY d   1      -0.152  -1.768   2.177  0.00  0.00     0.077 C 
ATOM      2  C1' PXY d   1       3.090   0.842  -1.834  0.00  0.00     0.077 C 
ATOM      3  C1  PXY d   1       2.241   0.146  -0.789  0.00  0.00    -0.082 A 
ATOM      4  C2  PXY d   1       1.413   0.856  -0.040  0.00  0.00     0.003 A 
ATOM      5  C3  PXY d   1       0.661   0.248   0.932  0.00  0.00     0.003 A 
ATOM      6  C4  PXY d   1       0.718  -1.110   1.103  0.00  0.00    -0.082 A 
ATOM      7  C5  PXY d   1       1.552  -1.843   0.336  0.00  0.00     0.003 A 
ATOM      8  C6  PXY d   1       2.337  -1.200  -0.617  0.00  0.00     0.003 A 
ENDROOT
TORSDOF 0
ENDMDL
