MODEL 1
REMARK minimizedAffinity -2.75877357
REMARK minimizedRMSD -1
REMARK  0 active torsions:
REMARK  status: ('A' for Active; 'I' for Inactive)
ROOT
ATOM      1  C4' PXY d   1      -0.150  -1.530   1.629  0.00  0.00     0.077 C 
ATOM      2  C1' PXY d   1       3.492   1.028  -2.061  0.00  0.00     0.077 C 
ATOM      3  C1  PXY d   1       2.535   0.368  -1.087  0.00  0.00    -0.082 A 
ATOM      4  C2  PXY d   1       2.588  -0.941  -0.903  0.00  0.00     0.003 A 
ATOM      5  C3  PXY d   1       1.710  -1.558  -0.050  0.00  0.00     0.003 A 
ATOM      6  C4  PXY d   1       0.803  -0.820   0.662  0.00  0.00    -0.082 A 
ATOM      7  C5  PXY d   1       0.749   0.518   0.489  0.00  0.00     0.003 A 
ATOM      8  C6  PXY d   1       1.623   1.119  -0.413  0.00  0.00     0.003 A 
ENDROOT
TORSDOF 0
ENDMDL
