MODEL 1
REMARK minimizedAffinity -3.2146163
REMARK minimizedRMSD -1
REMARK  0 active torsions:
REMARK  status: ('A' for Active; 'I' for Inactive)
ROOT
ATOM      1  C4' PXY d   1      -1.109  -0.236   2.951  0.00  0.00     0.077 C 
ATOM      2  C1' PXY d   1       2.796  -1.581  -1.094  0.00  0.00     0.077 C 
ATOM      3  C1  PXY d   1       1.766  -1.240  -0.035  0.00  0.00    -0.082 A 
ATOM      4  C2  PXY d   1       1.481   0.027   0.216  0.00  0.00     0.003 A 
ATOM      5  C3  PXY d   1       0.576   0.355   1.193  0.00  0.00     0.003 A 
ATOM      6  C4  PXY d   1      -0.083  -0.627   1.883  0.00  0.00    -0.082 A 
ATOM      7  C5  PXY d   1       0.195  -1.923   1.626  0.00  0.00     0.003 A 
ATOM      8  C6  PXY d   1       1.147  -2.233   0.660  0.00  0.00     0.003 A 
ENDROOT
TORSDOF 0
ENDMDL
