MODEL 1
REMARK minimizedAffinity 3.09881568
REMARK minimizedRMSD -1
REMARK  0 active torsions:
REMARK  status: ('A' for Active; 'I' for Inactive)
ROOT
ATOM      1  C4' PXY d   1      -0.750   0.851  -4.499  0.00  0.00     0.077 C 
ATOM      2  C1' PXY d   1      -0.760   6.000  -1.871  0.00  0.00     0.077 C 
ATOM      3  C1  PXY d   1      -0.770   4.648  -2.557  0.00  0.00    -0.082 A 
ATOM      4  C2  PXY d   1       0.367   3.993  -2.729  0.00  0.00     0.003 A 
ATOM      5  C3  PXY d   1       0.381   2.784  -3.376  0.00  0.00     0.003 A 
ATOM      6  C4  PXY d   1      -0.789   2.215  -3.804  0.00  0.00    -0.082 A 
ATOM      7  C5  PXY d   1      -1.954   2.871  -3.623  0.00  0.00     0.003 A 
ATOM      8  C6  PXY d   1      -1.941   4.116  -3.001  0.00  0.00     0.003 A 
ENDROOT
TORSDOF 0
ENDMDL
