MODEL 1
REMARK minimizedAffinity -0.0878184587
REMARK minimizedRMSD -1
REMARK  0 active torsions:
REMARK  status: ('A' for Active; 'I' for Inactive)
ROOT
ATOM      1  C4' PXY d   1       4.735  -0.146  -2.813  0.00  0.00     0.077 C 
ATOM      2  C1' PXY d   1       0.488  -1.545   0.850  0.00  0.00     0.077 C 
ATOM      3  C1  PXY d   1       1.597  -1.166  -0.111  0.00  0.00    -0.082 A 
ATOM      4  C2  PXY d   1       2.178  -2.103  -0.841  0.00  0.00     0.003 A 
ATOM      5  C3  PXY d   1       3.205  -1.783  -1.692  0.00  0.00     0.003 A 
ATOM      6  C4  PXY d   1       3.604  -0.481  -1.836  0.00  0.00    -0.082 A 
ATOM      7  C5  PXY d   1       3.009   0.483  -1.103  0.00  0.00     0.003 A 
ATOM      8  C6  PXY d   1       1.997   0.131  -0.214  0.00  0.00     0.003 A 
ENDROOT
TORSDOF 0
ENDMDL
