MODEL 1
REMARK minimizedAffinity -2.99504066
REMARK minimizedRMSD -1
REMARK  0 active torsions:
REMARK  status: ('A' for Active; 'I' for Inactive)
ROOT
ATOM      1  C4' PXY d   1      -0.688  -0.196   2.070  0.00  0.00     0.077 C 
ATOM      2  C1' PXY d   1       3.564  -0.569  -1.828  0.00  0.00     0.077 C 
ATOM      3  C1  PXY d   1       2.455  -0.462  -0.800  0.00  0.00    -0.082 A 
ATOM      4  C2  PXY d   1       1.690  -1.512  -0.551  0.00  0.00     0.003 A 
ATOM      5  C3  PXY d   1       0.662  -1.423   0.353  0.00  0.00     0.003 A 
ATOM      6  C4  PXY d   1       0.449  -0.262   1.047  0.00  0.00    -0.082 A 
ATOM      7  C5  PXY d   1       1.233   0.811   0.807  0.00  0.00     0.003 A 
ATOM      8  C6  PXY d   1       2.244   0.712  -0.144  0.00  0.00     0.003 A 
ENDROOT
TORSDOF 0
ENDMDL
