MODEL 1
REMARK minimizedAffinity -3.53461027
REMARK minimizedRMSD -1
REMARK  0 active torsions:
REMARK  status: ('A' for Active; 'I' for Inactive)
ROOT
ATOM      1  C4' PXY d   1       0.039  -0.717   1.277  0.00  0.00     0.077 C 
ATOM      2  C1' PXY d   1       4.389  -0.562  -2.526  0.00  0.00     0.077 C 
ATOM      3  C1  PXY d   1       3.250  -0.590  -1.527  0.00  0.00    -0.082 A 
ATOM      4  C2  PXY d   1       2.944  -1.722  -0.915  0.00  0.00     0.003 A 
ATOM      5  C3  PXY d   1       1.896  -1.772  -0.032  0.00  0.00     0.003 A 
ATOM      6  C4  PXY d   1       1.187  -0.640   0.268  0.00  0.00    -0.082 A 
ATOM      7  C5  PXY d   1       1.500   0.522  -0.345  0.00  0.00     0.003 A 
ATOM      8  C6  PXY d   1       2.541   0.543  -1.268  0.00  0.00     0.003 A 
ENDROOT
TORSDOF 0
ENDMDL
