MODEL 1
REMARK minimizedAffinity -3.15879679
REMARK minimizedRMSD -1
REMARK  0 active torsions:
REMARK  status: ('A' for Active; 'I' for Inactive)
ROOT
ATOM      1  C4' PXY d   1      -0.116  -1.322   2.170  0.00  0.00     0.077 C 
ATOM      2  C1' PXY d   1       3.336   0.177  -2.218  0.00  0.00     0.077 C 
ATOM      3  C1  PXY d   1       2.430  -0.204  -1.064  0.00  0.00    -0.082 A 
ATOM      4  C2  PXY d   1       2.448  -1.443  -0.600  0.00  0.00     0.003 A 
ATOM      5  C3  PXY d   1       1.612  -1.812   0.423  0.00  0.00     0.003 A 
ATOM      6  C4  PXY d   1       0.788  -0.890   1.012  0.00  0.00    -0.082 A 
ATOM      7  C5  PXY d   1       0.773   0.379   0.551  0.00  0.00     0.003 A 
ATOM      8  C6  PXY d   1       1.599   0.723  -0.515  0.00  0.00     0.003 A 
ENDROOT
TORSDOF 0
ENDMDL
