MODEL 1
REMARK minimizedAffinity -2.47387576
REMARK minimizedRMSD -1
REMARK  0 active torsions:
REMARK  status: ('A' for Active; 'I' for Inactive)
ROOT
ATOM      1  C4' PXY d   1       3.457   1.440  -1.801  0.00  0.00     0.077 C 
ATOM      2  C1' PXY d   1      -0.232  -1.035   1.898  0.00  0.00     0.077 C 
ATOM      3  C1  PXY d   1       0.739  -0.398   0.923  0.00  0.00    -0.082 A 
ATOM      4  C2  PXY d   1       1.242   0.797   1.188  0.00  0.00     0.003 A 
ATOM      5  C3  PXY d   1       2.097   1.401   0.303  0.00  0.00     0.003 A 
ATOM      6  C4  PXY d   1       2.481   0.754  -0.841  0.00  0.00    -0.082 A 
ATOM      7  C5  PXY d   1       1.980  -0.469  -1.113  0.00  0.00     0.003 A 
ATOM      8  C6  PXY d   1       1.082  -1.048  -0.221  0.00  0.00     0.003 A 
ENDROOT
TORSDOF 0
ENDMDL
