MODEL 1
REMARK minimizedAffinity -2.26840186
REMARK minimizedRMSD -1
REMARK  0 active torsions:
REMARK  status: ('A' for Active; 'I' for Inactive)
ROOT
ATOM      1  C4' PXY d   1       0.066  -0.398   1.516  0.00  0.00     0.077 C 
ATOM      2  C1' PXY d   1       4.139  -0.561  -2.583  0.00  0.00     0.077 C 
ATOM      3  C1  PXY d   1       3.075  -0.506  -1.504  0.00  0.00    -0.082 A 
ATOM      4  C2  PXY d   1       2.568  -1.632  -1.029  0.00  0.00     0.003 A 
ATOM      5  C3  PXY d   1       1.582  -1.600  -0.076  0.00  0.00     0.003 A 
ATOM      6  C4  PXY d   1       1.149  -0.406   0.433  0.00  0.00    -0.082 A 
ATOM      7  C5  PXY d   1       1.670   0.747  -0.039  0.00  0.00     0.003 A 
ATOM      8  C6  PXY d   1       2.640   0.695  -1.035  0.00  0.00     0.003 A 
ENDROOT
TORSDOF 0
ENDMDL
