MODEL 1
REMARK minimizedAffinity -1.51327157
REMARK minimizedRMSD -1
REMARK  1 active torsions:
REMARK  status: ('A' for Active; 'I' for Inactive)
REMARK    1  A    between atoms: C1_2  and  C2_3 
ROOT
ATOM      1  C2  UNL d   1       0.472  -0.319   0.456  0.00  0.00    -0.077 A 
ATOM      2  C3  UNL d   1       0.923  -1.149  -0.580  0.00  0.00     0.002 A 
ATOM      3  C4  UNL d   1       2.249  -1.584  -0.611  0.00  0.00     0.002 A 
ATOM      4  C5  UNL d   1       3.134  -1.197   0.393  0.00  0.00    -0.004 A 
ATOM      5  C6  UNL d   1       2.696  -0.370   1.427  0.00  0.00     0.002 A 
ATOM      6  C7  UNL d   1       1.371   0.066   1.459  0.00  0.00     0.002 A 
ENDROOT
BRANCH   1   7
ATOM      7  C1  UNL d   1      -0.970   0.111   0.517  0.00  0.00     0.055 C 
ATOM      8  C   UNL d   1      -1.332   1.004  -0.660  0.00  0.00     0.019 C 
ENDBRANCH   1   7
TORSDOF 1
ENDMDL
