MODEL 1
REMARK minimizedAffinity -3.29710293
REMARK minimizedRMSD -1
REMARK  1 active torsions:
REMARK  status: ('A' for Active; 'I' for Inactive)
REMARK    1  A    between atoms: C1_2  and  C2_3 
ROOT
ATOM      1  C2  UNL d   1      -0.466   0.476  -0.284  0.00  0.00    -0.077 A 
ATOM      2  C3  UNL d   1      -0.127  -0.828  -0.671  0.00  0.00     0.002 A 
ATOM      3  C4  UNL d   1       1.043  -1.423  -0.197  0.00  0.00     0.002 A 
ATOM      4  C5  UNL d   1       1.881  -0.725   0.670  0.00  0.00    -0.004 A 
ATOM      5  C6  UNL d   1       1.553   0.573   1.059  0.00  0.00     0.002 A 
ATOM      6  C7  UNL d   1       0.385   1.171   0.585  0.00  0.00     0.002 A 
ENDROOT
BRANCH   1   7
ATOM      7  C1  UNL d   1      -1.752   1.103  -0.756  0.00  0.00     0.055 C 
ATOM      8  C   UNL d   1      -2.870   0.900   0.256  0.00  0.00     0.019 C 
ENDBRANCH   1   7
TORSDOF 1
ENDMDL
