MODEL 1
REMARK minimizedAffinity -3.18878222
REMARK minimizedRMSD -1
REMARK  1 active torsions:
REMARK  status: ('A' for Active; 'I' for Inactive)
REMARK    1  A    between atoms: C1_2  and  C2_3 
ROOT
ATOM      1  C2  UNL d   1       1.143  -0.062   0.854  0.00  0.00    -0.077 A 
ATOM      2  C3  UNL d   1      -0.059  -0.299   0.172  0.00  0.00     0.002 A 
ATOM      3  C4  UNL d   1      -0.760   0.758  -0.413  0.00  0.00     0.002 A 
ATOM      4  C5  UNL d   1      -0.265   2.057  -0.324  0.00  0.00    -0.004 A 
ATOM      5  C6  UNL d   1       0.929   2.303   0.354  0.00  0.00     0.002 A 
ATOM      6  C7  UNL d   1       1.629   1.248   0.939  0.00  0.00     0.002 A 
ENDROOT
BRANCH   1   7
ATOM      7  C1  UNL d   1       1.925  -1.207   1.442  0.00  0.00     0.055 C 
ATOM      8  C   UNL d   1       2.698  -1.959   0.368  0.00  0.00     0.019 C 
ENDBRANCH   1   7
TORSDOF 1
ENDMDL
