MODEL 1
REMARK minimizedAffinity -2.90656447
REMARK minimizedRMSD -1
REMARK  1 active torsions:
REMARK  status: ('A' for Active; 'I' for Inactive)
REMARK    1  A    between atoms: C1_2  and  C2_3 
ROOT
ATOM      1  C2  UNL d   1       1.717  -1.068   0.195  0.00  0.00    -0.077 A 
ATOM      2  C3  UNL d   1       0.394  -1.122  -0.266  0.00  0.00     0.002 A 
ATOM      3  C4  UNL d   1      -0.483  -0.064  -0.022  0.00  0.00     0.002 A 
ATOM      4  C5  UNL d   1      -0.046   1.057   0.681  0.00  0.00    -0.004 A 
ATOM      5  C6  UNL d   1       1.267   1.119   1.146  0.00  0.00     0.002 A 
ATOM      6  C7  UNL d   1       2.145   0.062   0.903  0.00  0.00     0.002 A 
ENDROOT
BRANCH   1   7
ATOM      7  C1  UNL d   1       2.678  -2.187  -0.111  0.00  0.00     0.055 C 
ATOM      8  C   UNL d   1       2.584  -2.615  -1.568  0.00  0.00     0.019 C 
ENDBRANCH   1   7
TORSDOF 1
ENDMDL
