MODEL 1
REMARK minimizedAffinity -5.04759455
REMARK minimizedRMSD -1
REMARK  1 active torsions:
REMARK  status: ('A' for Active; 'I' for Inactive)
REMARK    1  A    between atoms: C1_2  and  C2_3 
ROOT
ATOM      1  C2  UNL d   1       1.173   0.061   0.019  0.00  0.00    -0.077 A 
ATOM      2  C3  UNL d   1       1.945  -1.105  -0.083  0.00  0.00     0.002 A 
ATOM      3  C4  UNL d   1       3.338  -1.027  -0.137  0.00  0.00     0.002 A 
ATOM      4  C5  UNL d   1       3.971   0.213  -0.085  0.00  0.00    -0.004 A 
ATOM      5  C6  UNL d   1       3.212   1.378   0.014  0.00  0.00     0.002 A 
ATOM      6  C7  UNL d   1       1.820   1.303   0.067  0.00  0.00     0.002 A 
ENDROOT
BRANCH   1   7
ATOM      7  C1  UNL d   1      -0.327  -0.023   0.127  0.00  0.00     0.055 C 
ATOM      8  C   UNL d   1      -0.750  -1.051   1.166  0.00  0.00     0.019 C 
ENDBRANCH   1   7
TORSDOF 1
ENDMDL
