MODEL 1
REMARK minimizedAffinity -4.2102356
REMARK minimizedRMSD -1
REMARK  1 active torsions:
REMARK  status: ('A' for Active; 'I' for Inactive)
REMARK    1  A    between atoms: C1_2  and  C2_3 
ROOT
ATOM      1  C2  UNL d   1      -0.374   0.893   0.081  0.00  0.00    -0.077 A 
ATOM      2  C3  UNL d   1      -0.030  -0.399   0.503  0.00  0.00     0.002 A 
ATOM      3  C4  UNL d   1       1.243  -0.659   1.014  0.00  0.00     0.002 A 
ATOM      4  C5  UNL d   1       2.180   0.367   1.111  0.00  0.00    -0.004 A 
ATOM      5  C6  UNL d   1       1.849   1.655   0.692  0.00  0.00     0.002 A 
ATOM      6  C7  UNL d   1       0.577   1.917   0.180  0.00  0.00     0.002 A 
ENDROOT
BRANCH   1   7
ATOM      7  C1  UNL d   1      -1.762   1.188  -0.424  0.00  0.00     0.055 C 
ATOM      8  C   UNL d   1      -2.765   1.251   0.719  0.00  0.00     0.019 C 
ENDBRANCH   1   7
TORSDOF 1
ENDMDL
