MODEL 1
REMARK minimizedAffinity -3.9645462
REMARK minimizedRMSD -1
REMARK  0 active torsions:
REMARK  status: ('A' for Active; 'I' for Inactive)
ROOT
ATOM      1  N1  IND d   1       0.593  -0.801   0.240  0.00  0.00    -0.196 N 
ATOM      2  C2  IND d   1      -0.774  -0.824   0.200  0.00  0.00     0.054 A 
ATOM      3  C3  IND d   1      -1.273   0.402   0.470  0.00  0.00    -0.031 A 
ATOM      4  C4  IND d   1      -0.031   2.614   0.907  0.00  0.00     0.051 A 
ATOM      5  C5  IND d   1       1.222   3.130   1.081  0.00  0.00    -0.031 A 
ATOM      6  C6  IND d   1       2.353   2.346   0.978  0.00  0.00     0.015 A 
ATOM      7  C7  IND d   1       2.273   1.014   0.685  0.00  0.00    -0.016 A 
ATOM      8  C8  IND d   1       1.001   0.486   0.516  0.00  0.00    -0.047 A 
ATOM      9  C9  IND d   1      -0.153   1.267   0.661  0.00  0.00    -0.096 A 
ATOM     10  HN1 IND d   1       1.110  -1.476   0.114  0.00  0.00     0.298 HD
ENDROOT
TORSDOF 0
ENDMDL
