MODEL 1
REMARK minimizedAffinity -3.6328094
REMARK minimizedRMSD -1
REMARK  0 active torsions:
REMARK  status: ('A' for Active; 'I' for Inactive)
ROOT
ATOM      1  N1  IND d   1       2.639   1.098   0.864  0.00  0.00    -0.196 N 
ATOM      2  C2  IND d   1       2.892   2.325   1.410  0.00  0.00     0.054 A 
ATOM      3  C3  IND d   1       1.797   3.113   1.324  0.00  0.00    -0.031 A 
ATOM      4  C4  IND d   1      -0.549   2.561   0.418  0.00  0.00     0.051 A 
ATOM      5  C5  IND d   1      -1.253   1.579  -0.219  0.00  0.00    -0.031 A 
ATOM      6  C6  IND d   1      -0.686   0.360  -0.532  0.00  0.00     0.015 A 
ATOM      7  C7  IND d   1       0.609   0.074  -0.207  0.00  0.00    -0.016 A 
ATOM      8  C8  IND d   1       1.330   1.071   0.434  0.00  0.00    -0.047 A 
ATOM      9  C9  IND d   1       0.773   2.325   0.715  0.00  0.00    -0.096 A 
ATOM     10  HN1 IND d   1       3.202   0.452   0.799  0.00  0.00     0.298 HD
ENDROOT
TORSDOF 0
ENDMDL
