MODEL 1
REMARK minimizedAffinity -2.44437695
REMARK minimizedRMSD -1
REMARK  0 active torsions:
REMARK  status: ('A' for Active; 'I' for Inactive)
ROOT
ATOM      1  N1  IND d   1       1.760  -0.783   0.595  0.00  0.00    -0.196 N 
ATOM      2  C2  IND d   1       0.854  -1.777   0.353  0.00  0.00     0.054 A 
ATOM      3  C3  IND d   1      -0.390  -1.261   0.234  0.00  0.00    -0.031 A 
ATOM      4  C4  IND d   1      -1.156   1.196   0.300  0.00  0.00     0.051 A 
ATOM      5  C5  IND d   1      -0.695   2.461   0.533  0.00  0.00    -0.031 A 
ATOM      6  C6  IND d   1       0.635   2.716   0.800  0.00  0.00     0.015 A 
ATOM      7  C7  IND d   1       1.559   1.711   0.834  0.00  0.00    -0.016 A 
ATOM      8  C8  IND d   1       1.094   0.424   0.606  0.00  0.00    -0.047 A 
ATOM      9  C9  IND d   1      -0.261   0.154   0.376  0.00  0.00    -0.096 A 
ATOM     10  HN1 IND d   1       2.603  -0.892   0.720  0.00  0.00     0.298 HD
ENDROOT
TORSDOF 0
ENDMDL
