MODEL 1
REMARK minimizedAffinity -1.79851639
REMARK minimizedRMSD -1
REMARK  0 active torsions:
REMARK  status: ('A' for Active; 'I' for Inactive)
ROOT
ATOM      1  N1  IND d   1      -0.199  -2.941  -1.015  0.00  0.00    -0.196 N 
ATOM      2  C2  IND d   1      -0.892  -3.010  -2.192  0.00  0.00     0.054 A 
ATOM      3  C3  IND d   1      -1.415  -1.803  -2.501  0.00  0.00    -0.031 A 
ATOM      4  C4  IND d   1      -1.174   0.447  -1.274  0.00  0.00     0.051 A 
ATOM      5  C5  IND d   1      -0.665   1.003  -0.134  0.00  0.00    -0.031 A 
ATOM      6  C6  IND d   1       0.043   0.259   0.788  0.00  0.00     0.015 A 
ATOM      7  C7  IND d   1       0.278  -1.074   0.597  0.00  0.00    -0.016 A 
ATOM      8  C8  IND d   1      -0.244  -1.643  -0.556  0.00  0.00    -0.047 A 
ATOM      9  C9  IND d   1      -0.999  -0.902  -1.474  0.00  0.00    -0.096 A 
ATOM     10  HN1 IND d   1       0.198  -3.598  -0.628  0.00  0.00     0.298 HD
ENDROOT
TORSDOF 0
ENDMDL
