MODEL 1
REMARK minimizedAffinity -4.45369625
REMARK minimizedRMSD -1
REMARK  0 active torsions:
REMARK  status: ('A' for Active; 'I' for Inactive)
ROOT
ATOM      1  N1  IND d   1       0.215  -1.908  -0.948  0.00  0.00    -0.196 N 
ATOM      2  C2  IND d   1      -0.307  -2.196  -2.178  0.00  0.00     0.054 A 
ATOM      3  C3  IND d   1      -1.072  -1.170  -2.616  0.00  0.00    -0.031 A 
ATOM      4  C4  IND d   1      -1.524   1.116  -1.523  0.00  0.00     0.051 A 
ATOM      5  C5  IND d   1      -1.293   1.828  -0.379  0.00  0.00    -0.031 A 
ATOM      6  C6  IND d   1      -0.531   1.321   0.654  0.00  0.00     0.015 A 
ATOM      7  C7  IND d   1       0.042   0.083   0.575  0.00  0.00    -0.016 A 
ATOM      8  C8  IND d   1      -0.196  -0.645  -0.582  0.00  0.00    -0.047 A 
ATOM      9  C9  IND d   1      -1.004  -0.153  -1.615  0.00  0.00    -0.096 A 
ATOM     10  HN1 IND d   1       0.716  -2.428  -0.481  0.00  0.00     0.298 HD
ENDROOT
TORSDOF 0
ENDMDL
