MODEL 1
REMARK minimizedAffinity -2.68845558
REMARK minimizedRMSD -1
REMARK  0 active torsions:
REMARK  status: ('A' for Active; 'I' for Inactive)
ROOT
ATOM      1  N1  IND d   1       2.609   0.962   0.680  0.00  0.00    -0.196 N 
ATOM      2  C2  IND d   1       2.928   2.233   1.070  0.00  0.00     0.054 A 
ATOM      3  C3  IND d   1       1.817   3.001   1.129  0.00  0.00    -0.031 A 
ATOM      4  C4  IND d   1      -0.642   2.353   0.724  0.00  0.00     0.051 A 
ATOM      5  C5  IND d   1      -1.428   1.314   0.310  0.00  0.00    -0.031 A 
ATOM      6  C6  IND d   1      -0.898   0.079  -0.006  0.00  0.00     0.015 A 
ATOM      7  C7  IND d   1       0.442  -0.167   0.092  0.00  0.00    -0.016 A 
ATOM      8  C8  IND d   1       1.244   0.887   0.505  0.00  0.00    -0.047 A 
ATOM      9  C9  IND d   1       0.718   2.155   0.786  0.00  0.00    -0.096 A 
ATOM     10  HN1 IND d   1       3.166   0.319   0.562  0.00  0.00     0.298 HD
ENDROOT
TORSDOF 0
ENDMDL
