MODEL 1
REMARK minimizedAffinity -2.58897519
REMARK minimizedRMSD -1
REMARK  0 active torsions:
REMARK  status: ('A' for Active; 'I' for Inactive)
ROOT
ATOM      1  N1  IND d   1       0.902  -1.104   0.115  0.00  0.00    -0.196 N 
ATOM      2  C2  IND d   1      -0.010  -1.957  -0.444  0.00  0.00     0.054 A 
ATOM      3  C3  IND d   1      -1.180  -1.316  -0.663  0.00  0.00    -0.031 A 
ATOM      4  C4  IND d   1      -1.789   1.156  -0.277  0.00  0.00     0.051 A 
ATOM      5  C5  IND d   1      -1.296   2.317   0.249  0.00  0.00    -0.031 A 
ATOM      6  C6  IND d   1      -0.020   2.399   0.766  0.00  0.00     0.015 A 
ATOM      7  C7  IND d   1       0.820   1.321   0.765  0.00  0.00    -0.016 A 
ATOM      8  C8  IND d   1       0.321   0.139   0.237  0.00  0.00    -0.047 A 
ATOM      9  C9  IND d   1      -0.988   0.038  -0.250  0.00  0.00    -0.096 A 
ATOM     10  HN1 IND d   1       1.703  -1.310   0.350  0.00  0.00     0.298 HD
ENDROOT
TORSDOF 0
ENDMDL
