MODEL 1
REMARK minimizedAffinity -1.17870629
REMARK minimizedRMSD -1
REMARK  0 active torsions:
REMARK  status: ('A' for Active; 'I' for Inactive)
ROOT
ATOM      1  N1  IND d   1      -0.595  -1.348  -1.432  0.00  0.00    -0.196 N 
ATOM      2  C2  IND d   1      -0.283  -2.273  -0.475  0.00  0.00     0.054 A 
ATOM      3  C3  IND d   1      -0.209  -1.686   0.741  0.00  0.00    -0.031 A 
ATOM      4  C4  IND d   1      -0.662   0.759   1.407  0.00  0.00     0.051 A 
ATOM      5  C5  IND d   1      -0.943   1.986   0.874  0.00  0.00    -0.031 A 
ATOM      6  C6  IND d   1      -1.128   2.168  -0.481  0.00  0.00     0.015 A 
ATOM      7  C7  IND d   1      -1.051   1.122  -1.357  0.00  0.00    -0.016 A 
ATOM      8  C8  IND d   1      -0.759  -0.124  -0.821  0.00  0.00    -0.047 A 
ATOM      9  C9  IND d   1      -0.528  -0.307   0.549  0.00  0.00    -0.096 A 
ATOM     10  HN1 IND d   1      -0.674  -1.504  -2.273  0.00  0.00     0.298 HD
ENDROOT
TORSDOF 0
ENDMDL
