MODEL 1
REMARK minimizedAffinity -2.44034457
REMARK minimizedRMSD -1
REMARK  0 active torsions:
REMARK  status: ('A' for Active; 'I' for Inactive)
ROOT
ATOM      1  N1  IND d   1      -0.510  -3.176  -0.171  0.00  0.00    -0.196 N 
ATOM      2  C2  IND d   1      -0.836  -3.366  -1.485  0.00  0.00     0.054 A 
ATOM      3  C3  IND d   1      -1.135  -2.185  -2.071  0.00  0.00    -0.031 A 
ATOM      4  C4  IND d   1      -1.056   0.194  -1.091  0.00  0.00     0.051 A 
ATOM      5  C5  IND d   1      -0.850   0.871   0.079  0.00  0.00    -0.031 A 
ATOM      6  C6  IND d   1      -0.511   0.221   1.248  0.00  0.00     0.015 A 
ATOM      7  C7  IND d   1      -0.353  -1.136   1.288  0.00  0.00    -0.016 A 
ATOM      8  C8  IND d   1      -0.568  -1.827   0.104  0.00  0.00    -0.047 A 
ATOM      9  C9  IND d   1      -0.954  -1.177  -1.075  0.00  0.00    -0.096 A 
ATOM     10  HN1 IND d   1      -0.303  -3.794   0.389  0.00  0.00     0.298 HD
ENDROOT
TORSDOF 0
ENDMDL
