MODEL 1
REMARK minimizedAffinity -1.10856032
REMARK minimizedRMSD -1
REMARK  0 active torsions:
REMARK  status: ('A' for Active; 'I' for Inactive)
ROOT
ATOM      1  N1  IND d   1      -2.276  -2.115  -1.781  0.00  0.00    -0.196 N 
ATOM      2  C2  IND d   1      -1.634  -3.291  -1.510  0.00  0.00     0.054 A 
ATOM      3  C3  IND d   1      -0.578  -3.073  -0.695  0.00  0.00    -0.031 A 
ATOM      4  C4  IND d   1       0.220  -0.883   0.398  0.00  0.00     0.051 A 
ATOM      5  C5  IND d   1      -0.025   0.461   0.421  0.00  0.00    -0.031 A 
ATOM      6  C6  IND d   1      -1.056   1.026  -0.302  0.00  0.00     0.015 A 
ATOM      7  C7  IND d   1      -1.890   0.263  -1.068  0.00  0.00    -0.016 A 
ATOM      8  C8  IND d   1      -1.640  -1.101  -1.099  0.00  0.00    -0.047 A 
ATOM      9  C9  IND d   1      -0.569  -1.675  -0.402  0.00  0.00    -0.096 A 
ATOM     10  HN1 IND d   1      -2.962  -2.024  -2.292  0.00  0.00     0.298 HD
ENDROOT
TORSDOF 0
ENDMDL
