MODEL 1
REMARK minimizedAffinity -4.1205368
REMARK minimizedRMSD -1
REMARK  0 active torsions:
REMARK  status: ('A' for Active; 'I' for Inactive)
ROOT
ATOM      1  N1  IND d   1       1.011  -0.896   0.599  0.00  0.00    -0.196 N 
ATOM      2  C2  IND d   1       0.029  -1.837   0.459  0.00  0.00     0.054 A 
ATOM      3  C3  IND d   1      -1.180  -1.242   0.351  0.00  0.00    -0.031 A 
ATOM      4  C4  IND d   1      -1.770   1.262   0.275  0.00  0.00     0.051 A 
ATOM      5  C5  IND d   1      -1.214   2.504   0.402  0.00  0.00    -0.031 A 
ATOM      6  C6  IND d   1       0.140   2.680   0.603  0.00  0.00     0.015 A 
ATOM      7  C7  IND d   1       0.994   1.615   0.673  0.00  0.00    -0.016 A 
ATOM      8  C8  IND d   1       0.432   0.353   0.551  0.00  0.00    -0.047 A 
ATOM      9  C9  IND d   1      -0.947   0.167   0.390  0.00  0.00    -0.096 A 
ATOM     10  HN1 IND d   1       1.850  -1.058   0.700  0.00  0.00     0.298 HD
ENDROOT
TORSDOF 0
ENDMDL
