MODEL 1
REMARK minimizedAffinity -2.9721334
REMARK minimizedRMSD -1
REMARK  0 active torsions:
REMARK  status: ('A' for Active; 'I' for Inactive)
ROOT
ATOM      1  N1  IND d   1      -1.364  -2.445  -2.518  0.00  0.00    -0.196 N 
ATOM      2  C2  IND d   1      -0.817  -3.647  -2.165  0.00  0.00     0.054 A 
ATOM      3  C3  IND d   1      -0.080  -3.516  -1.039  0.00  0.00    -0.031 A 
ATOM      4  C4  IND d   1       0.282  -1.445   0.447  0.00  0.00     0.051 A 
ATOM      5  C5  IND d   1       0.014  -0.106   0.513  0.00  0.00    -0.031 A 
ATOM      6  C6  IND d   1      -0.746   0.533  -0.446  0.00  0.00     0.015 A 
ATOM      7  C7  IND d   1      -1.277  -0.147  -1.505  0.00  0.00    -0.016 A 
ATOM      8  C8  IND d   1      -1.000  -1.505  -1.579  0.00  0.00    -0.047 A 
ATOM      9  C9  IND d   1      -0.195  -2.151  -0.632  0.00  0.00    -0.096 A 
ATOM     10  HN1 IND d   1      -1.854  -2.301  -3.209  0.00  0.00     0.298 HD
ENDROOT
TORSDOF 0
ENDMDL
