MODEL 1
REMARK minimizedAffinity -0.480273426
REMARK minimizedRMSD -1
REMARK  0 active torsions:
REMARK  status: ('A' for Active; 'I' for Inactive)
ROOT
ATOM      1  N1  IND d   1       2.678   0.996   1.198  0.00  0.00    -0.196 N 
ATOM      2  C2  IND d   1       3.013   2.233   1.674  0.00  0.00     0.054 A 
ATOM      3  C3  IND d   1       1.917   3.020   1.751  0.00  0.00    -0.031 A 
ATOM      4  C4  IND d   1      -0.543   2.453   1.247  0.00  0.00     0.051 A 
ATOM      5  C5  IND d   1      -1.339   1.459   0.751  0.00  0.00    -0.031 A 
ATOM      6  C6  IND d   1      -0.827   0.234   0.374  0.00  0.00     0.015 A 
ATOM      7  C7  IND d   1       0.505  -0.047   0.490  0.00  0.00    -0.016 A 
ATOM      8  C8  IND d   1       1.317   0.962   0.986  0.00  0.00    -0.047 A 
ATOM      9  C9  IND d   1       0.810   2.222   1.331  0.00  0.00    -0.096 A 
ATOM     10  HN1 IND d   1       3.225   0.348   1.056  0.00  0.00     0.298 HD
ENDROOT
TORSDOF 0
ENDMDL
