MODEL 1
REMARK minimizedAffinity -2.99223399
REMARK minimizedRMSD -1
REMARK  0 active torsions:
REMARK  status: ('A' for Active; 'I' for Inactive)
ROOT
ATOM      1  N1  IND d   1      -0.505  -1.346  -1.374  0.00  0.00    -0.196 N 
ATOM      2  C2  IND d   1      -0.320  -2.285  -0.398  0.00  0.00     0.054 A 
ATOM      3  C3  IND d   1      -0.214  -1.692   0.812  0.00  0.00    -0.031 A 
ATOM      4  C4  IND d   1      -0.416   0.798   1.436  0.00  0.00     0.051 A 
ATOM      5  C5  IND d   1      -0.549   2.040   0.882  0.00  0.00    -0.031 A 
ATOM      6  C6  IND d   1      -0.679   2.221  -0.480  0.00  0.00     0.015 A 
ATOM      7  C7  IND d   1      -0.693   1.160  -1.341  0.00  0.00    -0.016 A 
ATOM      8  C8  IND d   1      -0.552  -0.102  -0.783  0.00  0.00    -0.047 A 
ATOM      9  C9  IND d   1      -0.376  -0.289   0.595  0.00  0.00    -0.096 A 
ATOM     10  HN1 IND d   1      -0.580  -1.505  -2.216  0.00  0.00     0.298 HD
ENDROOT
TORSDOF 0
ENDMDL
