MODEL 1
REMARK minimizedAffinity 0.367331117
REMARK minimizedRMSD -1
REMARK  0 active torsions:
REMARK  status: ('A' for Active; 'I' for Inactive)
ROOT
ATOM      1  N1  IND d   1       0.843  -1.239   0.355  0.00  0.00    -0.196 N 
ATOM      2  C2  IND d   1      -0.050  -1.998  -0.347  0.00  0.00     0.054 A 
ATOM      3  C3  IND d   1      -1.161  -1.280  -0.627  0.00  0.00    -0.031 A 
ATOM      4  C4  IND d   1      -1.682   1.189  -0.117  0.00  0.00     0.051 A 
ATOM      5  C5  IND d   1      -1.188   2.282   0.538  0.00  0.00    -0.031 A 
ATOM      6  C6  IND d   1       0.036   2.257   1.176  0.00  0.00     0.015 A 
ATOM      7  C7  IND d   1       0.818   1.137   1.173  0.00  0.00    -0.016 A 
ATOM      8  C8  IND d   1       0.315   0.023   0.515  0.00  0.00    -0.047 A 
ATOM      9  C9  IND d   1      -0.944   0.029  -0.098  0.00  0.00    -0.096 A 
ATOM     10  HN1 IND d   1       1.607  -1.505   0.648  0.00  0.00     0.298 HD
ENDROOT
TORSDOF 0
ENDMDL
