MODEL 1
REMARK minimizedAffinity -1.63587368
REMARK minimizedRMSD -1
REMARK  0 active torsions:
REMARK  status: ('A' for Active; 'I' for Inactive)
ROOT
ATOM      1  N1  IND d   1      -1.266  -2.437  -2.585  0.00  0.00    -0.196 N 
ATOM      2  C2  IND d   1      -0.933  -3.762  -2.559  0.00  0.00     0.054 A 
ATOM      3  C3  IND d   1      -0.152  -4.029  -1.488  0.00  0.00    -0.031 A 
ATOM      4  C4  IND d   1       0.618  -2.465   0.406  0.00  0.00     0.051 A 
ATOM      5  C5  IND d   1       0.596  -1.156   0.798  0.00  0.00    -0.031 A 
ATOM      6  C6  IND d   1      -0.064  -0.188   0.070  0.00  0.00     0.015 A 
ATOM      7  C7  IND d   1      -0.739  -0.496  -1.078  0.00  0.00    -0.016 A 
ATOM      8  C8  IND d   1      -0.712  -1.823  -1.483  0.00  0.00    -0.047 A 
ATOM      9  C9  IND d   1      -0.009  -2.803  -0.770  0.00  0.00    -0.096 A 
ATOM     10  HN1 IND d   1      -1.742  -2.051  -3.188  0.00  0.00     0.298 HD
ENDROOT
TORSDOF 0
ENDMDL
