MODEL 1
REMARK minimizedAffinity -2.08587003
REMARK minimizedRMSD -1
REMARK  0 active torsions:
REMARK  status: ('A' for Active; 'I' for Inactive)
ROOT
ATOM      1  N1  IND d   1       0.914  -1.780  -1.854  0.00  0.00    -0.196 N 
ATOM      2  C2  IND d   1       0.245  -2.972  -1.862  0.00  0.00     0.054 A 
ATOM      3  C3  IND d   1      -0.876  -2.888  -1.112  0.00  0.00    -0.031 A 
ATOM      4  C4  IND d   1      -1.861  -0.862   0.135  0.00  0.00     0.051 A 
ATOM      5  C5  IND d   1      -1.589   0.436   0.465  0.00  0.00    -0.031 A 
ATOM      6  C6  IND d   1      -0.447   1.076   0.027  0.00  0.00     0.015 A 
ATOM      7  C7  IND d   1       0.464   0.442  -0.769  0.00  0.00    -0.016 A 
ATOM      8  C8  IND d   1       0.195  -0.879  -1.100  0.00  0.00    -0.047 A 
ATOM      9  C9  IND d   1      -0.941  -1.547  -0.624  0.00  0.00    -0.096 A 
ATOM     10  HN1 IND d   1       1.659  -1.620  -2.252  0.00  0.00     0.298 HD
ENDROOT
TORSDOF 0
ENDMDL
