MODEL 1
REMARK minimizedAffinity -0.920172811
REMARK minimizedRMSD -1
REMARK  2 active torsions:
REMARK  status: ('A' for Active; 'I' for Inactive)
REMARK    1  A    between atoms: C2'_3  and  C1'_4 
REMARK    2  A    between atoms: C1'_4  and  C1_5 
ROOT
ATOM      1  C1  I4B d   1       5.908   1.777   4.382  0.00  0.00    -0.075 A 
ATOM      2  C2  I4B d   1       5.925   1.641   3.016  0.00  0.00     0.003 A 
ATOM      3  C3  I4B d   1       5.884   0.354   2.428  0.00  0.00     0.002 A 
ATOM      4  C4  I4B d   1       5.878  -0.763   3.237  0.00  0.00    -0.004 A 
ATOM      5  C5  I4B d   1       5.838  -0.623   4.621  0.00  0.00     0.002 A 
ATOM      6  C6  I4B d   1       5.840   0.656   5.198  0.00  0.00     0.003 A 
ENDROOT
BRANCH   1   7
ATOM      7  C1' I4B d   1       5.985   3.151   4.971  0.00  0.00     0.060 C 
BRANCH   7   8
ATOM      8  C2' I4B d   1       5.407   4.123   3.963  0.00  0.00    -0.013 C 
ATOM      9  C4' I4B d   1       5.686   5.549   4.360  0.00  0.00     0.013 C 
ATOM     10  C3' I4B d   1       6.000   3.808   2.622  0.00  0.00     0.013 C 
ENDBRANCH   7   8
ENDBRANCH   1   7
TORSDOF 2
ENDMDL
