MODEL 1
REMARK minimizedAffinity -2.10588646
REMARK minimizedRMSD -1
REMARK  2 active torsions:
REMARK  status: ('A' for Active; 'I' for Inactive)
REMARK    1  A    between atoms: C2'_3  and  C1'_4 
REMARK    2  A    between atoms: C1'_4  and  C1_5 
ROOT
ATOM      1  C1  I4B d   1       5.722   1.353   5.178  0.00  0.00    -0.075 A 
ATOM      2  C2  I4B d   1       5.756   1.239   3.811  0.00  0.00     0.003 A 
ATOM      3  C3  I4B d   1       5.922   2.391   3.004  0.00  0.00     0.002 A 
ATOM      4  C4  I4B d   1       6.000   3.633   3.599  0.00  0.00    -0.004 A 
ATOM      5  C5  I4B d   1       5.989   3.744   4.987  0.00  0.00     0.002 A 
ATOM      6  C6  I4B d   1       5.861   2.596   5.782  0.00  0.00     0.003 A 
ENDROOT
BRANCH   1   7
ATOM      7  C1' I4B d   1       5.512   0.120   5.999  0.00  0.00     0.060 C 
BRANCH   7   8
ATOM      8  C2' I4B d   1       5.839  -1.079   5.132  0.00  0.00    -0.013 C 
ATOM      9  C4' I4B d   1       5.999  -2.325   5.963  0.00  0.00     0.013 C 
ATOM     10  C3' I4B d   1       4.737  -1.237   4.127  0.00  0.00     0.013 C 
ENDBRANCH   7   8
ENDBRANCH   1   7
TORSDOF 2
ENDMDL
