MODEL 1
REMARK minimizedAffinity -2.09071207
REMARK minimizedRMSD -1
REMARK  2 active torsions:
REMARK  status: ('A' for Active; 'I' for Inactive)
REMARK    1  A    between atoms: C2'_3  and  C1'_4 
REMARK    2  A    between atoms: C1'_4  and  C1_5 
ROOT
ATOM      1  C1  I4B d   1       5.833   1.210   3.609  0.00  0.00    -0.075 A 
ATOM      2  C2  I4B d   1       5.811  -0.153   3.447  0.00  0.00     0.003 A 
ATOM      3  C3  I4B d   1       5.870  -1.006   4.575  0.00  0.00     0.002 A 
ATOM      4  C4  I4B d   1       5.999  -0.459   5.835  0.00  0.00    -0.004 A 
ATOM      5  C5  I4B d   1       5.997   0.923   6.000  0.00  0.00     0.002 A 
ATOM      6  C6  I4B d   1       5.901   1.763   4.881  0.00  0.00     0.003 A 
ENDROOT
BRANCH   1   7
ATOM      7  C1' I4B d   1       5.803   2.081   2.394  0.00  0.00     0.060 C 
BRANCH   7   8
ATOM      8  C2' I4B d   1       5.998   3.515   2.842  0.00  0.00    -0.013 C 
ATOM      9  C4' I4B d   1       5.989   4.459   1.669  0.00  0.00     0.013 C 
ATOM     10  C3' I4B d   1       4.906   3.849   3.814  0.00  0.00     0.013 C 
ENDBRANCH   7   8
ENDBRANCH   1   7
TORSDOF 2
ENDMDL
