MODEL 1
REMARK minimizedAffinity -1.09665906
REMARK minimizedRMSD -1
REMARK  2 active torsions:
REMARK  status: ('A' for Active; 'I' for Inactive)
REMARK    1  A    between atoms: C2'_3  and  C1'_4 
REMARK    2  A    between atoms: C1'_4  and  C1_5 
ROOT
ATOM      1  C1  I4B d   1       5.711   1.338   4.778  0.00  0.00    -0.075 A 
ATOM      2  C2  I4B d   1       5.915   0.292   5.644  0.00  0.00     0.003 A 
ATOM      3  C3  I4B d   1       5.624  -1.034   5.240  0.00  0.00     0.002 A 
ATOM      4  C4  I4B d   1       5.088  -1.261   3.989  0.00  0.00    -0.004 A 
ATOM      5  C5  I4B d   1       4.904  -0.202   3.105  0.00  0.00     0.002 A 
ATOM      6  C6  I4B d   1       5.229   1.105   3.497  0.00  0.00     0.003 A 
ENDROOT
BRANCH   1   7
ATOM      7  C1' I4B d   1       5.997   2.729   5.249  0.00  0.00     0.060 C 
BRANCH   7   8
ATOM      8  C2' I4B d   1       5.508   3.691   4.186  0.00  0.00    -0.013 C 
ATOM      9  C4' I4B d   1       5.987   5.093   4.458  0.00  0.00     0.013 C 
ATOM     10  C3' I4B d   1       5.998   3.200   2.856  0.00  0.00     0.013 C 
ENDBRANCH   7   8
ENDBRANCH   1   7
TORSDOF 2
ENDMDL
