MODEL 1
REMARK minimizedAffinity 13.9066
REMARK minimizedRMSD -1
REMARK  2 active torsions:
REMARK  status: ('A' for Active; 'I' for Inactive)
REMARK    1  A    between atoms: C2'_3  and  C1'_4 
REMARK    2  A    between atoms: C1'_4  and  C1_5 
ROOT
ATOM      1  C1  I4B d   1      -1.567   2.686   2.820  0.00  0.00    -0.075 A 
ATOM      2  C2  I4B d   1      -1.203   3.832   3.482  0.00  0.00     0.003 A 
ATOM      3  C3  I4B d   1      -0.819   4.985   2.754  0.00  0.00     0.002 A 
ATOM      4  C4  I4B d   1      -0.766   4.932   1.376  0.00  0.00    -0.004 A 
ATOM      5  C5  I4B d   1      -1.158   3.777   0.706  0.00  0.00     0.002 A 
ATOM      6  C6  I4B d   1      -1.573   2.650   1.432  0.00  0.00     0.003 A 
ENDROOT
BRANCH   1   7
ATOM      7  C1' I4B d   1      -1.935   1.477   3.621  0.00  0.00     0.060 C 
BRANCH   7   8
ATOM      8  C2' I4B d   1      -2.144   0.326   2.658  0.00  0.00    -0.013 C 
ATOM      9  C4' I4B d   1      -0.830  -0.277   2.236  0.00  0.00     0.013 C 
ATOM     10  C3' I4B d   1      -3.014  -0.691   3.334  0.00  0.00     0.013 C 
ENDBRANCH   7   8
ENDBRANCH   1   7
TORSDOF 2
ENDMDL
