MODEL 1
REMARK minimizedAffinity 9.92553997
REMARK minimizedRMSD -1
REMARK  2 active torsions:
REMARK  status: ('A' for Active; 'I' for Inactive)
REMARK    1  A    between atoms: C2'_3  and  C1'_4 
REMARK    2  A    between atoms: C1'_4  and  C1_5 
ROOT
ATOM      1  C1  I4B d   1       5.479   2.202   3.739  0.00  0.00    -0.075 A 
ATOM      2  C2  I4B d   1       5.983   1.816   2.522  0.00  0.00     0.003 A 
ATOM      3  C3  I4B d   1       5.612   0.571   1.960  0.00  0.00     0.002 A 
ATOM      4  C4  I4B d   1       4.781  -0.273   2.666  0.00  0.00    -0.004 A 
ATOM      5  C5  I4B d   1       4.252   0.129   3.889  0.00  0.00     0.002 A 
ATOM      6  C6  I4B d   1       4.593   1.380   4.424  0.00  0.00     0.003 A 
ENDROOT
BRANCH   1   7
ATOM      7  C1' I4B d   1       5.917   3.509   4.319  0.00  0.00     0.060 C 
BRANCH   7   8
ATOM      8  C2' I4B d   1       5.475   4.610   3.377  0.00  0.00    -0.013 C 
ATOM      9  C4' I4B d   1       5.968   5.956   3.841  0.00  0.00     0.013 C 
ATOM     10  C3' I4B d   1       5.996   4.285   2.009  0.00  0.00     0.013 C 
ENDBRANCH   7   8
ENDBRANCH   1   7
TORSDOF 2
ENDMDL
