MODEL 1
REMARK minimizedAffinity -2.24531078
REMARK minimizedRMSD -1
REMARK  2 active torsions:
REMARK  status: ('A' for Active; 'I' for Inactive)
REMARK    1  A    between atoms: C2'_3  and  C1'_4 
REMARK    2  A    between atoms: C1'_4  and  C1_5 
ROOT
ATOM      1  C1  I4B d   1       5.189   2.248   4.112  0.00  0.00    -0.075 A 
ATOM      2  C2  I4B d   1       5.106   1.477   5.244  0.00  0.00     0.003 A 
ATOM      3  C3  I4B d   1       5.487   0.113   5.208  0.00  0.00     0.002 A 
ATOM      4  C4  I4B d   1       5.894  -0.447   4.014  0.00  0.00    -0.004 A 
ATOM      5  C5  I4B d   1       6.000   0.342   2.873  0.00  0.00     0.002 A 
ATOM      6  C6  I4B d   1       5.657   1.701   2.924  0.00  0.00     0.003 A 
ENDROOT
BRANCH   1   7
ATOM      7  C1' I4B d   1       4.747   3.675   4.178  0.00  0.00     0.060 C 
BRANCH   7   8
ATOM      8  C2' I4B d   1       5.980   4.551   4.077  0.00  0.00    -0.013 C 
ATOM      9  C4' I4B d   1       6.000   5.317   2.781  0.00  0.00     0.013 C 
ATOM     10  C3' I4B d   1       5.986   5.479   5.255  0.00  0.00     0.013 C 
ENDBRANCH   7   8
ENDBRANCH   1   7
TORSDOF 2
ENDMDL
