MODEL 1
REMARK minimizedAffinity -2.49001598
REMARK minimizedRMSD -1
REMARK  2 active torsions:
REMARK  status: ('A' for Active; 'I' for Inactive)
REMARK    1  A    between atoms: C2'_3  and  C1'_4 
REMARK    2  A    between atoms: C1'_4  and  C1_5 
ROOT
ATOM      1  C1  I4B d   1       5.193   1.596   3.919  0.00  0.00    -0.075 A 
ATOM      2  C2  I4B d   1       5.346   1.029   5.159  0.00  0.00     0.003 A 
ATOM      3  C3  I4B d   1       5.688  -0.340   5.280  0.00  0.00     0.002 A 
ATOM      4  C4  I4B d   1       5.817  -1.111   4.144  0.00  0.00    -0.004 A 
ATOM      5  C5  I4B d   1       5.684  -0.530   2.886  0.00  0.00     0.002 A 
ATOM      6  C6  I4B d   1       5.382   0.835   2.772  0.00  0.00     0.003 A 
ENDROOT
BRANCH   1   7
ATOM      7  C1' I4B d   1       4.798   3.036   3.828  0.00  0.00     0.060 C 
BRANCH   7   8
ATOM      8  C2' I4B d   1       5.999   3.818   3.337  0.00  0.00    -0.013 C 
ATOM      9  C4' I4B d   1       5.999   3.932   1.835  0.00  0.00     0.013 C 
ATOM     10  C3' I4B d   1       5.966   5.171   3.982  0.00  0.00     0.013 C 
ENDBRANCH   7   8
ENDBRANCH   1   7
TORSDOF 2
ENDMDL
