MODEL 1
REMARK minimizedAffinity 1.62373447
REMARK minimizedRMSD -1
REMARK  2 active torsions:
REMARK  status: ('A' for Active; 'I' for Inactive)
REMARK    1  A    between atoms: C2'_3  and  C1'_4 
REMARK    2  A    between atoms: C1'_4  and  C1_5 
ROOT
ATOM      1  C1  I4B d   1       5.937   1.042   3.574  0.00  0.00    -0.075 A 
ATOM      2  C2  I4B d   1       5.851  -0.297   3.284  0.00  0.00     0.003 A 
ATOM      3  C3  I4B d   1       5.824  -1.252   4.329  0.00  0.00     0.002 A 
ATOM      4  C4  I4B d   1       5.935  -0.830   5.638  0.00  0.00    -0.004 A 
ATOM      5  C5  I4B d   1       5.998   0.529   5.931  0.00  0.00     0.002 A 
ATOM      6  C6  I4B d   1       5.987   1.472   4.893  0.00  0.00     0.003 A 
ENDROOT
BRANCH   1   7
ATOM      7  C1' I4B d   1       5.996   2.022   2.445  0.00  0.00     0.060 C 
BRANCH   7   8
ATOM      8  C2' I4B d   1       5.897   3.416   3.030  0.00  0.00    -0.013 C 
ATOM      9  C4' I4B d   1       5.994   4.467   1.956  0.00  0.00     0.013 C 
ATOM     10  C3' I4B d   1       4.597   3.516   3.770  0.00  0.00     0.013 C 
ENDBRANCH   7   8
ENDBRANCH   1   7
TORSDOF 2
ENDMDL
