MODEL 1
REMARK minimizedAffinity 15.4221678
REMARK minimizedRMSD -1
REMARK  2 active torsions:
REMARK  status: ('A' for Active; 'I' for Inactive)
REMARK    1  A    between atoms: C2'_3  and  C1'_4 
REMARK    2  A    between atoms: C1'_4  and  C1_5 
ROOT
ATOM      1  C1  I4B d   1       5.956   3.296   3.216  0.00  0.00    -0.075 A 
ATOM      2  C2  I4B d   1       5.966   3.493   4.574  0.00  0.00     0.003 A 
ATOM      3  C3  I4B d   1       5.960   4.807   5.103  0.00  0.00     0.002 A 
ATOM      4  C4  I4B d   1       5.994   5.886   4.244  0.00  0.00    -0.004 A 
ATOM      5  C5  I4B d   1       5.961   5.684   2.868  0.00  0.00     0.002 A 
ATOM      6  C6  I4B d   1       5.929   4.381   2.350  0.00  0.00     0.003 A 
ENDROOT
BRANCH   1   7
ATOM      7  C1' I4B d   1       5.996   1.896   2.691  0.00  0.00     0.060 C 
BRANCH   7   8
ATOM      8  C2' I4B d   1       4.582   1.352   2.703  0.00  0.00    -0.013 C 
ATOM      9  C4' I4B d   1       4.175   0.861   1.339  0.00  0.00     0.013 C 
ATOM     10  C3' I4B d   1       4.520   0.248   3.717  0.00  0.00     0.013 C 
ENDBRANCH   7   8
ENDBRANCH   1   7
TORSDOF 2
ENDMDL
