MODEL 1
REMARK minimizedAffinity -1.47036397
REMARK minimizedRMSD -1
REMARK  2 active torsions:
REMARK  status: ('A' for Active; 'I' for Inactive)
REMARK    1  A    between atoms: C2'_3  and  C1'_4 
REMARK    2  A    between atoms: C1'_4  and  C1_5 
ROOT
ATOM      1  C1  I4B d   1       6.000   1.066   3.599  0.00  0.00    -0.075 A 
ATOM      2  C2  I4B d   1       6.000   1.373   4.937  0.00  0.00     0.003 A 
ATOM      3  C3  I4B d   1       5.986   0.340   5.905  0.00  0.00     0.002 A 
ATOM      4  C4  I4B d   1       5.921  -0.976   5.495  0.00  0.00    -0.004 A 
ATOM      5  C5  I4B d   1       5.945  -1.286   4.138  0.00  0.00     0.002 A 
ATOM      6  C6  I4B d   1       5.997  -0.260   3.184  0.00  0.00     0.003 A 
ENDROOT
BRANCH   1   7
ATOM      7  C1' I4B d   1       5.982   2.182   2.603  0.00  0.00     0.060 C 
BRANCH   7   8
ATOM      8  C2' I4B d   1       5.499   3.431   3.311  0.00  0.00    -0.013 C 
ATOM      9  C4' I4B d   1       5.967   4.675   2.601  0.00  0.00     0.013 C 
ATOM     10  C3' I4B d   1       4.002   3.376   3.378  0.00  0.00     0.013 C 
ENDBRANCH   7   8
ENDBRANCH   1   7
TORSDOF 2
ENDMDL
