MODEL 1
REMARK minimizedAffinity 3.40226984
REMARK minimizedRMSD -1
REMARK  2 active torsions:
REMARK  status: ('A' for Active; 'I' for Inactive)
REMARK    1  A    between atoms: C2'_3  and  C1'_4 
REMARK    2  A    between atoms: C1'_4  and  C1_5 
ROOT
ATOM      1  C1  I4B d   1       5.859   1.156   3.308  0.00  0.00    -0.075 A 
ATOM      2  C2  I4B d   1       5.900   1.869   2.136  0.00  0.00     0.003 A 
ATOM      3  C3  I4B d   1       5.996   3.281   2.164  0.00  0.00     0.002 A 
ATOM      4  C4  I4B d   1       5.997   3.939   3.378  0.00  0.00    -0.004 A 
ATOM      5  C5  I4B d   1       5.978   3.213   4.565  0.00  0.00     0.002 A 
ATOM      6  C6  I4B d   1       5.921   1.812   4.531  0.00  0.00     0.003 A 
ENDROOT
BRANCH   1   7
ATOM      7  C1' I4B d   1       5.724  -0.332   3.242  0.00  0.00     0.060 C 
BRANCH   7   8
ATOM      8  C2' I4B d   1       6.000  -0.888   4.625  0.00  0.00    -0.013 C 
ATOM      9  C4' I4B d   1       5.013  -0.358   5.632  0.00  0.00     0.013 C 
ATOM     10  C3' I4B d   1       5.939  -2.384   4.543  0.00  0.00     0.013 C 
ENDBRANCH   7   8
ENDBRANCH   1   7
TORSDOF 2
ENDMDL
