MODEL 1
REMARK minimizedAffinity 1.08486152
REMARK minimizedRMSD -1
REMARK  2 active torsions:
REMARK  status: ('A' for Active; 'I' for Inactive)
REMARK    1  A    between atoms: C2'_3  and  C1'_4 
REMARK    2  A    between atoms: C1'_4  and  C1_5 
ROOT
ATOM      1  C1  I4B d   1       5.960  -0.263   3.606  0.00  0.00    -0.075 A 
ATOM      2  C2  I4B d   1       5.981  -1.596   3.282  0.00  0.00     0.003 A 
ATOM      3  C3  I4B d   1       5.975  -2.578   4.302  0.00  0.00     0.002 A 
ATOM      4  C4  I4B d   1       6.000  -2.185   5.624  0.00  0.00    -0.004 A 
ATOM      5  C5  I4B d   1       5.955  -0.833   5.952  0.00  0.00     0.002 A 
ATOM      6  C6  I4B d   1       5.923   0.135   4.937  0.00  0.00     0.003 A 
ENDROOT
BRANCH   1   7
ATOM      7  C1' I4B d   1       6.000   0.748   2.505  0.00  0.00     0.060 C 
BRANCH   7   8
ATOM      8  C2' I4B d   1       5.658   2.100   3.098  0.00  0.00    -0.013 C 
ATOM      9  C4' I4B d   1       6.000   3.215   2.146  0.00  0.00     0.013 C 
ATOM     10  C3' I4B d   1       4.196   2.102   3.433  0.00  0.00     0.013 C 
ENDBRANCH   7   8
ENDBRANCH   1   7
TORSDOF 2
ENDMDL
