MODEL 1
REMARK minimizedAffinity 1.34504104
REMARK minimizedRMSD -1
REMARK  2 active torsions:
REMARK  status: ('A' for Active; 'I' for Inactive)
REMARK    1  A    between atoms: C2'_3  and  C1'_4 
REMARK    2  A    between atoms: C1'_4  and  C1_5 
ROOT
ATOM      1  C1  I4B d   1       5.937   3.393   3.817  0.00  0.00    -0.075 A 
ATOM      2  C2  I4B d   1       5.869   4.611   4.447  0.00  0.00     0.003 A 
ATOM      3  C3  I4B d   1       5.846   5.806   3.688  0.00  0.00     0.002 A 
ATOM      4  C4  I4B d   1       5.943   5.740   2.313  0.00  0.00    -0.004 A 
ATOM      5  C5  I4B d   1       5.989   4.504   1.675  0.00  0.00     0.002 A 
ATOM      6  C6  I4B d   1       5.974   3.322   2.430  0.00  0.00     0.003 A 
ENDROOT
BRANCH   1   7
ATOM      7  C1' I4B d   1       5.993   2.152   4.650  0.00  0.00     0.060 C 
BRANCH   7   8
ATOM      8  C2' I4B d   1       5.374   1.024   3.850  0.00  0.00    -0.013 C 
ATOM      9  C4' I4B d   1       5.999   0.917   2.485  0.00  0.00     0.013 C 
ATOM     10  C3' I4B d   1       5.550  -0.246   4.628  0.00  0.00     0.013 C 
ENDBRANCH   7   8
ENDBRANCH   1   7
TORSDOF 2
ENDMDL
