MODEL 1
REMARK minimizedAffinity 0.180211738
REMARK minimizedRMSD -1
REMARK  2 active torsions:
REMARK  status: ('A' for Active; 'I' for Inactive)
REMARK    1  A    between atoms: C2'_3  and  C1'_4 
REMARK    2  A    between atoms: C1'_4  and  C1_5 
ROOT
ATOM      1  C1  I4B d   1       5.974   3.012   3.046  0.00  0.00    -0.075 A 
ATOM      2  C2  I4B d   1       5.978   2.804   4.402  0.00  0.00     0.003 A 
ATOM      3  C3  I4B d   1       5.998   1.486   4.921  0.00  0.00     0.002 A 
ATOM      4  C4  I4B d   1       5.963   0.414   4.054  0.00  0.00    -0.004 A 
ATOM      5  C5  I4B d   1       5.982   0.627   2.679  0.00  0.00     0.002 A 
ATOM      6  C6  I4B d   1       6.000   1.934   2.171  0.00  0.00     0.003 A 
ENDROOT
BRANCH   1   7
ATOM      7  C1' I4B d   1       5.919   4.416   2.532  0.00  0.00     0.060 C 
BRANCH   7   8
ATOM      8  C2' I4B d   1       5.464   4.367   1.087  0.00  0.00    -0.013 C 
ATOM      9  C4' I4B d   1       3.963   4.298   0.990  0.00  0.00     0.013 C 
ATOM     10  C3' I4B d   1       5.997   5.585   0.393  0.00  0.00     0.013 C 
ENDBRANCH   7   8
ENDBRANCH   1   7
TORSDOF 2
ENDMDL
