MODEL 1
REMARK minimizedAffinity -1.57930017
REMARK minimizedRMSD -1
REMARK  2 active torsions:
REMARK  status: ('A' for Active; 'I' for Inactive)
REMARK    1  A    between atoms: C2'_3  and  C1'_4 
REMARK    2  A    between atoms: C1'_4  and  C1_5 
ROOT
ATOM      1  C1  I4B d   1       5.832   0.390   3.798  0.00  0.00    -0.075 A 
ATOM      2  C2  I4B d   1       5.968  -0.864   3.257  0.00  0.00     0.003 A 
ATOM      3  C3  I4B d   1       5.850  -2.011   4.080  0.00  0.00     0.002 A 
ATOM      4  C4  I4B d   1       5.648  -1.857   5.436  0.00  0.00    -0.004 A 
ATOM      5  C5  I4B d   1       5.488  -0.585   5.978  0.00  0.00     0.002 A 
ATOM      6  C6  I4B d   1       5.568   0.545   5.152  0.00  0.00     0.003 A 
ENDROOT
BRANCH   1   7
ATOM      7  C1' I4B d   1       5.995   1.580   2.906  0.00  0.00     0.060 C 
BRANCH   7   8
ATOM      8  C2' I4B d   1       5.501   2.799   3.659  0.00  0.00    -0.013 C 
ATOM      9  C4' I4B d   1       5.973   2.785   5.089  0.00  0.00     0.013 C 
ATOM     10  C3' I4B d   1       5.991   4.019   2.939  0.00  0.00     0.013 C 
ENDBRANCH   7   8
ENDBRANCH   1   7
TORSDOF 2
ENDMDL
