MODEL 1
REMARK minimizedAffinity 8.81424904
REMARK minimizedRMSD -1
REMARK  2 active torsions:
REMARK  status: ('A' for Active; 'I' for Inactive)
REMARK    1  A    between atoms: C2'_3  and  C1'_4 
REMARK    2  A    between atoms: C1'_4  and  C1_5 
ROOT
ATOM      1  C1  I4B d   1       2.494   0.546  -4.053  0.00  0.00    -0.075 A 
ATOM      2  C2  I4B d   1       1.441  -0.294  -3.794  0.00  0.00     0.003 A 
ATOM      3  C3  I4B d   1       1.316  -0.910  -2.525  0.00  0.00     0.002 A 
ATOM      4  C4  I4B d   1       2.288  -0.698  -1.568  0.00  0.00    -0.004 A 
ATOM      5  C5  I4B d   1       3.343   0.172  -1.826  0.00  0.00     0.002 A 
ATOM      6  C6  I4B d   1       3.441   0.808  -3.072  0.00  0.00     0.003 A 
ENDROOT
BRANCH   1   7
ATOM      7  C1' I4B d   1       2.613   1.153  -5.415  0.00  0.00     0.060 C 
BRANCH   7   8
ATOM      8  C2' I4B d   1       3.570   2.325  -5.322  0.00  0.00    -0.013 C 
ATOM      9  C4' I4B d   1       4.898   1.995  -5.951  0.00  0.00     0.013 C 
ATOM     10  C3' I4B d   1       2.928   3.501  -5.997  0.00  0.00     0.013 C 
ENDBRANCH   7   8
ENDBRANCH   1   7
TORSDOF 2
ENDMDL
