MODEL 1
REMARK minimizedAffinity -0.584402919
REMARK minimizedRMSD -1
REMARK  2 active torsions:
REMARK  status: ('A' for Active; 'I' for Inactive)
REMARK    1  A    between atoms: C2'_3  and  C1'_4 
REMARK    2  A    between atoms: C1'_4  and  C1_5 
ROOT
ATOM      1  C1  I4B d   1       5.880   0.421   4.742  0.00  0.00    -0.075 A 
ATOM      2  C2  I4B d   1       5.869   1.684   5.280  0.00  0.00     0.003 A 
ATOM      3  C3  I4B d   1       5.904   2.819   4.435  0.00  0.00     0.002 A 
ATOM      4  C4  I4B d   1       6.000   2.647   3.069  0.00  0.00    -0.004 A 
ATOM      5  C5  I4B d   1       5.987   1.366   2.524  0.00  0.00     0.002 A 
ATOM      6  C6  I4B d   1       5.915   0.246   3.365  0.00  0.00     0.003 A 
ENDROOT
BRANCH   1   7
ATOM      7  C1' I4B d   1       5.876  -0.755   5.666  0.00  0.00     0.060 C 
BRANCH   7   8
ATOM      8  C2' I4B d   1       5.995  -2.010   4.824  0.00  0.00    -0.013 C 
ATOM      9  C4' I4B d   1       6.000  -3.245   5.685  0.00  0.00     0.013 C 
ATOM     10  C3' I4B d   1       4.849  -2.028   3.856  0.00  0.00     0.013 C 
ENDBRANCH   7   8
ENDBRANCH   1   7
TORSDOF 2
ENDMDL
