MODEL 1
REMARK minimizedAffinity 4.42284966
REMARK minimizedRMSD -1
REMARK  0 active torsions:
REMARK  status: ('A' for Active; 'I' for Inactive)
ROOT
ATOM      1  C   UNL d   1      -2.863  -2.173  -2.376  0.00  0.00     0.124 A 
ATOM      2  C1  UNL d   1      -2.222  -1.228  -3.165  0.00  0.00     0.062 A 
ATOM      3  C2  UNL d   1      -0.973  -0.737  -2.794  0.00  0.00     0.162 A 
ATOM      4  C3  UNL d   1      -0.356  -1.192  -1.628  0.00  0.00    -0.034 A 
ATOM      5  C4  UNL d   1      -1.007  -2.143  -0.840  0.00  0.00     0.162 A 
ATOM      6  C5  UNL d   1      -2.255  -2.630  -1.215  0.00  0.00     0.062 A 
ATOM      7  F   UNL d   1      -2.873  -3.543  -0.452  0.00  0.00    -0.097 F 
ATOM      8  F1  UNL d   1      -0.443  -2.602   0.287  0.00  0.00    -0.096 F 
ATOM      9  I   UNL d   1       1.511  -0.462  -1.070  0.00  0.00    -0.060 I 
ATOM     10  F2  UNL d   1      -0.377   0.176  -3.575  0.00  0.00    -0.096 F 
ATOM     11  F3  UNL d   1      -2.807  -0.784  -4.287  0.00  0.00    -0.097 F 
ATOM     12  F4  UNL d   1      -4.064  -2.643  -2.735  0.00  0.00    -0.092 F 
ENDROOT
TORSDOF 0
ENDMDL
