MODEL 1
REMARK minimizedAffinity 3.9830792
REMARK minimizedRMSD -1
REMARK  0 active torsions:
REMARK  status: ('A' for Active; 'I' for Inactive)
ROOT
ATOM      1  C   UNL d   1       1.282   0.825   1.204  0.00  0.00     0.124 A 
ATOM      2  C1  UNL d   1      -0.069   0.940   1.502  0.00  0.00     0.062 A 
ATOM      3  C2  UNL d   1      -1.004   0.160   0.827  0.00  0.00     0.162 A 
ATOM      4  C3  UNL d   1      -0.591  -0.743  -0.152  0.00  0.00    -0.034 A 
ATOM      5  C4  UNL d   1       0.769  -0.853  -0.447  0.00  0.00     0.162 A 
ATOM      6  C5  UNL d   1       1.700  -0.071   0.230  0.00  0.00     0.062 A 
ATOM      7  F   UNL d   1       3.004  -0.184  -0.059  0.00  0.00    -0.097 F 
ATOM      8  F1  UNL d   1       1.201  -1.712  -1.383  0.00  0.00    -0.096 F 
ATOM      9  I   UNL d   1      -1.985  -1.911  -1.163  0.00  0.00    -0.060 I 
ATOM     10  F2  UNL d   1      -2.302   0.292   1.136  0.00  0.00    -0.096 F 
ATOM     11  F3  UNL d   1      -0.475   1.806   2.442  0.00  0.00    -0.097 F 
ATOM     12  F4  UNL d   1       2.179   1.577   1.854  0.00  0.00    -0.092 F 
ENDROOT
TORSDOF 0
ENDMDL
