MODEL 1
REMARK minimizedAffinity 4.07953024
REMARK minimizedRMSD -1
REMARK  0 active torsions:
REMARK  status: ('A' for Active; 'I' for Inactive)
ROOT
ATOM      1  C   UNL d   1      -0.149   0.905   1.115  0.00  0.00     0.124 A 
ATOM      2  C1  UNL d   1       1.001   0.783   0.346  0.00  0.00     0.062 A 
ATOM      3  C2  UNL d   1       2.242   1.107   0.887  0.00  0.00     0.162 A 
ATOM      4  C3  UNL d   1       2.341   1.554   2.204  0.00  0.00    -0.034 A 
ATOM      5  C4  UNL d   1       1.181   1.675   2.971  0.00  0.00     0.162 A 
ATOM      6  C5  UNL d   1      -0.058   1.350   2.427  0.00  0.00     0.062 A 
ATOM      7  F   UNL d   1      -1.167   1.468   3.171  0.00  0.00    -0.097 F 
ATOM      8  F1  UNL d   1       1.240   2.102   4.241  0.00  0.00    -0.096 F 
ATOM      9  I   UNL d   1       4.195   2.039   3.016  0.00  0.00    -0.060 I 
ATOM     10  F2  UNL d   1       3.336   0.980   0.121  0.00  0.00    -0.096 F 
ATOM     11  F3  UNL d   1       0.915   0.354  -0.921  0.00  0.00    -0.097 F 
ATOM     12  F4  UNL d   1      -1.342   0.594   0.593  0.00  0.00    -0.092 F 
ENDROOT
TORSDOF 0
ENDMDL
