MODEL 1
REMARK minimizedAffinity 13.8560658
REMARK minimizedRMSD -1
REMARK  0 active torsions:
REMARK  status: ('A' for Active; 'I' for Inactive)
ROOT
ATOM      1  C   UNL d   1       0.417   1.540   2.077  0.00  0.00     0.124 A 
ATOM      2  C1  UNL d   1      -0.194   0.322   1.810  0.00  0.00     0.062 A 
ATOM      3  C2  UNL d   1       0.194  -0.428   0.704  0.00  0.00     0.162 A 
ATOM      4  C3  UNL d   1       1.201   0.037  -0.143  0.00  0.00    -0.034 A 
ATOM      5  C4  UNL d   1       1.810   1.262   0.132  0.00  0.00     0.162 A 
ATOM      6  C5  UNL d   1       1.418   2.008   1.238  0.00  0.00     0.062 A 
ATOM      7  F   UNL d   1       2.009   3.184   1.495  0.00  0.00    -0.097 F 
ATOM      8  F1  UNL d   1       2.780   1.738  -0.662  0.00  0.00    -0.096 F 
ATOM      9  I   UNL d   1       1.785  -1.082  -1.798  0.00  0.00    -0.060 I 
ATOM     10  F2  UNL d   1      -0.413  -1.601   0.470  0.00  0.00    -0.096 F 
ATOM     11  F3  UNL d   1      -1.162  -0.132   2.619  0.00  0.00    -0.097 F 
ATOM     12  F4  UNL d   1       0.040   2.260   3.142  0.00  0.00    -0.092 F 
ENDROOT
TORSDOF 0
ENDMDL
