MODEL 1
REMARK minimizedAffinity 4.21762657
REMARK minimizedRMSD -1
REMARK  0 active torsions:
REMARK  status: ('A' for Active; 'I' for Inactive)
ROOT
ATOM      1  C   UNL d   1       1.596   1.437  -1.281  0.00  0.00     0.124 A 
ATOM      2  C1  UNL d   1       1.631   0.177  -0.700  0.00  0.00     0.062 A 
ATOM      3  C2  UNL d   1       0.905  -0.871  -1.259  0.00  0.00     0.162 A 
ATOM      4  C3  UNL d   1       0.138  -0.664  -2.405  0.00  0.00    -0.034 A 
ATOM      5  C4  UNL d   1       0.108   0.607  -2.983  0.00  0.00     0.162 A 
ATOM      6  C5  UNL d   1       0.835   1.651  -2.421  0.00  0.00     0.062 A 
ATOM      7  F   UNL d   1       0.800   2.868  -2.983  0.00  0.00    -0.097 F 
ATOM      8  F1  UNL d   1      -0.619   0.841  -4.086  0.00  0.00    -0.096 F 
ATOM      9  I   UNL d   1      -0.949  -2.228  -3.243  0.00  0.00    -0.060 I 
ATOM     10  F2  UNL d   1       0.957  -2.079  -0.677  0.00  0.00    -0.096 F 
ATOM     11  F3  UNL d   1       2.365  -0.032   0.402  0.00  0.00    -0.097 F 
ATOM     12  F4  UNL d   1       2.295   2.444  -0.741  0.00  0.00    -0.092 F 
ENDROOT
TORSDOF 0
ENDMDL
