MODEL 1
REMARK minimizedAffinity 10.9656267
REMARK minimizedRMSD -1
REMARK  0 active torsions:
REMARK  status: ('A' for Active; 'I' for Inactive)
ROOT
ATOM      1  C   UNL d   1      -0.135   2.660   0.351  0.00  0.00     0.124 A 
ATOM      2  C1  UNL d   1      -1.125   2.625   1.322  0.00  0.00     0.062 A 
ATOM      3  C2  UNL d   1      -0.868   2.050   2.563  0.00  0.00     0.162 A 
ATOM      4  C3  UNL d   1       0.386   1.505   2.841  0.00  0.00    -0.034 A 
ATOM      5  C4  UNL d   1       1.377   1.544   1.858  0.00  0.00     0.162 A 
ATOM      6  C5  UNL d   1       1.115   2.120   0.619  0.00  0.00     0.062 A 
ATOM      7  F   UNL d   1       2.073   2.153  -0.319  0.00  0.00    -0.097 F 
ATOM      8  F1  UNL d   1       2.593   1.030   2.091  0.00  0.00    -0.096 F 
ATOM      9  I   UNL d   1       0.774   0.644   4.695  0.00  0.00    -0.060 I 
ATOM     10  F2  UNL d   1      -1.844   2.030   3.484  0.00  0.00    -0.096 F 
ATOM     11  F3  UNL d   1      -2.334   3.146   1.065  0.00  0.00    -0.097 F 
ATOM     12  F4  UNL d   1      -0.385   3.213  -0.843  0.00  0.00    -0.092 F 
ENDROOT
TORSDOF 0
ENDMDL
