MODEL 1
REMARK minimizedAffinity 13.7314034
REMARK minimizedRMSD -1
REMARK  0 active torsions:
REMARK  status: ('A' for Active; 'I' for Inactive)
ROOT
ATOM      1  C   UNL d   1      -2.317  -1.387  -2.983  0.00  0.00     0.124 A 
ATOM      2  C1  UNL d   1      -1.292  -0.462  -3.119  0.00  0.00     0.062 A 
ATOM      3  C2  UNL d   1      -0.678   0.074  -1.991  0.00  0.00     0.162 A 
ATOM      4  C3  UNL d   1      -1.087  -0.315  -0.715  0.00  0.00    -0.034 A 
ATOM      5  C4  UNL d   1      -2.120  -1.246  -0.587  0.00  0.00     0.162 A 
ATOM      6  C5  UNL d   1      -2.730  -1.778  -1.718  0.00  0.00     0.062 A 
ATOM      7  F   UNL d   1      -3.721  -2.672  -1.584  0.00  0.00    -0.097 F 
ATOM      8  F1  UNL d   1      -2.539  -1.642   0.625  0.00  0.00    -0.096 F 
ATOM      9  I   UNL d   1      -0.172   0.483   0.975  0.00  0.00    -0.060 I 
ATOM     10  F2  UNL d   1       0.311   0.966  -2.152  0.00  0.00    -0.096 F 
ATOM     11  F3  UNL d   1      -0.891  -0.082  -4.341  0.00  0.00    -0.097 F 
ATOM     12  F4  UNL d   1      -2.907  -1.900  -4.071  0.00  0.00    -0.092 F 
ENDROOT
TORSDOF 0
ENDMDL
