MODEL 1
REMARK minimizedAffinity 9.39575863
REMARK minimizedRMSD -1
REMARK  0 active torsions:
REMARK  status: ('A' for Active; 'I' for Inactive)
ROOT
ATOM      1  C   UNL d   1       1.383   1.124   0.843  0.00  0.00     0.124 A 
ATOM      2  C1  UNL d   1       1.612   0.206  -0.172  0.00  0.00     0.062 A 
ATOM      3  C2  UNL d   1       0.983  -1.036  -0.147  0.00  0.00     0.162 A 
ATOM      4  C3  UNL d   1       0.118  -1.366   0.896  0.00  0.00    -0.034 A 
ATOM      5  C4  UNL d   1      -0.106  -0.437   1.914  0.00  0.00     0.162 A 
ATOM      6  C5  UNL d   1       0.525   0.802   1.885  0.00  0.00     0.062 A 
ATOM      7  F   UNL d   1       0.302   1.688   2.867  0.00  0.00    -0.097 F 
ATOM      8  F1  UNL d   1      -0.932  -0.722   2.932  0.00  0.00    -0.096 F 
ATOM      9  I   UNL d   1      -0.824  -3.221   0.936  0.00  0.00    -0.060 I 
ATOM     10  F2  UNL d   1       1.223  -1.904  -1.141  0.00  0.00    -0.096 F 
ATOM     11  F3  UNL d   1       2.442   0.515  -1.179  0.00  0.00    -0.097 F 
ATOM     12  F4  UNL d   1       1.990   2.318   0.818  0.00  0.00    -0.092 F 
ENDROOT
TORSDOF 0
ENDMDL
