MODEL 1
REMARK minimizedAffinity 5.88219881
REMARK minimizedRMSD -1
REMARK  0 active torsions:
REMARK  status: ('A' for Active; 'I' for Inactive)
ROOT
ATOM      1  C   UNL d   1      -4.737  -3.860  -2.446  0.00  0.00     0.124 A 
ATOM      2  C1  UNL d   1      -4.726  -4.905  -1.532  0.00  0.00     0.062 A 
ATOM      3  C2  UNL d   1      -3.728  -4.979  -0.565  0.00  0.00     0.162 A 
ATOM      4  C3  UNL d   1      -2.733  -4.003  -0.505  0.00  0.00    -0.034 A 
ATOM      5  C4  UNL d   1      -2.751  -2.955  -1.427  0.00  0.00     0.162 A 
ATOM      6  C5  UNL d   1      -3.750  -2.886  -2.392  0.00  0.00     0.062 A 
ATOM      7  F   UNL d   1      -3.759  -1.876  -3.274  0.00  0.00    -0.097 F 
ATOM      8  F1  UNL d   1      -1.809  -2.000  -1.398  0.00  0.00    -0.096 F 
ATOM      9  I   UNL d   1      -1.239  -4.109   0.941  0.00  0.00    -0.060 I 
ATOM     10  F2  UNL d   1      -3.742  -6.000   0.305  0.00  0.00    -0.096 F 
ATOM     11  F3  UNL d   1      -5.679  -5.848  -1.583  0.00  0.00    -0.097 F 
ATOM     12  F4  UNL d   1      -5.698  -3.792  -3.376  0.00  0.00    -0.092 F 
ENDROOT
TORSDOF 0
ENDMDL
