MODEL 1
REMARK minimizedAffinity 27.3942947
REMARK minimizedRMSD -1
REMARK  0 active torsions:
REMARK  status: ('A' for Active; 'I' for Inactive)
ROOT
ATOM      1  C   UNL d   1      -1.784   2.554   1.284  0.00  0.00     0.124 A 
ATOM      2  C1  UNL d   1      -0.605   3.263   1.470  0.00  0.00     0.062 A 
ATOM      3  C2  UNL d   1       0.420   2.725   2.243  0.00  0.00     0.162 A 
ATOM      4  C3  UNL d   1       0.272   1.472   2.836  0.00  0.00    -0.034 A 
ATOM      5  C4  UNL d   1      -0.917   0.766   2.646  0.00  0.00     0.162 A 
ATOM      6  C5  UNL d   1      -1.939   1.307   1.872  0.00  0.00     0.062 A 
ATOM      7  F   UNL d   1      -3.078   0.621   1.695  0.00  0.00    -0.097 F 
ATOM      8  F1  UNL d   1      -1.094  -0.442   3.202  0.00  0.00    -0.096 F 
ATOM      9  I   UNL d   1       1.802   0.665   3.993  0.00  0.00    -0.060 I 
ATOM     10  F2  UNL d   1       1.549   3.432   2.405  0.00  0.00    -0.096 F 
ATOM     11  F3  UNL d   1      -0.453   4.468   0.903  0.00  0.00    -0.097 F 
ATOM     12  F4  UNL d   1      -2.769   3.074   0.541  0.00  0.00    -0.092 F 
ENDROOT
TORSDOF 0
ENDMDL
