MODEL 1
REMARK minimizedAffinity -0.679878771
REMARK minimizedRMSD -1
REMARK  0 active torsions:
REMARK  status: ('A' for Active; 'I' for Inactive)
ROOT
ATOM      1  C   UNL d   1       2.149   0.863   0.169  0.00  0.00     0.124 A 
ATOM      2  C1  UNL d   1       1.737   1.898   0.998  0.00  0.00     0.062 A 
ATOM      3  C2  UNL d   1       0.475   1.865   1.584  0.00  0.00     0.162 A 
ATOM      4  C3  UNL d   1      -0.385   0.793   1.345  0.00  0.00    -0.034 A 
ATOM      5  C4  UNL d   1       0.036  -0.243   0.510  0.00  0.00     0.162 A 
ATOM      6  C5  UNL d   1       1.298  -0.206  -0.074  0.00  0.00     0.062 A 
ATOM      7  F   UNL d   1       1.694  -1.207  -0.874  0.00  0.00    -0.097 F 
ATOM      8  F1  UNL d   1      -0.765  -1.289   0.258  0.00  0.00    -0.096 F 
ATOM      9  I   UNL d   1      -2.272   0.741   2.220  0.00  0.00    -0.060 I 
ATOM     10  F2  UNL d   1       0.103   2.879   2.380  0.00  0.00    -0.096 F 
ATOM     11  F3  UNL d   1       2.556   2.933   1.234  0.00  0.00    -0.097 F 
ATOM     12  F4  UNL d   1       3.363   0.898  -0.395  0.00  0.00    -0.092 F 
ENDROOT
TORSDOF 0
ENDMDL
