MODEL 1
REMARK minimizedAffinity 14.6923075
REMARK minimizedRMSD -1
REMARK  0 active torsions:
REMARK  status: ('A' for Active; 'I' for Inactive)
ROOT
ATOM      1  C   UNL d   1       1.434  -0.859  -0.228  0.00  0.00     0.124 A 
ATOM      2  C1  UNL d   1       2.108   0.352  -0.150  0.00  0.00     0.062 A 
ATOM      3  C2  UNL d   1       1.730   1.303   0.792  0.00  0.00     0.162 A 
ATOM      4  C3  UNL d   1       0.673   1.048   1.666  0.00  0.00    -0.034 A 
ATOM      5  C4  UNL d   1      -0.001  -0.172   1.580  0.00  0.00     0.162 A 
ATOM      6  C5  UNL d   1       0.381  -1.120   0.637  0.00  0.00     0.062 A 
ATOM      7  F   UNL d   1      -0.272  -2.289   0.562  0.00  0.00    -0.097 F 
ATOM      8  F1  UNL d   1      -1.022  -0.450   2.405  0.00  0.00    -0.096 F 
ATOM      9  I   UNL d   1       0.104   2.468   3.077  0.00  0.00    -0.060 I 
ATOM     10  F2  UNL d   1       2.399   2.465   0.846  0.00  0.00    -0.096 F 
ATOM     11  F3  UNL d   1       3.125   0.606  -0.985  0.00  0.00    -0.097 F 
ATOM     12  F4  UNL d   1       1.799  -1.773  -1.137  0.00  0.00    -0.092 F 
ENDROOT
TORSDOF 0
ENDMDL
