MODEL 1
REMARK minimizedAffinity 23.4499378
REMARK minimizedRMSD -1
REMARK  0 active torsions:
REMARK  status: ('A' for Active; 'I' for Inactive)
ROOT
ATOM      1  C   UNL d   1       1.007   1.926   3.047  0.00  0.00     0.124 A 
ATOM      2  C1  UNL d   1       0.048   2.387   2.155  0.00  0.00     0.062 A 
ATOM      3  C2  UNL d   1      -1.174   1.731   2.041  0.00  0.00     0.162 A 
ATOM      4  C3  UNL d   1      -1.446   0.608   2.822  0.00  0.00    -0.034 A 
ATOM      5  C4  UNL d   1      -0.476   0.150   3.716  0.00  0.00     0.162 A 
ATOM      6  C5  UNL d   1       0.744   0.809   3.826  0.00  0.00     0.062 A 
ATOM      7  F   UNL d   1       1.669   0.362   4.688  0.00  0.00    -0.097 F 
ATOM      8  F1  UNL d   1      -0.704  -0.927   4.482  0.00  0.00    -0.096 F 
ATOM      9  I   UNL d   1      -3.272  -0.375   2.655  0.00  0.00    -0.060 I 
ATOM     10  F2  UNL d   1      -2.082   2.199   1.171  0.00  0.00    -0.096 F 
ATOM     11  F3  UNL d   1       0.300   3.466   1.400  0.00  0.00    -0.097 F 
ATOM     12  F4  UNL d   1       2.183   2.559   3.154  0.00  0.00    -0.092 F 
ENDROOT
TORSDOF 0
ENDMDL
