MODEL 1
REMARK minimizedAffinity 0.136509523
REMARK minimizedRMSD -1
REMARK  0 active torsions:
REMARK  status: ('A' for Active; 'I' for Inactive)
ROOT
ATOM      1  C   UNL d   1       1.226  -0.010   0.555  0.00  0.00     0.124 A 
ATOM      2  C1  UNL d   1       1.235   1.137   1.337  0.00  0.00     0.062 A 
ATOM      3  C2  UNL d   1       0.066   1.573   1.954  0.00  0.00     0.162 A 
ATOM      4  C3  UNL d   1      -1.123   0.861   1.792  0.00  0.00    -0.034 A 
ATOM      5  C4  UNL d   1      -1.124  -0.291   1.003  0.00  0.00     0.162 A 
ATOM      6  C5  UNL d   1       0.047  -0.722   0.389  0.00  0.00     0.062 A 
ATOM      7  F   UNL d   1       0.036  -1.830  -0.366  0.00  0.00    -0.097 F 
ATOM      8  F1  UNL d   1      -2.250  -0.999   0.826  0.00  0.00    -0.096 F 
ATOM      9  I   UNL d   1      -2.873   1.510   2.712  0.00  0.00    -0.060 I 
ATOM     10  F2  UNL d   1       0.104   2.684   2.704  0.00  0.00    -0.096 F 
ATOM     11  F3  UNL d   1       2.373   1.827   1.499  0.00  0.00    -0.097 F 
ATOM     12  F4  UNL d   1       2.352  -0.427  -0.038  0.00  0.00    -0.092 F 
ENDROOT
TORSDOF 0
ENDMDL
