MODEL 1
REMARK minimizedAffinity 5.46050835
REMARK minimizedRMSD -1
REMARK  0 active torsions:
REMARK  status: ('A' for Active; 'I' for Inactive)
ROOT
ATOM      1  C   UNL d   1       0.075   2.420   1.482  0.00  0.00     0.124 A 
ATOM      2  C1  UNL d   1       1.280   2.427   0.794  0.00  0.00     0.062 A 
ATOM      3  C2  UNL d   1       1.649   1.333   0.018  0.00  0.00     0.162 A 
ATOM      4  C3  UNL d   1       0.811   0.222  -0.076  0.00  0.00    -0.034 A 
ATOM      5  C4  UNL d   1      -0.399   0.222   0.620  0.00  0.00     0.162 A 
ATOM      6  C5  UNL d   1      -0.764   1.318   1.394  0.00  0.00     0.062 A 
ATOM      7  F   UNL d   1      -1.929   1.309   2.059  0.00  0.00    -0.097 F 
ATOM      8  F1  UNL d   1      -1.229  -0.830   0.552  0.00  0.00    -0.096 F 
ATOM      9  I   UNL d   1       1.359  -1.417  -1.236  0.00  0.00    -0.060 I 
ATOM     10  F2  UNL d   1       2.820   1.367  -0.637  0.00  0.00    -0.096 F 
ATOM     11  F3  UNL d   1       2.092   3.491   0.878  0.00  0.00    -0.097 F 
ATOM     12  F4  UNL d   1      -0.277   3.474   2.230  0.00  0.00    -0.092 F 
ENDROOT
TORSDOF 0
ENDMDL
