MODEL 1
REMARK minimizedAffinity 7.86005449
REMARK minimizedRMSD -1
REMARK  0 active torsions:
REMARK  status: ('A' for Active; 'I' for Inactive)
ROOT
ATOM      1  C   UNL d   1      -2.400   5.878   4.243  0.00  0.00     0.172 C 
ATOM      2  N   UNL d   1      -3.772   5.911   4.690  0.00  0.00    -0.070 N 
ATOM      3  C1  UNL d   1      -4.189   5.872   5.994  0.00  0.00    -0.004 A 
ATOM      4  C2  UNL d   1      -5.566   5.924   5.999  0.00  0.00    -0.047 A 
ATOM      5  C3  UNL d   1      -5.992   5.996   4.651  0.00  0.00    -0.047 A 
ATOM      6  C4  UNL d   1      -4.861   5.986   3.862  0.00  0.00    -0.004 A 
ENDROOT
TORSDOF 0
ENDMDL
