MODEL 1
REMARK minimizedAffinity 9.31906986
REMARK minimizedRMSD -1
REMARK  0 active torsions:
REMARK  status: ('A' for Active; 'I' for Inactive)
ROOT
ATOM      1  C   UNL d   1       2.616   0.457  -2.685  0.00  0.00     0.172 C 
ATOM      2  N   UNL d   1       2.706  -0.226  -3.955  0.00  0.00    -0.070 N 
ATOM      3  C1  UNL d   1       3.793  -0.223  -4.788  0.00  0.00    -0.004 A 
ATOM      4  C2  UNL d   1       3.481  -0.987  -5.891  0.00  0.00    -0.047 A 
ATOM      5  C3  UNL d   1       2.161  -1.465  -5.716  0.00  0.00    -0.047 A 
ATOM      6  C4  UNL d   1       1.705  -0.979  -4.509  0.00  0.00    -0.004 A 
ENDROOT
TORSDOF 0
ENDMDL
