MODEL 1
REMARK minimizedAffinity 4.21534824
REMARK minimizedRMSD -1
REMARK  0 active torsions:
REMARK  status: ('A' for Active; 'I' for Inactive)
ROOT
ATOM      1  C   UNL d   1      -1.186   0.507   1.771  0.00  0.00     0.172 C 
ATOM      2  N   UNL d   1      -2.621   0.668   1.753  0.00  0.00    -0.070 N 
ATOM      3  C1  UNL d   1      -3.399   1.015   2.825  0.00  0.00    -0.004 A 
ATOM      4  C2  UNL d   1      -4.708   1.064   2.398  0.00  0.00    -0.047 A 
ATOM      5  C3  UNL d   1      -4.718   0.734   1.022  0.00  0.00    -0.047 A 
ATOM      6  C4  UNL d   1      -3.412   0.494   0.648  0.00  0.00    -0.004 A 
ENDROOT
TORSDOF 0
ENDMDL
