MODEL 1
REMARK minimizedAffinity -0.889394522
REMARK minimizedRMSD -1
REMARK  0 active torsions:
REMARK  status: ('A' for Active; 'I' for Inactive)
ROOT
ATOM      1  C   UNL d   1      -2.812   1.391   2.152  0.00  0.00     0.172 C 
ATOM      2  N   UNL d   1      -1.487   0.818   2.123  0.00  0.00    -0.070 N 
ATOM      3  C1  UNL d   1      -0.664   0.655   3.205  0.00  0.00    -0.004 A 
ATOM      4  C2  UNL d   1       0.506   0.076   2.761  0.00  0.00    -0.047 A 
ATOM      5  C3  UNL d   1       0.381  -0.115   1.365  0.00  0.00    -0.047 A 
ATOM      6  C4  UNL d   1      -0.862   0.354   0.996  0.00  0.00    -0.004 A 
ENDROOT
TORSDOF 0
ENDMDL
