MODEL 1
REMARK minimizedAffinity 5.38933849
REMARK minimizedRMSD -1
REMARK  0 active torsions:
REMARK  status: ('A' for Active; 'I' for Inactive)
ROOT
ATOM      1  C   UNL d   1       2.830   0.545  -2.694  0.00  0.00     0.172 C 
ATOM      2  N   UNL d   1       2.992   0.024  -4.031  0.00  0.00    -0.070 N 
ATOM      3  C1  UNL d   1       2.049  -0.675  -4.736  0.00  0.00    -0.004 A 
ATOM      4  C2  UNL d   1       2.588  -0.991  -5.964  0.00  0.00    -0.047 A 
ATOM      5  C3  UNL d   1       3.901  -0.466  -5.998  0.00  0.00    -0.047 A 
ATOM      6  C4  UNL d   1       4.126   0.158  -4.789  0.00  0.00    -0.004 A 
ENDROOT
TORSDOF 0
ENDMDL
