MODEL 1
REMARK minimizedAffinity 3.76699781
REMARK minimizedRMSD -1
REMARK  0 active torsions:
REMARK  status: ('A' for Active; 'I' for Inactive)
ROOT
ATOM      1  C   UNL d   1      -2.201   0.949   3.235  0.00  0.00     0.172 C 
ATOM      2  N   UNL d   1      -3.508   0.833   2.633  0.00  0.00    -0.070 N 
ATOM      3  C1  UNL d   1      -4.498  -0.025   3.031  0.00  0.00    -0.004 A 
ATOM      4  C2  UNL d   1      -5.585   0.171   2.206  0.00  0.00    -0.047 A 
ATOM      5  C3  UNL d   1      -5.235   1.181   1.279  0.00  0.00    -0.047 A 
ATOM      6  C4  UNL d   1      -3.945   1.573   1.566  0.00  0.00    -0.004 A 
ENDROOT
TORSDOF 0
ENDMDL
