MODEL 1
REMARK minimizedAffinity 3.60807824
REMARK minimizedRMSD -1
REMARK  0 active torsions:
REMARK  status: ('A' for Active; 'I' for Inactive)
ROOT
ATOM      1  C   UNL d   1      -4.260  -3.589  -6.000  0.00  0.00     0.172 C 
ATOM      2  N   UNL d   1      -3.206  -2.607  -5.914  0.00  0.00    -0.070 N 
ATOM      3  C1  UNL d   1      -1.864  -2.867  -6.000  0.00  0.00    -0.004 A 
ATOM      4  C2  UNL d   1      -1.193  -1.670  -5.872  0.00  0.00    -0.047 A 
ATOM      5  C3  UNL d   1      -2.166  -0.655  -5.703  0.00  0.00    -0.047 A 
ATOM      6  C4  UNL d   1      -3.403  -1.264  -5.733  0.00  0.00    -0.004 A 
ENDROOT
TORSDOF 0
ENDMDL
