MODEL 1
REMARK minimizedAffinity 0.563963115
REMARK minimizedRMSD -1
REMARK  0 active torsions:
REMARK  status: ('A' for Active; 'I' for Inactive)
ROOT
ATOM      1  C   UNL d   1      -3.898  -1.897   0.339  0.00  0.00     0.172 C 
ATOM      2  N   UNL d   1      -3.139  -0.832   0.952  0.00  0.00    -0.070 N 
ATOM      3  C1  UNL d   1      -1.774  -0.780   1.051  0.00  0.00    -0.004 A 
ATOM      4  C2  UNL d   1      -1.443   0.391   1.698  0.00  0.00    -0.047 A 
ATOM      5  C3  UNL d   1      -2.650   1.066   1.998  0.00  0.00    -0.047 A 
ATOM      6  C4  UNL d   1      -3.685   0.286   1.525  0.00  0.00    -0.004 A 
ENDROOT
TORSDOF 0
ENDMDL
