MODEL 1
REMARK minimizedAffinity -0.780333519
REMARK minimizedRMSD -1
REMARK  0 active torsions:
REMARK  status: ('A' for Active; 'I' for Inactive)
ROOT
ATOM      1  C   UNL d   1      -0.598   1.304   2.986  0.00  0.00     0.172 C 
ATOM      2  N   UNL d   1      -1.928   1.204   2.433  0.00  0.00    -0.070 N 
ATOM      3  C1  UNL d   1      -3.068   1.712   2.997  0.00  0.00    -0.004 A 
ATOM      4  C2  UNL d   1      -4.123   1.407   2.164  0.00  0.00    -0.047 A 
ATOM      5  C3  UNL d   1      -3.599   0.690   1.062  0.00  0.00    -0.047 A 
ATOM      6  C4  UNL d   1      -2.238   0.579   1.254  0.00  0.00    -0.004 A 
ENDROOT
TORSDOF 0
ENDMDL
