MODEL 1
REMARK minimizedAffinity 4.89552116
REMARK minimizedRMSD -1
REMARK  0 active torsions:
REMARK  status: ('A' for Active; 'I' for Inactive)
ROOT
ATOM      1  C   UNL d   1      -4.174   0.356   0.520  0.00  0.00     0.172 C 
ATOM      2  N   UNL d   1      -3.098   0.734   1.406  0.00  0.00    -0.070 N 
ATOM      3  C1  UNL d   1      -3.204   1.590   2.470  0.00  0.00    -0.004 A 
ATOM      4  C2  UNL d   1      -1.961   1.688   3.058  0.00  0.00    -0.047 A 
ATOM      5  C3  UNL d   1      -1.078   0.864   2.321  0.00  0.00    -0.047 A 
ATOM      6  C4  UNL d   1      -1.808   0.285   1.304  0.00  0.00    -0.004 A 
ENDROOT
TORSDOF 0
ENDMDL
