MODEL 1
REMARK minimizedAffinity 6.8021636
REMARK minimizedRMSD -1
REMARK  0 active torsions:
REMARK  status: ('A' for Active; 'I' for Inactive)
ROOT
ATOM      1  C   UNL d   1      -4.870   2.341   5.068  0.00  0.00     0.172 C 
ATOM      2  N   UNL d   1      -5.090   3.764   5.174  0.00  0.00    -0.070 N 
ATOM      3  C1  UNL d   1      -6.000   4.372   5.997  0.00  0.00    -0.004 A 
ATOM      4  C2  UNL d   1      -5.900   5.733   5.804  0.00  0.00    -0.047 A 
ATOM      5  C3  UNL d   1      -4.896   5.950   4.830  0.00  0.00    -0.047 A 
ATOM      6  C4  UNL d   1      -4.412   4.715   4.457  0.00  0.00    -0.004 A 
ENDROOT
TORSDOF 0
ENDMDL
