MODEL 1
REMARK minimizedAffinity 5.45182037
REMARK minimizedRMSD -1
REMARK  0 active torsions:
REMARK  status: ('A' for Active; 'I' for Inactive)
ROOT
ATOM      1  C   UNL d   1      -4.455   0.431   3.916  0.00  0.00     0.172 C 
ATOM      2  N   UNL d   1      -3.626   0.433   2.733  0.00  0.00    -0.070 N 
ATOM      3  C1  UNL d   1      -2.288   0.146   2.696  0.00  0.00    -0.004 A 
ATOM      4  C2  UNL d   1      -1.869   0.256   1.388  0.00  0.00    -0.047 A 
ATOM      5  C3  UNL d   1      -2.994   0.623   0.612  0.00  0.00    -0.047 A 
ATOM      6  C4  UNL d   1      -4.069   0.726   1.470  0.00  0.00    -0.004 A 
ENDROOT
TORSDOF 0
ENDMDL
