MODEL 1
REMARK minimizedAffinity -0.9308213
REMARK minimizedRMSD -1
REMARK  0 active torsions:
REMARK  status: ('A' for Active; 'I' for Inactive)
ROOT
ATOM      1  C   UNL d   1      -3.119   0.808   2.040  0.00  0.00     0.172 C 
ATOM      2  N   UNL d   1      -4.202   1.386   2.801  0.00  0.00    -0.070 N 
ATOM      3  C1  UNL d   1      -5.147   2.249   2.315  0.00  0.00    -0.004 A 
ATOM      4  C2  UNL d   1      -6.000   2.567   3.349  0.00  0.00    -0.047 A 
ATOM      5  C3  UNL d   1      -5.551   1.871   4.497  0.00  0.00    -0.047 A 
ATOM      6  C4  UNL d   1      -4.437   1.148   4.129  0.00  0.00    -0.004 A 
ENDROOT
TORSDOF 0
ENDMDL
