MODEL 1
REMARK minimizedAffinity 2.54440427
REMARK minimizedRMSD -1
REMARK  0 active torsions:
REMARK  status: ('A' for Active; 'I' for Inactive)
ROOT
ATOM      1  C   UNL d   1      -5.749  -2.042   3.434  0.00  0.00     0.172 C 
ATOM      2  N   UNL d   1      -5.210  -0.955   2.651  0.00  0.00    -0.070 N 
ATOM      3  C1  UNL d   1      -4.789   0.251   3.144  0.00  0.00    -0.004 A 
ATOM      4  C2  UNL d   1      -4.345   1.010   2.082  0.00  0.00    -0.047 A 
ATOM      5  C3  UNL d   1      -4.507   0.233   0.910  0.00  0.00    -0.047 A 
ATOM      6  C4  UNL d   1      -5.044  -0.978   1.292  0.00  0.00    -0.004 A 
ENDROOT
TORSDOF 0
ENDMDL
