MODEL 1
REMARK minimizedAffinity 1.73834753
REMARK minimizedRMSD -1
REMARK  0 active torsions:
REMARK  status: ('A' for Active; 'I' for Inactive)
ROOT
ATOM      1  C   UNL d   1      -4.348  -1.385   0.616  0.00  0.00     0.172 C 
ATOM      2  N   UNL d   1      -3.487  -0.386   1.203  0.00  0.00    -0.070 N 
ATOM      3  C1  UNL d   1      -3.841   0.906   1.488  0.00  0.00    -0.004 A 
ATOM      4  C2  UNL d   1      -2.744   1.534   2.036  0.00  0.00    -0.047 A 
ATOM      5  C3  UNL d   1      -1.693   0.587   2.081  0.00  0.00    -0.047 A 
ATOM      6  C4  UNL d   1      -2.180  -0.592   1.559  0.00  0.00    -0.004 A 
ENDROOT
TORSDOF 0
ENDMDL
