MODEL 1
REMARK minimizedAffinity 5.16410637
REMARK minimizedRMSD -1
REMARK  0 active torsions:
REMARK  status: ('A' for Active; 'I' for Inactive)
ROOT
ATOM      1  C   UNL d   1      -2.093   0.269   2.264  0.00  0.00     0.172 C 
ATOM      2  N   UNL d   1      -0.927   0.868   2.869  0.00  0.00    -0.070 N 
ATOM      3  C1  UNL d   1       0.223   0.209   3.211  0.00  0.00    -0.004 A 
ATOM      4  C2  UNL d   1       1.091   1.130   3.758  0.00  0.00    -0.047 A 
ATOM      5  C3  UNL d   1       0.439   2.386   3.745  0.00  0.00    -0.047 A 
ATOM      6  C4  UNL d   1      -0.809   2.195   3.189  0.00  0.00    -0.004 A 
ENDROOT
TORSDOF 0
ENDMDL
