MODEL 1
REMARK minimizedAffinity 5.75952482
REMARK minimizedRMSD -1
REMARK  0 active torsions:
REMARK  status: ('A' for Active; 'I' for Inactive)
ROOT
ATOM      1  C   UNL d   1       0.282   1.048   3.222  0.00  0.00     0.172 C 
ATOM      2  N   UNL d   1      -1.004   0.853   2.594  0.00  0.00    -0.070 N 
ATOM      3  C1  UNL d   1      -1.223   0.209   1.406  0.00  0.00    -0.004 A 
ATOM      4  C2  UNL d   1      -2.578   0.235   1.155  0.00  0.00    -0.047 A 
ATOM      5  C3  UNL d   1      -3.194   0.920   2.230  0.00  0.00    -0.047 A 
ATOM      6  C4  UNL d   1      -2.197   1.291   3.106  0.00  0.00    -0.004 A 
ENDROOT
TORSDOF 0
ENDMDL
