MODEL 1
REMARK minimizedAffinity 2.08227777
REMARK minimizedRMSD -1
REMARK  0 active torsions:
REMARK  status: ('A' for Active; 'I' for Inactive)
ROOT
ATOM      1  C   UNL d   1      -2.543   0.390   1.502  0.00  0.00     0.172 C 
ATOM      2  N   UNL d   1      -1.418   0.839   2.288  0.00  0.00    -0.070 N 
ATOM      3  C1  UNL d   1      -1.053   2.144   2.486  0.00  0.00    -0.004 A 
ATOM      4  C2  UNL d   1       0.066   2.152   3.290  0.00  0.00    -0.047 A 
ATOM      5  C3  UNL d   1       0.385   0.805   3.584  0.00  0.00    -0.047 A 
ATOM      6  C4  UNL d   1      -0.549   0.013   2.951  0.00  0.00    -0.004 A 
ENDROOT
TORSDOF 0
ENDMDL
