MODEL 1
REMARK minimizedAffinity 0.520039976
REMARK minimizedRMSD -1
REMARK  0 active torsions:
REMARK  status: ('A' for Active; 'I' for Inactive)
ROOT
ATOM      1  C   UNL d   1      -4.010  -1.686   0.279  0.00  0.00     0.172 C 
ATOM      2  N   UNL d   1      -3.537  -0.557   1.044  0.00  0.00    -0.070 N 
ATOM      3  C1  UNL d   1      -2.245  -0.350   1.447  0.00  0.00    -0.004 A 
ATOM      4  C2  UNL d   1      -2.206   0.835   2.150  0.00  0.00    -0.047 A 
ATOM      5  C3  UNL d   1      -3.521   1.357   2.172  0.00  0.00    -0.047 A 
ATOM      6  C4  UNL d   1      -4.325   0.476   1.480  0.00  0.00    -0.004 A 
ENDROOT
TORSDOF 0
ENDMDL
