MODEL 1
REMARK minimizedAffinity -3.24873757
REMARK minimizedRMSD -1
REMARK  0 active torsions:
REMARK  status: ('A' for Active; 'I' for Inactive)
ROOT
ATOM      1  C1  BNZ d   1       0.515  -0.534  -0.511  0.00  0.00     0.000 A 
ATOM      2  C2  BNZ d   1       1.793  -0.632  -0.030  0.00  0.00     0.000 A 
ATOM      3  C3  BNZ d   1       2.120  -0.127   1.197  0.00  0.00     0.000 A 
ATOM      4  C4  BNZ d   1       1.179   0.510   1.924  0.00  0.00     0.000 A 
ATOM      5  C5  BNZ d   1      -0.112   0.625   1.449  0.00  0.00     0.000 A 
ATOM      6  C6  BNZ d   1      -0.447   0.081   0.230  0.00  0.00     0.000 A 
ENDROOT
TORSDOF 0
ENDMDL
