MODEL 1
REMARK minimizedAffinity 0.315027595
REMARK minimizedRMSD -1
REMARK  0 active torsions:
REMARK  status: ('A' for Active; 'I' for Inactive)
ROOT
ATOM      1  C1  BNZ d   1       5.141  -2.657   5.089  0.00  0.00     0.000 A 
ATOM      2  C2  BNZ d   1       4.135  -2.601   4.162  0.00  0.00     0.000 A 
ATOM      3  C3  BNZ d   1       3.271  -1.542   4.129  0.00  0.00     0.000 A 
ATOM      4  C4  BNZ d   1       3.390  -0.561   5.047  0.00  0.00     0.000 A 
ATOM      5  C5  BNZ d   1       4.393  -0.608   5.994  0.00  0.00     0.000 A 
ATOM      6  C6  BNZ d   1       5.284  -1.657   6.000  0.00  0.00     0.000 A 
ENDROOT
TORSDOF 0
ENDMDL
