MODEL 1
REMARK minimizedAffinity -2.20672679
REMARK minimizedRMSD -1
REMARK  0 active torsions:
REMARK  status: ('A' for Active; 'I' for Inactive)
ROOT
ATOM      1  C1  BNZ d   1       1.006   0.283  -1.524  0.00  0.00     0.000 A 
ATOM      2  C2  BNZ d   1      -0.348   0.486  -1.482  0.00  0.00     0.000 A 
ATOM      3  C3  BNZ d   1      -1.032   0.408  -0.301  0.00  0.00     0.000 A 
ATOM      4  C4  BNZ d   1      -0.369   0.088   0.829  0.00  0.00     0.000 A 
ATOM      5  C5  BNZ d   1       0.995  -0.129   0.802  0.00  0.00     0.000 A 
ATOM      6  C6  BNZ d   1       1.686  -0.011  -0.382  0.00  0.00     0.000 A 
ENDROOT
TORSDOF 0
ENDMDL
