MODEL 1
REMARK minimizedAffinity 2.13685679
REMARK minimizedRMSD -1
REMARK  0 active torsions:
REMARK  status: ('A' for Active; 'I' for Inactive)
ROOT
ATOM      1  C1  BNZ d   1      -1.613   0.560  -1.564  0.00  0.00     0.000 A 
ATOM      2  C2  BNZ d   1      -0.346   0.600  -1.046  0.00  0.00     0.000 A 
ATOM      3  C3  BNZ d   1       0.001  -0.186   0.017  0.00  0.00     0.000 A 
ATOM      4  C4  BNZ d   1      -0.929  -0.980   0.585  0.00  0.00     0.000 A 
ATOM      5  C5  BNZ d   1      -2.213  -1.025   0.081  0.00  0.00     0.000 A 
ATOM      6  C6  BNZ d   1      -2.548  -0.261  -1.014  0.00  0.00     0.000 A 
ENDROOT
TORSDOF 0
ENDMDL
