MODEL 1
REMARK minimizedAffinity -0.153283268
REMARK minimizedRMSD -1
REMARK  0 active torsions:
REMARK  status: ('A' for Active; 'I' for Inactive)
ROOT
ATOM      1  C1  BNZ d   1      -0.274  -0.425   0.815  0.00  0.00     0.000 A 
ATOM      2  C2  BNZ d   1      -1.025   0.150   1.806  0.00  0.00     0.000 A 
ATOM      3  C3  BNZ d   1      -2.366   0.354   1.638  0.00  0.00     0.000 A 
ATOM      4  C4  BNZ d   1      -2.947   0.021   0.467  0.00  0.00     0.000 A 
ATOM      5  C5  BNZ d   1      -2.201  -0.551  -0.545  0.00  0.00     0.000 A 
ATOM      6  C6  BNZ d   1      -0.859  -0.791  -0.358  0.00  0.00     0.000 A 
ENDROOT
TORSDOF 0
ENDMDL
