MODEL 1
REMARK minimizedAffinity -1.66325152
REMARK minimizedRMSD -1
REMARK  0 active torsions:
REMARK  status: ('A' for Active; 'I' for Inactive)
ROOT
ATOM      1  C1  BNZ d   1       2.835   2.080   0.311  0.00  0.00     0.000 A 
ATOM      2  C2  BNZ d   1       3.394   2.666  -0.794  0.00  0.00     0.000 A 
ATOM      3  C3  BNZ d   1       3.930   1.903  -1.794  0.00  0.00     0.000 A 
ATOM      4  C4  BNZ d   1       3.942   0.560  -1.670  0.00  0.00     0.000 A 
ATOM      5  C5  BNZ d   1       3.391  -0.044  -0.558  0.00  0.00     0.000 A 
ATOM      6  C6  BNZ d   1       2.818   0.725   0.428  0.00  0.00     0.000 A 
ENDROOT
TORSDOF 0
ENDMDL
