MODEL 1
REMARK minimizedAffinity -0.982208073
REMARK minimizedRMSD -1
REMARK  0 active torsions:
REMARK  status: ('A' for Active; 'I' for Inactive)
ROOT
ATOM      1  C1  BNZ d   1       4.998  -0.472  -0.672  0.00  0.00     0.000 A 
ATOM      2  C2  BNZ d   1       5.131  -0.243  -2.016  0.00  0.00     0.000 A 
ATOM      3  C3  BNZ d   1       4.395   0.726  -2.637  0.00  0.00     0.000 A 
ATOM      4  C4  BNZ d   1       3.499   1.439  -1.924  0.00  0.00     0.000 A 
ATOM      5  C5  BNZ d   1       3.347   1.214  -0.570  0.00  0.00     0.000 A 
ATOM      6  C6  BNZ d   1       4.117   0.264   0.060  0.00  0.00     0.000 A 
ENDROOT
TORSDOF 0
ENDMDL
