MODEL 1
REMARK minimizedAffinity -2.19854116
REMARK minimizedRMSD -1
REMARK  0 active torsions:
REMARK  status: ('A' for Active; 'I' for Inactive)
ROOT
ATOM      1  C1  BNZ d   1      -0.915  -0.493   3.338  0.00  0.00     0.000 A 
ATOM      2  C2  BNZ d   1      -1.962  -0.063   2.567  0.00  0.00     0.000 A 
ATOM      3  C3  BNZ d   1      -1.807   0.136   1.224  0.00  0.00     0.000 A 
ATOM      4  C4  BNZ d   1      -0.597  -0.057   0.660  0.00  0.00     0.000 A 
ATOM      5  C5  BNZ d   1       0.471  -0.482   1.425  0.00  0.00     0.000 A 
ATOM      6  C6  BNZ d   1       0.301  -0.719   2.770  0.00  0.00     0.000 A 
ENDROOT
TORSDOF 0
ENDMDL
