MODEL 1
REMARK minimizedAffinity -2.94105625
REMARK minimizedRMSD -1
REMARK  1 active torsions:
REMARK  status: ('A' for Active; 'I' for Inactive)
REMARK    1  A    between atoms: N_2  and  C1_3 
ROOT
ATOM      1  C1  UNL d   1      -0.288   0.016   0.567  0.00  0.00     0.143 A 
ATOM      2  C2  UNL d   1       0.328   1.127  -0.018  0.00  0.00    -0.057 A 
ATOM      3  C3  UNL d   1       1.252   0.981  -1.060  0.00  0.00     0.033 A 
ATOM      4  C4  UNL d   1       1.599  -0.287  -1.517  0.00  0.00    -0.042 A 
ATOM      5  C5  UNL d   1       1.018  -1.407  -0.932  0.00  0.00     0.033 A 
ATOM      6  C6  UNL d   1       0.091  -1.253   0.103  0.00  0.00    -0.057 A 
ENDROOT
BRANCH   1   7
ATOM      7  N   UNL d   1      -1.139   0.091   1.672  0.00  0.00    -0.732 N 
ATOM      8  C   UNL d   1      -2.574   0.153   1.494  0.00  0.00     0.284 C 
ATOM      9  H3  UNL d   1      -0.841  -0.513   2.435  0.00  0.00     0.395 HD
ENDBRANCH   1   7
TORSDOF 1
ENDMDL
