MODEL 1
REMARK minimizedAffinity -3.6432538
REMARK minimizedRMSD -1
REMARK  1 active torsions:
REMARK  status: ('A' for Active; 'I' for Inactive)
REMARK    1  A    between atoms: N_2  and  C1_3 
ROOT
ATOM      1  C1  UNL d   1       0.323  -0.996  -0.691  0.00  0.00     0.143 A 
ATOM      2  C2  UNL d   1       0.815  -2.247  -1.078  0.00  0.00    -0.057 A 
ATOM      3  C3  UNL d   1       1.657  -2.385  -2.189  0.00  0.00     0.033 A 
ATOM      4  C4  UNL d   1       1.999  -1.274  -2.952  0.00  0.00    -0.042 A 
ATOM      5  C5  UNL d   1       1.501  -0.024  -2.601  0.00  0.00     0.033 A 
ATOM      6  C6  UNL d   1       0.667   0.108  -1.487  0.00  0.00    -0.057 A 
ENDROOT
BRANCH   1   7
ATOM      7  N   UNL d   1      -0.596  -0.807   0.344  0.00  0.00    -0.732 N 
ATOM      8  C   UNL d   1      -0.459   0.308   1.256  0.00  0.00     0.284 C 
ATOM      9  H3  UNL d   1      -1.553  -0.991   0.052  0.00  0.00     0.395 HD
ENDBRANCH   1   7
TORSDOF 1
ENDMDL
