MODEL 1
REMARK minimizedAffinity -2.0724802
REMARK minimizedRMSD -1
REMARK  1 active torsions:
REMARK  status: ('A' for Active; 'I' for Inactive)
REMARK    1  A    between atoms: N_2  and  C1_3 
ROOT
ATOM      1  C1  UNL d   1      -1.560   0.299   1.070  0.00  0.00     0.143 A 
ATOM      2  C2  UNL d   1      -2.019   1.556   1.476  0.00  0.00    -0.057 A 
ATOM      3  C3  UNL d   1      -3.371   1.777   1.766  0.00  0.00     0.033 A 
ATOM      4  C4  UNL d   1      -4.296   0.747   1.626  0.00  0.00    -0.042 A 
ATOM      5  C5  UNL d   1      -3.866  -0.505   1.200  0.00  0.00     0.033 A 
ATOM      6  C6  UNL d   1      -2.513  -0.720   0.918  0.00  0.00    -0.057 A 
ENDROOT
BRANCH   1   7
ATOM      7  N   UNL d   1      -0.246   0.042   0.672  0.00  0.00    -0.732 N 
ATOM      8  C   UNL d   1       0.293   0.646  -0.528  0.00  0.00     0.284 C 
ATOM      9  H3  UNL d   1       0.402   0.028   1.457  0.00  0.00     0.395 HD
ENDBRANCH   1   7
TORSDOF 1
ENDMDL
