MODEL 1
REMARK minimizedAffinity -4.26450682
REMARK minimizedRMSD -1
REMARK  1 active torsions:
REMARK  status: ('A' for Active; 'I' for Inactive)
REMARK    1  A    between atoms: N_2  and  C1_3 
ROOT
ATOM      1  C1  UNL d   1       0.026  -0.535  -0.073  0.00  0.00     0.143 A 
ATOM      2  C2  UNL d   1       0.908   0.551  -0.078  0.00  0.00    -0.057 A 
ATOM      3  C3  UNL d   1       1.620   0.903  -1.231  0.00  0.00     0.033 A 
ATOM      4  C4  UNL d   1       1.484   0.154  -2.395  0.00  0.00    -0.042 A 
ATOM      5  C5  UNL d   1       0.632  -0.945  -2.406  0.00  0.00     0.033 A 
ATOM      6  C6  UNL d   1      -0.081  -1.287  -1.253  0.00  0.00    -0.057 A 
ENDROOT
BRANCH   1   7
ATOM      7  N   UNL d   1      -0.635  -0.995   1.069  0.00  0.00    -0.732 N 
ATOM      8  C   UNL d   1      -1.916  -0.440   1.452  0.00  0.00     0.284 C 
ATOM      9  H3  UNL d   1      -0.571  -2.005   1.175  0.00  0.00     0.395 HD
ENDBRANCH   1   7
TORSDOF 1
ENDMDL
