MODEL 1
REMARK minimizedAffinity -4.23413658
REMARK minimizedRMSD -1
REMARK  1 active torsions:
REMARK  status: ('A' for Active; 'I' for Inactive)
REMARK    1  A    between atoms: N_2  and  C1_3 
ROOT
ATOM      1  C1  UNL d   1      -0.235  -0.034   0.024  0.00  0.00     0.143 A 
ATOM      2  C2  UNL d   1       0.175   1.284  -0.205  0.00  0.00    -0.057 A 
ATOM      3  C3  UNL d   1       0.929   1.624  -1.334  0.00  0.00     0.033 A 
ATOM      4  C4  UNL d   1       1.313   0.643  -2.243  0.00  0.00    -0.042 A 
ATOM      5  C5  UNL d   1       0.938  -0.678  -2.022  0.00  0.00     0.033 A 
ATOM      6  C6  UNL d   1       0.179  -1.010  -0.896  0.00  0.00    -0.057 A 
ENDROOT
BRANCH   1   7
ATOM      7  N   UNL d   1      -0.903  -0.452   1.178  0.00  0.00    -0.732 N 
ATOM      8  C   UNL d   1      -2.323  -0.221   1.333  0.00  0.00     0.284 C 
ATOM      9  H3  UNL d   1      -0.593  -1.368   1.496  0.00  0.00     0.395 HD
ENDBRANCH   1   7
TORSDOF 1
ENDMDL
