MODEL 1
REMARK minimizedAffinity -3.66580915
REMARK minimizedRMSD -1
REMARK  1 active torsions:
REMARK  status: ('A' for Active; 'I' for Inactive)
REMARK    1  A    between atoms: N_2  and  C1_3 
ROOT
ATOM      1  C1  UNL d   1       0.402  -0.282  -0.758  0.00  0.00     0.143 A 
ATOM      2  C2  UNL d   1       1.340   0.182  -1.685  0.00  0.00    -0.057 A 
ATOM      3  C3  UNL d   1       1.969  -0.691  -2.581  0.00  0.00     0.033 A 
ATOM      4  C4  UNL d   1       1.691  -2.054  -2.544  0.00  0.00    -0.042 A 
ATOM      5  C5  UNL d   1       0.780  -2.541  -1.613  0.00  0.00     0.033 A 
ATOM      6  C6  UNL d   1       0.150  -1.662  -0.727  0.00  0.00    -0.057 A 
ENDROOT
BRANCH   1   7
ATOM      7  N   UNL d   1      -0.184   0.521   0.224  0.00  0.00    -0.732 N 
ATOM      8  C   UNL d   1      -0.871  -0.074   1.350  0.00  0.00     0.284 C 
ATOM      9  H3  UNL d   1       0.394   1.323   0.466  0.00  0.00     0.395 HD
ENDBRANCH   1   7
TORSDOF 1
ENDMDL
