MODEL 1
REMARK minimizedAffinity -4.90449953
REMARK minimizedRMSD -1
REMARK  1 active torsions:
REMARK  status: ('A' for Active; 'I' for Inactive)
REMARK    1  A    between atoms: N_2  and  C1_3 
ROOT
ATOM      1  C1  UNL d   1      -0.269  -0.042   0.091  0.00  0.00     0.143 A 
ATOM      2  C2  UNL d   1       0.341   1.159  -0.286  0.00  0.00    -0.057 A 
ATOM      3  C3  UNL d   1       1.103   1.251  -1.457  0.00  0.00     0.033 A 
ATOM      4  C4  UNL d   1       1.293   0.130  -2.259  0.00  0.00    -0.042 A 
ATOM      5  C5  UNL d   1       0.717  -1.080  -1.891  0.00  0.00     0.033 A 
ATOM      6  C6  UNL d   1      -0.049  -1.163  -0.724  0.00  0.00    -0.057 A 
ENDROOT
BRANCH   1   7
ATOM      7  N   UNL d   1      -0.956  -0.221   1.294  0.00  0.00    -0.732 N 
ATOM      8  C   UNL d   1      -2.328   0.218   1.432  0.00  0.00     0.284 C 
ATOM      9  H3  UNL d   1      -0.765  -1.125   1.720  0.00  0.00     0.395 HD
ENDBRANCH   1   7
TORSDOF 1
ENDMDL
