MODEL 1
REMARK minimizedAffinity -3.17556691
REMARK minimizedRMSD -1
REMARK  1 active torsions:
REMARK  status: ('A' for Active; 'I' for Inactive)
REMARK    1  A    between atoms: N_2  and  C1_3 
ROOT
ATOM      1  C1  UNL d   1       0.825   0.265  -1.556  0.00  0.00     0.143 A 
ATOM      2  C2  UNL d   1       1.065   1.346  -0.701  0.00  0.00    -0.057 A 
ATOM      3  C3  UNL d   1       0.629   1.330   0.630  0.00  0.00     0.033 A 
ATOM      4  C4  UNL d   1      -0.082   0.241   1.122  0.00  0.00    -0.042 A 
ATOM      5  C5  UNL d   1      -0.354  -0.834   0.283  0.00  0.00     0.033 A 
ATOM      6  C6  UNL d   1       0.089  -0.815  -1.043  0.00  0.00    -0.057 A 
ENDROOT
BRANCH   1   7
ATOM      7  N   UNL d   1       1.146   0.263  -2.916  0.00  0.00    -0.732 N 
ATOM      8  C   UNL d   1       2.499  -0.007  -3.353  0.00  0.00     0.284 C 
ATOM      9  H3  UNL d   1       0.429  -0.183  -3.483  0.00  0.00     0.395 HD
ENDBRANCH   1   7
TORSDOF 1
ENDMDL
