MODEL 1
REMARK minimizedAffinity -4.75595713
REMARK minimizedRMSD -1
REMARK  1 active torsions:
REMARK  status: ('A' for Active; 'I' for Inactive)
REMARK    1  A    between atoms: N_2  and  C1_3 
ROOT
ATOM      1  C1  UNL d   1       0.316  -0.936  -0.907  0.00  0.00     0.143 A 
ATOM      2  C2  UNL d   1       0.237   0.372  -0.417  0.00  0.00    -0.057 A 
ATOM      3  C3  UNL d   1      -0.110   0.628   0.915  0.00  0.00     0.033 A 
ATOM      4  C4  UNL d   1      -0.414  -0.422   1.775  0.00  0.00    -0.042 A 
ATOM      5  C5  UNL d   1      -0.367  -1.728   1.303  0.00  0.00     0.033 A 
ATOM      6  C6  UNL d   1      -0.013  -1.979  -0.026  0.00  0.00    -0.057 A 
ENDROOT
BRANCH   1   7
ATOM      7  N   UNL d   1       0.560  -1.252  -2.246  0.00  0.00    -0.732 N 
ATOM      8  C   UNL d   1       1.311  -0.349  -3.092  0.00  0.00     0.284 C 
ATOM      9  H3  UNL d   1       0.792  -2.234  -2.378  0.00  0.00     0.395 HD
ENDBRANCH   1   7
TORSDOF 1
ENDMDL
