MODEL 1
REMARK minimizedAffinity -3.6069386
REMARK minimizedRMSD -1
REMARK  1 active torsions:
REMARK  status: ('A' for Active; 'I' for Inactive)
REMARK    1  A    between atoms: N_2  and  C1_3 
ROOT
ATOM      1  C1  UNL d   1      -0.890   0.411   0.705  0.00  0.00     0.143 A 
ATOM      2  C2  UNL d   1      -0.848  -0.722  -0.114  0.00  0.00    -0.057 A 
ATOM      3  C3  UNL d   1       0.055  -0.814  -1.181  0.00  0.00     0.033 A 
ATOM      4  C4  UNL d   1       0.914   0.242  -1.465  0.00  0.00    -0.042 A 
ATOM      5  C5  UNL d   1       0.872   1.388  -0.679  0.00  0.00     0.033 A 
ATOM      6  C6  UNL d   1      -0.027   1.471   0.388  0.00  0.00    -0.057 A 
ENDROOT
BRANCH   1   7
ATOM      7  N   UNL d   1      -1.832   0.603   1.719  0.00  0.00    -0.732 N 
ATOM      8  C   UNL d   1      -3.240   0.716   1.406  0.00  0.00     0.284 C 
ATOM      9  H3  UNL d   1      -1.634   0.042   2.545  0.00  0.00     0.395 HD
ENDBRANCH   1   7
TORSDOF 1
ENDMDL
