MODEL 1
REMARK minimizedAffinity -3.27368903
REMARK minimizedRMSD -1
REMARK  1 active torsions:
REMARK  status: ('A' for Active; 'I' for Inactive)
REMARK    1  A    between atoms: N_2  and  C1_3 
ROOT
ATOM      1  C1  UNL d   1      -1.401  -0.136   0.706  0.00  0.00     0.143 A 
ATOM      2  C2  UNL d   1      -2.632  -0.346   0.076  0.00  0.00    -0.057 A 
ATOM      3  C3  UNL d   1      -3.833  -0.296   0.794  0.00  0.00     0.033 A 
ATOM      4  C4  UNL d   1      -3.821  -0.065   2.165  0.00  0.00    -0.042 A 
ATOM      5  C5  UNL d   1      -2.608   0.121   2.817  0.00  0.00     0.033 A 
ATOM      6  C6  UNL d   1      -1.412   0.077   2.094  0.00  0.00    -0.057 A 
ENDROOT
BRANCH   1   7
ATOM      7  N   UNL d   1      -0.166  -0.270   0.066  0.00  0.00    -0.732 N 
ATOM      8  C   UNL d   1       0.351   0.794  -0.768  0.00  0.00     0.284 C 
ATOM      9  H3  UNL d   1       0.533  -0.710   0.659  0.00  0.00     0.395 HD
ENDBRANCH   1   7
TORSDOF 1
ENDMDL
