MODEL 1
REMARK minimizedAffinity -3.26250577
REMARK minimizedRMSD -1
REMARK  1 active torsions:
REMARK  status: ('A' for Active; 'I' for Inactive)
REMARK    1  A    between atoms: N_2  and  C1_3 
ROOT
ATOM      1  C1  UNL d   1       0.020  -0.142   0.408  0.00  0.00     0.143 A 
ATOM      2  C2  UNL d   1       0.695   1.048   0.117  0.00  0.00    -0.057 A 
ATOM      3  C3  UNL d   1       1.322   1.243  -1.119  0.00  0.00     0.033 A 
ATOM      4  C4  UNL d   1       1.311   0.236  -2.079  0.00  0.00    -0.042 A 
ATOM      5  C5  UNL d   1       0.667  -0.965  -1.801  0.00  0.00     0.033 A 
ATOM      6  C6  UNL d   1       0.037  -1.151  -0.568  0.00  0.00    -0.057 A 
ENDROOT
BRANCH   1   7
ATOM      7  N   UNL d   1      -0.539  -0.434   1.655  0.00  0.00    -0.732 N 
ATOM      8  C   UNL d   1      -1.798   0.158   2.055  0.00  0.00     0.284 C 
ATOM      9  H3  UNL d   1      -0.444  -1.416   1.902  0.00  0.00     0.395 HD
ENDBRANCH   1   7
TORSDOF 1
ENDMDL
