MODEL 1
REMARK minimizedAffinity -3.70881438
REMARK minimizedRMSD -1
REMARK  0 active torsions:
REMARK  status: ('A' for Active; 'I' for Inactive)
ROOT
ATOM      1  C   UNL d   1       3.743   1.213  -4.107  0.00  0.00     0.077 C 
ATOM      2  C1  UNL d   1       2.620   0.354  -3.608  0.00  0.00    -0.074 A 
ATOM      3  C2  UNL d   1       2.491  -0.975  -4.026  0.00  0.00    -0.005 A 
ATOM      4  C3  UNL d   1       1.447  -1.765  -3.546  0.00  0.00     0.006 A 
ATOM      5  C4  UNL d   1       0.522  -1.235  -2.644  0.00  0.00    -0.005 A 
ATOM      6  C5  UNL d   1       0.635   0.090  -2.215  0.00  0.00    -0.074 A 
ATOM      7  C6  UNL d   1      -0.344   0.672  -1.239  0.00  0.00     0.077 C 
ATOM      8  C7  UNL d   1       1.692   0.876  -2.696  0.00  0.00    -0.001 A 
ENDROOT
TORSDOF 0
ENDMDL
