MODEL 1
REMARK minimizedAffinity -3.31370378
REMARK minimizedRMSD -1
REMARK  0 active torsions:
REMARK  status: ('A' for Active; 'I' for Inactive)
ROOT
ATOM      1  C   UNL d   1       1.399  -0.355   1.110  0.00  0.00     0.077 C 
ATOM      2  C1  UNL d   1       0.944  -0.072  -0.291  0.00  0.00    -0.074 A 
ATOM      3  C2  UNL d   1       0.098   1.007  -0.568  0.00  0.00    -0.005 A 
ATOM      4  C3  UNL d   1      -0.309   1.263  -1.877  0.00  0.00     0.006 A 
ATOM      5  C4  UNL d   1       0.125   0.445  -2.921  0.00  0.00    -0.005 A 
ATOM      6  C5  UNL d   1       0.971  -0.638  -2.663  0.00  0.00    -0.074 A 
ATOM      7  C6  UNL d   1       1.454  -1.522  -3.774  0.00  0.00     0.077 C 
ATOM      8  C7  UNL d   1       1.381  -0.885  -1.345  0.00  0.00    -0.001 A 
ENDROOT
TORSDOF 0
ENDMDL
