MODEL 1
REMARK minimizedAffinity -5.89911366
REMARK minimizedRMSD -1
REMARK  0 active torsions:
REMARK  status: ('A' for Active; 'I' for Inactive)
ROOT
ATOM      1  C   UNL d   1       1.286   0.391   0.576  0.00  0.00     0.077 C 
ATOM      2  C1  UNL d   1       0.055   0.210   1.413  0.00  0.00    -0.074 A 
ATOM      3  C2  UNL d   1       0.131   0.186   2.809  0.00  0.00    -0.005 A 
ATOM      4  C3  UNL d   1      -1.024   0.027   3.574  0.00  0.00     0.006 A 
ATOM      5  C4  UNL d   1      -2.266  -0.110   2.952  0.00  0.00    -0.005 A 
ATOM      6  C5  UNL d   1      -2.362  -0.087   1.557  0.00  0.00    -0.074 A 
ATOM      7  C6  UNL d   1      -3.690  -0.222   0.872  0.00  0.00     0.077 C 
ATOM      8  C7  UNL d   1      -1.197   0.081   0.795  0.00  0.00    -0.001 A 
ENDROOT
TORSDOF 0
ENDMDL
