MODEL 1
REMARK minimizedAffinity -4.46707726
REMARK minimizedRMSD -1
REMARK  0 active torsions:
REMARK  status: ('A' for Active; 'I' for Inactive)
ROOT
ATOM      1  C   UNL d   1      -0.713  -0.122  -1.847  0.00  0.00     0.077 C 
ATOM      2  C1  UNL d   1      -0.340   0.074  -0.407  0.00  0.00    -0.074 A 
ATOM      3  C2  UNL d   1       0.867   0.687  -0.055  0.00  0.00    -0.005 A 
ATOM      4  C3  UNL d   1       1.197   0.870   1.288  0.00  0.00     0.006 A 
ATOM      5  C4  UNL d   1       0.324   0.444   2.290  0.00  0.00    -0.005 A 
ATOM      6  C5  UNL d   1      -0.888  -0.169   1.957  0.00  0.00    -0.074 A 
ATOM      7  C6  UNL d   1      -1.841  -0.624   3.021  0.00  0.00     0.077 C 
ATOM      8  C7  UNL d   1      -1.215  -0.344   0.605  0.00  0.00    -0.001 A 
ENDROOT
TORSDOF 0
ENDMDL
