MODEL 1
REMARK minimizedAffinity -4.57788086
REMARK minimizedRMSD -1
REMARK  0 active torsions:
REMARK  status: ('A' for Active; 'I' for Inactive)
ROOT
ATOM      1  C   UNL d   1       3.266   0.670  -3.751  0.00  0.00     0.077 C 
ATOM      2  C1  UNL d   1       3.563   1.917  -4.530  0.00  0.00    -0.074 A 
ATOM      3  C2  UNL d   1       4.869   2.221  -4.928  0.00  0.00    -0.005 A 
ATOM      4  C3  UNL d   1       5.130   3.380  -5.660  0.00  0.00     0.006 A 
ATOM      5  C4  UNL d   1       4.089   4.245  -6.000  0.00  0.00    -0.005 A 
ATOM      6  C5  UNL d   1       2.776   3.957  -5.611  0.00  0.00    -0.074 A 
ATOM      7  C6  UNL d   1       1.645   4.870  -5.977  0.00  0.00     0.077 C 
ATOM      8  C7  UNL d   1       2.522   2.787  -4.882  0.00  0.00    -0.001 A 
ENDROOT
TORSDOF 0
ENDMDL
