MODEL 1
REMARK minimizedAffinity -2.60069156
REMARK minimizedRMSD -1
REMARK  0 active torsions:
REMARK  status: ('A' for Active; 'I' for Inactive)
ROOT
ATOM      1  C   UNL d   1      -0.809  -0.941   2.704  0.00  0.00     0.077 C 
ATOM      2  C1  UNL d   1      -1.037  -0.414   1.319  0.00  0.00    -0.074 A 
ATOM      3  C2  UNL d   1      -2.315  -0.039   0.893  0.00  0.00    -0.005 A 
ATOM      4  C3  UNL d   1      -2.510   0.458  -0.395  0.00  0.00     0.006 A 
ATOM      5  C4  UNL d   1      -1.430   0.586  -1.270  0.00  0.00    -0.005 A 
ATOM      6  C5  UNL d   1      -0.145   0.217  -0.862  0.00  0.00    -0.074 A 
ATOM      7  C6  UNL d   1       1.028   0.357  -1.786  0.00  0.00     0.077 C 
ATOM      8  C7  UNL d   1       0.044  -0.276   0.437  0.00  0.00    -0.001 A 
ENDROOT
TORSDOF 0
ENDMDL
