MODEL 1
REMARK minimizedAffinity -4.70624733
REMARK minimizedRMSD -1
REMARK  0 active torsions:
REMARK  status: ('A' for Active; 'I' for Inactive)
ROOT
ATOM      1  C   UNL d   1      -3.088   0.213   1.011  0.00  0.00     0.077 C 
ATOM      2  C1  UNL d   1      -1.599   0.376   0.934  0.00  0.00    -0.074 A 
ATOM      3  C2  UNL d   1      -0.830   0.516   2.094  0.00  0.00    -0.005 A 
ATOM      4  C3  UNL d   1       0.555   0.657   2.007  0.00  0.00     0.006 A 
ATOM      5  C4  UNL d   1       1.184   0.661   0.761  0.00  0.00    -0.005 A 
ATOM      6  C5  UNL d   1       0.432   0.521  -0.409  0.00  0.00    -0.074 A 
ATOM      7  C6  UNL d   1       1.093   0.513  -1.756  0.00  0.00     0.077 C 
ATOM      8  C7  UNL d   1      -0.959   0.372  -0.313  0.00  0.00    -0.001 A 
ENDROOT
TORSDOF 0
ENDMDL
