MODEL 1
REMARK minimizedAffinity -5.45828581
REMARK minimizedRMSD -1
REMARK  0 active torsions:
REMARK  status: ('A' for Active; 'I' for Inactive)
ROOT
ATOM      1  C   UNL d   1      -2.548   0.454   2.934  0.00  0.00     0.077 C 
ATOM      2  C1  UNL d   1      -1.194   0.062   2.424  0.00  0.00    -0.074 A 
ATOM      3  C2  UNL d   1      -0.266  -0.570   3.259  0.00  0.00    -0.005 A 
ATOM      4  C3  UNL d   1       0.986  -0.938   2.767  0.00  0.00     0.006 A 
ATOM      5  C4  UNL d   1       1.324  -0.678   1.439  0.00  0.00    -0.005 A 
ATOM      6  C5  UNL d   1       0.409  -0.048   0.589  0.00  0.00    -0.074 A 
ATOM      7  C6  UNL d   1       0.752   0.230  -0.845  0.00  0.00     0.077 C 
ATOM      8  C7  UNL d   1      -0.850   0.312   1.088  0.00  0.00    -0.001 A 
ENDROOT
TORSDOF 0
ENDMDL
