MODEL 1
REMARK minimizedAffinity -4.23305321
REMARK minimizedRMSD -1
REMARK  0 active torsions:
REMARK  status: ('A' for Active; 'I' for Inactive)
ROOT
ATOM      1  C   UNL d   1       0.752   0.410   0.725  0.00  0.00     0.077 C 
ATOM      2  C1  UNL d   1       0.619   0.177  -0.751  0.00  0.00    -0.074 A 
ATOM      3  C2  UNL d   1      -0.234   0.965  -1.530  0.00  0.00    -0.005 A 
ATOM      4  C3  UNL d   1      -0.340   0.741  -2.902  0.00  0.00     0.006 A 
ATOM      5  C4  UNL d   1       0.405  -0.270  -3.509  0.00  0.00    -0.005 A 
ATOM      6  C5  UNL d   1       1.265  -1.068  -2.747  0.00  0.00    -0.074 A 
ATOM      7  C6  UNL d   1       2.080  -2.153  -3.385  0.00  0.00     0.077 C 
ATOM      8  C7  UNL d   1       1.370  -0.833  -1.369  0.00  0.00    -0.001 A 
ENDROOT
TORSDOF 0
ENDMDL
