MODEL 1
REMARK minimizedAffinity -4.17146683
REMARK minimizedRMSD -1
REMARK  0 active torsions:
REMARK  status: ('A' for Active; 'I' for Inactive)
ROOT
ATOM      1  C   UNL d   1      -2.537   0.898  -0.682  0.00  0.00     0.077 C 
ATOM      2  C1  UNL d   1      -1.287   0.526   0.059  0.00  0.00    -0.074 A 
ATOM      3  C2  UNL d   1      -0.029   0.917  -0.411  0.00  0.00    -0.005 A 
ATOM      4  C3  UNL d   1       1.124   0.572   0.294  0.00  0.00     0.006 A 
ATOM      5  C4  UNL d   1       1.031  -0.166   1.474  0.00  0.00    -0.005 A 
ATOM      6  C5  UNL d   1      -0.218  -0.566   1.960  0.00  0.00    -0.074 A 
ATOM      7  C6  UNL d   1      -0.336  -1.351   3.232  0.00  0.00     0.077 C 
ATOM      8  C7  UNL d   1      -1.372  -0.209   1.250  0.00  0.00    -0.001 A 
ENDROOT
TORSDOF 0
ENDMDL
