MODEL 1
REMARK minimizedAffinity -4.7442832
REMARK minimizedRMSD -1
REMARK  0 active torsions:
REMARK  status: ('A' for Active; 'I' for Inactive)
ROOT
ATOM      1  C   UNL d   1      -0.026  -0.016  -1.285  0.00  0.00     0.077 C 
ATOM      2  C1  UNL d   1       0.142   0.078   0.202  0.00  0.00    -0.074 A 
ATOM      3  C2  UNL d   1       1.328   0.564   0.763  0.00  0.00    -0.005 A 
ATOM      4  C3  UNL d   1       1.466   0.654   2.148  0.00  0.00     0.006 A 
ATOM      5  C4  UNL d   1       0.421   0.261   2.985  0.00  0.00    -0.005 A 
ATOM      6  C5  UNL d   1      -0.772  -0.226   2.443  0.00  0.00    -0.074 A 
ATOM      7  C6  UNL d   1      -1.908  -0.644   3.328  0.00  0.00     0.077 C 
ATOM      8  C7  UNL d   1      -0.906  -0.308   1.050  0.00  0.00    -0.001 A 
ENDROOT
TORSDOF 0
ENDMDL
