MODEL 1
REMARK minimizedAffinity -2.73759818
REMARK minimizedRMSD -1
REMARK  0 active torsions:
REMARK  status: ('A' for Active; 'I' for Inactive)
ROOT
ATOM      1  C   UNL d   1      -3.016  -0.075   0.838  0.00  0.00     0.077 C 
ATOM      2  C1  UNL d   1      -1.536   0.010   0.615  0.00  0.00    -0.074 A 
ATOM      3  C2  UNL d   1      -0.643  -0.043   1.690  0.00  0.00    -0.005 A 
ATOM      4  C3  UNL d   1       0.732   0.027   1.467  0.00  0.00     0.006 A 
ATOM      5  C4  UNL d   1       1.228   0.150   0.168  0.00  0.00    -0.005 A 
ATOM      6  C5  UNL d   1       0.350   0.203  -0.919  0.00  0.00    -0.074 A 
ATOM      7  C6  UNL d   1       0.867   0.326  -2.322  0.00  0.00     0.077 C 
ATOM      8  C7  UNL d   1      -1.030   0.125  -0.687  0.00  0.00    -0.001 A 
ENDROOT
TORSDOF 0
ENDMDL
