MODEL 1
REMARK minimizedAffinity -4.82096052
REMARK minimizedRMSD -1
REMARK  0 active torsions:
REMARK  status: ('A' for Active; 'I' for Inactive)
ROOT
ATOM      1  C   UNL d   1       0.333   0.158  -1.307  0.00  0.00     0.077 C 
ATOM      2  C1  UNL d   1      -0.219   0.078   0.085  0.00  0.00    -0.074 A 
ATOM      3  C2  UNL d   1       0.631  -0.058   1.188  0.00  0.00    -0.005 A 
ATOM      4  C3  UNL d   1       0.103  -0.122   2.478  0.00  0.00     0.006 A 
ATOM      5  C4  UNL d   1      -1.276  -0.051   2.678  0.00  0.00    -0.005 A 
ATOM      6  C5  UNL d   1      -2.140   0.086   1.587  0.00  0.00    -0.074 A 
ATOM      7  C6  UNL d   1      -3.625   0.174   1.785  0.00  0.00     0.077 C 
ATOM      8  C7  UNL d   1      -1.603   0.156   0.295  0.00  0.00    -0.001 A 
ENDROOT
TORSDOF 0
ENDMDL
