MODEL 1
REMARK minimizedAffinity -2.38296986
REMARK minimizedRMSD -1
REMARK  0 active torsions:
REMARK  status: ('A' for Active; 'I' for Inactive)
ROOT
ATOM      1  C   UNL d   1      -1.288  -0.756   1.969  0.00  0.00     0.077 C 
ATOM      2  C1  UNL d   1      -0.398  -0.324   0.842  0.00  0.00    -0.074 A 
ATOM      3  C2  UNL d   1       0.646   0.582   1.056  0.00  0.00    -0.005 A 
ATOM      4  C3  UNL d   1       1.471   0.967  -0.001  0.00  0.00     0.006 A 
ATOM      5  C4  UNL d   1       1.261   0.451  -1.281  0.00  0.00    -0.005 A 
ATOM      6  C5  UNL d   1       0.223  -0.457  -1.513  0.00  0.00    -0.074 A 
ATOM      7  C6  UNL d   1      -0.011  -1.029  -2.880  0.00  0.00     0.077 C 
ATOM      8  C7  UNL d   1      -0.598  -0.844  -0.445  0.00  0.00    -0.001 A 
ENDROOT
TORSDOF 0
ENDMDL
