MODEL 1
REMARK minimizedAffinity -3.28105783
REMARK minimizedRMSD -1
REMARK  0 active torsions:
REMARK  status: ('A' for Active; 'I' for Inactive)
ROOT
ATOM      1  C   UNL d   1       0.561   0.122  -1.132  0.00  0.00     0.077 C 
ATOM      2  C1  UNL d   1       0.052   0.011   0.274  0.00  0.00    -0.074 A 
ATOM      3  C2  UNL d   1       0.930   0.050   1.362  0.00  0.00    -0.005 A 
ATOM      4  C3  UNL d   1       0.441  -0.045   2.665  0.00  0.00     0.006 A 
ATOM      5  C4  UNL d   1      -0.929  -0.181   2.893  0.00  0.00    -0.005 A 
ATOM      6  C5  UNL d   1      -1.822  -0.221   1.817  0.00  0.00    -0.074 A 
ATOM      7  C6  UNL d   1      -3.299  -0.356   2.045  0.00  0.00     0.077 C 
ATOM      8  C7  UNL d   1      -1.324  -0.118   0.512  0.00  0.00    -0.001 A 
ENDROOT
TORSDOF 0
ENDMDL
