MODEL 1
REMARK minimizedAffinity 6.14674377
REMARK minimizedRMSD -1
REMARK  1 active torsions:
REMARK  status: ('A' for Active; 'I' for Inactive)
REMARK    1  A    between atoms: C3_4  and  O_7 
ROOT
ATOM      1  C   UNL d   1       3.728  -0.848   5.829  0.00  0.00    -0.033 A 
ATOM      2  C1  UNL d   1       2.847  -1.810   5.331  0.00  0.00     0.039 A 
ATOM      3  C2  UNL d   1       1.862  -1.447   4.411  0.00  0.00    -0.080 A 
ATOM      4  C3  UNL d   1       1.769  -0.122   3.996  0.00  0.00     0.150 A 
ATOM      5  C4  UNL d   1       2.645   0.841   4.485  0.00  0.00    -0.007 A 
ATOM      6  C5  UNL d   1       3.628   0.477   5.405  0.00  0.00     0.039 A 
ENDROOT
BRANCH   4   7
ATOM      7  O   UNL d   1       0.820   0.281   3.104  0.00  0.00    -0.526 OA
ATOM      8  H5  UNL d   1       0.268  -0.485   2.875  0.00  0.00     0.418 HD
ENDBRANCH   4   7
TORSDOF 1
ENDMDL
