MODEL 1
REMARK minimizedAffinity 3.7129786
REMARK minimizedRMSD -1
REMARK  1 active torsions:
REMARK  status: ('A' for Active; 'I' for Inactive)
REMARK    1  A    between atoms: C3_4  and  O_7 
ROOT
ATOM      1  C   UNL d   1       0.169   0.739   2.526  0.00  0.00    -0.033 A 
ATOM      2  C1  UNL d   1      -0.814  -0.252   2.569  0.00  0.00     0.039 A 
ATOM      3  C2  UNL d   1      -0.508  -1.520   3.065  0.00  0.00    -0.080 A 
ATOM      4  C3  UNL d   1       0.783  -1.785   3.514  0.00  0.00     0.150 A 
ATOM      5  C4  UNL d   1       1.766  -0.802   3.477  0.00  0.00    -0.007 A 
ATOM      6  C5  UNL d   1       1.459   0.464   2.981  0.00  0.00     0.039 A 
ENDROOT
BRANCH   4   7
ATOM      7  O   UNL d   1       1.131  -3.010   4.002  0.00  0.00    -0.526 OA
ATOM      8  H5  UNL d   1       0.359  -3.596   3.939  0.00  0.00     0.418 HD
ENDBRANCH   4   7
TORSDOF 1
ENDMDL
