MODEL 1
REMARK minimizedAffinity 4.05745316
REMARK minimizedRMSD -1
REMARK  1 active torsions:
REMARK  status: ('A' for Active; 'I' for Inactive)
REMARK    1  A    between atoms: C3_4  and  O_7 
ROOT
ATOM      1  C   UNL d   1      -1.600  -5.634  -5.129  0.00  0.00    -0.033 A 
ATOM      2  C1  UNL d   1      -1.637  -4.295  -5.523  0.00  0.00     0.039 A 
ATOM      3  C2  UNL d   1      -1.459  -3.283  -4.578  0.00  0.00    -0.080 A 
ATOM      4  C3  UNL d   1      -1.244  -3.622  -3.245  0.00  0.00     0.150 A 
ATOM      5  C4  UNL d   1      -1.201  -4.954  -2.847  0.00  0.00    -0.007 A 
ATOM      6  C5  UNL d   1      -1.380  -5.964  -3.792  0.00  0.00     0.039 A 
ENDROOT
BRANCH   4   7
ATOM      7  O   UNL d   1      -1.069  -2.669  -2.286  0.00  0.00    -0.526 OA
ATOM      8  H5  UNL d   1      -1.153  -1.795  -2.702  0.00  0.00     0.418 HD
ENDBRANCH   4   7
TORSDOF 1
ENDMDL
