MODEL 1
REMARK minimizedAffinity 2.99509692
REMARK minimizedRMSD -1
REMARK  1 active torsions:
REMARK  status: ('A' for Active; 'I' for Inactive)
REMARK    1  A    between atoms: C3_4  and  O_7 
ROOT
ATOM      1  C   UNL d   1       1.340  -0.296  -4.879  0.00  0.00    -0.033 A 
ATOM      2  C1  UNL d   1       0.692   0.386  -3.848  0.00  0.00     0.039 A 
ATOM      3  C2  UNL d   1      -0.137  -0.306  -2.963  0.00  0.00    -0.080 A 
ATOM      4  C3  UNL d   1      -0.308  -1.679  -3.119  0.00  0.00     0.150 A 
ATOM      5  C4  UNL d   1       0.338  -2.366  -4.142  0.00  0.00    -0.007 A 
ATOM      6  C5  UNL d   1       1.164  -1.673  -5.026  0.00  0.00     0.039 A 
ENDROOT
BRANCH   4   7
ATOM      7  O   UNL d   1      -1.111  -2.397  -2.283  0.00  0.00    -0.526 OA
ATOM      8  H5  UNL d   1      -1.513  -1.786  -1.644  0.00  0.00     0.418 HD
ENDBRANCH   4   7
TORSDOF 1
ENDMDL
