MODEL 1
REMARK minimizedAffinity 6.28313732
REMARK minimizedRMSD -1
REMARK  1 active torsions:
REMARK  status: ('A' for Active; 'I' for Inactive)
REMARK    1  A    between atoms: C3_4  and  O_7 
ROOT
ATOM      1  C   UNL d   1      -1.975  -3.428  -1.573  0.00  0.00    -0.033 A 
ATOM      2  C1  UNL d   1      -1.823  -3.541  -2.956  0.00  0.00     0.039 A 
ATOM      3  C2  UNL d   1      -1.164  -2.539  -3.671  0.00  0.00    -0.080 A 
ATOM      4  C3  UNL d   1      -0.662  -1.432  -2.992  0.00  0.00     0.150 A 
ATOM      5  C4  UNL d   1      -0.807  -1.315  -1.614  0.00  0.00    -0.007 A 
ATOM      6  C5  UNL d   1      -1.466  -2.316  -0.901  0.00  0.00     0.039 A 
ENDROOT
BRANCH   4   7
ATOM      7  O   UNL d   1      -0.017  -0.426  -3.648  0.00  0.00    -0.526 OA
ATOM      8  H5  UNL d   1      -0.017  -0.629  -4.599  0.00  0.00     0.418 HD
ENDBRANCH   4   7
TORSDOF 1
ENDMDL
