MODEL 1
REMARK minimizedAffinity 3.60517621
REMARK minimizedRMSD -1
REMARK  1 active torsions:
REMARK  status: ('A' for Active; 'I' for Inactive)
REMARK    1  A    between atoms: C3_4  and  O_7 
ROOT
ATOM      1  C   UNL d   1      -1.396  -3.102  -3.661  0.00  0.00    -0.033 A 
ATOM      2  C1  UNL d   1      -1.179  -2.432  -4.867  0.00  0.00     0.039 A 
ATOM      3  C2  UNL d   1      -0.350  -1.309  -4.903  0.00  0.00    -0.080 A 
ATOM      4  C3  UNL d   1       0.256  -0.868  -3.729  0.00  0.00     0.150 A 
ATOM      5  C4  UNL d   1       0.046  -1.534  -2.526  0.00  0.00    -0.007 A 
ATOM      6  C5  UNL d   1      -0.783  -2.654  -2.491  0.00  0.00     0.039 A 
ENDROOT
BRANCH   4   7
ATOM      7  O   UNL d   1       1.069   0.226  -3.714  0.00  0.00    -0.526 OA
ATOM      8  H5  UNL d   1       1.098   0.600  -4.610  0.00  0.00     0.418 HD
ENDBRANCH   4   7
TORSDOF 1
ENDMDL
