MODEL 1
REMARK minimizedAffinity 4.54817724
REMARK minimizedRMSD -1
REMARK  1 active torsions:
REMARK  status: ('A' for Active; 'I' for Inactive)
REMARK    1  A    between atoms: C3_4  and  O_7 
ROOT
ATOM      1  C   UNL d   1       2.598  -1.191   3.453  0.00  0.00    -0.033 A 
ATOM      2  C1  UNL d   1       2.101  -2.475   3.687  0.00  0.00     0.039 A 
ATOM      3  C2  UNL d   1       2.782  -3.343   4.543  0.00  0.00    -0.080 A 
ATOM      4  C3  UNL d   1       3.956  -2.916   5.157  0.00  0.00     0.150 A 
ATOM      5  C4  UNL d   1       4.454  -1.637   4.931  0.00  0.00    -0.007 A 
ATOM      6  C5  UNL d   1       3.773  -0.772   4.076  0.00  0.00     0.039 A 
ENDROOT
BRANCH   4   7
ATOM      7  O   UNL d   1       4.657  -3.729   5.996  0.00  0.00    -0.526 OA
ATOM      8  H5  UNL d   1       4.210  -4.591   6.035  0.00  0.00     0.418 HD
ENDBRANCH   4   7
TORSDOF 1
ENDMDL
