MODEL 1
REMARK minimizedAffinity 6.10494661
REMARK minimizedRMSD -1
REMARK  1 active torsions:
REMARK  status: ('A' for Active; 'I' for Inactive)
REMARK    1  A    between atoms: C3_4  and  O_7 
ROOT
ATOM      1  C   UNL d   1      -2.107  -5.251  -5.994  0.00  0.00    -0.033 A 
ATOM      2  C1  UNL d   1      -1.881  -3.875  -5.919  0.00  0.00     0.039 A 
ATOM      3  C2  UNL d   1      -1.805  -3.245  -4.675  0.00  0.00    -0.080 A 
ATOM      4  C3  UNL d   1      -1.956  -4.001  -3.516  0.00  0.00     0.150 A 
ATOM      5  C4  UNL d   1      -2.178  -5.373  -3.584  0.00  0.00    -0.007 A 
ATOM      6  C5  UNL d   1      -2.254  -6.000  -4.827  0.00  0.00     0.039 A 
ENDROOT
BRANCH   4   7
ATOM      7  O   UNL d   1      -1.895  -3.430  -2.280  0.00  0.00    -0.526 OA
ATOM      8  H5  UNL d   1      -1.766  -2.473  -2.389  0.00  0.00     0.418 HD
ENDBRANCH   4   7
TORSDOF 1
ENDMDL
