MODEL 1
REMARK minimizedAffinity 8.9379797
REMARK minimizedRMSD -1
REMARK  0 active torsions:
REMARK  status: ('A' for Active; 'I' for Inactive)
ROOT
ATOM      1  C2' OXE d   1       0.727   1.536   5.119  0.00  0.00     0.078 C 
ATOM      2  C1' OXE d   1       3.145   0.359   4.314  0.00  0.00     0.078 C 
ATOM      3  C1  OXE d   1       1.913   0.063   3.497  0.00  0.00    -0.078 A 
ATOM      4  C2  OXE d   1       0.725   0.606   3.925  0.00  0.00    -0.078 A 
ATOM      5  C3  OXE d   1      -0.432   0.409   3.177  0.00  0.00     0.003 A 
ATOM      6  C4  OXE d   1      -0.428  -0.461   2.080  0.00  0.00    -0.002 A 
ATOM      7  C5  OXE d   1       0.763  -1.056   1.650  0.00  0.00    -0.002 A 
ATOM      8  C6  OXE d   1       1.948  -0.771   2.321  0.00  0.00     0.003 A 
ENDROOT
TORSDOF 0
ENDMDL
