MODEL 1
REMARK minimizedAffinity 15.5588274
REMARK minimizedRMSD -1
REMARK  0 active torsions:
REMARK  status: ('A' for Active; 'I' for Inactive)
ROOT
ATOM      1  C2' OXE d   1      -1.232  -3.895  -5.684  0.00  0.00     0.078 C 
ATOM      2  C1' OXE d   1       1.495  -4.482  -6.000  0.00  0.00     0.078 C 
ATOM      3  C1  OXE d   1       1.128  -3.161  -5.371  0.00  0.00    -0.078 A 
ATOM      4  C2  OXE d   1      -0.209  -2.862  -5.263  0.00  0.00    -0.078 A 
ATOM      5  C3  OXE d   1      -0.603  -1.681  -4.641  0.00  0.00     0.003 A 
ATOM      6  C4  OXE d   1       0.349  -0.727  -4.264  0.00  0.00    -0.002 A 
ATOM      7  C5  OXE d   1       1.715  -0.994  -4.401  0.00  0.00    -0.002 A 
ATOM      8  C6  OXE d   1       2.121  -2.222  -4.913  0.00  0.00     0.003 A 
ENDROOT
TORSDOF 0
ENDMDL
