MODEL 1
REMARK minimizedAffinity 13.93256
REMARK minimizedRMSD -1
REMARK  0 active torsions:
REMARK  status: ('A' for Active; 'I' for Inactive)
ROOT
ATOM      1  C2' OXE d   1      -2.641  -0.701   2.411  0.00  0.00     0.078 C 
ATOM      2  C1' OXE d   1      -1.452   1.791   2.917  0.00  0.00     0.078 C 
ATOM      3  C1  OXE d   1      -0.543   0.598   2.755  0.00  0.00    -0.078 A 
ATOM      4  C2  OXE d   1      -1.136  -0.625   2.554  0.00  0.00    -0.078 A 
ATOM      5  C3  OXE d   1      -0.343  -1.750   2.344  0.00  0.00     0.003 A 
ATOM      6  C4  OXE d   1       1.048  -1.673   2.488  0.00  0.00    -0.002 A 
ATOM      7  C5  OXE d   1       1.669  -0.443   2.732  0.00  0.00    -0.002 A 
ATOM      8  C6  OXE d   1       0.893   0.706   2.826  0.00  0.00     0.003 A 
ENDROOT
TORSDOF 0
ENDMDL
