MODEL 1
REMARK minimizedAffinity 7.87668228
REMARK minimizedRMSD -1
REMARK  0 active torsions:
REMARK  status: ('A' for Active; 'I' for Inactive)
ROOT
ATOM      1  C2' OXE d   1      -4.421  -0.041  -2.175  0.00  0.00     0.078 C 
ATOM      2  C1' OXE d   1      -4.673   1.882  -0.146  0.00  0.00     0.078 C 
ATOM      3  C1  OXE d   1      -4.055   0.555   0.216  0.00  0.00    -0.078 A 
ATOM      4  C2  OXE d   1      -3.978  -0.397  -0.772  0.00  0.00    -0.078 A 
ATOM      5  C3  OXE d   1      -3.366  -1.619  -0.506  0.00  0.00     0.003 A 
ATOM      6  C4  OXE d   1      -2.969  -1.944   0.797  0.00  0.00    -0.002 A 
ATOM      7  C5  OXE d   1      -3.074  -1.003   1.827  0.00  0.00    -0.002 A 
ATOM      8  C6  OXE d   1      -3.575   0.263   1.544  0.00  0.00     0.003 A 
ENDROOT
TORSDOF 0
ENDMDL
