MODEL 1
REMARK minimizedAffinity 10.0884256
REMARK minimizedRMSD -1
REMARK  0 active torsions:
REMARK  status: ('A' for Active; 'I' for Inactive)
ROOT
ATOM      1  C2' OXE d   1       0.539   0.194   2.250  0.00  0.00     0.078 C 
ATOM      2  C1' OXE d   1       2.696   0.771   3.951  0.00  0.00     0.078 C 
ATOM      3  C1  OXE d   1       1.981  -0.543   4.143  0.00  0.00    -0.078 A 
ATOM      4  C2  OXE d   1       0.897  -0.796   3.337  0.00  0.00    -0.078 A 
ATOM      5  C3  OXE d   1       0.235  -2.016   3.436  0.00  0.00     0.003 A 
ATOM      6  C4  OXE d   1       0.566  -2.923   4.450  0.00  0.00    -0.002 A 
ATOM      7  C5  OXE d   1       1.641  -2.666   5.308  0.00  0.00    -0.002 A 
ATOM      8  C6  OXE d   1       2.384  -1.503   5.140  0.00  0.00     0.003 A 
ENDROOT
TORSDOF 0
ENDMDL
