MODEL 1
REMARK minimizedAffinity 12.6184883
REMARK minimizedRMSD -1
REMARK  0 active torsions:
REMARK  status: ('A' for Active; 'I' for Inactive)
ROOT
ATOM      1  C2' OXE d   1       2.172  -4.076  -5.999  0.00  0.00     0.078 C 
ATOM      2  C1' OXE d   1       0.107  -5.979  -5.999  0.00  0.00     0.078 C 
ATOM      3  C1  OXE d   1      -0.238  -4.566  -5.599  0.00  0.00    -0.078 A 
ATOM      4  C2  OXE d   1       0.788  -3.653  -5.557  0.00  0.00    -0.078 A 
ATOM      5  C3  OXE d   1       0.515  -2.323  -5.247  0.00  0.00     0.003 A 
ATOM      6  C4  OXE d   1      -0.766  -1.942  -4.829  0.00  0.00    -0.002 A 
ATOM      7  C5  OXE d   1      -1.817  -2.865  -4.826  0.00  0.00    -0.002 A 
ATOM      8  C6  OXE d   1      -1.579  -4.169  -5.249  0.00  0.00     0.003 A 
ENDROOT
TORSDOF 0
ENDMDL
