MODEL 1
REMARK minimizedAffinity 7.77812147
REMARK minimizedRMSD -1
REMARK  0 active torsions:
REMARK  status: ('A' for Active; 'I' for Inactive)
ROOT
ATOM      1  C2' OXE d   1       0.882   1.717   5.516  0.00  0.00     0.078 C 
ATOM      2  C1' OXE d   1       3.130   0.362   4.519  0.00  0.00     0.078 C 
ATOM      3  C1  OXE d   1       1.802   0.110   3.850  0.00  0.00    -0.078 A 
ATOM      4  C2  OXE d   1       0.700   0.741   4.374  0.00  0.00    -0.078 A 
ATOM      5  C3  OXE d   1      -0.540   0.585   3.760  0.00  0.00     0.003 A 
ATOM      6  C4  OXE d   1      -0.703  -0.327   2.711  0.00  0.00    -0.002 A 
ATOM      7  C5  OXE d   1       0.400  -1.010   2.188  0.00  0.00    -0.002 A 
ATOM      8  C6  OXE d   1       1.664  -0.772   2.717  0.00  0.00     0.003 A 
ENDROOT
TORSDOF 0
ENDMDL
