MODEL 1
REMARK minimizedAffinity 8.29291534
REMARK minimizedRMSD -1
REMARK  0 active torsions:
REMARK  status: ('A' for Active; 'I' for Inactive)
ROOT
ATOM      1  C2' OXE d   1       1.047  -2.217   2.963  0.00  0.00     0.078 C 
ATOM      2  C1' OXE d   1       1.746   0.495   3.159  0.00  0.00     0.078 C 
ATOM      3  C1  OXE d   1       0.351   0.160   2.694  0.00  0.00    -0.078 A 
ATOM      4  C2  OXE d   1       0.033  -1.170   2.556  0.00  0.00    -0.078 A 
ATOM      5  C3  OXE d   1      -1.258  -1.534   2.183  0.00  0.00     0.003 A 
ATOM      6  C4  OXE d   1      -2.187  -0.560   1.799  0.00  0.00    -0.002 A 
ATOM      7  C5  OXE d   1      -1.870   0.799   1.894  0.00  0.00    -0.002 A 
ATOM      8  C6  OXE d   1      -0.622   1.176   2.379  0.00  0.00     0.003 A 
ENDROOT
TORSDOF 0
ENDMDL
