MODEL 1
REMARK minimizedAffinity 9.50849152
REMARK minimizedRMSD -1
REMARK  0 active torsions:
REMARK  status: ('A' for Active; 'I' for Inactive)
ROOT
ATOM      1  C2' OXE d   1       1.059  -2.124   2.931  0.00  0.00     0.078 C 
ATOM      2  C1' OXE d   1       1.593   0.579   3.469  0.00  0.00     0.078 C 
ATOM      3  C1  OXE d   1       0.209   0.217   2.992  0.00  0.00    -0.078 A 
ATOM      4  C2  OXE d   1      -0.030  -1.102   2.686  0.00  0.00    -0.078 A 
ATOM      5  C3  OXE d   1      -1.305  -1.499   2.294  0.00  0.00     0.003 A 
ATOM      6  C4  OXE d   1      -2.303  -0.545   2.060  0.00  0.00    -0.002 A 
ATOM      7  C5  OXE d   1      -2.069   0.808   2.327  0.00  0.00    -0.002 A 
ATOM      8  C6  OXE d   1      -0.835   1.199   2.833  0.00  0.00     0.003 A 
ENDROOT
TORSDOF 0
ENDMDL
