MODEL 1
REMARK minimizedAffinity 11.8099604
REMARK minimizedRMSD -1
REMARK  0 active torsions:
REMARK  status: ('A' for Active; 'I' for Inactive)
ROOT
ATOM      1  C2' OXE d   1       0.512  -2.350   3.841  0.00  0.00     0.078 C 
ATOM      2  C1' OXE d   1       0.903   0.297   2.993  0.00  0.00     0.078 C 
ATOM      3  C1  OXE d   1      -0.505  -0.242   2.988  0.00  0.00    -0.078 A 
ATOM      4  C2  OXE d   1      -0.681  -1.553   3.360  0.00  0.00    -0.078 A 
ATOM      5  C3  OXE d   1      -1.966  -2.084   3.425  0.00  0.00     0.003 A 
ATOM      6  C4  OXE d   1      -3.064  -1.344   2.969  0.00  0.00    -0.002 A 
ATOM      7  C5  OXE d   1      -2.901  -0.020   2.548  0.00  0.00    -0.002 A 
ATOM      8  C6  OXE d   1      -1.637   0.559   2.592  0.00  0.00     0.003 A 
ENDROOT
TORSDOF 0
ENDMDL
