MODEL 1
REMARK minimizedAffinity 9.27245045
REMARK minimizedRMSD -1
REMARK  1 active torsions:
REMARK  status: ('A' for Active; 'I' for Inactive)
REMARK    1  A    between atoms: C1_2  and  C2_3 
ROOT
ATOM      1  C2  UNL d   1       5.069  -0.123   4.846  0.00  0.00    -0.076 A 
ATOM      2  C3  UNL d   1       5.492   0.580   5.987  0.00  0.00     0.004 A 
ATOM      3  C4  UNL d   1       5.526   1.974   6.000  0.00  0.00    -0.003 A 
ATOM      4  C5  UNL d   1       5.137   2.686   4.871  0.00  0.00     0.000 A 
ATOM      5  C6  UNL d   1       4.697   2.005   3.736  0.00  0.00     0.000 A 
ATOM      6  C7  UNL d   1       4.641   0.601   3.713  0.00  0.00    -0.073 A 
ATOM      7  C8  UNL d   1       4.165  -0.082   2.461  0.00  0.00     0.078 C 
ENDROOT
BRANCH   1   8
ATOM      8  C1  UNL d   1       5.079  -1.635   4.882  0.00  0.00     0.053 C 
ATOM      9  C   UNL d   1       5.957  -2.185   5.996  0.00  0.00     0.018 C 
ENDBRANCH   1   8
TORSDOF 1
ENDMDL
