MODEL 1
REMARK minimizedAffinity 7.3886838
REMARK minimizedRMSD -1
REMARK  1 active torsions:
REMARK  status: ('A' for Active; 'I' for Inactive)
REMARK    1  A    between atoms: C1_2  and  C2_3 
ROOT
ATOM      1  C2  UNL d   1       0.449   0.025  -0.780  0.00  0.00    -0.076 A 
ATOM      2  C3  UNL d   1       1.711  -0.548  -1.014  0.00  0.00     0.004 A 
ATOM      3  C4  UNL d   1       1.957  -1.887  -0.716  0.00  0.00    -0.003 A 
ATOM      4  C5  UNL d   1       0.945  -2.676  -0.181  0.00  0.00     0.000 A 
ATOM      5  C6  UNL d   1      -0.319  -2.129   0.040  0.00  0.00     0.000 A 
ATOM      6  C7  UNL d   1      -0.588  -0.785  -0.269  0.00  0.00    -0.073 A 
ATOM      7  C8  UNL d   1      -1.967  -0.246  -0.004  0.00  0.00     0.078 C 
ENDROOT
BRANCH   1   8
ATOM      8  C1  UNL d   1       0.248   1.489  -1.097  0.00  0.00     0.053 C 
ATOM      9  C   UNL d   1       1.044   2.400  -0.175  0.00  0.00     0.018 C 
ENDBRANCH   1   8
TORSDOF 1
ENDMDL
