MODEL 1
REMARK minimizedAffinity -3.51886559
REMARK minimizedRMSD -1
REMARK  1 active torsions:
REMARK  status: ('A' for Active; 'I' for Inactive)
REMARK    1  A    between atoms: C1_2  and  C2_3 
ROOT
ATOM      1  C2  UNL d   1       1.153  -0.742  -1.555  0.00  0.00    -0.076 A 
ATOM      2  C3  UNL d   1       1.553  -1.729  -2.472  0.00  0.00     0.004 A 
ATOM      3  C4  UNL d   1       1.723  -1.428  -3.822  0.00  0.00    -0.003 A 
ATOM      4  C5  UNL d   1       1.497  -0.133  -4.277  0.00  0.00     0.000 A 
ATOM      5  C6  UNL d   1       1.117   0.863  -3.378  0.00  0.00     0.000 A 
ATOM      6  C7  UNL d   1       0.957   0.579  -2.011  0.00  0.00    -0.073 A 
ATOM      7  C8  UNL d   1       0.540   1.690  -1.087  0.00  0.00     0.078 C 
ENDROOT
BRANCH   1   8
ATOM      8  C1  UNL d   1       0.958  -1.134  -0.108  0.00  0.00     0.053 C 
ATOM      9  C   UNL d   1      -0.319  -1.930   0.113  0.00  0.00     0.018 C 
ENDBRANCH   1   8
TORSDOF 1
ENDMDL
