MODEL 1
REMARK minimizedAffinity 4.44355965
REMARK minimizedRMSD -1
REMARK  1 active torsions:
REMARK  status: ('A' for Active; 'I' for Inactive)
REMARK    1  A    between atoms: C1_2  and  C2_3 
ROOT
ATOM      1  C2  UNL d   1       1.272  -0.695  -1.407  0.00  0.00    -0.076 A 
ATOM      2  C3  UNL d   1       1.730  -1.478  -2.481  0.00  0.00     0.004 A 
ATOM      3  C4  UNL d   1       1.843  -0.942  -3.762  0.00  0.00    -0.003 A 
ATOM      4  C5  UNL d   1       1.500   0.386  -3.991  0.00  0.00     0.000 A 
ATOM      5  C6  UNL d   1       1.060   1.182  -2.934  0.00  0.00     0.000 A 
ATOM      6  C7  UNL d   1       0.956   0.662  -1.632  0.00  0.00    -0.073 A 
ATOM      7  C8  UNL d   1       0.471   1.564  -0.531  0.00  0.00     0.078 C 
ENDROOT
BRANCH   1   8
ATOM      8  C1  UNL d   1       1.144  -1.338  -0.044  0.00  0.00     0.053 C 
ATOM      9  C   UNL d   1       0.230  -2.554  -0.057  0.00  0.00     0.018 C 
ENDBRANCH   1   8
TORSDOF 1
ENDMDL
