MODEL 1
REMARK minimizedAffinity -4.02414942
REMARK minimizedRMSD -1
REMARK  1 active torsions:
REMARK  status: ('A' for Active; 'I' for Inactive)
REMARK    1  A    between atoms: C1_2  and  C2_3 
ROOT
ATOM      1  C2  UNL d   1       0.654  -0.015  -1.198  0.00  0.00    -0.076 A 
ATOM      2  C3  UNL d   1       0.548  -0.870  -0.087  0.00  0.00     0.004 A 
ATOM      3  C4  UNL d   1       0.958  -2.200  -0.165  0.00  0.00    -0.003 A 
ATOM      4  C5  UNL d   1       1.483  -2.696  -1.353  0.00  0.00     0.000 A 
ATOM      5  C6  UNL d   1       1.612  -1.856  -2.459  0.00  0.00     0.000 A 
ATOM      6  C7  UNL d   1       1.218  -0.509  -2.393  0.00  0.00    -0.073 A 
ATOM      7  C8  UNL d   1       1.374   0.350  -3.618  0.00  0.00     0.078 C 
ENDROOT
BRANCH   1   8
ATOM      8  C1  UNL d   1       0.167   1.410  -1.063  0.00  0.00     0.053 C 
ATOM      9  C   UNL d   1       1.060   2.249  -0.162  0.00  0.00     0.018 C 
ENDBRANCH   1   8
TORSDOF 1
ENDMDL
