MODEL 1
REMARK minimizedAffinity 5.76499176
REMARK minimizedRMSD -1
REMARK  1 active torsions:
REMARK  status: ('A' for Active; 'I' for Inactive)
REMARK    1  A    between atoms: C1_2  and  C2_3 
ROOT
ATOM      1  C2  UNL d   1      -0.624  -1.163   0.142  0.00  0.00    -0.076 A 
ATOM      2  C3  UNL d   1      -0.343  -2.538   0.223  0.00  0.00     0.004 A 
ATOM      3  C4  UNL d   1       0.827  -3.065  -0.323  0.00  0.00    -0.003 A 
ATOM      4  C5  UNL d   1       1.735  -2.225  -0.958  0.00  0.00     0.000 A 
ATOM      5  C6  UNL d   1       1.481  -0.856  -1.032  0.00  0.00     0.000 A 
ATOM      6  C7  UNL d   1       0.314  -0.306  -0.473  0.00  0.00    -0.073 A 
ATOM      7  C8  UNL d   1       0.088   1.176  -0.587  0.00  0.00     0.078 C 
ENDROOT
BRANCH   1   8
ATOM      8  C1  UNL d   1      -1.921  -0.653   0.728  0.00  0.00     0.053 C 
ATOM      9  C   UNL d   1      -1.904  -0.630   2.248  0.00  0.00     0.018 C 
ENDBRANCH   1   8
TORSDOF 1
ENDMDL
