MODEL 1
REMARK minimizedAffinity 4.65322399
REMARK minimizedRMSD -1
REMARK  1 active torsions:
REMARK  status: ('A' for Active; 'I' for Inactive)
REMARK    1  A    between atoms: C1_2  and  C2_3 
ROOT
ATOM      1  C2  UNL d   1       0.272   1.370  -0.147  0.00  0.00    -0.076 A 
ATOM      2  C3  UNL d   1       0.214   2.115   1.044  0.00  0.00     0.004 A 
ATOM      3  C4  UNL d   1       0.952   3.288   1.193  0.00  0.00    -0.003 A 
ATOM      4  C5  UNL d   1       1.760   3.735   0.154  0.00  0.00     0.000 A 
ATOM      5  C6  UNL d   1       1.816   3.018  -1.041  0.00  0.00     0.000 A 
ATOM      6  C7  UNL d   1       1.066   1.843  -1.214  0.00  0.00    -0.073 A 
ATOM      7  C8  UNL d   1       1.169   1.106  -2.521  0.00  0.00     0.078 C 
ENDROOT
BRANCH   1   8
ATOM      8  C1  UNL d   1      -0.530   0.091  -0.241  0.00  0.00     0.053 C 
ATOM      9  C   UNL d   1       0.256  -1.124   0.226  0.00  0.00     0.018 C 
ENDBRANCH   1   8
TORSDOF 1
ENDMDL
