MODEL 1
REMARK minimizedAffinity 7.06549168
REMARK minimizedRMSD -1
REMARK  1 active torsions:
REMARK  status: ('A' for Active; 'I' for Inactive)
REMARK    1  A    between atoms: C1_2  and  C2_3 
ROOT
ATOM      1  C2  UNL d   1       0.541   0.228  -1.531  0.00  0.00    -0.076 A 
ATOM      2  C3  UNL d   1       0.280  -0.478  -0.343  0.00  0.00     0.004 A 
ATOM      3  C4  UNL d   1       0.596  -1.831  -0.229  0.00  0.00    -0.003 A 
ATOM      4  C5  UNL d   1       1.178  -2.499  -1.300  0.00  0.00     0.000 A 
ATOM      5  C6  UNL d   1       1.460  -1.811  -2.479  0.00  0.00     0.000 A 
ATOM      6  C7  UNL d   1       1.162  -0.443  -2.605  0.00  0.00    -0.073 A 
ATOM      7  C8  UNL d   1       1.482   0.249  -3.902  0.00  0.00     0.078 C 
ENDROOT
BRANCH   1   8
ATOM      8  C1  UNL d   1       0.151   1.687  -1.606  0.00  0.00     0.053 C 
ATOM      9  C   UNL d   1       0.782   2.516  -0.498  0.00  0.00     0.018 C 
ENDBRANCH   1   8
TORSDOF 1
ENDMDL
