MODEL 1
REMARK minimizedAffinity -0.474177927
REMARK minimizedRMSD -1
REMARK  1 active torsions:
REMARK  status: ('A' for Active; 'I' for Inactive)
REMARK    1  A    between atoms: C1_2  and  C2_3 
ROOT
ATOM      1  C2  UNL d   1       0.552  -0.014  -0.834  0.00  0.00    -0.076 A 
ATOM      2  C3  UNL d   1       1.809  -0.471  -1.268  0.00  0.00     0.004 A 
ATOM      3  C4  UNL d   1       2.167  -1.813  -1.143  0.00  0.00    -0.003 A 
ATOM      4  C5  UNL d   1       1.274  -2.719  -0.582  0.00  0.00     0.000 A 
ATOM      5  C6  UNL d   1       0.016  -2.286  -0.162  0.00  0.00     0.000 A 
ATOM      6  C7  UNL d   1      -0.367  -0.940  -0.296  0.00  0.00    -0.073 A 
ATOM      7  C8  UNL d   1      -1.733  -0.528   0.179  0.00  0.00     0.078 C 
ENDROOT
BRANCH   1   8
ATOM      8  C1  UNL d   1       0.230   1.457  -0.971  0.00  0.00     0.053 C 
ATOM      9  C   UNL d   1       0.992   2.315   0.027  0.00  0.00     0.018 C 
ENDBRANCH   1   8
TORSDOF 1
ENDMDL
