MODEL 1
REMARK minimizedAffinity 9.54962158
REMARK minimizedRMSD -1
REMARK  1 active torsions:
REMARK  status: ('A' for Active; 'I' for Inactive)
REMARK    1  A    between atoms: C1_2  and  C2_3 
ROOT
ATOM      1  C2  UNL d   1       1.285   2.338  -3.538  0.00  0.00    -0.076 A 
ATOM      2  C3  UNL d   1       1.160   3.697  -3.875  0.00  0.00     0.004 A 
ATOM      3  C4  UNL d   1       1.630   4.180  -5.095  0.00  0.00    -0.003 A 
ATOM      4  C5  UNL d   1       2.232   3.311  -5.999  0.00  0.00     0.000 A 
ATOM      5  C6  UNL d   1       2.348   1.956  -5.689  0.00  0.00     0.000 A 
ATOM      6  C7  UNL d   1       1.865   1.451  -4.469  0.00  0.00    -0.073 A 
ATOM      7  C8  UNL d   1       2.022  -0.018  -4.184  0.00  0.00     0.078 C 
ENDROOT
BRANCH   1   8
ATOM      8  C1  UNL d   1       0.781   1.878  -2.189  0.00  0.00     0.053 C 
ATOM      9  C   UNL d   1       1.188   2.817  -1.063  0.00  0.00     0.018 C 
ENDBRANCH   1   8
TORSDOF 1
ENDMDL
