MODEL 1
REMARK minimizedAffinity 4.59678793
REMARK minimizedRMSD -1
REMARK  1 active torsions:
REMARK  status: ('A' for Active; 'I' for Inactive)
REMARK    1  A    between atoms: C1_2  and  C2_3 
ROOT
ATOM      1  C2  UNL d   1       1.346  -1.262  -2.420  0.00  0.00    -0.076 A 
ATOM      2  C3  UNL d   1       1.563   0.123  -2.524  0.00  0.00     0.004 A 
ATOM      3  C4  UNL d   1       1.499   0.768  -3.758  0.00  0.00    -0.003 A 
ATOM      4  C5  UNL d   1       1.215   0.039  -4.907  0.00  0.00     0.000 A 
ATOM      5  C6  UNL d   1       0.979  -1.333  -4.820  0.00  0.00     0.000 A 
ATOM      6  C7  UNL d   1       1.024  -1.996  -3.582  0.00  0.00    -0.073 A 
ATOM      7  C8  UNL d   1       0.768  -3.478  -3.546  0.00  0.00     0.078 C 
ENDROOT
BRANCH   1   8
ATOM      8  C1  UNL d   1       1.455  -1.912  -1.059  0.00  0.00     0.053 C 
ATOM      9  C   UNL d   1       2.898  -2.088  -0.612  0.00  0.00     0.018 C 
ENDBRANCH   1   8
TORSDOF 1
ENDMDL
