MODEL 1
REMARK minimizedAffinity 4.85261106
REMARK minimizedRMSD -1
REMARK  1 active torsions:
REMARK  status: ('A' for Active; 'I' for Inactive)
REMARK    1  A    between atoms: C1_2  and  C2_3 
ROOT
ATOM      1  C2  UNL d   1       5.372   2.242   4.722  0.00  0.00    -0.076 A 
ATOM      2  C3  UNL d   1       5.872   1.647   5.894  0.00  0.00     0.004 A 
ATOM      3  C4  UNL d   1       5.997   0.263   5.999  0.00  0.00    -0.003 A 
ATOM      4  C5  UNL d   1       5.623  -0.549   4.934  0.00  0.00     0.000 A 
ATOM      5  C6  UNL d   1       5.141   0.024   3.758  0.00  0.00     0.000 A 
ATOM      6  C7  UNL d   1       5.025   1.419   3.629  0.00  0.00    -0.073 A 
ATOM      7  C8  UNL d   1       4.494   1.983   2.340  0.00  0.00     0.078 C 
ENDROOT
BRANCH   1   8
ATOM      8  C1  UNL d   1       5.234   3.747   4.676  0.00  0.00     0.053 C 
ATOM      9  C   UNL d   1       5.590   4.406   6.000  0.00  0.00     0.018 C 
ENDBRANCH   1   8
TORSDOF 1
ENDMDL
