MODEL 1
REMARK minimizedAffinity 1.70337534
REMARK minimizedRMSD -1
REMARK  1 active torsions:
REMARK  status: ('A' for Active; 'I' for Inactive)
REMARK    1  A    between atoms: C1_2  and  C2_3 
ROOT
ATOM      1  C2  UNL d   1       0.461  -0.135  -0.633  0.00  0.00    -0.076 A 
ATOM      2  C3  UNL d   1       1.497  -0.514  -1.504  0.00  0.00     0.004 A 
ATOM      3  C4  UNL d   1       1.897  -1.845  -1.607  0.00  0.00    -0.003 A 
ATOM      4  C5  UNL d   1       1.267  -2.819  -0.841  0.00  0.00     0.000 A 
ATOM      5  C6  UNL d   1       0.226  -2.464   0.016  0.00  0.00     0.000 A 
ATOM      6  C7  UNL d   1      -0.201  -1.129   0.119  0.00  0.00    -0.073 A 
ATOM      7  C8  UNL d   1      -1.325  -0.802   1.064  0.00  0.00     0.078 C 
ENDROOT
BRANCH   1   8
ATOM      8  C1  UNL d   1       0.088   1.327  -0.543  0.00  0.00     0.053 C 
ATOM      9  C   UNL d   1       1.036   2.117   0.346  0.00  0.00     0.018 C 
ENDBRANCH   1   8
TORSDOF 1
ENDMDL
