MODEL 1
REMARK minimizedAffinity 1.6383121
REMARK minimizedRMSD -1
REMARK  1 active torsions:
REMARK  status: ('A' for Active; 'I' for Inactive)
REMARK    1  A    between atoms: C1_2  and  C2_3 
ROOT
ATOM      1  C2  UNL d   1       0.670  -0.543  -1.327  0.00  0.00    -0.076 A 
ATOM      2  C3  UNL d   1       1.715  -1.295  -1.890  0.00  0.00     0.004 A 
ATOM      3  C4  UNL d   1       1.980  -2.593  -1.455  0.00  0.00    -0.003 A 
ATOM      4  C5  UNL d   1       1.203  -3.159  -0.450  0.00  0.00     0.000 A 
ATOM      5  C6  UNL d   1       0.150  -2.434   0.106  0.00  0.00     0.000 A 
ATOM      6  C7  UNL d   1      -0.141  -1.130  -0.332  0.00  0.00    -0.073 A 
ATOM      7  C8  UNL d   1      -1.284  -0.392   0.307  0.00  0.00     0.078 C 
ENDROOT
BRANCH   1   8
ATOM      8  C1  UNL d   1       0.447   0.869  -1.820  0.00  0.00     0.053 C 
ATOM      9  C   UNL d   1       0.970   1.083  -3.232  0.00  0.00     0.018 C 
ENDBRANCH   1   8
TORSDOF 1
ENDMDL
