MODEL 1
REMARK minimizedAffinity -3.15599775
REMARK minimizedRMSD -1
REMARK  1 active torsions:
REMARK  status: ('A' for Active; 'I' for Inactive)
REMARK    1  A    between atoms: C3_4  and  O_7 
ROOT
ATOM      1  C   UNL d   1      -5.988   4.324   5.470  0.00  0.00    -0.033 A 
ATOM      2  C1  UNL d   1      -5.808   3.319   4.517  0.00  0.00     0.039 A 
ATOM      3  C2  UNL d   1      -5.625   3.654   3.173  0.00  0.00    -0.080 A 
ATOM      4  C3  UNL d   1      -5.623   4.994   2.797  0.00  0.00     0.150 A 
ATOM      5  C4  UNL d   1      -5.798   6.000   3.742  0.00  0.00    -0.007 A 
ATOM      6  C5  UNL d   1      -5.982   5.664   5.082  0.00  0.00     0.039 A 
ENDROOT
BRANCH   4   7
ATOM      7  O   UNL d   1      -5.453   5.369   1.497  0.00  0.00    -0.526 OA
ATOM      8  H5  UNL d   1      -5.373   4.567   0.954  0.00  0.00     0.418 HD
ENDBRANCH   4   7
TORSDOF 1
ENDMDL
