MODEL 1
REMARK minimizedAffinity -1.81012988
REMARK minimizedRMSD -1
REMARK  1 active torsions:
REMARK  status: ('A' for Active; 'I' for Inactive)
REMARK    1  A    between atoms: C3_4  and  O_7 
ROOT
ATOM      1  C   UNL d   1      -4.843   2.920   5.999  0.00  0.00    -0.033 A 
ATOM      2  C1  UNL d   1      -5.213   4.266   5.990  0.00  0.00     0.039 A 
ATOM      3  C2  UNL d   1      -5.570   4.886   4.791  0.00  0.00    -0.080 A 
ATOM      4  C3  UNL d   1      -5.553   4.149   3.610  0.00  0.00     0.150 A 
ATOM      5  C4  UNL d   1      -5.188   2.807   3.612  0.00  0.00    -0.007 A 
ATOM      6  C5  UNL d   1      -4.831   2.190   4.810  0.00  0.00     0.039 A 
ENDROOT
BRANCH   4   7
ATOM      7  O   UNL d   1      -5.888   4.712   2.414  0.00  0.00    -0.526 OA
ATOM      8  H5  UNL d   1      -6.090   5.651   2.562  0.00  0.00     0.418 HD
ENDBRANCH   4   7
TORSDOF 1
ENDMDL
