MODEL 1
REMARK minimizedAffinity 2.66110039
REMARK minimizedRMSD -1
REMARK  1 active torsions:
REMARK  status: ('A' for Active; 'I' for Inactive)
REMARK    1  A    between atoms: C3_4  and  O_7 
ROOT
ATOM      1  C   UNL d   1      -5.285   4.652   3.479  0.00  0.00    -0.033 A 
ATOM      2  C1  UNL d   1      -6.000   4.092   2.418  0.00  0.00     0.039 A 
ATOM      3  C2  UNL d   1      -5.722   4.479   1.105  0.00  0.00    -0.080 A 
ATOM      4  C3  UNL d   1      -4.728   5.425   0.868  0.00  0.00     0.150 A 
ATOM      5  C4  UNL d   1      -4.010   5.984   1.920  0.00  0.00    -0.007 A 
ATOM      6  C5  UNL d   1      -4.289   5.596   3.229  0.00  0.00     0.039 A 
ENDROOT
BRANCH   4   7
ATOM      7  O   UNL d   1      -4.425   5.838  -0.396  0.00  0.00    -0.526 OA
ATOM      8  H5  UNL d   1      -5.021   5.388  -1.018  0.00  0.00     0.418 HD
ENDBRANCH   4   7
TORSDOF 1
ENDMDL
