MODEL 1
REMARK minimizedAffinity -2.36003351
REMARK minimizedRMSD -1
REMARK  1 active torsions:
REMARK  status: ('A' for Active; 'I' for Inactive)
REMARK    1  A    between atoms: C3_4  and  O_7 
ROOT
ATOM      1  C   UNL d   1      -5.976   4.698   4.946  0.00  0.00    -0.033 A 
ATOM      2  C1  UNL d   1      -5.986   5.887   4.214  0.00  0.00     0.039 A 
ATOM      3  C2  UNL d   1      -5.992   5.849   2.818  0.00  0.00    -0.080 A 
ATOM      4  C3  UNL d   1      -5.990   4.618   2.168  0.00  0.00     0.150 A 
ATOM      5  C4  UNL d   1      -5.985   3.430   2.891  0.00  0.00    -0.007 A 
ATOM      6  C5  UNL d   1      -5.977   3.470   4.285  0.00  0.00     0.039 A 
ENDROOT
BRANCH   4   7
ATOM      7  O   UNL d   1      -5.992   4.531   0.808  0.00  0.00    -0.526 OA
ATOM      8  H5  UNL d   1      -5.966   5.431   0.442  0.00  0.00     0.418 HD
ENDBRANCH   4   7
TORSDOF 1
ENDMDL
