MODEL 1
REMARK minimizedAffinity 7.0081377
REMARK minimizedRMSD -1
REMARK  1 active torsions:
REMARK  status: ('A' for Active; 'I' for Inactive)
REMARK    1  A    between atoms: C3_4  and  O_7 
ROOT
ATOM      1  C   UNL d   1      -3.153  -0.723   0.659  0.00  0.00    -0.033 A 
ATOM      2  C1  UNL d   1      -2.755  -1.301  -0.548  0.00  0.00     0.039 A 
ATOM      3  C2  UNL d   1      -1.399  -1.371  -0.877  0.00  0.00    -0.080 A 
ATOM      4  C3  UNL d   1      -0.454  -0.861   0.010  0.00  0.00     0.150 A 
ATOM      5  C4  UNL d   1      -0.844  -0.288   1.215  0.00  0.00    -0.007 A 
ATOM      6  C5  UNL d   1      -2.198  -0.218   1.541  0.00  0.00     0.039 A 
ENDROOT
BRANCH   4   7
ATOM      7  O   UNL d   1       0.879  -0.902  -0.270  0.00  0.00    -0.526 OA
ATOM      8  H5  UNL d   1       0.998  -1.300  -1.148  0.00  0.00     0.418 HD
ENDBRANCH   4   7
TORSDOF 1
ENDMDL
