MODEL 1
REMARK minimizedAffinity -3.58504128
REMARK minimizedRMSD -1
REMARK  1 active torsions:
REMARK  status: ('A' for Active; 'I' for Inactive)
REMARK    1  A    between atoms: C3_4  and  O_7 
ROOT
ATOM      1  C   UNL d   1      -5.275   3.695   5.556  0.00  0.00    -0.033 A 
ATOM      2  C1  UNL d   1      -4.930   4.976   5.119  0.00  0.00     0.039 A 
ATOM      3  C2  UNL d   1      -4.968   5.285   3.758  0.00  0.00    -0.080 A 
ATOM      4  C3  UNL d   1      -5.353   4.307   2.846  0.00  0.00     0.150 A 
ATOM      5  C4  UNL d   1      -5.702   3.030   3.274  0.00  0.00    -0.007 A 
ATOM      6  C5  UNL d   1      -5.663   2.723   4.633  0.00  0.00     0.039 A 
ENDROOT
BRANCH   4   7
ATOM      7  O   UNL d   1      -5.400   4.560   1.507  0.00  0.00    -0.526 OA
ATOM      8  H5  UNL d   1      -5.105   5.473   1.356  0.00  0.00     0.418 HD
ENDBRANCH   4   7
TORSDOF 1
ENDMDL
