MODEL 1
REMARK minimizedAffinity -2.74480414
REMARK minimizedRMSD -1
REMARK  1 active torsions:
REMARK  status: ('A' for Active; 'I' for Inactive)
REMARK    1  A    between atoms: C3_4  and  O_7 
ROOT
ATOM      1  C   UNL d   1      -5.632   3.912   4.776  0.00  0.00    -0.033 A 
ATOM      2  C1  UNL d   1      -5.999   5.259   4.766  0.00  0.00     0.039 A 
ATOM      3  C2  UNL d   1      -5.989   5.978   3.569  0.00  0.00    -0.080 A 
ATOM      4  C3  UNL d   1      -5.612   5.339   2.391  0.00  0.00     0.150 A 
ATOM      5  C4  UNL d   1      -5.250   3.996   2.394  0.00  0.00    -0.007 A 
ATOM      6  C5  UNL d   1      -5.259   3.280   3.590  0.00  0.00     0.039 A 
ENDROOT
BRANCH   4   7
ATOM      7  O   UNL d   1      -5.582   6.000   1.200  0.00  0.00    -0.526 OA
ATOM      8  H5  UNL d   1      -5.829   6.927   1.356  0.00  0.00     0.418 HD
ENDBRANCH   4   7
TORSDOF 1
ENDMDL
