MODEL 1
REMARK minimizedAffinity -2.5801096
REMARK minimizedRMSD -1
REMARK  1 active torsions:
REMARK  status: ('A' for Active; 'I' for Inactive)
REMARK    1  A    between atoms: C3_4  and  O_7 
ROOT
ATOM      1  C   UNL d   1      -5.662   4.835   4.888  0.00  0.00    -0.033 A 
ATOM      2  C1  UNL d   1      -5.301   3.679   4.192  0.00  0.00     0.039 A 
ATOM      3  C2  UNL d   1      -5.282   3.680   2.796  0.00  0.00    -0.080 A 
ATOM      4  C3  UNL d   1      -5.624   4.841   2.109  0.00  0.00     0.150 A 
ATOM      5  C4  UNL d   1      -5.981   5.997   2.795  0.00  0.00    -0.007 A 
ATOM      6  C5  UNL d   1      -6.000   5.994   4.189  0.00  0.00     0.039 A 
ENDROOT
BRANCH   4   7
ATOM      7  O   UNL d   1      -5.625   4.888   0.746  0.00  0.00    -0.526 OA
ATOM      8  H5  UNL d   1      -5.386   4.009   0.408  0.00  0.00     0.418 HD
ENDBRANCH   4   7
TORSDOF 1
ENDMDL
