MODEL 1
REMARK minimizedAffinity -2.62795615
REMARK minimizedRMSD -1
REMARK  1 active torsions:
REMARK  status: ('A' for Active; 'I' for Inactive)
REMARK    1  A    between atoms: C3_4  and  O_7 
ROOT
ATOM      1  C   UNL d   1      -5.171   4.850   1.800  0.00  0.00    -0.033 A 
ATOM      2  C1  UNL d   1      -5.721   5.987   2.395  0.00  0.00     0.039 A 
ATOM      3  C2  UNL d   1      -5.997   5.997   3.764  0.00  0.00    -0.080 A 
ATOM      4  C3  UNL d   1      -5.716   4.866   4.526  0.00  0.00     0.150 A 
ATOM      5  C4  UNL d   1      -5.164   3.731   3.940  0.00  0.00    -0.007 A 
ATOM      6  C5  UNL d   1      -4.891   3.723   2.573  0.00  0.00     0.039 A 
ENDROOT
BRANCH   4   7
ATOM      7  O   UNL d   1      -5.972   4.827   5.864  0.00  0.00    -0.526 OA
ATOM      8  H5  UNL d   1      -6.379   5.670   6.124  0.00  0.00     0.418 HD
ENDBRANCH   4   7
TORSDOF 1
ENDMDL
