MODEL 1
REMARK minimizedAffinity -3.20516467
REMARK minimizedRMSD -1
REMARK  1 active torsions:
REMARK  status: ('A' for Active; 'I' for Inactive)
REMARK    1  A    between atoms: C3_4  and  O_7 
ROOT
ATOM      1  C   UNL d   1      -5.017   4.356   4.910  0.00  0.00    -0.033 A 
ATOM      2  C1  UNL d   1      -5.633   3.523   3.974  0.00  0.00     0.039 A 
ATOM      3  C2  UNL d   1      -5.745   3.928   2.643  0.00  0.00    -0.080 A 
ATOM      4  C3  UNL d   1      -5.236   5.167   2.261  0.00  0.00     0.150 A 
ATOM      5  C4  UNL d   1      -4.618   6.000   3.187  0.00  0.00    -0.007 A 
ATOM      6  C5  UNL d   1      -4.508   5.594   4.516  0.00  0.00     0.039 A 
ENDROOT
BRANCH   4   7
ATOM      7  O   UNL d   1      -5.326   5.608   0.974  0.00  0.00    -0.526 OA
ATOM      8  H5  UNL d   1      -5.803   4.940   0.453  0.00  0.00     0.418 HD
ENDBRANCH   4   7
TORSDOF 1
ENDMDL
