MODEL 1
REMARK minimizedAffinity -1.79589522
REMARK minimizedRMSD -1
REMARK  1 active torsions:
REMARK  status: ('A' for Active; 'I' for Inactive)
REMARK    1  A    between atoms: C3_4  and  O_7 
ROOT
ATOM      1  C   UNL d   1      -5.769   4.362   5.999  0.00  0.00    -0.033 A 
ATOM      2  C1  UNL d   1      -5.478   3.000   5.889  0.00  0.00     0.039 A 
ATOM      3  C2  UNL d   1      -5.412   2.399   4.630  0.00  0.00    -0.080 A 
ATOM      4  C3  UNL d   1      -5.637   3.169   3.492  0.00  0.00     0.150 A 
ATOM      5  C4  UNL d   1      -5.924   4.526   3.595  0.00  0.00    -0.007 A 
ATOM      6  C5  UNL d   1      -5.991   5.124   4.852  0.00  0.00     0.039 A 
ENDROOT
BRANCH   4   7
ATOM      7  O   UNL d   1      -5.587   2.625   2.243  0.00  0.00    -0.526 OA
ATOM      8  H5  UNL d   1      -5.408   1.674   2.328  0.00  0.00     0.418 HD
ENDBRANCH   4   7
TORSDOF 1
ENDMDL
