MODEL 1
REMARK minimizedAffinity -2.33930588
REMARK minimizedRMSD -1
REMARK  1 active torsions:
REMARK  status: ('A' for Active; 'I' for Inactive)
REMARK    1  A    between atoms: C3_4  and  O_7 
ROOT
ATOM      1  C   UNL d   1      -4.889   4.088   4.315  0.00  0.00    -0.033 A 
ATOM      2  C1  UNL d   1      -4.647   3.374   3.139  0.00  0.00     0.039 A 
ATOM      3  C2  UNL d   1      -4.875   3.971   1.898  0.00  0.00    -0.080 A 
ATOM      4  C3  UNL d   1      -5.344   5.281   1.846  0.00  0.00     0.150 A 
ATOM      5  C4  UNL d   1      -5.583   6.000   3.013  0.00  0.00    -0.007 A 
ATOM      6  C5  UNL d   1      -5.356   5.401   4.252  0.00  0.00     0.039 A 
ENDROOT
BRANCH   4   7
ATOM      7  O   UNL d   1      -5.586   5.905   0.658  0.00  0.00    -0.526 OA
ATOM      8  H5  UNL d   1      -5.403   5.278  -0.061  0.00  0.00     0.418 HD
ENDBRANCH   4   7
TORSDOF 1
ENDMDL
