MODEL 1
REMARK minimizedAffinity -2.41838956
REMARK minimizedRMSD -1
REMARK  1 active torsions:
REMARK  status: ('A' for Active; 'I' for Inactive)
REMARK    1  A    between atoms: C3_4  and  O_7 
ROOT
ATOM      1  C   UNL d   1      -5.635   4.016   6.000  0.00  0.00    -0.033 A 
ATOM      2  C1  UNL d   1      -5.121   3.319   4.904  0.00  0.00     0.039 A 
ATOM      3  C2  UNL d   1      -4.973   3.961   3.673  0.00  0.00    -0.080 A 
ATOM      4  C3  UNL d   1      -5.343   5.298   3.551  0.00  0.00     0.150 A 
ATOM      5  C4  UNL d   1      -5.852   5.999   4.639  0.00  0.00    -0.007 A 
ATOM      6  C5  UNL d   1      -6.000   5.356   5.868  0.00  0.00     0.039 A 
ENDROOT
BRANCH   4   7
ATOM      7  O   UNL d   1      -5.222   5.965   2.369  0.00  0.00    -0.526 OA
ATOM      8  H5  UNL d   1      -4.883   5.347   1.700  0.00  0.00     0.418 HD
ENDBRANCH   4   7
TORSDOF 1
ENDMDL
