MODEL 1
REMARK minimizedAffinity -2.97632337
REMARK minimizedRMSD -1
REMARK  1 active torsions:
REMARK  status: ('A' for Active; 'I' for Inactive)
REMARK    1  A    between atoms: C3_4  and  O_7 
ROOT
ATOM      1  C   UNL d   1      -5.562   4.961   6.000  0.00  0.00    -0.033 A 
ATOM      2  C1  UNL d   1      -4.792   3.924   5.470  0.00  0.00     0.039 A 
ATOM      3  C2  UNL d   1      -4.459   3.921   4.114  0.00  0.00    -0.080 A 
ATOM      4  C3  UNL d   1      -4.901   4.961   3.301  0.00  0.00     0.150 A 
ATOM      5  C4  UNL d   1      -5.665   5.999   3.822  0.00  0.00    -0.007 A 
ATOM      6  C5  UNL d   1      -5.997   5.999   5.176  0.00  0.00     0.039 A 
ENDROOT
BRANCH   4   7
ATOM      7  O   UNL d   1      -4.605   4.999   1.970  0.00  0.00    -0.526 OA
ATOM      8  H5  UNL d   1      -4.096   4.203   1.745  0.00  0.00     0.418 HD
ENDBRANCH   4   7
TORSDOF 1
ENDMDL
