MODEL 1
REMARK minimizedAffinity -0.82333374
REMARK minimizedRMSD -1
REMARK  1 active torsions:
REMARK  status: ('A' for Active; 'I' for Inactive)
REMARK    1  A    between atoms: C3_4  and  O_7 
ROOT
ATOM      1  C   UNL d   1      -5.630   4.807   1.856  0.00  0.00    -0.033 A 
ATOM      2  C1  UNL d   1      -5.988   5.975   2.532  0.00  0.00     0.039 A 
ATOM      3  C2  UNL d   1      -6.000   6.000   3.928  0.00  0.00    -0.080 A 
ATOM      4  C3  UNL d   1      -5.652   4.852   4.635  0.00  0.00     0.150 A 
ATOM      5  C4  UNL d   1      -5.292   3.686   3.968  0.00  0.00    -0.007 A 
ATOM      6  C5  UNL d   1      -5.281   3.663   2.574  0.00  0.00     0.039 A 
ENDROOT
BRANCH   4   7
ATOM      7  O   UNL d   1      -5.654   4.826   5.998  0.00  0.00    -0.526 OA
ATOM      8  H5  UNL d   1      -5.952   5.693   6.322  0.00  0.00     0.418 HD
ENDBRANCH   4   7
TORSDOF 1
ENDMDL
