MODEL 1
REMARK minimizedAffinity -1.00296617
REMARK minimizedRMSD -1
REMARK  0 active torsions:
REMARK  status: ('A' for Active; 'I' for Inactive)
ROOT
ATOM      1  C2' OXE d   1       3.723  -5.998   3.642  0.00  0.00     0.078 C 
ATOM      2  C1' OXE d   1       1.862  -5.978   5.744  0.00  0.00     0.078 C 
ATOM      3  C1  OXE d   1       1.330  -5.980   4.333  0.00  0.00    -0.078 A 
ATOM      4  C2  OXE d   1       2.247  -5.943   3.311  0.00  0.00    -0.078 A 
ATOM      5  C3  OXE d   1       1.811  -5.999   1.990  0.00  0.00     0.003 A 
ATOM      6  C4  OXE d   1       0.444  -5.937   1.692  0.00  0.00    -0.002 A 
ATOM      7  C5  OXE d   1      -0.507  -5.934   2.718  0.00  0.00    -0.002 A 
ATOM      8  C6  OXE d   1      -0.082  -5.998   4.040  0.00  0.00     0.003 A 
ENDROOT
TORSDOF 0
ENDMDL
