MODEL 1
REMARK minimizedAffinity 7.20669222
REMARK minimizedRMSD -1
REMARK  0 active torsions:
REMARK  status: ('A' for Active; 'I' for Inactive)
ROOT
ATOM      1  C2' OXE d   1       2.224  -5.855   5.488  0.00  0.00     0.078 C 
ATOM      2  C1' OXE d   1       3.286  -5.896   2.890  0.00  0.00     0.078 C 
ATOM      3  C1  OXE d   1       1.785  -5.904   3.036  0.00  0.00    -0.078 A 
ATOM      4  C2  OXE d   1       1.274  -5.931   4.312  0.00  0.00    -0.078 A 
ATOM      5  C3  OXE d   1      -0.104  -5.883   4.504  0.00  0.00     0.003 A 
ATOM      6  C4  OXE d   1      -0.975  -5.963   3.410  0.00  0.00    -0.002 A 
ATOM      7  C5  OXE d   1      -0.475  -5.977   2.104  0.00  0.00    -0.002 A 
ATOM      8  C6  OXE d   1       0.898  -5.905   1.899  0.00  0.00     0.003 A 
ENDROOT
TORSDOF 0
ENDMDL
