MODEL 1
REMARK minimizedAffinity 5.01255274
REMARK minimizedRMSD -1
REMARK  0 active torsions:
REMARK  status: ('A' for Active; 'I' for Inactive)
ROOT
ATOM      1  C2' OXE d   1      -0.077  -2.687  -4.912  0.00  0.00     0.078 C 
ATOM      2  C1' OXE d   1      -2.324  -4.098  -3.994  0.00  0.00     0.078 C 
ATOM      3  C1  OXE d   1      -2.147  -2.675  -3.527  0.00  0.00    -0.078 A 
ATOM      4  C2  OXE d   1      -1.021  -2.008  -3.943  0.00  0.00    -0.078 A 
ATOM      5  C3  OXE d   1      -0.836  -0.675  -3.585  0.00  0.00     0.003 A 
ATOM      6  C4  OXE d   1      -1.709  -0.057  -2.681  0.00  0.00    -0.002 A 
ATOM      7  C5  OXE d   1      -2.841  -0.732  -2.213  0.00  0.00    -0.002 A 
ATOM      8  C6  OXE d   1      -3.097  -2.024  -2.659  0.00  0.00     0.003 A 
ENDROOT
TORSDOF 0
ENDMDL
