MODEL 1
REMARK minimizedAffinity 3.49459934
REMARK minimizedRMSD -1
REMARK  0 active torsions:
REMARK  status: ('A' for Active; 'I' for Inactive)
ROOT
ATOM      1  C2' OXE d   1       2.109  -6.000   1.949  0.00  0.00     0.078 C 
ATOM      2  C1' OXE d   1       0.680  -5.980   4.365  0.00  0.00     0.078 C 
ATOM      3  C1  OXE d   1      -0.111  -5.981   3.080  0.00  0.00    -0.078 A 
ATOM      4  C2  OXE d   1       0.597  -5.944   1.903  0.00  0.00    -0.078 A 
ATOM      5  C3  OXE d   1      -0.082  -5.999   0.689  0.00  0.00     0.003 A 
ATOM      6  C4  OXE d   1      -1.480  -5.937   0.655  0.00  0.00    -0.002 A 
ATOM      7  C5  OXE d   1      -2.219  -5.934   1.842  0.00  0.00    -0.002 A 
ATOM      8  C6  OXE d   1      -1.552  -5.999   3.061  0.00  0.00     0.003 A 
ENDROOT
TORSDOF 0
ENDMDL
