MODEL 1
REMARK minimizedAffinity 5.97971106
REMARK minimizedRMSD -1
REMARK  0 active torsions:
REMARK  status: ('A' for Active; 'I' for Inactive)
ROOT
ATOM      1  C2' OXE d   1       1.137  -5.891   5.143  0.00  0.00     0.078 C 
ATOM      2  C1' OXE d   1       2.635  -5.999   2.772  0.00  0.00     0.078 C 
ATOM      3  C1  OXE d   1       1.132  -5.966   2.653  0.00  0.00    -0.078 A 
ATOM      4  C2  OXE d   1       0.406  -5.960   3.820  0.00  0.00    -0.078 A 
ATOM      5  C3  OXE d   1      -0.983  -5.875   3.768  0.00  0.00     0.003 A 
ATOM      6  C4  OXE d   1      -1.652  -5.950   2.540  0.00  0.00    -0.002 A 
ATOM      7  C5  OXE d   1      -0.932  -5.996   1.341  0.00  0.00    -0.002 A 
ATOM      8  C6  OXE d   1       0.457  -5.962   1.379  0.00  0.00     0.003 A 
ENDROOT
TORSDOF 0
ENDMDL
