MODEL 1
REMARK minimizedAffinity 4.64052773
REMARK minimizedRMSD -1
REMARK  0 active torsions:
REMARK  status: ('A' for Active; 'I' for Inactive)
ROOT
ATOM      1  C2' OXE d   1       3.670  -5.994   3.414  0.00  0.00     0.078 C 
ATOM      2  C1' OXE d   1       2.247  -5.973   5.834  0.00  0.00     0.078 C 
ATOM      3  C1  OXE d   1       1.453  -5.979   4.552  0.00  0.00    -0.078 A 
ATOM      4  C2  OXE d   1       2.158  -5.941   3.372  0.00  0.00    -0.078 A 
ATOM      5  C3  OXE d   1       1.476  -6.000   2.160  0.00  0.00     0.003 A 
ATOM      6  C4  OXE d   1       0.077  -5.941   2.130  0.00  0.00    -0.002 A 
ATOM      7  C5  OXE d   1      -0.659  -5.939   3.320  0.00  0.00    -0.002 A 
ATOM      8  C6  OXE d   1       0.011  -6.000   4.536  0.00  0.00     0.003 A 
ENDROOT
TORSDOF 0
ENDMDL
