MODEL 1
REMARK minimizedAffinity 3.17830324
REMARK minimizedRMSD -1
REMARK  0 active torsions:
REMARK  status: ('A' for Active; 'I' for Inactive)
ROOT
ATOM      1  C2' OXE d   1      -2.205  -2.627   0.239  0.00  0.00     0.078 C 
ATOM      2  C1' OXE d   1      -2.281  -2.124   3.000  0.00  0.00     0.078 C 
ATOM      3  C1  OXE d   1      -1.832  -3.491   2.546  0.00  0.00    -0.078 A 
ATOM      4  C2  OXE d   1      -1.843  -3.743   1.196  0.00  0.00    -0.078 A 
ATOM      5  C3  OXE d   1      -1.387  -4.970   0.720  0.00  0.00     0.003 A 
ATOM      6  C4  OXE d   1      -1.064  -6.000   1.612  0.00  0.00    -0.002 A 
ATOM      7  C5  OXE d   1      -1.084  -5.776   2.993  0.00  0.00    -0.002 A 
ATOM      8  C6  OXE d   1      -1.425  -4.517   3.474  0.00  0.00     0.003 A 
ENDROOT
TORSDOF 0
ENDMDL
