MODEL 1
REMARK minimizedAffinity 5.2742157
REMARK minimizedRMSD -1
REMARK  0 active torsions:
REMARK  status: ('A' for Active; 'I' for Inactive)
ROOT
ATOM      1  C2' OXE d   1      -1.293   1.365   2.045  0.00  0.00     0.078 C 
ATOM      2  C1' OXE d   1      -1.310  -1.411   1.630  0.00  0.00     0.078 C 
ATOM      3  C1  OXE d   1       0.028  -0.720   1.703  0.00  0.00    -0.078 A 
ATOM      4  C2  OXE d   1       0.026   0.646   1.860  0.00  0.00    -0.078 A 
ATOM      5  C3  OXE d   1       1.233   1.326   1.989  0.00  0.00     0.003 A 
ATOM      6  C4  OXE d   1       2.449   0.655   1.807  0.00  0.00    -0.002 A 
ATOM      7  C5  OXE d   1       2.472  -0.729   1.606  0.00  0.00    -0.002 A 
ATOM      8  C6  OXE d   1       1.275  -1.436   1.594  0.00  0.00     0.003 A 
ENDROOT
TORSDOF 0
ENDMDL
