MODEL 1
REMARK minimizedAffinity 0.839488626
REMARK minimizedRMSD -1
REMARK  0 active torsions:
REMARK  status: ('A' for Active; 'I' for Inactive)
ROOT
ATOM      1  C2' OXE d   1      -4.783  -5.992   4.476  0.00  0.00     0.078 C 
ATOM      2  C1' OXE d   1      -2.336  -5.975   3.101  0.00  0.00     0.078 C 
ATOM      3  C1  OXE d   1      -3.602  -5.942   2.283  0.00  0.00    -0.078 A 
ATOM      4  C2  OXE d   1      -4.795  -5.998   2.963  0.00  0.00    -0.078 A 
ATOM      5  C3  OXE d   1      -5.994  -5.916   2.260  0.00  0.00     0.003 A 
ATOM      6  C4  OXE d   1      -5.997  -5.932   0.860  0.00  0.00    -0.002 A 
ATOM      7  C5  OXE d   1      -4.793  -5.914   0.147  0.00  0.00    -0.002 A 
ATOM      8  C6  OXE d   1      -3.590  -5.877   0.842  0.00  0.00     0.003 A 
ENDROOT
TORSDOF 0
ENDMDL
