MODEL 1
REMARK minimizedAffinity 4.80507803
REMARK minimizedRMSD -1
REMARK  0 active torsions:
REMARK  status: ('A' for Active; 'I' for Inactive)
ROOT
ATOM      1  C2' OXE d   1      -5.245   3.044   5.618  0.00  0.00     0.078 C 
ATOM      2  C1' OXE d   1      -5.892   2.549   2.931  0.00  0.00     0.078 C 
ATOM      3  C1  OXE d   1      -5.596   1.362   3.814  0.00  0.00    -0.078 A 
ATOM      4  C2  OXE d   1      -5.235   1.616   5.115  0.00  0.00    -0.078 A 
ATOM      5  C3  OXE d   1      -5.006   0.555   5.987  0.00  0.00     0.003 A 
ATOM      6  C4  OXE d   1      -4.989  -0.762   5.512  0.00  0.00    -0.002 A 
ATOM      7  C5  OXE d   1      -5.315  -1.040   4.180  0.00  0.00    -0.002 A 
ATOM      8  C6  OXE d   1      -5.662   0.005   3.331  0.00  0.00     0.003 A 
ENDROOT
TORSDOF 0
ENDMDL
