MODEL 1
REMARK minimizedAffinity -0.0724804625
REMARK minimizedRMSD -1
REMARK  0 active torsions:
REMARK  status: ('A' for Active; 'I' for Inactive)
ROOT
ATOM      1  C2' OXE d   1      -1.150  -2.210   2.291  0.00  0.00     0.078 C 
ATOM      2  C1' OXE d   1       0.342   0.107   1.756  0.00  0.00     0.078 C 
ATOM      3  C1  OXE d   1      -1.028   0.277   2.365  0.00  0.00    -0.078 A 
ATOM      4  C2  OXE d   1      -1.770  -0.860   2.580  0.00  0.00    -0.078 A 
ATOM      5  C3  OXE d   1      -3.017  -0.764   3.189  0.00  0.00     0.003 A 
ATOM      6  C4  OXE d   1      -3.587   0.489   3.444  0.00  0.00    -0.002 A 
ATOM      7  C5  OXE d   1      -2.865   1.661   3.196  0.00  0.00    -0.002 A 
ATOM      8  C6  OXE d   1      -1.570   1.571   2.697  0.00  0.00     0.003 A 
ENDROOT
TORSDOF 0
ENDMDL
