MODEL 1
REMARK minimizedAffinity -0.77581054
REMARK minimizedRMSD -1
REMARK  0 active torsions:
REMARK  status: ('A' for Active; 'I' for Inactive)
ROOT
ATOM      1  C2' OXE d   1      -0.196  -0.695  -0.023  0.00  0.00     0.078 C 
ATOM      2  C1' OXE d   1      -0.320   0.848   2.319  0.00  0.00     0.078 C 
ATOM      3  C1  OXE d   1      -1.031  -0.482   2.315  0.00  0.00    -0.078 A 
ATOM      4  C2  OXE d   1      -1.004  -1.209   1.149  0.00  0.00    -0.078 A 
ATOM      5  C3  OXE d   1      -1.597  -2.468   1.108  0.00  0.00     0.003 A 
ATOM      6  C4  OXE d   1      -2.352  -2.932   2.192  0.00  0.00    -0.002 A 
ATOM      7  C5  OXE d   1      -2.425  -2.189   3.375  0.00  0.00    -0.002 A 
ATOM      8  C6  OXE d   1      -1.737  -0.985   3.468  0.00  0.00     0.003 A 
ENDROOT
TORSDOF 0
ENDMDL
