MODEL 1
REMARK minimizedAffinity -0.411401987
REMARK minimizedRMSD -1
REMARK  0 active torsions:
REMARK  status: ('A' for Active; 'I' for Inactive)
ROOT
ATOM      1  C2' OXE d   1      -3.645  -0.662   3.694  0.00  0.00     0.078 C 
ATOM      2  C1' OXE d   1      -5.181  -1.154   5.992  0.00  0.00     0.078 C 
ATOM      3  C1  OXE d   1      -5.204   0.240   5.415  0.00  0.00    -0.078 A 
ATOM      4  C2  OXE d   1      -4.413   0.483   4.318  0.00  0.00    -0.078 A 
ATOM      5  C3  OXE d   1      -4.439   1.737   3.714  0.00  0.00     0.003 A 
ATOM      6  C4  OXE d   1      -5.144   2.793   4.303  0.00  0.00    -0.002 A 
ATOM      7  C5  OXE d   1      -5.925   2.577   5.444  0.00  0.00    -0.002 A 
ATOM      8  C6  OXE d   1      -5.999   1.299   5.986  0.00  0.00     0.003 A 
ENDROOT
TORSDOF 0
ENDMDL
