MODEL 1
REMARK minimizedAffinity 6.69870615
REMARK minimizedRMSD -1
REMARK  0 active torsions:
REMARK  status: ('A' for Active; 'I' for Inactive)
ROOT
ATOM      1  C2' OXE d   1      -2.194  -3.970  -4.349  0.00  0.00     0.078 C 
ATOM      2  C1' OXE d   1       0.222  -2.563  -4.600  0.00  0.00     0.078 C 
ATOM      3  C1  OXE d   1      -0.889  -1.918  -3.810  0.00  0.00    -0.078 A 
ATOM      4  C2  OXE d   1      -2.083  -2.593  -3.731  0.00  0.00    -0.078 A 
ATOM      5  C3  OXE d   1      -3.122  -2.068  -2.968  0.00  0.00     0.003 A 
ATOM      6  C4  OXE d   1      -3.015  -0.789  -2.409  0.00  0.00    -0.002 A 
ATOM      7  C5  OXE d   1      -1.821  -0.067  -2.511  0.00  0.00    -0.002 A 
ATOM      8  C6  OXE d   1      -0.736  -0.634  -3.170  0.00  0.00     0.003 A 
ENDROOT
TORSDOF 0
ENDMDL
