MODEL 1
REMARK minimizedAffinity 2.72660446
REMARK minimizedRMSD -1
REMARK  0 active torsions:
REMARK  status: ('A' for Active; 'I' for Inactive)
ROOT
ATOM      1  C2' OXE d   1      -0.985   1.601   2.754  0.00  0.00     0.078 C 
ATOM      2  C1' OXE d   1      -1.322  -0.932   3.918  0.00  0.00     0.078 C 
ATOM      3  C1  OXE d   1      -2.512  -0.006   3.891  0.00  0.00    -0.078 A 
ATOM      4  C2  OXE d   1      -2.326   1.248   3.362  0.00  0.00    -0.078 A 
ATOM      5  C3  OXE d   1      -3.405   2.122   3.263  0.00  0.00     0.003 A 
ATOM      6  C4  OXE d   1      -4.639   1.792   3.836  0.00  0.00    -0.002 A 
ATOM      7  C5  OXE d   1      -4.839   0.535   4.415  0.00  0.00    -0.002 A 
ATOM      8  C6  OXE d   1      -3.800  -0.390   4.413  0.00  0.00     0.003 A 
ENDROOT
TORSDOF 0
ENDMDL
