MODEL 1
REMARK minimizedAffinity 5.67121506
REMARK minimizedRMSD -1
REMARK  1 active torsions:
REMARK  status: ('A' for Active; 'I' for Inactive)
REMARK    1  A    between atoms: C3_4  and  O_7 
ROOT
ATOM      1  C   UNL d   1      -5.990  -1.681   1.873  0.00  0.00    -0.033 A 
ATOM      2  C1  UNL d   1      -5.992  -2.974   2.400  0.00  0.00     0.039 A 
ATOM      3  C2  UNL d   1      -5.995  -3.166   3.783  0.00  0.00    -0.080 A 
ATOM      4  C3  UNL d   1      -5.998  -2.058   4.626  0.00  0.00     0.150 A 
ATOM      5  C4  UNL d   1      -6.000  -0.767   4.108  0.00  0.00    -0.007 A 
ATOM      6  C5  UNL d   1      -5.995  -0.578   2.726  0.00  0.00     0.039 A 
ENDROOT
BRANCH   4   7
ATOM      7  O   UNL d   1      -5.997  -2.195   5.983  0.00  0.00    -0.526 OA
ATOM      8  H5  UNL d   1      -5.966  -3.142   6.196  0.00  0.00     0.418 HD
ENDBRANCH   4   7
TORSDOF 1
ENDMDL
