MODEL 1
REMARK minimizedAffinity 0.107588276
REMARK minimizedRMSD -1
REMARK  1 active torsions:
REMARK  status: ('A' for Active; 'I' for Inactive)
REMARK    1  A    between atoms: C3_4  and  O_7 
ROOT
ATOM      1  C   UNL d   1       2.474   2.082  -2.997  0.00  0.00    -0.033 A 
ATOM      2  C1  UNL d   1       2.560   0.818  -2.412  0.00  0.00     0.039 A 
ATOM      3  C2  UNL d   1       3.148  -0.238  -3.111  0.00  0.00    -0.080 A 
ATOM      4  C3  UNL d   1       3.647  -0.016  -4.392  0.00  0.00     0.150 A 
ATOM      5  C4  UNL d   1       3.568   1.242  -4.979  0.00  0.00    -0.007 A 
ATOM      6  C5  UNL d   1       2.979   2.295  -4.280  0.00  0.00     0.039 A 
ENDROOT
BRANCH   4   7
ATOM      7  O   UNL d   1       4.225  -1.017  -5.115  0.00  0.00    -0.526 OA
ATOM      8  H5  UNL d   1       4.184  -1.836  -4.594  0.00  0.00     0.418 HD
ENDBRANCH   4   7
TORSDOF 1
ENDMDL
