MODEL 1
REMARK minimizedAffinity -0.0631814077
REMARK minimizedRMSD -1
REMARK  1 active torsions:
REMARK  status: ('A' for Active; 'I' for Inactive)
REMARK    1  A    between atoms: C3_4  and  O_7 
ROOT
ATOM      1  C   UNL d   1      -1.381   0.162   0.093  0.00  0.00    -0.033 A 
ATOM      2  C1  UNL d   1      -1.974  -1.096  -0.033  0.00  0.00     0.039 A 
ATOM      3  C2  UNL d   1      -2.536  -1.485  -1.250  0.00  0.00    -0.080 A 
ATOM      4  C3  UNL d   1      -2.499  -0.609  -2.332  0.00  0.00     0.150 A 
ATOM      5  C4  UNL d   1      -1.907   0.644  -2.214  0.00  0.00    -0.007 A 
ATOM      6  C5  UNL d   1      -1.347   1.031  -0.998  0.00  0.00     0.039 A 
ENDROOT
BRANCH   4   7
ATOM      7  O   UNL d   1      -3.039  -0.943  -3.538  0.00  0.00    -0.526 OA
ATOM      8  H5  UNL d   1      -3.438  -1.826  -3.463  0.00  0.00     0.418 HD
ENDBRANCH   4   7
TORSDOF 1
ENDMDL
