MODEL 1
REMARK minimizedAffinity 0.595031619
REMARK minimizedRMSD -1
REMARK  1 active torsions:
REMARK  status: ('A' for Active; 'I' for Inactive)
REMARK    1  A    between atoms: C3_4  and  O_7 
ROOT
ATOM      1  C   UNL d   1      -0.244  -0.810  -0.961  0.00  0.00    -0.033 A 
ATOM      2  C1  UNL d   1      -1.159  -1.760  -0.501  0.00  0.00     0.039 A 
ATOM      3  C2  UNL d   1      -1.137  -2.164   0.835  0.00  0.00    -0.080 A 
ATOM      4  C3  UNL d   1      -0.197  -1.610   1.701  0.00  0.00     0.150 A 
ATOM      5  C4  UNL d   1       0.714  -0.661   1.251  0.00  0.00    -0.007 A 
ATOM      6  C5  UNL d   1       0.691  -0.260  -0.085  0.00  0.00     0.039 A 
ENDROOT
BRANCH   4   7
ATOM      7  O   UNL d   1      -0.134  -1.976   3.012  0.00  0.00    -0.526 OA
ATOM      8  H5  UNL d   1      -0.805  -2.661   3.173  0.00  0.00     0.418 HD
ENDBRANCH   4   7
TORSDOF 1
ENDMDL
