MODEL 1
REMARK minimizedAffinity -2.50754595
REMARK minimizedRMSD -1
REMARK  1 active torsions:
REMARK  status: ('A' for Active; 'I' for Inactive)
REMARK    1  A    between atoms: C3_4  and  O_7 
ROOT
ATOM      1  C   UNL d   1       5.839  -4.647   5.353  0.00  0.00    -0.033 A 
ATOM      2  C1  UNL d   1       6.000  -4.698   3.967  0.00  0.00     0.039 A 
ATOM      3  C2  UNL d   1       6.000  -3.519   3.219  0.00  0.00    -0.080 A 
ATOM      4  C3  UNL d   1       5.840  -2.298   3.867  0.00  0.00     0.150 A 
ATOM      5  C4  UNL d   1       5.683  -2.239   5.248  0.00  0.00    -0.007 A 
ATOM      6  C5  UNL d   1       5.682  -3.417   5.994  0.00  0.00     0.039 A 
ENDROOT
BRANCH   4   7
ATOM      7  O   UNL d   1       5.828  -1.121   3.178  0.00  0.00    -0.526 OA
ATOM      8  H5  UNL d   1       5.918  -1.319   2.231  0.00  0.00     0.418 HD
ENDBRANCH   4   7
TORSDOF 1
ENDMDL
