MODEL 1
REMARK minimizedAffinity 1.21946812
REMARK minimizedRMSD -1
REMARK  1 active torsions:
REMARK  status: ('A' for Active; 'I' for Inactive)
REMARK    1  A    between atoms: C3_4  and  O_7 
ROOT
ATOM      1  C   UNL d   1       3.996   1.876   0.568  0.00  0.00    -0.033 A 
ATOM      2  C1  UNL d   1       3.219   1.243   1.540  0.00  0.00     0.039 A 
ATOM      3  C2  UNL d   1       3.831   0.612   2.625  0.00  0.00    -0.080 A 
ATOM      4  C3  UNL d   1       5.220   0.621   2.725  0.00  0.00     0.150 A 
ATOM      5  C4  UNL d   1       6.000   1.253   1.763  0.00  0.00    -0.007 A 
ATOM      6  C5  UNL d   1       5.387   1.882   0.680  0.00  0.00     0.039 A 
ENDROOT
BRANCH   4   7
ATOM      7  O   UNL d   1       5.863   0.015   3.763  0.00  0.00    -0.526 OA
ATOM      8  H5  UNL d   1       5.198  -0.405   4.334  0.00  0.00     0.418 HD
ENDBRANCH   4   7
TORSDOF 1
ENDMDL
