MODEL 1
REMARK minimizedAffinity 10.2609615
REMARK minimizedRMSD -1
REMARK  1 active torsions:
REMARK  status: ('A' for Active; 'I' for Inactive)
REMARK    1  A    between atoms: C3_4  and  O_7 
ROOT
ATOM      1  C   UNL d   1       4.377   0.007   3.401  0.00  0.00    -0.033 A 
ATOM      2  C1  UNL d   1       5.652  -0.472   3.708  0.00  0.00     0.039 A 
ATOM      3  C2  UNL d   1       5.998  -1.790   3.399  0.00  0.00    -0.080 A 
ATOM      4  C3  UNL d   1       5.061  -2.615   2.783  0.00  0.00     0.150 A 
ATOM      5  C4  UNL d   1       3.790  -2.143   2.471  0.00  0.00    -0.007 A 
ATOM      6  C5  UNL d   1       3.447  -0.828   2.781  0.00  0.00     0.039 A 
ENDROOT
BRANCH   4   7
ATOM      7  O   UNL d   1       5.350  -3.909   2.467  0.00  0.00    -0.526 OA
ATOM      8  H5  UNL d   1       6.254  -4.105   2.768  0.00  0.00     0.418 HD
ENDBRANCH   4   7
TORSDOF 1
ENDMDL
