MODEL 1
REMARK minimizedAffinity -1.34452128
REMARK minimizedRMSD -1
REMARK  1 active torsions:
REMARK  status: ('A' for Active; 'I' for Inactive)
REMARK    1  A    between atoms: C3_4  and  O_7 
ROOT
ATOM      1  C   UNL d   1       5.039  -4.376   4.769  0.00  0.00    -0.033 A 
ATOM      2  C1  UNL d   1       5.081  -3.684   5.981  0.00  0.00     0.039 A 
ATOM      3  C2  UNL d   1       5.402  -2.325   6.000  0.00  0.00    -0.080 A 
ATOM      4  C3  UNL d   1       5.677  -1.671   4.802  0.00  0.00     0.150 A 
ATOM      5  C4  UNL d   1       5.634  -2.354   3.591  0.00  0.00    -0.007 A 
ATOM      6  C5  UNL d   1       5.314  -3.711   3.574  0.00  0.00     0.039 A 
ENDROOT
BRANCH   4   7
ATOM      7  O   UNL d   1       6.000  -0.347   4.771  0.00  0.00    -0.526 OA
ATOM      8  H5  UNL d   1       6.019  -0.013   5.683  0.00  0.00     0.418 HD
ENDBRANCH   4   7
TORSDOF 1
ENDMDL
