MODEL 1
REMARK minimizedAffinity -2.5644021
REMARK minimizedRMSD -1
REMARK  1 active torsions:
REMARK  status: ('A' for Active; 'I' for Inactive)
REMARK    1  A    between atoms: C3_4  and  O_7 
ROOT
ATOM      1  C   UNL d   1       0.545   1.303   0.679  0.00  0.00    -0.033 A 
ATOM      2  C1  UNL d   1      -0.734   0.932   1.099  0.00  0.00     0.039 A 
ATOM      3  C2  UNL d   1      -0.892  -0.068   2.060  0.00  0.00    -0.080 A 
ATOM      4  C3  UNL d   1       0.235  -0.687   2.593  0.00  0.00     0.150 A 
ATOM      5  C4  UNL d   1       1.512  -0.320   2.182  0.00  0.00    -0.007 A 
ATOM      6  C5  UNL d   1       1.668   0.678   1.221  0.00  0.00     0.039 A 
ENDROOT
BRANCH   4   7
ATOM      7  O   UNL d   1       0.131  -1.672   3.531  0.00  0.00    -0.526 OA
ATOM      8  H5  UNL d   1      -0.812  -1.840   3.696  0.00  0.00     0.418 HD
ENDBRANCH   4   7
TORSDOF 1
ENDMDL
