MODEL 1
REMARK minimizedAffinity -1.65534866
REMARK minimizedRMSD -1
REMARK  1 active torsions:
REMARK  status: ('A' for Active; 'I' for Inactive)
REMARK    1  A    between atoms: C3_4  and  O_7 
ROOT
ATOM      1  C   UNL d   1       4.877  -3.764   5.274  0.00  0.00    -0.033 A 
ATOM      2  C1  UNL d   1       4.876  -3.750   3.878  0.00  0.00     0.039 A 
ATOM      3  C2  UNL d   1       5.251  -2.595   3.190  0.00  0.00    -0.080 A 
ATOM      4  C3  UNL d   1       5.626  -1.463   3.908  0.00  0.00     0.150 A 
ATOM      5  C4  UNL d   1       5.634  -1.471   5.299  0.00  0.00    -0.007 A 
ATOM      6  C5  UNL d   1       5.258  -2.625   5.985  0.00  0.00     0.039 A 
ENDROOT
BRANCH   4   7
ATOM      7  O   UNL d   1       5.996  -0.311   3.280  0.00  0.00    -0.526 OA
ATOM      8  H5  UNL d   1       5.915  -0.443   2.321  0.00  0.00     0.418 HD
ENDBRANCH   4   7
TORSDOF 1
ENDMDL
