MODEL 1
REMARK minimizedAffinity 3.91439033
REMARK minimizedRMSD -1
REMARK  1 active torsions:
REMARK  status: ('A' for Active; 'I' for Inactive)
REMARK    1  A    between atoms: C3_4  and  O_7 
ROOT
ATOM      1  C   UNL d   1       3.366  -0.000  -2.440  0.00  0.00    -0.033 A 
ATOM      2  C1  UNL d   1       4.092   0.708  -3.399  0.00  0.00     0.039 A 
ATOM      3  C2  UNL d   1       4.442   0.097  -4.605  0.00  0.00    -0.080 A 
ATOM      4  C3  UNL d   1       4.058  -1.221  -4.839  0.00  0.00     0.150 A 
ATOM      5  C4  UNL d   1       3.331  -1.931  -3.890  0.00  0.00    -0.007 A 
ATOM      6  C5  UNL d   1       2.984  -1.320  -2.686  0.00  0.00     0.039 A 
ENDROOT
BRANCH   4   7
ATOM      7  O   UNL d   1       4.380  -1.861  -5.999  0.00  0.00    -0.526 OA
ATOM      8  H5  UNL d   1       4.908  -1.257  -6.548  0.00  0.00     0.418 HD
ENDBRANCH   4   7
TORSDOF 1
ENDMDL
