MODEL 1
REMARK minimizedAffinity 6.2655139
REMARK minimizedRMSD -1
REMARK  1 active torsions:
REMARK  status: ('A' for Active; 'I' for Inactive)
REMARK    1  A    between atoms: C3_4  and  O_7 
ROOT
ATOM      1  C   UNL d   1      -1.222   0.950   0.947  0.00  0.00    -0.033 A 
ATOM      2  C1  UNL d   1      -2.141   1.853   1.485  0.00  0.00     0.039 A 
ATOM      3  C2  UNL d   1      -3.387   1.404   1.928  0.00  0.00    -0.080 A 
ATOM      4  C3  UNL d   1      -3.701   0.052   1.827  0.00  0.00     0.150 A 
ATOM      5  C4  UNL d   1      -2.789  -0.854   1.295  0.00  0.00    -0.007 A 
ATOM      6  C5  UNL d   1      -1.546  -0.404   0.853  0.00  0.00     0.039 A 
ENDROOT
BRANCH   4   7
ATOM      7  O   UNL d   1      -4.906  -0.433   2.240  0.00  0.00    -0.526 OA
ATOM      8  H5  UNL d   1      -5.444   0.311   2.558  0.00  0.00     0.418 HD
ENDBRANCH   4   7
TORSDOF 1
ENDMDL
