MODEL 1
REMARK minimizedAffinity -4.98460627
REMARK minimizedRMSD -1
REMARK  1 active torsions:
REMARK  status: ('A' for Active; 'I' for Inactive)
REMARK    1  A    between atoms: C1_2  and  C2_3 
ROOT
ATOM      1  C2  UNL d   1       0.145  -0.549  -0.298  0.00  0.00    -0.081 A 
ATOM      2  C3  UNL d   1      -1.127  -0.049   0.004  0.00  0.00     0.006 A 
ATOM      3  C4  UNL d   1      -1.333   0.716   1.155  0.00  0.00     0.002 A 
ATOM      4  C5  UNL d   1      -0.269   0.999   2.019  0.00  0.00    -0.080 A 
ATOM      5  C6  UNL d   1      -0.470   1.844   3.241  0.00  0.00     0.076 C 
ATOM      6  C7  UNL d   1       0.998   0.484   1.727  0.00  0.00     0.002 A 
ATOM      7  C8  UNL d   1       1.204  -0.281   0.576  0.00  0.00     0.006 A 
ENDROOT
BRANCH   1   8
ATOM      8  C1  UNL d   1       0.384  -1.320  -1.571  0.00  0.00     0.054 C 
ATOM      9  C   UNL d   1       0.811  -0.397  -2.704  0.00  0.00     0.018 C 
ENDBRANCH   1   8
TORSDOF 1
ENDMDL
