MODEL 1
REMARK minimizedAffinity -2.72398949
REMARK minimizedRMSD -1
REMARK  1 active torsions:
REMARK  status: ('A' for Active; 'I' for Inactive)
REMARK    1  A    between atoms: C1_2  and  C2_3 
ROOT
ATOM      1  C2  UNL d   1       0.048  -0.198  -1.056  0.00  0.00    -0.081 A 
ATOM      2  C3  UNL d   1      -1.280  -0.016  -0.652  0.00  0.00     0.006 A 
ATOM      3  C4  UNL d   1      -1.571   0.528   0.601  0.00  0.00     0.002 A 
ATOM      4  C5  UNL d   1      -0.539   0.904   1.468  0.00  0.00    -0.080 A 
ATOM      5  C6  UNL d   1      -0.838   1.517   2.804  0.00  0.00     0.076 C 
ATOM      6  C7  UNL d   1       0.788   0.706   1.072  0.00  0.00     0.002 A 
ATOM      7  C8  UNL d   1       1.079   0.162  -0.181  0.00  0.00     0.006 A 
ENDROOT
BRANCH   1   8
ATOM      8  C1  UNL d   1       0.365  -0.723  -2.433  0.00  0.00     0.054 C 
ATOM      9  C   UNL d   1       0.720   0.407  -3.389  0.00  0.00     0.018 C 
ENDBRANCH   1   8
TORSDOF 1
ENDMDL
