MODEL 1
REMARK minimizedAffinity 10.7394114
REMARK minimizedRMSD -1
REMARK  1 active torsions:
REMARK  status: ('A' for Active; 'I' for Inactive)
REMARK    1  A    between atoms: C1_2  and  C2_3 
ROOT
ATOM      1  C2  UNL d   1      -0.336  -3.551  -0.034  0.00  0.00    -0.076 A 
ATOM      2  C3  UNL d   1       0.971  -3.229   0.370  0.00  0.00     0.004 A 
ATOM      3  C4  UNL d   1       1.746  -4.141   1.084  0.00  0.00    -0.003 A 
ATOM      4  C5  UNL d   1       1.227  -5.390   1.406  0.00  0.00     0.000 A 
ATOM      5  C6  UNL d   1      -0.062  -5.733   0.998  0.00  0.00     0.000 A 
ATOM      6  C7  UNL d   1      -0.851  -4.831   0.263  0.00  0.00    -0.073 A 
ATOM      7  C8  UNL d   1      -2.236  -5.251  -0.146  0.00  0.00     0.078 C 
ENDROOT
BRANCH   1   8
ATOM      8  C1  UNL d   1      -1.139  -2.512  -0.783  0.00  0.00     0.053 C 
ATOM      9  C   UNL d   1      -1.936  -1.610   0.147  0.00  0.00     0.018 C 
ENDBRANCH   1   8
TORSDOF 1
ENDMDL
