MODEL 1
REMARK minimizedAffinity 6.63731337
REMARK minimizedRMSD -1
REMARK  1 active torsions:
REMARK  status: ('A' for Active; 'I' for Inactive)
REMARK    1  A    between atoms: C1_2  and  C2_3 
ROOT
ATOM      1  C2  UNL d   1      -0.154  -0.833  -0.381  0.00  0.00    -0.076 A 
ATOM      2  C3  UNL d   1      -0.898  -0.020  -1.253  0.00  0.00     0.004 A 
ATOM      3  C4  UNL d   1      -0.497   1.284  -1.537  0.00  0.00    -0.003 A 
ATOM      4  C5  UNL d   1       0.657   1.796  -0.953  0.00  0.00     0.000 A 
ATOM      5  C6  UNL d   1       1.417   0.998  -0.100  0.00  0.00     0.000 A 
ATOM      6  C7  UNL d   1       1.035  -0.325   0.184  0.00  0.00    -0.073 A 
ATOM      7  C8  UNL d   1       1.890  -1.139   1.117  0.00  0.00     0.078 C 
ENDROOT
BRANCH   1   8
ATOM      8  C1  UNL d   1      -0.653  -2.231  -0.090  0.00  0.00     0.053 C 
ATOM      9  C   UNL d   1      -2.170  -2.328  -0.133  0.00  0.00     0.018 C 
ENDBRANCH   1   8
TORSDOF 1
ENDMDL
