MODEL 1
REMARK minimizedAffinity 2.61619258
REMARK minimizedRMSD -1
REMARK  1 active torsions:
REMARK  status: ('A' for Active; 'I' for Inactive)
REMARK    1  A    between atoms: C1_2  and  C2_3 
ROOT
ATOM      1  C2  UNL d   1       5.984   0.142  -3.844  0.00  0.00    -0.076 A 
ATOM      2  C3  UNL d   1       5.995  -1.118  -3.221  0.00  0.00     0.004 A 
ATOM      3  C4  UNL d   1       5.986  -2.291  -3.974  0.00  0.00    -0.003 A 
ATOM      4  C5  UNL d   1       5.967  -2.223  -5.362  0.00  0.00     0.000 A 
ATOM      5  C6  UNL d   1       5.974  -0.981  -5.998  0.00  0.00     0.000 A 
ATOM      6  C7  UNL d   1       5.999   0.211  -5.254  0.00  0.00    -0.073 A 
ATOM      7  C8  UNL d   1       6.000   1.522  -5.991  0.00  0.00     0.078 C 
ENDROOT
BRANCH   1   8
ATOM      8  C1  UNL d   1       5.967   1.380  -2.976  0.00  0.00     0.053 C 
ATOM      9  C   UNL d   1       4.851   1.352  -1.943  0.00  0.00     0.018 C 
ENDBRANCH   1   8
TORSDOF 1
ENDMDL
