MODEL 1
REMARK minimizedAffinity -1.25587416
REMARK minimizedRMSD -1
REMARK  1 active torsions:
REMARK  status: ('A' for Active; 'I' for Inactive)
REMARK    1  A    between atoms: C1_2  and  C2_3 
ROOT
ATOM      1  C2  UNL d   1       3.199   2.079  -2.717  0.00  0.00    -0.076 A 
ATOM      2  C3  UNL d   1       4.006   0.955  -2.472  0.00  0.00     0.004 A 
ATOM      3  C4  UNL d   1       5.345   1.098  -2.112  0.00  0.00    -0.003 A 
ATOM      4  C5  UNL d   1       5.898   2.368  -1.989  0.00  0.00     0.000 A 
ATOM      5  C6  UNL d   1       5.107   3.495  -2.210  0.00  0.00     0.000 A 
ATOM      6  C7  UNL d   1       3.751   3.368  -2.559  0.00  0.00    -0.073 A 
ATOM      7  C8  UNL d   1       2.946   4.617  -2.792  0.00  0.00     0.078 C 
ENDROOT
BRANCH   1   8
ATOM      8  C1  UNL d   1       1.761   1.862  -3.131  0.00  0.00     0.053 C 
ATOM      9  C   UNL d   1       0.956   1.121  -2.075  0.00  0.00     0.018 C 
ENDBRANCH   1   8
TORSDOF 1
ENDMDL
