MODEL 1
REMARK minimizedAffinity 14.5213175
REMARK minimizedRMSD -1
REMARK  1 active torsions:
REMARK  status: ('A' for Active; 'I' for Inactive)
REMARK    1  A    between atoms: C1_2  and  C2_3 
ROOT
ATOM      1  C2  UNL d   1       0.731  -3.573   0.966  0.00  0.00    -0.076 A 
ATOM      2  C3  UNL d   1       1.485  -4.678   1.401  0.00  0.00     0.004 A 
ATOM      3  C4  UNL d   1       0.863  -5.865   1.782  0.00  0.00    -0.003 A 
ATOM      4  C5  UNL d   1      -0.523  -5.968   1.733  0.00  0.00     0.000 A 
ATOM      5  C6  UNL d   1      -1.285  -4.889   1.288  0.00  0.00     0.000 A 
ATOM      6  C7  UNL d   1      -0.673  -3.690   0.884  0.00  0.00    -0.073 A 
ATOM      7  C8  UNL d   1      -1.544  -2.556   0.418  0.00  0.00     0.078 C 
ENDROOT
BRANCH   1   8
ATOM      8  C1  UNL d   1       1.459  -2.302   0.591  0.00  0.00     0.053 C 
ATOM      9  C   UNL d   1       2.687  -2.057   1.456  0.00  0.00     0.018 C 
ENDBRANCH   1   8
TORSDOF 1
ENDMDL
