MODEL 1
REMARK minimizedAffinity 8.44618034
REMARK minimizedRMSD -1
REMARK  1 active torsions:
REMARK  status: ('A' for Active; 'I' for Inactive)
REMARK    1  A    between atoms: C1_2  and  C2_3 
ROOT
ATOM      1  C2  UNL d   1       0.807  -2.961   0.545  0.00  0.00    -0.076 A 
ATOM      2  C3  UNL d   1       1.986  -3.683   0.798  0.00  0.00     0.004 A 
ATOM      3  C4  UNL d   1       1.937  -4.990   1.282  0.00  0.00    -0.003 A 
ATOM      4  C5  UNL d   1       0.708  -5.595   1.520  0.00  0.00     0.000 A 
ATOM      5  C6  UNL d   1      -0.471  -4.899   1.259  0.00  0.00     0.000 A 
ATOM      6  C7  UNL d   1      -0.440  -3.587   0.755  0.00  0.00    -0.073 A 
ATOM      7  C8  UNL d   1      -1.743  -2.882   0.497  0.00  0.00     0.078 C 
ENDROOT
BRANCH   1   8
ATOM      8  C1  UNL d   1       0.923  -1.538   0.047  0.00  0.00     0.053 C 
ATOM      9  C   UNL d   1       1.521  -0.603   1.087  0.00  0.00     0.018 C 
ENDBRANCH   1   8
TORSDOF 1
ENDMDL
