MODEL 1
REMARK minimizedAffinity 0.997639775
REMARK minimizedRMSD -1
REMARK  1 active torsions:
REMARK  status: ('A' for Active; 'I' for Inactive)
REMARK    1  A    between atoms: C1_2  and  C2_3 
ROOT
ATOM      1  C2  UNL d   1       5.982   0.252  -3.843  0.00  0.00    -0.076 A 
ATOM      2  C3  UNL d   1       5.989  -1.010  -3.223  0.00  0.00     0.004 A 
ATOM      3  C4  UNL d   1       5.973  -2.181  -3.979  0.00  0.00    -0.003 A 
ATOM      4  C5  UNL d   1       5.952  -2.109  -5.368  0.00  0.00     0.000 A 
ATOM      5  C6  UNL d   1       5.963  -0.866  -5.999  0.00  0.00     0.000 A 
ATOM      6  C7  UNL d   1       5.995   0.324  -5.252  0.00  0.00    -0.073 A 
ATOM      7  C8  UNL d   1       6.000   1.637  -5.986  0.00  0.00     0.078 C 
ENDROOT
BRANCH   1   8
ATOM      8  C1  UNL d   1       5.972   1.487  -2.971  0.00  0.00     0.053 C 
ATOM      9  C   UNL d   1       4.571   1.871  -2.521  0.00  0.00     0.018 C 
ENDBRANCH   1   8
TORSDOF 1
ENDMDL
