MODEL 1
REMARK minimizedAffinity 12.3569536
REMARK minimizedRMSD -1
REMARK  1 active torsions:
REMARK  status: ('A' for Active; 'I' for Inactive)
REMARK    1  A    between atoms: C1_2  and  C2_3 
ROOT
ATOM      1  C2  UNL d   1       3.373   3.192  -4.074  0.00  0.00    -0.076 A 
ATOM      2  C3  UNL d   1       3.889   2.971  -2.785  0.00  0.00     0.004 A 
ATOM      3  C4  UNL d   1       3.062   3.017  -1.664  0.00  0.00    -0.003 A 
ATOM      4  C5  UNL d   1       1.706   3.283  -1.813  0.00  0.00     0.000 A 
ATOM      5  C6  UNL d   1       1.173   3.488  -3.086  0.00  0.00     0.000 A 
ATOM      6  C7  UNL d   1       1.990   3.429  -4.228  0.00  0.00    -0.073 A 
ATOM      7  C8  UNL d   1       1.364   3.663  -5.576  0.00  0.00     0.078 C 
ENDROOT
BRANCH   1   8
ATOM      8  C1  UNL d   1       4.322   3.157  -5.250  0.00  0.00     0.053 C 
ATOM      9  C   UNL d   1       4.276   1.833  -5.997  0.00  0.00     0.018 C 
ENDBRANCH   1   8
TORSDOF 1
ENDMDL
