MODEL 1
REMARK minimizedAffinity -2.35391021
REMARK minimizedRMSD -1
REMARK  1 active torsions:
REMARK  status: ('A' for Active; 'I' for Inactive)
REMARK    1  A    between atoms: C1_2  and  C2_3 
ROOT
ATOM      1  C2  UNL d   1       0.975  -0.440  -1.054  0.00  0.00    -0.076 A 
ATOM      2  C3  UNL d   1       0.810   0.883  -0.607  0.00  0.00     0.004 A 
ATOM      3  C4  UNL d   1       0.890   1.955  -1.494  0.00  0.00    -0.003 A 
ATOM      4  C5  UNL d   1       1.135   1.721  -2.843  0.00  0.00     0.000 A 
ATOM      5  C6  UNL d   1       1.284   0.415  -3.306  0.00  0.00     0.000 A 
ATOM      6  C7  UNL d   1       1.190  -0.678  -2.428  0.00  0.00    -0.073 A 
ATOM      7  C8  UNL d   1       1.363  -2.066  -2.981  0.00  0.00     0.078 C 
ENDROOT
BRANCH   1   8
ATOM      8  C1  UNL d   1       0.905  -1.560  -0.041  0.00  0.00     0.053 C 
ATOM      9  C   UNL d   1      -0.460  -1.660   0.624  0.00  0.00     0.018 C 
ENDBRANCH   1   8
TORSDOF 1
ENDMDL
