MODEL 1
REMARK minimizedAffinity -1.93538761
REMARK minimizedRMSD -1
REMARK  1 active torsions:
REMARK  status: ('A' for Active; 'I' for Inactive)
REMARK    1  A    between atoms: C1_2  and  C2_3 
ROOT
ATOM      1  C2  UNL d   1       1.429  -0.018  -3.849  0.00  0.00    -0.076 A 
ATOM      2  C3  UNL d   1       1.172   1.324  -3.519  0.00  0.00     0.004 A 
ATOM      3  C4  UNL d   1       0.845   1.692  -2.215  0.00  0.00    -0.003 A 
ATOM      4  C5  UNL d   1       0.771   0.724  -1.219  0.00  0.00     0.000 A 
ATOM      5  C6  UNL d   1       1.041  -0.609  -1.525  0.00  0.00     0.000 A 
ATOM      6  C7  UNL d   1       1.388  -0.995  -2.831  0.00  0.00    -0.073 A 
ATOM      7  C8  UNL d   1       1.662  -2.448  -3.105  0.00  0.00     0.078 C 
ENDROOT
BRANCH   1   8
ATOM      8  C1  UNL d   1       1.752  -0.362  -5.285  0.00  0.00     0.053 C 
ATOM      9  C   UNL d   1       3.076   0.229  -5.743  0.00  0.00     0.018 C 
ENDBRANCH   1   8
TORSDOF 1
ENDMDL
