MODEL 1
REMARK minimizedAffinity 13.7904663
REMARK minimizedRMSD -1
REMARK  1 active torsions:
REMARK  status: ('A' for Active; 'I' for Inactive)
REMARK    1  A    between atoms: C1_2  and  C2_3 
ROOT
ATOM      1  C2  UNL d   1       0.882   1.270  -1.609  0.00  0.00    -0.076 A 
ATOM      2  C3  UNL d   1       0.641   0.208  -0.720  0.00  0.00     0.004 A 
ATOM      3  C4  UNL d   1       0.442  -1.089  -1.190  0.00  0.00    -0.003 A 
ATOM      4  C5  UNL d   1       0.483  -1.346  -2.556  0.00  0.00     0.000 A 
ATOM      5  C6  UNL d   1       0.738  -0.307  -3.451  0.00  0.00     0.000 A 
ATOM      6  C7  UNL d   1       0.956   1.004  -2.993  0.00  0.00    -0.073 A 
ATOM      7  C8  UNL d   1       1.222   2.086  -4.003  0.00  0.00     0.078 C 
ENDROOT
BRANCH   1   8
ATOM      8  C1  UNL d   1       1.062   2.661  -1.044  0.00  0.00     0.053 C 
ATOM      9  C   UNL d   1       1.785   2.657   0.295  0.00  0.00     0.018 C 
ENDBRANCH   1   8
TORSDOF 1
ENDMDL
