MODEL 1
REMARK minimizedAffinity 4.84452486
REMARK minimizedRMSD -1
REMARK  1 active torsions:
REMARK  status: ('A' for Active; 'I' for Inactive)
REMARK    1  A    between atoms: C1_2  and  C2_3 
ROOT
ATOM      1  C2  UNL d   1       0.780  -0.579  -0.953  0.00  0.00    -0.076 A 
ATOM      2  C3  UNL d   1       0.455   0.776  -0.771  0.00  0.00     0.004 A 
ATOM      3  C4  UNL d   1       0.370   1.646  -1.857  0.00  0.00    -0.003 A 
ATOM      4  C5  UNL d   1       0.609   1.175  -3.143  0.00  0.00     0.000 A 
ATOM      5  C6  UNL d   1       0.915  -0.171  -3.344  0.00  0.00     0.000 A 
ATOM      6  C7  UNL d   1       0.988  -1.065  -2.262  0.00  0.00    -0.073 A 
ATOM      7  C8  UNL d   1       1.328  -2.504  -2.536  0.00  0.00     0.078 C 
ENDROOT
BRANCH   1   8
ATOM      8  C1  UNL d   1       0.884  -1.469   0.265  0.00  0.00     0.053 C 
ATOM      9  C   UNL d   1      -0.440  -2.126   0.621  0.00  0.00     0.018 C 
ENDBRANCH   1   8
TORSDOF 1
ENDMDL
