MODEL 1
REMARK minimizedAffinity 6.00601292
REMARK minimizedRMSD -1
REMARK  1 active torsions:
REMARK  status: ('A' for Active; 'I' for Inactive)
REMARK    1  A    between atoms: C1_2  and  C2_3 
ROOT
ATOM      1  C2  UNL d   1       1.153  -0.517  -2.085  0.00  0.00    -0.076 A 
ATOM      2  C3  UNL d   1       1.377   0.521  -3.006  0.00  0.00     0.004 A 
ATOM      3  C4  UNL d   1       1.027   1.836  -2.705  0.00  0.00    -0.003 A 
ATOM      4  C5  UNL d   1       0.447   2.135  -1.476  0.00  0.00     0.000 A 
ATOM      5  C6  UNL d   1       0.234   1.120  -0.544  0.00  0.00     0.000 A 
ATOM      6  C7  UNL d   1       0.596  -0.208  -0.826  0.00  0.00    -0.073 A 
ATOM      7  C8  UNL d   1       0.337  -1.263   0.215  0.00  0.00     0.078 C 
ENDROOT
BRANCH   1   8
ATOM      8  C1  UNL d   1       1.529  -1.928  -2.478  0.00  0.00     0.053 C 
ATOM      9  C   UNL d   1       1.412  -2.166  -3.976  0.00  0.00     0.018 C 
ENDBRANCH   1   8
TORSDOF 1
ENDMDL
