MODEL 1
REMARK minimizedAffinity -3.79556227
REMARK minimizedRMSD -1
REMARK  0 active torsions:
REMARK  status: ('A' for Active; 'I' for Inactive)
ROOT
ATOM      1  C   UNL d   1      -0.096  -5.622  -5.613  0.00  0.00     0.078 C 
ATOM      2  C1  UNL d   1      -1.381  -5.737  -4.847  0.00  0.00    -0.077 A 
ATOM      3  C2  UNL d   1      -2.604  -5.897  -5.510  0.00  0.00    -0.001 A 
ATOM      4  C3  UNL d   1      -3.792  -5.993  -4.785  0.00  0.00     0.003 A 
ATOM      5  C4  UNL d   1      -3.770  -5.929  -3.393  0.00  0.00    -0.005 A 
ATOM      6  C5  UNL d   1      -2.558  -5.768  -2.725  0.00  0.00     0.003 A 
ATOM      7  C6  UNL d   1      -1.369  -5.671  -3.448  0.00  0.00    -0.001 A 
ENDROOT
TORSDOF 0
ENDMDL
