MODEL 1
REMARK minimizedAffinity -3.18984985
REMARK minimizedRMSD -1
REMARK  0 active torsions:
REMARK  status: ('A' for Active; 'I' for Inactive)
ROOT
ATOM      1  C   UNL d   1       0.870  -1.771   2.467  0.00  0.00     0.078 C 
ATOM      2  C1  UNL d   1       2.292  -1.420   2.791  0.00  0.00    -0.077 A 
ATOM      3  C2  UNL d   1       3.206  -1.108   1.777  0.00  0.00    -0.001 A 
ATOM      4  C3  UNL d   1       4.529  -0.793   2.092  0.00  0.00     0.003 A 
ATOM      5  C4  UNL d   1       4.950  -0.788   3.420  0.00  0.00    -0.005 A 
ATOM      6  C5  UNL d   1       4.048  -1.100   4.435  0.00  0.00     0.003 A 
ATOM      7  C6  UNL d   1       2.725  -1.415   4.122  0.00  0.00    -0.001 A 
ENDROOT
TORSDOF 0
ENDMDL
