MODEL 1
REMARK minimizedAffinity 2.78620958
REMARK minimizedRMSD -1
REMARK  0 active torsions:
REMARK  status: ('A' for Active; 'I' for Inactive)
ROOT
ATOM      1  C   UNL d   1       3.892  -1.218   2.634  0.00  0.00     0.078 C 
ATOM      2  C1  UNL d   1       2.777  -0.803   1.722  0.00  0.00    -0.077 A 
ATOM      3  C2  UNL d   1       3.040  -0.328   0.431  0.00  0.00    -0.001 A 
ATOM      4  C3  UNL d   1       1.993   0.064  -0.404  0.00  0.00     0.003 A 
ATOM      5  C4  UNL d   1       0.675  -0.012   0.043  0.00  0.00    -0.005 A 
ATOM      6  C5  UNL d   1       0.403  -0.481   1.327  0.00  0.00     0.003 A 
ATOM      7  C6  UNL d   1       1.449  -0.874   2.163  0.00  0.00    -0.001 A 
ENDROOT
TORSDOF 0
ENDMDL
