MODEL 1
REMARK minimizedAffinity -1.22964561
REMARK minimizedRMSD -1
REMARK  0 active torsions:
REMARK  status: ('A' for Active; 'I' for Inactive)
ROOT
ATOM      1  C   UNL d   1       1.494  -0.163  -0.663  0.00  0.00     0.078 C 
ATOM      2  C1  UNL d   1       2.015  -0.561   0.686  0.00  0.00    -0.077 A 
ATOM      3  C2  UNL d   1       1.143  -0.801   1.754  0.00  0.00    -0.001 A 
ATOM      4  C3  UNL d   1       1.643  -1.162   3.007  0.00  0.00     0.003 A 
ATOM      5  C4  UNL d   1       3.017  -1.285   3.202  0.00  0.00    -0.005 A 
ATOM      6  C5  UNL d   1       3.893  -1.047   2.145  0.00  0.00     0.003 A 
ATOM      7  C6  UNL d   1       3.395  -0.686   0.893  0.00  0.00    -0.001 A 
ENDROOT
TORSDOF 0
ENDMDL
