MODEL 1
REMARK minimizedAffinity -0.937493086
REMARK minimizedRMSD -1
REMARK  0 active torsions:
REMARK  status: ('A' for Active; 'I' for Inactive)
ROOT
ATOM      1  C   UNL d   1      -1.497  -5.991  -4.959  0.00  0.00     0.078 C 
ATOM      2  C1  UNL d   1      -0.036  -5.656  -4.932  0.00  0.00    -0.077 A 
ATOM      3  C2  UNL d   1       0.802  -6.000  -6.000  0.00  0.00    -0.001 A 
ATOM      4  C3  UNL d   1       2.163  -5.690  -5.957  0.00  0.00     0.003 A 
ATOM      5  C4  UNL d   1       2.697  -5.036  -4.849  0.00  0.00    -0.005 A 
ATOM      6  C5  UNL d   1       1.871  -4.692  -3.781  0.00  0.00     0.003 A 
ATOM      7  C6  UNL d   1       0.510  -5.001  -3.822  0.00  0.00    -0.001 A 
ENDROOT
TORSDOF 0
ENDMDL
