MODEL 1
REMARK minimizedAffinity 3.06571674
REMARK minimizedRMSD -1
REMARK  0 active torsions:
REMARK  status: ('A' for Active; 'I' for Inactive)
ROOT
ATOM      1  C   UNL d   1       1.758  -1.006   0.488  0.00  0.00     0.078 C 
ATOM      2  C1  UNL d   1       2.832  -1.015   1.534  0.00  0.00    -0.077 A 
ATOM      3  C2  UNL d   1       2.512  -0.972   2.896  0.00  0.00    -0.001 A 
ATOM      4  C3  UNL d   1       3.523  -0.970   3.859  0.00  0.00     0.003 A 
ATOM      5  C4  UNL d   1       4.860  -1.011   3.469  0.00  0.00    -0.005 A 
ATOM      6  C5  UNL d   1       5.188  -1.052   2.116  0.00  0.00     0.003 A 
ATOM      7  C6  UNL d   1       4.179  -1.053   1.152  0.00  0.00    -0.001 A 
ENDROOT
TORSDOF 0
ENDMDL
