MODEL 1
REMARK minimizedAffinity -0.704122663
REMARK minimizedRMSD -1
REMARK  0 active torsions:
REMARK  status: ('A' for Active; 'I' for Inactive)
ROOT
ATOM      1  C   UNL d   1      -1.684  -5.643  -4.832  0.00  0.00     0.078 C 
ATOM      2  C1  UNL d   1      -0.185  -5.630  -4.848  0.00  0.00    -0.077 A 
ATOM      3  C2  UNL d   1       0.527  -5.999  -5.996  0.00  0.00    -0.001 A 
ATOM      4  C3  UNL d   1       1.923  -5.992  -5.994  0.00  0.00     0.003 A 
ATOM      5  C4  UNL d   1       2.619  -5.618  -4.846  0.00  0.00    -0.005 A 
ATOM      6  C5  UNL d   1       1.919  -5.252  -3.699  0.00  0.00     0.003 A 
ATOM      7  C6  UNL d   1       0.524  -5.258  -3.699  0.00  0.00    -0.001 A 
ENDROOT
TORSDOF 0
ENDMDL
