MODEL 1
REMARK minimizedAffinity 1.49527371
REMARK minimizedRMSD -1
REMARK  0 active torsions:
REMARK  status: ('A' for Active; 'I' for Inactive)
ROOT
ATOM      1  C   UNL d   1       2.251  -5.277  -5.338  0.00  0.00     0.078 C 
ATOM      2  C1  UNL d   1       0.765  -5.219  -5.147  0.00  0.00    -0.077 A 
ATOM      3  C2  UNL d   1       0.199  -4.459  -4.116  0.00  0.00    -0.001 A 
ATOM      4  C3  UNL d   1      -1.185  -4.423  -3.944  0.00  0.00     0.003 A 
ATOM      5  C4  UNL d   1      -2.016  -5.146  -4.798  0.00  0.00    -0.005 A 
ATOM      6  C5  UNL d   1      -1.462  -5.907  -5.825  0.00  0.00     0.003 A 
ATOM      7  C6  UNL d   1      -0.077  -5.945  -5.999  0.00  0.00    -0.001 A 
ENDROOT
TORSDOF 0
ENDMDL
