MODEL 1
REMARK minimizedAffinity 8.54169655
REMARK minimizedRMSD -1
REMARK  0 active torsions:
REMARK  status: ('A' for Active; 'I' for Inactive)
ROOT
ATOM      1  C   UNL d   1       3.371  -1.323   1.286  0.00  0.00     0.078 C 
ATOM      2  C1  UNL d   1       2.169  -0.840   0.529  0.00  0.00    -0.077 A 
ATOM      3  C2  UNL d   1       2.127  -0.895  -0.869  0.00  0.00    -0.001 A 
ATOM      4  C3  UNL d   1       1.006  -0.434  -1.560  0.00  0.00     0.003 A 
ATOM      5  C4  UNL d   1      -0.081   0.088  -0.862  0.00  0.00    -0.005 A 
ATOM      6  C5  UNL d   1      -0.047   0.150   0.530  0.00  0.00     0.003 A 
ATOM      7  C6  UNL d   1       1.073  -0.312   1.223  0.00  0.00    -0.001 A 
ENDROOT
TORSDOF 0
ENDMDL
