MODEL 1
REMARK minimizedAffinity 5.06301928
REMARK minimizedRMSD -1
REMARK  0 active torsions:
REMARK  status: ('A' for Active; 'I' for Inactive)
ROOT
ATOM      1  C   UNL d   1       2.312  -0.830   0.249  0.00  0.00     0.078 C 
ATOM      2  C1  UNL d   1       3.267  -0.835   1.405  0.00  0.00    -0.077 A 
ATOM      3  C2  UNL d   1       2.880  -1.325   2.658  0.00  0.00    -0.001 A 
ATOM      4  C3  UNL d   1       3.776  -1.314   3.727  0.00  0.00     0.003 A 
ATOM      5  C4  UNL d   1       5.065  -0.813   3.555  0.00  0.00    -0.005 A 
ATOM      6  C5  UNL d   1       5.459  -0.321   2.313  0.00  0.00     0.003 A 
ATOM      7  C6  UNL d   1       4.564  -0.331   1.242  0.00  0.00    -0.001 A 
ENDROOT
TORSDOF 0
ENDMDL
