MODEL 1
REMARK minimizedAffinity -0.554491878
REMARK minimizedRMSD -1
REMARK  0 active torsions:
REMARK  status: ('A' for Active; 'I' for Inactive)
ROOT
ATOM      1  C   UNL d   1      -1.383  -5.927  -5.236  0.00  0.00     0.078 C 
ATOM      2  C1  UNL d   1       0.077  -5.673  -5.004  0.00  0.00    -0.077 A 
ATOM      3  C2  UNL d   1       0.528  -5.106  -3.805  0.00  0.00    -0.001 A 
ATOM      4  C3  UNL d   1       1.888  -4.866  -3.606  0.00  0.00     0.003 A 
ATOM      5  C4  UNL d   1       2.809  -5.188  -4.602  0.00  0.00    -0.005 A 
ATOM      6  C5  UNL d   1       2.369  -5.750  -5.799  0.00  0.00     0.003 A 
ATOM      7  C6  UNL d   1       1.009  -5.991  -5.999  0.00  0.00    -0.001 A 
ENDROOT
TORSDOF 0
ENDMDL
