MODEL 1
REMARK minimizedAffinity -3.23904872
REMARK minimizedRMSD -1
REMARK  0 active torsions:
REMARK  status: ('A' for Active; 'I' for Inactive)
ROOT
ATOM      1  C   UNL d   1      -4.173  -5.997  -1.592  0.00  0.00     0.078 C 
ATOM      2  C1  UNL d   1      -3.768  -5.605  -0.202  0.00  0.00    -0.077 A 
ATOM      3  C2  UNL d   1      -4.527  -5.998   0.908  0.00  0.00    -0.001 A 
ATOM      4  C3  UNL d   1      -4.144  -5.617   2.195  0.00  0.00     0.003 A 
ATOM      5  C4  UNL d   1      -3.002  -4.841   2.384  0.00  0.00    -0.005 A 
ATOM      6  C5  UNL d   1      -2.242  -4.444   1.286  0.00  0.00     0.003 A 
ATOM      7  C6  UNL d   1      -2.624  -4.823  -0.002  0.00  0.00    -0.001 A 
ENDROOT
TORSDOF 0
ENDMDL
