MODEL 1
REMARK minimizedAffinity 2.00168586
REMARK minimizedRMSD -1
REMARK  0 active torsions:
REMARK  status: ('A' for Active; 'I' for Inactive)
ROOT
ATOM      1  C   UNL d   1       0.300   1.503   2.779  0.00  0.00     0.124 A 
ATOM      2  C1  UNL d   1      -1.014   1.901   2.575  0.00  0.00     0.062 A 
ATOM      3  C2  UNL d   1      -1.680   1.543   1.407  0.00  0.00     0.162 A 
ATOM      4  C3  UNL d   1      -1.035   0.780   0.434  0.00  0.00    -0.034 A 
ATOM      5  C4  UNL d   1       0.287   0.384   0.646  0.00  0.00     0.162 A 
ATOM      6  C5  UNL d   1       0.949   0.745   1.815  0.00  0.00     0.062 A 
ATOM      7  F   UNL d   1       2.218   0.359   2.010  0.00  0.00    -0.097 F 
ATOM      8  F1  UNL d   1       0.938  -0.350  -0.269  0.00  0.00    -0.096 F 
ATOM      9  I   UNL d   1      -2.028   0.242  -1.314  0.00  0.00    -0.060 I 
ATOM     10  F2  UNL d   1      -2.950   1.941   1.236  0.00  0.00    -0.096 F 
ATOM     11  F3  UNL d   1      -1.643   2.634   3.505  0.00  0.00    -0.097 F 
ATOM     12  F4  UNL d   1       0.939   1.850   3.904  0.00  0.00    -0.092 F 
ENDROOT
TORSDOF 0
ENDMDL
