MODEL 1
REMARK minimizedAffinity 0.201672226
REMARK minimizedRMSD -1
REMARK  0 active torsions:
REMARK  status: ('A' for Active; 'I' for Inactive)
ROOT
ATOM      1  C   UNL d   1      -0.963   2.815   4.248  0.00  0.00     0.124 A 
ATOM      2  C1  UNL d   1       0.011   2.000   3.688  0.00  0.00     0.062 A 
ATOM      3  C2  UNL d   1      -0.244   1.318   2.501  0.00  0.00     0.162 A 
ATOM      4  C3  UNL d   1      -1.479   1.449   1.866  0.00  0.00    -0.034 A 
ATOM      5  C4  UNL d   1      -2.454   2.270   2.436  0.00  0.00     0.162 A 
ATOM      6  C5  UNL d   1      -2.194   2.949   3.622  0.00  0.00     0.062 A 
ATOM      7  F   UNL d   1      -3.136   3.735   4.162  0.00  0.00    -0.097 F 
ATOM      8  F1  UNL d   1      -3.652   2.418   1.852  0.00  0.00    -0.096 F 
ATOM      9  I   UNL d   1      -1.864   0.432   0.092  0.00  0.00    -0.060 I 
ATOM     10  F2  UNL d   1       0.716   0.538   1.982  0.00  0.00    -0.096 F 
ATOM     11  F3  UNL d   1       1.201   1.868   4.291  0.00  0.00    -0.097 F 
ATOM     12  F4  UNL d   1      -0.715   3.468   5.390  0.00  0.00    -0.092 F 
ENDROOT
TORSDOF 0
ENDMDL
