MODEL 1
REMARK minimizedAffinity -3.61741471
REMARK minimizedRMSD -1
REMARK  0 active torsions:
REMARK  status: ('A' for Active; 'I' for Inactive)
ROOT
ATOM      1  C   UNL d   1      -1.029  -0.220   1.688  0.00  0.00     0.124 A 
ATOM      2  C1  UNL d   1       0.141  -0.959   1.587  0.00  0.00     0.062 A 
ATOM      3  C2  UNL d   1       0.813  -1.044   0.371  0.00  0.00     0.162 A 
ATOM      4  C3  UNL d   1       0.317  -0.387  -0.754  0.00  0.00    -0.034 A 
ATOM      5  C4  UNL d   1      -0.861   0.354  -0.645  0.00  0.00     0.162 A 
ATOM      6  C5  UNL d   1      -1.529   0.436   0.572  0.00  0.00     0.062 A 
ATOM      7  F   UNL d   1      -2.659   1.151   0.667  0.00  0.00    -0.097 F 
ATOM      8  F1  UNL d   1      -1.366   0.999  -1.708  0.00  0.00    -0.096 F 
ATOM      9  I   UNL d   1       1.319  -0.511  -2.574  0.00  0.00    -0.060 I 
ATOM     10  F2  UNL d   1       1.942  -1.766   0.303  0.00  0.00    -0.096 F 
ATOM     11  F3  UNL d   1       0.626  -1.595   2.664  0.00  0.00    -0.097 F 
ATOM     12  F4  UNL d   1      -1.674  -0.141   2.859  0.00  0.00    -0.092 F 
ENDROOT
TORSDOF 0
ENDMDL
