MODEL 1
REMARK minimizedAffinity -3.18728518
REMARK minimizedRMSD -1
REMARK  0 active torsions:
REMARK  status: ('A' for Active; 'I' for Inactive)
ROOT
ATOM      1  C   UNL d   1      -1.951  -0.396   2.711  0.00  0.00     0.124 A 
ATOM      2  C1  UNL d   1      -2.643  -0.018   1.569  0.00  0.00     0.062 A 
ATOM      3  C2  UNL d   1      -1.953   0.261   0.393  0.00  0.00     0.162 A 
ATOM      4  C3  UNL d   1      -0.562   0.162   0.352  0.00  0.00    -0.034 A 
ATOM      5  C4  UNL d   1       0.127  -0.218   1.505  0.00  0.00     0.162 A 
ATOM      6  C5  UNL d   1      -0.567  -0.496   2.678  0.00  0.00     0.062 A 
ATOM      7  F   UNL d   1       0.104  -0.861   3.780  0.00  0.00    -0.097 F 
ATOM      8  F1  UNL d   1       1.464  -0.323   1.501  0.00  0.00    -0.096 F 
ATOM      9  I   UNL d   1       0.472   0.578  -1.405  0.00  0.00    -0.060 I 
ATOM     10  F2  UNL d   1      -2.648   0.624  -0.696  0.00  0.00    -0.096 F 
ATOM     11  F3  UNL d   1      -3.980   0.080   1.599  0.00  0.00    -0.097 F 
ATOM     12  F4  UNL d   1      -2.617  -0.663   3.842  0.00  0.00    -0.092 F 
ENDROOT
TORSDOF 0
ENDMDL
