MODEL 1
REMARK minimizedAffinity 1.37281287
REMARK minimizedRMSD -1
REMARK  0 active torsions:
REMARK  status: ('A' for Active; 'I' for Inactive)
ROOT
ATOM      1  C   UNL d   1      -0.174  -0.126   1.919  0.00  0.00     0.124 A 
ATOM      2  C1  UNL d   1      -0.676  -1.388   1.637  0.00  0.00     0.062 A 
ATOM      3  C2  UNL d   1      -0.509  -1.941   0.370  0.00  0.00     0.162 A 
ATOM      4  C3  UNL d   1       0.165  -1.232  -0.624  0.00  0.00    -0.034 A 
ATOM      5  C4  UNL d   1       0.667   0.038  -0.332  0.00  0.00     0.162 A 
ATOM      6  C5  UNL d   1       0.498   0.586   0.935  0.00  0.00     0.062 A 
ATOM      7  F   UNL d   1       0.984   1.806   1.206  0.00  0.00    -0.097 F 
ATOM      8  F1  UNL d   1       1.321   0.747  -1.264  0.00  0.00    -0.096 F 
ATOM      9  I   UNL d   1       0.418  -2.055  -2.519  0.00  0.00    -0.060 I 
ATOM     10  F2  UNL d   1      -1.005  -3.163   0.125  0.00  0.00    -0.096 F 
ATOM     11  F3  UNL d   1      -1.326  -2.078   2.586  0.00  0.00    -0.097 F 
ATOM     12  F4  UNL d   1      -0.337   0.404   3.138  0.00  0.00    -0.092 F 
ENDROOT
TORSDOF 0
ENDMDL
