MODEL 1
REMARK minimizedAffinity -2.68492317
REMARK minimizedRMSD -1
REMARK  0 active torsions:
REMARK  status: ('A' for Active; 'I' for Inactive)
ROOT
ATOM      1  C   UNL d   1      -0.524  -0.489   1.613  0.00  0.00     0.124 A 
ATOM      2  C1  UNL d   1      -1.148   0.053   0.498  0.00  0.00     0.062 A 
ATOM      3  C2  UNL d   1      -0.487   0.087  -0.727  0.00  0.00     0.162 A 
ATOM      4  C3  UNL d   1       0.806  -0.422  -0.843  0.00  0.00    -0.034 A 
ATOM      5  C4  UNL d   1       1.428  -0.964   0.283  0.00  0.00     0.162 A 
ATOM      6  C5  UNL d   1       0.763  -0.996   1.505  0.00  0.00     0.062 A 
ATOM      7  F   UNL d   1       1.368  -1.520   2.581  0.00  0.00    -0.097 F 
ATOM      8  F1  UNL d   1       2.671  -1.463   0.207  0.00  0.00    -0.096 F 
ATOM      9  I   UNL d   1       1.797  -0.372  -2.672  0.00  0.00    -0.060 I 
ATOM     10  F2  UNL d   1      -1.115   0.616  -1.788  0.00  0.00    -0.096 F 
ATOM     11  F3  UNL d   1      -2.391   0.545   0.600  0.00  0.00    -0.097 F 
ATOM     12  F4  UNL d   1      -1.162  -0.520   2.790  0.00  0.00    -0.092 F 
ENDROOT
TORSDOF 0
ENDMDL
