MODEL 1
REMARK minimizedAffinity -3.3055141
REMARK minimizedRMSD -1
REMARK  0 active torsions:
REMARK  status: ('A' for Active; 'I' for Inactive)
ROOT
ATOM      1  C   UNL d   1      -0.704   0.815  -1.824  0.00  0.00     0.124 A 
ATOM      2  C1  UNL d   1       0.475   0.435  -1.198  0.00  0.00     0.062 A 
ATOM      3  C2  UNL d   1       0.462   0.039   0.137  0.00  0.00     0.162 A 
ATOM      4  C3  UNL d   1      -0.734   0.019   0.854  0.00  0.00    -0.034 A 
ATOM      5  C4  UNL d   1      -1.916   0.404   0.217  0.00  0.00     0.162 A 
ATOM      6  C5  UNL d   1      -1.898   0.799  -1.117  0.00  0.00     0.062 A 
ATOM      7  F   UNL d   1      -3.038   1.166  -1.720  0.00  0.00    -0.097 F 
ATOM      8  F1  UNL d   1      -3.084   0.397   0.877  0.00  0.00    -0.096 F 
ATOM      9  I   UNL d   1      -0.758  -0.573   2.849  0.00  0.00    -0.060 I 
ATOM     10  F2  UNL d   1       1.616  -0.323   0.716  0.00  0.00    -0.096 F 
ATOM     11  F3  UNL d   1       1.629   0.451  -1.879  0.00  0.00    -0.097 F 
ATOM     12  F4  UNL d   1      -0.689   1.197  -3.108  0.00  0.00    -0.092 F 
ENDROOT
TORSDOF 0
ENDMDL
