MODEL 1
REMARK minimizedAffinity -3.98241591
REMARK minimizedRMSD -1
REMARK  0 active torsions:
REMARK  status: ('A' for Active; 'I' for Inactive)
ROOT
ATOM      1  C   UNL d   1      -1.211  -0.271   1.691  0.00  0.00     0.124 A 
ATOM      2  C1  UNL d   1      -0.007  -0.953   1.584  0.00  0.00     0.062 A 
ATOM      3  C2  UNL d   1       0.714  -0.920   0.394  0.00  0.00     0.162 A 
ATOM      4  C3  UNL d   1       0.232  -0.201  -0.700  0.00  0.00    -0.034 A 
ATOM      5  C4  UNL d   1      -0.980   0.482  -0.586  0.00  0.00     0.162 A 
ATOM      6  C5  UNL d   1      -1.696   0.445   0.606  0.00  0.00     0.062 A 
ATOM      7  F   UNL d   1      -2.860   1.105   0.707  0.00  0.00    -0.097 F 
ATOM      8  F1  UNL d   1      -1.472   1.183  -1.618  0.00  0.00    -0.096 F 
ATOM      9  I   UNL d   1       1.306  -0.149  -2.482  0.00  0.00    -0.060 I 
ATOM     10  F2  UNL d   1       1.874  -1.588   0.319  0.00  0.00    -0.096 F 
ATOM     11  F3  UNL d   1       0.464  -1.647   2.631  0.00  0.00    -0.097 F 
ATOM     12  F4  UNL d   1      -1.902  -0.305   2.838  0.00  0.00    -0.092 F 
ENDROOT
TORSDOF 0
ENDMDL
