MODEL 1
REMARK minimizedAffinity 0.00852850452
REMARK minimizedRMSD -1
REMARK  0 active torsions:
REMARK  status: ('A' for Active; 'I' for Inactive)
ROOT
ATOM      1  C   UNL d   1      -0.680   0.645   1.892  0.00  0.00     0.124 A 
ATOM      2  C1  UNL d   1      -1.446   0.562   0.738  0.00  0.00     0.062 A 
ATOM      3  C2  UNL d   1      -0.868   0.141  -0.456  0.00  0.00     0.162 A 
ATOM      4  C3  UNL d   1       0.484  -0.200  -0.503  0.00  0.00    -0.034 A 
ATOM      5  C4  UNL d   1       1.248  -0.112   0.663  0.00  0.00     0.162 A 
ATOM      6  C5  UNL d   1       0.666   0.309   1.854  0.00  0.00     0.062 A 
ATOM      7  F   UNL d   1       1.407   0.389   2.968  0.00  0.00    -0.097 F 
ATOM      8  F1  UNL d   1       2.550  -0.432   0.654  0.00  0.00    -0.096 F 
ATOM      9  I   UNL d   1       1.352  -0.829  -2.286  0.00  0.00    -0.060 I 
ATOM     10  F2  UNL d   1      -1.632   0.069  -1.557  0.00  0.00    -0.096 F 
ATOM     11  F3  UNL d   1      -2.746   0.887   0.772  0.00  0.00    -0.097 F 
ATOM     12  F4  UNL d   1      -1.238   1.051   3.040  0.00  0.00    -0.092 F 
ENDROOT
TORSDOF 0
ENDMDL
