MODEL 1
REMARK minimizedAffinity 1.43449759
REMARK minimizedRMSD -1
REMARK  0 active torsions:
REMARK  status: ('A' for Active; 'I' for Inactive)
ROOT
ATOM      1  C   UNL d   1      -0.660   0.136   2.439  0.00  0.00     0.124 A 
ATOM      2  C1  UNL d   1       0.727   0.125   2.449  0.00  0.00     0.062 A 
ATOM      3  C2  UNL d   1       1.435   0.028   1.254  0.00  0.00     0.162 A 
ATOM      4  C3  UNL d   1       0.756  -0.057   0.039  0.00  0.00    -0.034 A 
ATOM      5  C4  UNL d   1      -0.640  -0.046   0.037  0.00  0.00     0.162 A 
ATOM      6  C5  UNL d   1      -1.343   0.051   1.233  0.00  0.00     0.062 A 
ATOM      7  F   UNL d   1      -2.684   0.063   1.222  0.00  0.00    -0.097 F 
ATOM      8  F1  UNL d   1      -1.324  -0.125  -1.114  0.00  0.00    -0.096 F 
ATOM      9  I   UNL d   1       1.811  -0.202  -1.750  0.00  0.00    -0.060 I 
ATOM     10  F2  UNL d   1       2.776   0.019   1.294  0.00  0.00    -0.096 F 
ATOM     11  F3  UNL d   1       1.389   0.206   3.612  0.00  0.00    -0.097 F 
ATOM     12  F4  UNL d   1      -1.339   0.229   3.590  0.00  0.00    -0.092 F 
ENDROOT
TORSDOF 0
ENDMDL
