MODEL 1
REMARK minimizedAffinity -1.16661727
REMARK minimizedRMSD -1
REMARK  0 active torsions:
REMARK  status: ('A' for Active; 'I' for Inactive)
ROOT
ATOM      1  C   UNL d   1      -0.730  -0.115   2.651  0.00  0.00     0.124 A 
ATOM      2  C1  UNL d   1       0.414   0.652   2.478  0.00  0.00     0.062 A 
ATOM      3  C2  UNL d   1       0.896   0.912   1.199  0.00  0.00     0.162 A 
ATOM      4  C3  UNL d   1       0.235   0.404   0.081  0.00  0.00    -0.034 A 
ATOM      5  C4  UNL d   1      -0.915  -0.368   0.262  0.00  0.00     0.162 A 
ATOM      6  C5  UNL d   1      -1.393  -0.624   1.543  0.00  0.00     0.062 A 
ATOM      7  F   UNL d   1      -2.498  -1.366   1.708  0.00  0.00    -0.097 F 
ATOM      8  F1  UNL d   1      -1.575  -0.871  -0.791  0.00  0.00    -0.096 F 
ATOM      9  I   UNL d   1       0.953   0.789  -1.834  0.00  0.00    -0.060 I 
ATOM     10  F2  UNL d   1       2.004   1.656   1.062  0.00  0.00    -0.096 F 
ATOM     11  F3  UNL d   1       1.057   1.145   3.547  0.00  0.00    -0.097 F 
ATOM     12  F4  UNL d   1      -1.192  -0.364   3.883  0.00  0.00    -0.092 F 
ENDROOT
TORSDOF 0
ENDMDL
