MODEL 1
REMARK minimizedAffinity -1.67935514
REMARK minimizedRMSD -1
REMARK  0 active torsions:
REMARK  status: ('A' for Active; 'I' for Inactive)
ROOT
ATOM      1  C   UNL d   1      -0.433  -0.149   2.206  0.00  0.00     0.124 A 
ATOM      2  C1  UNL d   1       0.836   0.364   1.976  0.00  0.00     0.062 A 
ATOM      3  C2  UNL d   1       1.366   0.371   0.689  0.00  0.00     0.162 A 
ATOM      4  C3  UNL d   1       0.625  -0.136  -0.380  0.00  0.00    -0.034 A 
ATOM      5  C4  UNL d   1      -0.650  -0.651  -0.140  0.00  0.00     0.162 A 
ATOM      6  C5  UNL d   1      -1.174  -0.656   1.148  0.00  0.00     0.062 A 
ATOM      7  F   UNL d   1      -2.400  -1.152   1.369  0.00  0.00    -0.097 F 
ATOM      8  F1  UNL d   1      -1.388  -1.146  -1.144  0.00  0.00    -0.096 F 
ATOM      9  I   UNL d   1       1.413  -0.127  -2.306  0.00  0.00    -0.060 I 
ATOM     10  F2  UNL d   1       2.594   0.873   0.496  0.00  0.00    -0.096 F 
ATOM     11  F3  UNL d   1       1.555   0.853   2.996  0.00  0.00    -0.097 F 
ATOM     12  F4  UNL d   1      -0.939  -0.156   3.446  0.00  0.00    -0.092 F 
ENDROOT
TORSDOF 0
ENDMDL
