MODEL 1
REMARK minimizedAffinity 3.4277389
REMARK minimizedRMSD -1
REMARK  0 active torsions:
REMARK  status: ('A' for Active; 'I' for Inactive)
ROOT
ATOM      1  C   UNL d   1      -1.201   0.649   2.143  0.00  0.00     0.124 A 
ATOM      2  C1  UNL d   1       0.171   0.490   2.282  0.00  0.00     0.062 A 
ATOM      3  C2  UNL d   1       0.977   0.345   1.156  0.00  0.00     0.162 A 
ATOM      4  C3  UNL d   1       0.412   0.361  -0.120  0.00  0.00    -0.034 A 
ATOM      5  C4  UNL d   1      -0.968   0.521  -0.251  0.00  0.00     0.162 A 
ATOM      6  C5  UNL d   1      -1.769   0.665   0.877  0.00  0.00     0.062 A 
ATOM      7  F   UNL d   1      -3.094   0.819   0.741  0.00  0.00    -0.097 F 
ATOM      8  F1  UNL d   1      -1.544   0.541  -1.463  0.00  0.00    -0.096 F 
ATOM      9  I   UNL d   1       1.613   0.146  -1.806  0.00  0.00    -0.060 I 
ATOM     10  F2  UNL d   1       2.299   0.193   1.320  0.00  0.00    -0.096 F 
ATOM     11  F3  UNL d   1       0.723   0.473   3.504  0.00  0.00    -0.097 F 
ATOM     12  F4  UNL d   1      -1.973   0.787   3.228  0.00  0.00    -0.092 F 
ENDROOT
TORSDOF 0
ENDMDL
