MODEL 1
REMARK minimizedAffinity -2.31421161
REMARK minimizedRMSD -1
REMARK  0 active torsions:
REMARK  status: ('A' for Active; 'I' for Inactive)
ROOT
ATOM      1  C   UNL d   1      -2.297   0.602  -0.620  0.00  0.00     0.124 A 
ATOM      2  C1  UNL d   1      -1.041   1.150  -0.844  0.00  0.00     0.062 A 
ATOM      3  C2  UNL d   1      -0.031   0.993   0.101  0.00  0.00     0.162 A 
ATOM      4  C3  UNL d   1      -0.271   0.284   1.277  0.00  0.00    -0.034 A 
ATOM      5  C4  UNL d   1      -1.536  -0.264   1.495  0.00  0.00     0.162 A 
ATOM      6  C5  UNL d   1      -2.543  -0.105   0.548  0.00  0.00     0.062 A 
ATOM      7  F   UNL d   1      -3.755  -0.635   0.766  0.00  0.00    -0.097 F 
ATOM      8  F1  UNL d   1      -1.802  -0.953   2.615  0.00  0.00    -0.096 F 
ATOM      9  I   UNL d   1       1.237   0.047   2.691  0.00  0.00    -0.060 I 
ATOM     10  F2  UNL d   1       1.173   1.534  -0.142  0.00  0.00    -0.096 F 
ATOM     11  F3  UNL d   1      -0.801   1.834  -1.972  0.00  0.00    -0.097 F 
ATOM     12  F4  UNL d   1      -3.268   0.755  -1.530  0.00  0.00    -0.092 F 
ENDROOT
TORSDOF 0
ENDMDL
