MODEL 1
REMARK minimizedAffinity -3.25284982
REMARK minimizedRMSD -1
REMARK  0 active torsions:
REMARK  status: ('A' for Active; 'I' for Inactive)
ROOT
ATOM      1  C   UNL d   1      -0.842   0.299   2.288  0.00  0.00     0.124 A 
ATOM      2  C1  UNL d   1      -1.385  -0.006   1.048  0.00  0.00     0.062 A 
ATOM      3  C2  UNL d   1      -0.553  -0.298  -0.029  0.00  0.00     0.162 A 
ATOM      4  C3  UNL d   1       0.833  -0.288   0.130  0.00  0.00    -0.034 A 
ATOM      5  C4  UNL d   1       1.372   0.021   1.381  0.00  0.00     0.162 A 
ATOM      6  C5  UNL d   1       0.536   0.312   2.453  0.00  0.00     0.062 A 
ATOM      7  F   UNL d   1       1.063   0.606   3.651  0.00  0.00    -0.097 F 
ATOM      8  F1  UNL d   1       2.700   0.040   1.568  0.00  0.00    -0.096 F 
ATOM      9  I   UNL d   1       2.081  -0.723  -1.477  0.00  0.00    -0.060 I 
ATOM     10  F2  UNL d   1      -1.106  -0.589  -1.216  0.00  0.00    -0.096 F 
ATOM     11  F3  UNL d   1      -2.716  -0.019   0.886  0.00  0.00    -0.097 F 
ATOM     12  F4  UNL d   1      -1.645   0.580   3.322  0.00  0.00    -0.092 F 
ENDROOT
TORSDOF 0
ENDMDL
