MODEL 1
REMARK minimizedAffinity 1.96596158
REMARK minimizedRMSD -1
REMARK  0 active torsions:
REMARK  status: ('A' for Active; 'I' for Inactive)
ROOT
ATOM      1  C   UNL d   1      -0.805  -0.170   1.352  0.00  0.00     0.124 A 
ATOM      2  C1  UNL d   1       0.399  -0.859   1.347  0.00  0.00     0.062 A 
ATOM      3  C2  UNL d   1       1.156  -0.938   0.181  0.00  0.00     0.162 A 
ATOM      4  C3  UNL d   1       0.711  -0.323  -0.989  0.00  0.00    -0.034 A 
ATOM      5  C4  UNL d   1      -0.502   0.368  -0.977  0.00  0.00     0.162 A 
ATOM      6  C5  UNL d   1      -1.255   0.443   0.191  0.00  0.00     0.062 A 
ATOM      7  F   UNL d   1      -2.418   1.110   0.194  0.00  0.00    -0.097 F 
ATOM      8  F1  UNL d   1      -0.959   0.970  -2.085  0.00  0.00    -0.096 F 
ATOM      9  I   UNL d   1       1.840  -0.438  -2.734  0.00  0.00    -0.060 I 
ATOM     10  F2  UNL d   1       2.316  -1.611   0.205  0.00  0.00    -0.096 F 
ATOM     11  F3  UNL d   1       0.835  -1.453   2.467  0.00  0.00    -0.097 F 
ATOM     12  F4  UNL d   1      -1.532  -0.097   2.474  0.00  0.00    -0.092 F 
ENDROOT
TORSDOF 0
ENDMDL
