MODEL 1
REMARK minimizedAffinity -3.17764544
REMARK minimizedRMSD -1
REMARK  0 active torsions:
REMARK  status: ('A' for Active; 'I' for Inactive)
ROOT
ATOM      1  C   UNL d   1      -0.865  -0.336   2.169  0.00  0.00     0.124 A 
ATOM      2  C1  UNL d   1       0.347  -1.014   2.164  0.00  0.00     0.062 A 
ATOM      3  C2  UNL d   1       1.148  -1.007   1.026  0.00  0.00     0.162 A 
ATOM      4  C3  UNL d   1       0.740  -0.319  -0.117  0.00  0.00    -0.034 A 
ATOM      5  C4  UNL d   1      -0.480   0.360  -0.105  0.00  0.00     0.162 A 
ATOM      6  C5  UNL d   1      -1.277   0.349   1.036  0.00  0.00     0.062 A 
ATOM      7  F   UNL d   1      -2.447   1.005   1.039  0.00  0.00    -0.097 F 
ATOM      8  F1  UNL d   1      -0.902   1.031  -1.186  0.00  0.00    -0.096 F 
ATOM      9  I   UNL d   1       1.935  -0.305  -1.821  0.00  0.00    -0.060 I 
ATOM     10  F2  UNL d   1       2.313  -1.670   1.049  0.00  0.00    -0.096 F 
ATOM     11  F3  UNL d   1       0.747  -1.678   3.258  0.00  0.00    -0.097 F 
ATOM     12  F4  UNL d   1      -1.634  -0.346   3.266  0.00  0.00    -0.092 F 
ENDROOT
TORSDOF 0
ENDMDL
