MODEL 1
REMARK minimizedAffinity 1.70012069
REMARK minimizedRMSD -1
REMARK  1 active torsions:
REMARK  status: ('A' for Active; 'I' for Inactive)
REMARK    1  A    between atoms: C1_2  and  C2_3 
ROOT
ATOM      1  C2  UNL d   1       1.315  -1.089   0.290  0.00  0.00    -0.077 A 
ATOM      2  C3  UNL d   1       0.370  -1.200   1.320  0.00  0.00     0.002 A 
ATOM      3  C4  UNL d   1       0.761  -1.614   2.595  0.00  0.00     0.002 A 
ATOM      4  C5  UNL d   1       2.096  -1.916   2.853  0.00  0.00    -0.004 A 
ATOM      5  C6  UNL d   1       3.043  -1.811   1.834  0.00  0.00     0.002 A 
ATOM      6  C7  UNL d   1       2.654  -1.399   0.559  0.00  0.00     0.002 A 
ENDROOT
BRANCH   1   7
ATOM      7  C1  UNL d   1       0.904  -0.596  -1.072  0.00  0.00     0.055 C 
ATOM      8  C   UNL d   1       1.349   0.842  -1.297  0.00  0.00     0.019 C 
ENDBRANCH   1   7
TORSDOF 1
ENDMDL
