MODEL 1
REMARK minimizedAffinity 0.15522337
REMARK minimizedRMSD -1
REMARK  1 active torsions:
REMARK  status: ('A' for Active; 'I' for Inactive)
REMARK    1  A    between atoms: C1_2  and  C2_3 
ROOT
ATOM      1  C2  UNL d   1       3.539  -4.142   3.559  0.00  0.00    -0.077 A 
ATOM      2  C3  UNL d   1       4.349  -4.335   2.431  0.00  0.00     0.002 A 
ATOM      3  C4  UNL d   1       3.819  -4.189   1.148  0.00  0.00     0.002 A 
ATOM      4  C5  UNL d   1       2.479  -3.846   0.981  0.00  0.00    -0.004 A 
ATOM      5  C6  UNL d   1       1.665  -3.654   2.096  0.00  0.00     0.002 A 
ATOM      6  C7  UNL d   1       2.193  -3.801   3.380  0.00  0.00     0.002 A 
ENDROOT
BRANCH   1   7
ATOM      7  C1  UNL d   1       4.121  -4.250   4.945  0.00  0.00     0.055 C 
ATOM      8  C   UNL d   1       4.054  -2.919   5.679  0.00  0.00     0.019 C 
ENDBRANCH   1   7
TORSDOF 1
ENDMDL
