MODEL 1
REMARK minimizedAffinity -1.78184736
REMARK minimizedRMSD -1
REMARK  1 active torsions:
REMARK  status: ('A' for Active; 'I' for Inactive)
REMARK    1  A    between atoms: C1_2  and  C2_3 
ROOT
ATOM      1  C2  UNL d   1       0.636  -1.938   1.351  0.00  0.00    -0.077 A 
ATOM      2  C3  UNL d   1       0.472  -1.557   0.012  0.00  0.00     0.002 A 
ATOM      3  C4  UNL d   1      -0.606  -0.756  -0.368  0.00  0.00     0.002 A 
ATOM      4  C5  UNL d   1      -1.527  -0.327   0.586  0.00  0.00    -0.004 A 
ATOM      5  C6  UNL d   1      -1.374  -0.702   1.920  0.00  0.00     0.002 A 
ATOM      6  C7  UNL d   1      -0.297  -1.504   2.301  0.00  0.00     0.002 A 
ENDROOT
BRANCH   1   7
ATOM      7  C1  UNL d   1       1.826  -2.761   1.771  0.00  0.00     0.055 C 
ATOM      8  C   UNL d   1       1.937  -4.035   0.946  0.00  0.00     0.019 C 
ENDBRANCH   1   7
TORSDOF 1
ENDMDL
