MODEL 1
REMARK minimizedAffinity -2.91875601
REMARK minimizedRMSD -1
REMARK  1 active torsions:
REMARK  status: ('A' for Active; 'I' for Inactive)
REMARK    1  A    between atoms: C1_2  and  C2_3 
ROOT
ATOM      1  C2  UNL d   1       3.673  -2.317   3.065  0.00  0.00    -0.077 A 
ATOM      2  C3  UNL d   1       4.112  -2.967   1.903  0.00  0.00     0.002 A 
ATOM      3  C4  UNL d   1       3.276  -3.062   0.788  0.00  0.00     0.002 A 
ATOM      4  C5  UNL d   1       1.999  -2.506   0.824  0.00  0.00    -0.004 A 
ATOM      5  C6  UNL d   1       1.553  -1.859   1.976  0.00  0.00     0.002 A 
ATOM      6  C7  UNL d   1       2.387  -1.765   3.091  0.00  0.00     0.002 A 
ENDROOT
BRANCH   1   7
ATOM      7  C1  UNL d   1       4.591  -2.171   4.250  0.00  0.00     0.055 C 
ATOM      8  C   UNL d   1       4.268  -3.193   5.330  0.00  0.00     0.019 C 
ENDBRANCH   1   7
TORSDOF 1
ENDMDL
