MODEL 1
REMARK minimizedAffinity -0.542128623
REMARK minimizedRMSD -1
REMARK  1 active torsions:
REMARK  status: ('A' for Active; 'I' for Inactive)
REMARK    1  A    between atoms: C1_2  and  C2_3 
ROOT
ATOM      1  C2  UNL d   1       4.161  -2.858   2.862  0.00  0.00    -0.077 A 
ATOM      2  C3  UNL d   1       2.915  -3.019   2.239  0.00  0.00     0.002 A 
ATOM      3  C4  UNL d   1       2.730  -2.616   0.915  0.00  0.00     0.002 A 
ATOM      4  C5  UNL d   1       3.787  -2.055   0.202  0.00  0.00    -0.004 A 
ATOM      5  C6  UNL d   1       5.030  -1.890   0.812  0.00  0.00     0.002 A 
ATOM      6  C7  UNL d   1       5.216  -2.290   2.136  0.00  0.00     0.002 A 
ENDROOT
BRANCH   1   7
ATOM      7  C1  UNL d   1       4.376  -3.337   4.274  0.00  0.00     0.055 C 
ATOM      8  C   UNL d   1       4.778  -2.191   5.191  0.00  0.00     0.019 C 
ENDBRANCH   1   7
TORSDOF 1
ENDMDL
