MODEL 1
REMARK minimizedAffinity 4.79478741
REMARK minimizedRMSD -1
REMARK  1 active torsions:
REMARK  status: ('A' for Active; 'I' for Inactive)
REMARK    1  A    between atoms: C1_2  and  C2_3 
ROOT
ATOM      1  C2  UNL d   1       5.669   1.895   1.129  0.00  0.00    -0.077 A 
ATOM      2  C3  UNL d   1       6.000   0.588   1.513  0.00  0.00     0.002 A 
ATOM      3  C4  UNL d   1       5.734  -0.487   0.662  0.00  0.00     0.002 A 
ATOM      4  C5  UNL d   1       5.141  -0.266  -0.578  0.00  0.00    -0.004 A 
ATOM      5  C6  UNL d   1       4.806   1.030  -0.969  0.00  0.00     0.002 A 
ATOM      6  C7  UNL d   1       5.070   2.106  -0.120  0.00  0.00     0.002 A 
ENDROOT
BRANCH   1   7
ATOM      7  C1  UNL d   1       6.000   3.060   2.024  0.00  0.00     0.055 C 
ATOM      8  C   UNL d   1       4.741   3.689   2.602  0.00  0.00     0.019 C 
ENDBRANCH   1   7
TORSDOF 1
ENDMDL
