MODEL 1
REMARK minimizedAffinity -2.22673965
REMARK minimizedRMSD -1
REMARK  1 active torsions:
REMARK  status: ('A' for Active; 'I' for Inactive)
REMARK    1  A    between atoms: C1_2  and  C2_3 
ROOT
ATOM      1  C2  UNL d   1       0.721  -1.253   1.011  0.00  0.00    -0.077 A 
ATOM      2  C3  UNL d   1       0.776  -1.297   2.411  0.00  0.00     0.002 A 
ATOM      3  C4  UNL d   1      -0.197  -0.650   3.176  0.00  0.00     0.002 A 
ATOM      4  C5  UNL d   1      -1.232   0.041   2.551  0.00  0.00    -0.004 A 
ATOM      5  C6  UNL d   1      -1.294   0.092   1.159  0.00  0.00     0.002 A 
ATOM      6  C7  UNL d   1      -0.323  -0.552   0.392  0.00  0.00     0.002 A 
ENDROOT
BRANCH   1   7
ATOM      7  C1  UNL d   1       1.741  -1.991   0.183  0.00  0.00     0.055 C 
ATOM      8  C   UNL d   1       2.026  -3.371   0.758  0.00  0.00     0.019 C 
ENDBRANCH   1   7
TORSDOF 1
ENDMDL
