MODEL 1
REMARK minimizedAffinity -0.630310714
REMARK minimizedRMSD -1
REMARK  0 active torsions:
REMARK  status: ('A' for Active; 'I' for Inactive)
ROOT
ATOM      1  C   UNL d   1       1.857  -1.998  -2.580  0.00  0.00     0.020 A 
ATOM      2  C1  UNL d   1       1.088  -1.541  -3.650  0.00  0.00     0.020 A 
ATOM      3  C2  UNL d   1       0.149  -0.527  -3.451  0.00  0.00     0.034 A 
ATOM      4  C3  UNL d   1      -0.024   0.034  -2.180  0.00  0.00     0.017 A 
ATOM      5  C4  UNL d   1       0.749  -0.426  -1.107  0.00  0.00     0.017 A 
ATOM      6  C5  UNL d   1       1.688  -1.442  -1.312  0.00  0.00     0.034 A 
ATOM      7 Cl   UNL d   1       0.593   0.216   0.490  0.00  0.00    -0.070 Cl
ATOM      8 Cl1  UNL d   1      -1.203   1.285  -2.007  0.00  0.00    -0.070 Cl
ENDROOT
TORSDOF 0
ENDMDL
