MODEL 1
REMARK minimizedAffinity -2.58554363
REMARK minimizedRMSD -1
REMARK  0 active torsions:
REMARK  status: ('A' for Active; 'I' for Inactive)
ROOT
ATOM      1  C   UNL d   1       0.907  -0.018   1.933  0.00  0.00     0.020 A 
ATOM      2  C1  UNL d   1       1.196  -0.022   0.569  0.00  0.00     0.020 A 
ATOM      3  C2  UNL d   1       0.195   0.275  -0.358  0.00  0.00     0.034 A 
ATOM      4  C3  UNL d   1      -1.100   0.578   0.077  0.00  0.00     0.017 A 
ATOM      5  C4  UNL d   1      -1.390   0.582   1.446  0.00  0.00     0.017 A 
ATOM      6  C5  UNL d   1      -0.383   0.284   2.370  0.00  0.00     0.034 A 
ATOM      7 Cl   UNL d   1      -2.964   0.946   2.060  0.00  0.00    -0.070 Cl
ATOM      8 Cl1  UNL d   1      -2.289   0.936  -1.125  0.00  0.00    -0.070 Cl
ENDROOT
TORSDOF 0
ENDMDL
