MODEL 1
REMARK minimizedAffinity -2.11811328
REMARK minimizedRMSD -1
REMARK  0 active torsions:
REMARK  status: ('A' for Active; 'I' for Inactive)
ROOT
ATOM      1  C   UNL d   1       0.242  -0.816  -0.044  0.00  0.00     0.020 A 
ATOM      2  C1  UNL d   1       0.134   0.562  -0.226  0.00  0.00     0.020 A 
ATOM      3  C2  UNL d   1       0.453   1.130  -1.462  0.00  0.00     0.034 A 
ATOM      4  C3  UNL d   1       0.881   0.320  -2.519  0.00  0.00     0.017 A 
ATOM      5  C4  UNL d   1       0.989  -1.063  -2.336  0.00  0.00     0.017 A 
ATOM      6  C5  UNL d   1       0.668  -1.627  -1.097  0.00  0.00     0.034 A 
ATOM      7 Cl   UNL d   1       1.510  -2.128  -3.594  0.00  0.00    -0.070 Cl
ATOM      8 Cl1  UNL d   1       1.259   1.090  -4.019  0.00  0.00    -0.070 Cl
ENDROOT
TORSDOF 0
ENDMDL
