MODEL 1
REMARK minimizedAffinity -2.96949816
REMARK minimizedRMSD -1
REMARK  0 active torsions:
REMARK  status: ('A' for Active; 'I' for Inactive)
ROOT
ATOM      1  C   UNL d   1      -2.718   0.704   1.357  0.00  0.00     0.020 A 
ATOM      2  C1  UNL d   1      -2.019   0.793   2.560  0.00  0.00     0.020 A 
ATOM      3  C2  UNL d   1      -0.637   0.600   2.581  0.00  0.00     0.034 A 
ATOM      4  C3  UNL d   1       0.052   0.315   1.396  0.00  0.00     0.017 A 
ATOM      5  C4  UNL d   1      -0.650   0.226   0.189  0.00  0.00     0.017 A 
ATOM      6  C5  UNL d   1      -2.035   0.420   0.174  0.00  0.00     0.034 A 
ATOM      7 Cl   UNL d   1       0.130  -0.122  -1.314  0.00  0.00    -0.070 Cl
ATOM      8 Cl1  UNL d   1       1.762   0.088   1.495  0.00  0.00    -0.070 Cl
ENDROOT
TORSDOF 0
ENDMDL
