MODEL 1
REMARK minimizedAffinity -4.17365885
REMARK minimizedRMSD -1
REMARK  0 active torsions:
REMARK  status: ('A' for Active; 'I' for Inactive)
ROOT
ATOM      1  C   UNL d   1       0.371   0.057  -0.928  0.00  0.00     0.020 A 
ATOM      2  C1  UNL d   1       1.296  -0.049   0.110  0.00  0.00     0.020 A 
ATOM      3  C2  UNL d   1       0.871   0.052   1.436  0.00  0.00     0.034 A 
ATOM      4  C3  UNL d   1      -0.482   0.259   1.728  0.00  0.00     0.017 A 
ATOM      5  C4  UNL d   1      -1.409   0.364   0.685  0.00  0.00     0.017 A 
ATOM      6  C5  UNL d   1      -0.979   0.263  -0.641  0.00  0.00     0.034 A 
ATOM      7 Cl   UNL d   1      -3.095   0.620   0.967  0.00  0.00    -0.070 Cl
ATOM      8 Cl1  UNL d   1      -0.937   0.373   3.391  0.00  0.00    -0.070 Cl
ENDROOT
TORSDOF 0
ENDMDL
