MODEL 1
REMARK minimizedAffinity -0.653178871
REMARK minimizedRMSD -1
REMARK  0 active torsions:
REMARK  status: ('A' for Active; 'I' for Inactive)
ROOT
ATOM      1  C   UNL d   1      -2.172   0.852   2.673  0.00  0.00     0.020 A 
ATOM      2  C1  UNL d   1      -2.815   0.841   1.436  0.00  0.00     0.020 A 
ATOM      3  C2  UNL d   1      -2.087   0.576   0.274  0.00  0.00     0.034 A 
ATOM      4  C3  UNL d   1      -0.713   0.320   0.346  0.00  0.00     0.017 A 
ATOM      5  C4  UNL d   1      -0.069   0.332   1.589  0.00  0.00     0.017 A 
ATOM      6  C5  UNL d   1      -0.802   0.598   2.749  0.00  0.00     0.034 A 
ATOM      7 Cl   UNL d   1       1.624   0.026   1.758  0.00  0.00    -0.070 Cl
ATOM      8 Cl1  UNL d   1       0.124  -0.001  -1.131  0.00  0.00    -0.070 Cl
ENDROOT
TORSDOF 0
ENDMDL
