MODEL 1
REMARK minimizedAffinity -2.37580228
REMARK minimizedRMSD -1
REMARK  0 active torsions:
REMARK  status: ('A' for Active; 'I' for Inactive)
ROOT
ATOM      1  C   UNL d   1       1.893  -1.327   0.065  0.00  0.00     0.020 A 
ATOM      2  C1  UNL d   1       1.065  -0.426   0.733  0.00  0.00     0.020 A 
ATOM      3  C2  UNL d   1       0.112   0.306   0.021  0.00  0.00     0.034 A 
ATOM      4  C3  UNL d   1      -0.014   0.138  -1.363  0.00  0.00     0.017 A 
ATOM      5  C4  UNL d   1       0.818  -0.767  -2.032  0.00  0.00     0.017 A 
ATOM      6  C5  UNL d   1       1.770  -1.497  -1.314  0.00  0.00     0.034 A 
ATOM      7 Cl   UNL d   1       0.721  -1.028  -3.738  0.00  0.00    -0.070 Cl
ATOM      8 Cl1  UNL d   1      -1.214   1.076  -2.180  0.00  0.00    -0.070 Cl
ENDROOT
TORSDOF 0
ENDMDL
