MODEL 1
REMARK minimizedAffinity 1.0886972
REMARK minimizedRMSD -1
REMARK  0 active torsions:
REMARK  status: ('A' for Active; 'I' for Inactive)
ROOT
ATOM      1  C   UNL d   1       1.804   0.173   1.877  0.00  0.00     0.020 A 
ATOM      2  C1  UNL d   1       0.642   0.495   2.575  0.00  0.00     0.020 A 
ATOM      3  C2  UNL d   1      -0.585   0.539   1.908  0.00  0.00     0.034 A 
ATOM      4  C3  UNL d   1      -0.651   0.260   0.538  0.00  0.00     0.017 A 
ATOM      5  C4  UNL d   1       0.517  -0.064  -0.162  0.00  0.00     0.017 A 
ATOM      6  C5  UNL d   1       1.742  -0.106   0.511  0.00  0.00     0.034 A 
ATOM      7 Cl   UNL d   1       0.514  -0.420  -1.853  0.00  0.00    -0.070 Cl
ATOM      8 Cl1  UNL d   1      -2.200   0.332  -0.222  0.00  0.00    -0.070 Cl
ENDROOT
TORSDOF 0
ENDMDL
