MODEL 1
REMARK minimizedAffinity -2.49684072
REMARK minimizedRMSD -1
REMARK  0 active torsions:
REMARK  status: ('A' for Active; 'I' for Inactive)
ROOT
ATOM      1  C   UNL d   1       0.999  -0.115   1.271  0.00  0.00     0.020 A 
ATOM      2  C1  UNL d   1       1.369  -1.392   0.849  0.00  0.00     0.020 A 
ATOM      3  C2  UNL d   1       1.192  -1.766  -0.485  0.00  0.00     0.034 A 
ATOM      4  C3  UNL d   1       0.643  -0.862  -1.402  0.00  0.00     0.017 A 
ATOM      5  C4  UNL d   1       0.272   0.419  -0.978  0.00  0.00     0.017 A 
ATOM      6  C5  UNL d   1       0.452   0.788   0.359  0.00  0.00     0.034 A 
ATOM      7 Cl   UNL d   1      -0.412   1.589  -2.051  0.00  0.00    -0.070 Cl
ATOM      8 Cl1  UNL d   1       0.453  -1.392  -3.035  0.00  0.00    -0.070 Cl
ENDROOT
TORSDOF 0
ENDMDL
