MODEL 1
REMARK minimizedAffinity -3.63990617
REMARK minimizedRMSD -1
REMARK  0 active torsions:
REMARK  status: ('A' for Active; 'I' for Inactive)
ROOT
ATOM      1  C   UNL d   1      -1.458   0.889  -0.836  0.00  0.00     0.020 A 
ATOM      2  C1  UNL d   1      -1.156   0.833  -2.196  0.00  0.00     0.020 A 
ATOM      3  C2  UNL d   1      -0.182  -0.055  -2.658  0.00  0.00     0.034 A 
ATOM      4  C3  UNL d   1       0.493  -0.890  -1.760  0.00  0.00     0.017 A 
ATOM      5  C4  UNL d   1       0.188  -0.833  -0.395  0.00  0.00     0.017 A 
ATOM      6  C5  UNL d   1      -0.788   0.058   0.062  0.00  0.00     0.034 A 
ATOM      7 Cl   UNL d   1       0.978  -1.832   0.773  0.00  0.00    -0.070 Cl
ATOM      8 Cl1  UNL d   1       1.685  -1.964  -2.402  0.00  0.00    -0.070 Cl
ENDROOT
TORSDOF 0
ENDMDL
