MODEL 1
REMARK minimizedAffinity -3.15208125
REMARK minimizedRMSD -1
REMARK  0 active torsions:
REMARK  status: ('A' for Active; 'I' for Inactive)
ROOT
ATOM      1  C   UNL d   1       1.304   0.440   1.684  0.00  0.00     0.020 A 
ATOM      2  C1  UNL d   1       0.358   0.306   2.699  0.00  0.00     0.020 A 
ATOM      3  C2  UNL d   1      -1.003   0.410   2.404  0.00  0.00     0.034 A 
ATOM      4  C3  UNL d   1      -1.422   0.650   1.091  0.00  0.00     0.017 A 
ATOM      5  C4  UNL d   1      -0.472   0.784   0.072  0.00  0.00     0.017 A 
ATOM      6  C5  UNL d   1       0.890   0.679   0.373  0.00  0.00     0.034 A 
ATOM      7 Cl   UNL d   1      -0.912   1.080  -1.573  0.00  0.00    -0.070 Cl
ATOM      8 Cl1  UNL d   1      -3.121   0.767   0.798  0.00  0.00    -0.070 Cl
ENDROOT
TORSDOF 0
ENDMDL
