MODEL 1
REMARK minimizedAffinity -1.17382348
REMARK minimizedRMSD -1
REMARK  0 active torsions:
REMARK  status: ('A' for Active; 'I' for Inactive)
ROOT
ATOM      1  C   UNL d   1       0.722  -0.310  -0.755  0.00  0.00     0.020 A 
ATOM      2  C1  UNL d   1       1.515  -0.294   0.391  0.00  0.00     0.020 A 
ATOM      3  C2  UNL d   1       0.936  -0.046   1.638  0.00  0.00     0.034 A 
ATOM      4  C3  UNL d   1      -0.440   0.188   1.740  0.00  0.00     0.017 A 
ATOM      5  C4  UNL d   1      -1.235   0.172   0.589  0.00  0.00     0.017 A 
ATOM      6  C5  UNL d   1      -0.650  -0.077  -0.657  0.00  0.00     0.034 A 
ATOM      7 Cl   UNL d   1      -2.940   0.452   0.636  0.00  0.00    -0.070 Cl
ATOM      8 Cl1  UNL d   1      -1.089   0.489   3.313  0.00  0.00    -0.070 Cl
ENDROOT
TORSDOF 0
ENDMDL
