MODEL 1
REMARK minimizedAffinity 0.535519958
REMARK minimizedRMSD -1
REMARK  0 active torsions:
REMARK  status: ('A' for Active; 'I' for Inactive)
ROOT
ATOM      1  C   UNL d   1       0.374   0.104   3.012  0.00  0.00     0.020 A 
ATOM      2  C1  UNL d   1       1.285   0.065   1.957  0.00  0.00     0.020 A 
ATOM      3  C2  UNL d   1       0.840   0.235   0.645  0.00  0.00     0.034 A 
ATOM      4  C3  UNL d   1      -0.519   0.446   0.383  0.00  0.00     0.017 A 
ATOM      5  C4  UNL d   1      -1.432   0.485   1.443  0.00  0.00     0.017 A 
ATOM      6  C5  UNL d   1      -0.981   0.314   2.756  0.00  0.00     0.034 A 
ATOM      7 Cl   UNL d   1      -3.124   0.740   1.200  0.00  0.00    -0.070 Cl
ATOM      8 Cl1  UNL d   1      -0.998   0.649  -1.264  0.00  0.00    -0.070 Cl
ENDROOT
TORSDOF 0
ENDMDL
