MODEL 1
REMARK minimizedAffinity -1.07652378
REMARK minimizedRMSD -1
REMARK  0 active torsions:
REMARK  status: ('A' for Active; 'I' for Inactive)
ROOT
ATOM      1  C   UNL d   1       0.545   0.520   2.351  0.00  0.00     0.020 A 
ATOM      2  C1  UNL d   1       1.577  -0.291   1.880  0.00  0.00     0.020 A 
ATOM      3  C2  UNL d   1       1.613  -0.665   0.535  0.00  0.00     0.034 A 
ATOM      4  C3  UNL d   1       0.616  -0.227  -0.344  0.00  0.00     0.017 A 
ATOM      5  C4  UNL d   1      -0.419   0.587   0.130  0.00  0.00     0.017 A 
ATOM      6  C5  UNL d   1      -0.450   0.958   1.477  0.00  0.00     0.034 A 
ATOM      7 Cl   UNL d   1      -1.685   1.167  -0.895  0.00  0.00    -0.070 Cl
ATOM      8 Cl1  UNL d   1       0.724  -0.727  -1.994  0.00  0.00    -0.070 Cl
ENDROOT
TORSDOF 0
ENDMDL
