MODEL 1
REMARK minimizedAffinity -0.888470352
REMARK minimizedRMSD -1
REMARK  0 active torsions:
REMARK  status: ('A' for Active; 'I' for Inactive)
ROOT
ATOM      1  C   UNL d   1       1.011   0.149   2.595  0.00  0.00     0.020 A 
ATOM      2  C1  UNL d   1       1.992   0.121   1.604  0.00  0.00     0.020 A 
ATOM      3  C2  UNL d   1       1.624   0.157   0.257  0.00  0.00     0.034 A 
ATOM      4  C3  UNL d   1       0.273   0.221  -0.103  0.00  0.00     0.017 A 
ATOM      5  C4  UNL d   1      -0.710   0.249   0.893  0.00  0.00     0.017 A 
ATOM      6  C5  UNL d   1      -0.337   0.213   2.240  0.00  0.00     0.034 A 
ATOM      7 Cl   UNL d   1      -2.397   0.328   0.527  0.00  0.00    -0.070 Cl
ATOM      8 Cl1  UNL d   1      -0.109   0.263  -1.787  0.00  0.00    -0.070 Cl
ENDROOT
TORSDOF 0
ENDMDL
