MODEL 1
REMARK minimizedAffinity -1.79661632
REMARK minimizedRMSD -1
REMARK  0 active torsions:
REMARK  status: ('A' for Active; 'I' for Inactive)
ROOT
ATOM      1  C   UNL d   1       1.427   0.079  -0.367  0.00  0.00     0.020 A 
ATOM      2  C1  UNL d   1       0.370   0.232  -1.264  0.00  0.00     0.020 A 
ATOM      3  C2  UNL d   1      -0.927   0.430  -0.787  0.00  0.00     0.034 A 
ATOM      4  C3  UNL d   1      -1.171   0.476   0.590  0.00  0.00     0.017 A 
ATOM      5  C4  UNL d   1      -0.110   0.322   1.490  0.00  0.00     0.017 A 
ATOM      6  C5  UNL d   1       1.187   0.123   1.007  0.00  0.00     0.034 A 
ATOM      7 Cl   UNL d   1      -0.334   0.366   3.203  0.00  0.00    -0.070 Cl
ATOM      8 Cl1  UNL d   1      -2.801   0.725   1.109  0.00  0.00    -0.070 Cl
ENDROOT
TORSDOF 0
ENDMDL
