MODEL 1
REMARK minimizedAffinity -3.04987621
REMARK minimizedRMSD -1
REMARK  0 active torsions:
REMARK  status: ('A' for Active; 'I' for Inactive)
ROOT
ATOM      1  C   UNL d   1      -2.762   0.518   1.504  0.00  0.00     0.020 A 
ATOM      2  C1  UNL d   1      -2.121   0.532   2.742  0.00  0.00     0.020 A 
ATOM      3  C2  UNL d   1      -0.731   0.413   2.809  0.00  0.00     0.034 A 
ATOM      4  C3  UNL d   1       0.022   0.280   1.637  0.00  0.00     0.017 A 
ATOM      5  C4  UNL d   1      -0.623   0.266   0.395  0.00  0.00     0.017 A 
ATOM      6  C5  UNL d   1      -2.014   0.385   0.333  0.00  0.00     0.034 A 
ATOM      7 Cl   UNL d   1       0.239   0.105  -1.095  0.00  0.00    -0.070 Cl
ATOM      8 Cl1  UNL d   1       1.737   0.138   1.796  0.00  0.00    -0.070 Cl
ENDROOT
TORSDOF 0
ENDMDL
