MODEL 1
REMARK minimizedAffinity -4.2800746
REMARK minimizedRMSD -1
REMARK  0 active torsions:
REMARK  status: ('A' for Active; 'I' for Inactive)
ROOT
ATOM      1  C   UNL d   1       2.364  -1.293  -2.474  0.00  0.00     0.020 A 
ATOM      2  C1  UNL d   1       1.731  -0.763  -3.598  0.00  0.00     0.020 A 
ATOM      3  C2  UNL d   1       0.576   0.008  -3.449  0.00  0.00     0.034 A 
ATOM      4  C3  UNL d   1       0.051   0.251  -2.175  0.00  0.00     0.017 A 
ATOM      5  C4  UNL d   1       0.687  -0.282  -1.048  0.00  0.00     0.017 A 
ATOM      6  C5  UNL d   1       1.843  -1.053  -1.202  0.00  0.00     0.034 A 
ATOM      7 Cl   UNL d   1       0.098  -0.025   0.557  0.00  0.00    -0.070 Cl
ATOM      8 Cl1  UNL d   1      -1.380   1.213  -2.066  0.00  0.00    -0.070 Cl
ENDROOT
TORSDOF 0
ENDMDL
