MODEL 1
REMARK minimizedAffinity -0.50047791
REMARK minimizedRMSD -1
REMARK  0 active torsions:
REMARK  status: ('A' for Active; 'I' for Inactive)
ROOT
ATOM      1  C   UNL d   1       6.000   4.923   4.655  0.00  0.00     0.078 C 
ATOM      2  C1  UNL d   1       4.899   4.078   4.087  0.00  0.00    -0.077 A 
ATOM      3  C2  UNL d   1       4.889   3.719   2.734  0.00  0.00    -0.001 A 
ATOM      4  C3  UNL d   1       3.853   2.940   2.217  0.00  0.00     0.003 A 
ATOM      5  C4  UNL d   1       2.818   2.514   3.046  0.00  0.00    -0.005 A 
ATOM      6  C5  UNL d   1       2.817   2.867   4.394  0.00  0.00     0.003 A 
ATOM      7  C6  UNL d   1       3.853   3.646   4.913  0.00  0.00    -0.001 A 
ENDROOT
TORSDOF 0
ENDMDL
