MODEL 1
REMARK minimizedAffinity -5.67431688
REMARK minimizedRMSD -1
REMARK  0 active torsions:
REMARK  status: ('A' for Active; 'I' for Inactive)
ROOT
ATOM      1  C   UNL d   1       1.250   1.118   0.729  0.00  0.00     0.078 C 
ATOM      2  C1  UNL d   1       0.054   0.275   0.398  0.00  0.00    -0.077 A 
ATOM      3  C2  UNL d   1      -0.285  -0.835   1.182  0.00  0.00    -0.001 A 
ATOM      4  C3  UNL d   1      -1.395  -1.616   0.857  0.00  0.00     0.003 A 
ATOM      5  C4  UNL d   1      -2.174  -1.296  -0.253  0.00  0.00    -0.005 A 
ATOM      6  C5  UNL d   1      -1.844  -0.195  -1.040  0.00  0.00     0.003 A 
ATOM      7  C6  UNL d   1      -0.734   0.587  -0.717  0.00  0.00    -0.001 A 
ENDROOT
TORSDOF 0
ENDMDL
