MODEL 1
REMARK minimizedAffinity 5.99978828
REMARK minimizedRMSD -1
REMARK  0 active torsions:
REMARK  status: ('A' for Active; 'I' for Inactive)
ROOT
ATOM      1  C   UNL d   1      -3.768  -2.297   4.537  0.00  0.00     0.078 C 
ATOM      2  C1  UNL d   1      -2.803  -1.242   4.084  0.00  0.00    -0.077 A 
ATOM      3  C2  UNL d   1      -1.729  -1.560   3.244  0.00  0.00    -0.001 A 
ATOM      4  C3  UNL d   1      -0.833  -0.570   2.838  0.00  0.00     0.003 A 
ATOM      5  C4  UNL d   1      -1.002   0.745   3.267  0.00  0.00    -0.005 A 
ATOM      6  C5  UNL d   1      -2.067   1.071   4.104  0.00  0.00     0.003 A 
ATOM      7  C6  UNL d   1      -2.964   0.082   4.512  0.00  0.00    -0.001 A 
ENDROOT
TORSDOF 0
ENDMDL
