MODEL 1
REMARK minimizedAffinity 2.49430323
REMARK minimizedRMSD -1
REMARK  0 active torsions:
REMARK  status: ('A' for Active; 'I' for Inactive)
ROOT
ATOM      1  C   UNL d   1      -0.920  -2.192   1.538  0.00  0.00     0.078 C 
ATOM      2  C1  UNL d   1      -0.091  -1.023   1.979  0.00  0.00    -0.077 A 
ATOM      3  C2  UNL d   1      -0.670   0.057   2.656  0.00  0.00    -0.001 A 
ATOM      4  C3  UNL d   1       0.111   1.143   3.052  0.00  0.00     0.003 A 
ATOM      5  C4  UNL d   1       1.477   1.161   2.775  0.00  0.00    -0.005 A 
ATOM      6  C5  UNL d   1       2.062   0.092   2.099  0.00  0.00     0.003 A 
ATOM      7  C6  UNL d   1       1.282  -0.995   1.702  0.00  0.00    -0.001 A 
ENDROOT
TORSDOF 0
ENDMDL
