MODEL 1
REMARK minimizedAffinity -5.14174366
REMARK minimizedRMSD -1
REMARK  0 active torsions:
REMARK  status: ('A' for Active; 'I' for Inactive)
ROOT
ATOM      1  C   UNL d   1      -1.537   1.646  -3.064  0.00  0.00     0.078 C 
ATOM      2  C1  UNL d   1      -1.915   0.741  -1.929  0.00  0.00    -0.077 A 
ATOM      3  C2  UNL d   1      -3.082   0.961  -1.188  0.00  0.00    -0.001 A 
ATOM      4  C3  UNL d   1      -3.416   0.117  -0.129  0.00  0.00     0.003 A 
ATOM      5  C4  UNL d   1      -2.587  -0.954   0.201  0.00  0.00    -0.005 A 
ATOM      6  C5  UNL d   1      -1.422  -1.180  -0.529  0.00  0.00     0.003 A 
ATOM      7  C6  UNL d   1      -1.086  -0.336  -1.589  0.00  0.00    -0.001 A 
ENDROOT
TORSDOF 0
ENDMDL
