MODEL 1
REMARK minimizedAffinity 3.60328293
REMARK minimizedRMSD -1
REMARK  0 active torsions:
REMARK  status: ('A' for Active; 'I' for Inactive)
ROOT
ATOM      1  C   UNL d   1       3.303   2.293   3.007  0.00  0.00     0.078 C 
ATOM      2  C1  UNL d   1       3.749   3.302   1.991  0.00  0.00    -0.077 A 
ATOM      3  C2  UNL d   1       3.687   3.021   0.621  0.00  0.00    -0.001 A 
ATOM      4  C3  UNL d   1       4.115   3.966  -0.314  0.00  0.00     0.003 A 
ATOM      5  C4  UNL d   1       4.608   5.197   0.112  0.00  0.00    -0.005 A 
ATOM      6  C5  UNL d   1       4.675   5.485   1.474  0.00  0.00     0.003 A 
ATOM      7  C6  UNL d   1       4.248   4.541   2.410  0.00  0.00    -0.001 A 
ENDROOT
TORSDOF 0
ENDMDL
