MODEL 1
REMARK minimizedAffinity -5.74762869
REMARK minimizedRMSD -1
REMARK  0 active torsions:
REMARK  status: ('A' for Active; 'I' for Inactive)
ROOT
ATOM      1  C   UNL d   1      -3.167  -0.648  -0.022  0.00  0.00     0.078 C 
ATOM      2  C1  UNL d   1      -1.702  -0.338   0.051  0.00  0.00    -0.077 A 
ATOM      3  C2  UNL d   1      -0.971  -0.577   1.221  0.00  0.00    -0.001 A 
ATOM      4  C3  UNL d   1       0.390  -0.274   1.278  0.00  0.00     0.003 A 
ATOM      5  C4  UNL d   1       1.033   0.272   0.169  0.00  0.00    -0.005 A 
ATOM      6  C5  UNL d   1       0.313   0.516  -0.999  0.00  0.00     0.003 A 
ATOM      7  C6  UNL d   1      -1.048   0.213  -1.058  0.00  0.00    -0.001 A 
ENDROOT
TORSDOF 0
ENDMDL
