MODEL 1
REMARK minimizedAffinity -1.47218859
REMARK minimizedRMSD -1
REMARK  0 active torsions:
REMARK  status: ('A' for Active; 'I' for Inactive)
ROOT
ATOM      1  C   UNL d   1      -2.611  -2.860   0.405  0.00  0.00     0.078 C 
ATOM      2  C1  UNL d   1      -1.661  -1.701   0.471  0.00  0.00    -0.077 A 
ATOM      3  C2  UNL d   1      -1.480  -0.984   1.660  0.00  0.00    -0.001 A 
ATOM      4  C3  UNL d   1      -0.600   0.098   1.704  0.00  0.00     0.003 A 
ATOM      5  C4  UNL d   1       0.104   0.475   0.562  0.00  0.00    -0.005 A 
ATOM      6  C5  UNL d   1      -0.072  -0.231  -0.626  0.00  0.00     0.003 A 
ATOM      7  C6  UNL d   1      -0.951  -1.314  -0.672  0.00  0.00    -0.001 A 
ENDROOT
TORSDOF 0
ENDMDL
