MODEL 1
REMARK minimizedAffinity 1.77462375
REMARK minimizedRMSD -1
REMARK  0 active torsions:
REMARK  status: ('A' for Active; 'I' for Inactive)
ROOT
ATOM      1  C   UNL d   1      -2.628   1.865   5.996  0.00  0.00     0.078 C 
ATOM      2  C1  UNL d   1      -2.665   0.551   5.273  0.00  0.00    -0.077 A 
ATOM      3  C2  UNL d   1      -2.667   0.498   3.874  0.00  0.00    -0.001 A 
ATOM      4  C3  UNL d   1      -2.712  -0.731   3.214  0.00  0.00     0.003 A 
ATOM      5  C4  UNL d   1      -2.757  -1.916   3.946  0.00  0.00    -0.005 A 
ATOM      6  C5  UNL d   1      -2.759  -1.873   5.338  0.00  0.00     0.003 A 
ATOM      7  C6  UNL d   1      -2.714  -0.645   6.000  0.00  0.00    -0.001 A 
ENDROOT
TORSDOF 0
ENDMDL
