MODEL 1
REMARK minimizedAffinity -1.35616183
REMARK minimizedRMSD -1
REMARK  0 active torsions:
REMARK  status: ('A' for Active; 'I' for Inactive)
ROOT
ATOM      1  C   UNL d   1      -2.617  -2.073  -4.597  0.00  0.00     0.078 C 
ATOM      2  C1  UNL d   1      -1.796  -1.306  -3.604  0.00  0.00    -0.077 A 
ATOM      3  C2  UNL d   1      -0.551  -0.771  -3.957  0.00  0.00    -0.001 A 
ATOM      4  C3  UNL d   1       0.207  -0.068  -3.019  0.00  0.00     0.003 A 
ATOM      5  C4  UNL d   1      -0.271   0.105  -1.722  0.00  0.00    -0.005 A 
ATOM      6  C5  UNL d   1      -1.508  -0.425  -1.360  0.00  0.00     0.003 A 
ATOM      7  C6  UNL d   1      -2.267  -1.129  -2.297  0.00  0.00    -0.001 A 
ENDROOT
TORSDOF 0
ENDMDL
