MODEL 1
REMARK minimizedAffinity 5.65830612
REMARK minimizedRMSD -1
REMARK  0 active torsions:
REMARK  status: ('A' for Active; 'I' for Inactive)
ROOT
ATOM      1  C   UNL d   1      -3.578   2.444   0.020  0.00  0.00     0.078 C 
ATOM      2  C1  UNL d   1      -4.413   3.689  -0.017  0.00  0.00    -0.077 A 
ATOM      3  C2  UNL d   1      -4.484   4.543   1.090  0.00  0.00    -0.001 A 
ATOM      4  C3  UNL d   1      -5.273   5.694   1.045  0.00  0.00     0.003 A 
ATOM      5  C4  UNL d   1      -5.999   6.000  -0.105  0.00  0.00    -0.005 A 
ATOM      6  C5  UNL d   1      -5.936   5.155  -1.211  0.00  0.00     0.003 A 
ATOM      7  C6  UNL d   1      -5.147   4.004  -1.168  0.00  0.00    -0.001 A 
ENDROOT
TORSDOF 0
ENDMDL
