MODEL 1
REMARK minimizedAffinity 0.0871784389
REMARK minimizedRMSD -1
REMARK  0 active torsions:
REMARK  status: ('A' for Active; 'I' for Inactive)
ROOT
ATOM      1  C   UNL d   1      -5.328   5.502   4.352  0.00  0.00     0.078 C 
ATOM      2  C1  UNL d   1      -5.309   5.181   2.888  0.00  0.00    -0.077 A 
ATOM      3  C2  UNL d   1      -4.629   6.000   1.978  0.00  0.00    -0.001 A 
ATOM      4  C3  UNL d   1      -4.628   5.694   0.616  0.00  0.00     0.003 A 
ATOM      5  C4  UNL d   1      -5.308   4.570   0.151  0.00  0.00    -0.005 A 
ATOM      6  C5  UNL d   1      -5.990   3.750   1.048  0.00  0.00     0.003 A 
ATOM      7  C6  UNL d   1      -5.991   4.055   2.411  0.00  0.00    -0.001 A 
ENDROOT
TORSDOF 0
ENDMDL
