MODEL 1
REMARK minimizedAffinity -1.91128802
REMARK minimizedRMSD -1
REMARK  0 active torsions:
REMARK  status: ('A' for Active; 'I' for Inactive)
ROOT
ATOM      1  C   UNL d   1      -5.962   4.883   4.900  0.00  0.00     0.078 C 
ATOM      2  C1  UNL d   1      -5.716   4.867   3.421  0.00  0.00    -0.077 A 
ATOM      3  C2  UNL d   1      -5.998   3.729   2.655  0.00  0.00    -0.001 A 
ATOM      4  C3  UNL d   1      -5.755   3.725   1.280  0.00  0.00     0.003 A 
ATOM      5  C4  UNL d   1      -5.228   4.856   0.660  0.00  0.00    -0.005 A 
ATOM      6  C5  UNL d   1      -4.942   5.992   1.414  0.00  0.00     0.003 A 
ATOM      7  C6  UNL d   1      -5.185   5.998   2.789  0.00  0.00    -0.001 A 
ENDROOT
TORSDOF 0
ENDMDL
