MODEL 1
REMARK minimizedAffinity -2.18738604
REMARK minimizedRMSD -1
REMARK  0 active torsions:
REMARK  status: ('A' for Active; 'I' for Inactive)
ROOT
ATOM      1  C   UNL d   1       0.618  -1.442   1.370  0.00  0.00     0.078 C 
ATOM      2  C1  UNL d   1      -0.426  -1.525   0.296  0.00  0.00    -0.077 A 
ATOM      3  C2  UNL d   1      -0.547  -0.519  -0.671  0.00  0.00    -0.001 A 
ATOM      4  C3  UNL d   1      -1.530  -0.604  -1.658  0.00  0.00     0.003 A 
ATOM      5  C4  UNL d   1      -2.400  -1.692  -1.688  0.00  0.00    -0.005 A 
ATOM      6  C5  UNL d   1      -2.288  -2.697  -0.729  0.00  0.00     0.003 A 
ATOM      7  C6  UNL d   1      -1.306  -2.613   0.260  0.00  0.00    -0.001 A 
ENDROOT
TORSDOF 0
ENDMDL
