MODEL 1
REMARK minimizedAffinity -4.91069651
REMARK minimizedRMSD -1
REMARK  0 active torsions:
REMARK  status: ('A' for Active; 'I' for Inactive)
ROOT
ATOM      1  C   UNL d   1      -2.747  -0.752  -0.894  0.00  0.00     0.078 C 
ATOM      2  C1  UNL d   1      -1.375  -0.639  -0.299  0.00  0.00    -0.077 A 
ATOM      3  C2  UNL d   1      -0.362   0.071  -0.954  0.00  0.00    -0.001 A 
ATOM      4  C3  UNL d   1       0.913   0.159  -0.393  0.00  0.00     0.003 A 
ATOM      5  C4  UNL d   1       1.187  -0.460   0.825  0.00  0.00    -0.005 A 
ATOM      6  C5  UNL d   1       0.185  -1.171   1.483  0.00  0.00     0.003 A 
ATOM      7  C6  UNL d   1      -1.091  -1.261   0.923  0.00  0.00    -0.001 A 
ENDROOT
TORSDOF 0
ENDMDL
