MODEL 1
REMARK minimizedAffinity -1.94533539
REMARK minimizedRMSD -1
REMARK  0 active torsions:
REMARK  status: ('A' for Active; 'I' for Inactive)
ROOT
ATOM      1  C   UNL d   1       2.027   1.298   1.697  0.00  0.00     0.078 C 
ATOM      2  C1  UNL d   1       0.949   0.277   1.907  0.00  0.00    -0.077 A 
ATOM      3  C2  UNL d   1       1.043  -0.999   1.337  0.00  0.00    -0.001 A 
ATOM      4  C3  UNL d   1       0.027  -1.936   1.534  0.00  0.00     0.003 A 
ATOM      5  C4  UNL d   1      -1.090  -1.607   2.299  0.00  0.00    -0.005 A 
ATOM      6  C5  UNL d   1      -1.193  -0.340   2.868  0.00  0.00     0.003 A 
ATOM      7  C6  UNL d   1      -0.179   0.599   2.673  0.00  0.00    -0.001 A 
ENDROOT
TORSDOF 0
ENDMDL
