MODEL 1
REMARK minimizedAffinity -3.35689354
REMARK minimizedRMSD -1
REMARK  0 active torsions:
REMARK  status: ('A' for Active; 'I' for Inactive)
ROOT
ATOM      1  C   UNL d   1      -0.436   0.326  -1.718  0.00  0.00     0.172 C 
ATOM      2  N   UNL d   1      -0.034   0.085  -0.351  0.00  0.00    -0.070 N 
ATOM      3  C1  UNL d   1       1.088   0.588   0.252  0.00  0.00    -0.004 A 
ATOM      4  C2  UNL d   1       1.110   0.129   1.551  0.00  0.00    -0.047 A 
ATOM      5  C3  UNL d   1      -0.037  -0.679   1.735  0.00  0.00    -0.047 A 
ATOM      6  C4  UNL d   1      -0.728  -0.688   0.541  0.00  0.00    -0.004 A 
ENDROOT
TORSDOF 0
ENDMDL
