MODEL 1
REMARK minimizedAffinity -4.05647898
REMARK minimizedRMSD -1
REMARK  0 active torsions:
REMARK  status: ('A' for Active; 'I' for Inactive)
ROOT
ATOM      1  C   UNL d   1      -3.108   1.258  -2.718  0.00  0.00     0.172 C 
ATOM      2  N   UNL d   1      -3.390   0.048  -3.455  0.00  0.00    -0.070 N 
ATOM      3  C1  UNL d   1      -4.208  -0.047  -4.549  0.00  0.00    -0.004 A 
ATOM      4  C2  UNL d   1      -4.213  -1.363  -4.959  0.00  0.00    -0.047 A 
ATOM      5  C3  UNL d   1      -3.370  -2.083  -4.080  0.00  0.00    -0.047 A 
ATOM      6  C4  UNL d   1      -2.874  -1.185  -3.159  0.00  0.00    -0.004 A 
ENDROOT
TORSDOF 0
ENDMDL
