MODEL 1
REMARK minimizedAffinity -4.20583916
REMARK minimizedRMSD -1
REMARK  0 active torsions:
REMARK  status: ('A' for Active; 'I' for Inactive)
ROOT
ATOM      1  C   UNL d   1      -2.056  -0.761  -3.353  0.00  0.00     0.172 C 
ATOM      2  N   UNL d   1      -3.035  -0.985  -4.391  0.00  0.00    -0.070 N 
ATOM      3  C1  UNL d   1      -3.228  -2.161  -5.065  0.00  0.00    -0.004 A 
ATOM      4  C2  UNL d   1      -4.250  -1.967  -5.969  0.00  0.00    -0.047 A 
ATOM      5  C3  UNL d   1      -4.686  -0.627  -5.834  0.00  0.00    -0.047 A 
ATOM      6  C4  UNL d   1      -3.917  -0.042  -4.850  0.00  0.00    -0.004 A 
ENDROOT
TORSDOF 0
ENDMDL
