MODEL 1
REMARK minimizedAffinity -3.51506782
REMARK minimizedRMSD -1
REMARK  0 active torsions:
REMARK  status: ('A' for Active; 'I' for Inactive)
ROOT
ATOM      1  C   UNL d   1      -1.724   2.237  -3.509  0.00  0.00     0.172 C 
ATOM      2  N   UNL d   1      -2.425   1.034  -3.893  0.00  0.00    -0.070 N 
ATOM      3  C1  UNL d   1      -2.460  -0.133  -3.177  0.00  0.00    -0.004 A 
ATOM      4  C2  UNL d   1      -3.230  -1.035  -3.878  0.00  0.00    -0.047 A 
ATOM      5  C3  UNL d   1      -3.673  -0.388  -5.056  0.00  0.00    -0.047 A 
ATOM      6  C4  UNL d   1      -3.160   0.891  -5.040  0.00  0.00    -0.004 A 
ENDROOT
TORSDOF 0
ENDMDL
