MODEL 1
REMARK minimizedAffinity -1.28834414
REMARK minimizedRMSD -1
REMARK  0 active torsions:
REMARK  status: ('A' for Active; 'I' for Inactive)
ROOT
ATOM      1  C   UNL d   1       4.987  -2.435   4.894  0.00  0.00     0.172 C 
ATOM      2  N   UNL d   1       4.927  -3.875   4.977  0.00  0.00    -0.070 N 
ATOM      3  C1  UNL d   1       4.336  -4.703   4.060  0.00  0.00    -0.004 A 
ATOM      4  C2  UNL d   1       4.493  -6.000   4.499  0.00  0.00    -0.047 A 
ATOM      5  C3  UNL d   1       5.202  -5.949   5.723  0.00  0.00    -0.047 A 
ATOM      6  C4  UNL d   1       5.458  -4.622   5.995  0.00  0.00    -0.004 A 
ENDROOT
TORSDOF 0
ENDMDL
