MODEL 1
REMARK minimizedAffinity -0.170965657
REMARK minimizedRMSD -1
REMARK  0 active torsions:
REMARK  status: ('A' for Active; 'I' for Inactive)
ROOT
ATOM      1  C   UNL d   1      -3.759  -1.166  -2.752  0.00  0.00     0.172 C 
ATOM      2  N   UNL d   1      -3.841  -0.478  -4.019  0.00  0.00    -0.070 N 
ATOM      3  C1  UNL d   1      -4.948   0.161  -4.510  0.00  0.00    -0.004 A 
ATOM      4  C2  UNL d   1      -4.620   0.688  -5.741  0.00  0.00    -0.047 A 
ATOM      5  C3  UNL d   1      -3.270   0.353  -5.999  0.00  0.00    -0.047 A 
ATOM      6  C4  UNL d   1      -2.812  -0.369  -4.917  0.00  0.00    -0.004 A 
ENDROOT
TORSDOF 0
ENDMDL
