MODEL 1
REMARK minimizedAffinity -2.29244256
REMARK minimizedRMSD -1
REMARK  0 active torsions:
REMARK  status: ('A' for Active; 'I' for Inactive)
ROOT
ATOM      1  C   UNL d   1      -3.557  -0.938  -2.594  0.00  0.00     0.172 C 
ATOM      2  N   UNL d   1      -4.137  -0.396  -3.800  0.00  0.00    -0.070 N 
ATOM      3  C1  UNL d   1      -3.489  -0.236  -4.995  0.00  0.00    -0.004 A 
ATOM      4  C2  UNL d   1      -4.383   0.309  -5.891  0.00  0.00    -0.047 A 
ATOM      5  C3  UNL d   1      -5.611   0.484  -5.210  0.00  0.00    -0.047 A 
ATOM      6  C4  UNL d   1      -5.431   0.040  -3.918  0.00  0.00    -0.004 A 
ENDROOT
TORSDOF 0
ENDMDL
