MODEL 1
REMARK minimizedAffinity 1.97728074
REMARK minimizedRMSD -1
REMARK  0 active torsions:
REMARK  status: ('A' for Active; 'I' for Inactive)
ROOT
ATOM      1  C   UNL d   1       2.221   1.918   3.135  0.00  0.00     0.172 C 
ATOM      2  N   UNL d   1       2.618   1.640   1.775  0.00  0.00    -0.070 N 
ATOM      3  C1  UNL d   1       3.899   1.683   1.293  0.00  0.00    -0.004 A 
ATOM      4  C2  UNL d   1       3.858   1.356  -0.045  0.00  0.00    -0.047 A 
ATOM      5  C3  UNL d   1       2.505   1.109  -0.379  0.00  0.00    -0.047 A 
ATOM      6  C4  UNL d   1       1.759   1.292   0.766  0.00  0.00    -0.004 A 
ENDROOT
TORSDOF 0
ENDMDL
