MODEL 1
REMARK minimizedAffinity 0.754243374
REMARK minimizedRMSD -1
REMARK  0 active torsions:
REMARK  status: ('A' for Active; 'I' for Inactive)
ROOT
ATOM      1  C   UNL d   1      -4.246   1.975  -4.561  0.00  0.00     0.172 C 
ATOM      2  N   UNL d   1      -4.030   0.575  -4.280  0.00  0.00    -0.070 N 
ATOM      3  C1  UNL d   1      -4.522  -0.108  -3.200  0.00  0.00    -0.004 A 
ATOM      4  C2  UNL d   1      -4.095  -1.414  -3.296  0.00  0.00    -0.047 A 
ATOM      5  C3  UNL d   1      -3.318  -1.520  -4.475  0.00  0.00    -0.047 A 
ATOM      6  C4  UNL d   1      -3.294  -0.274  -5.064  0.00  0.00    -0.004 A 
ENDROOT
TORSDOF 0
ENDMDL
