MODEL 1
REMARK minimizedAffinity -4.36017084
REMARK minimizedRMSD -1
REMARK  0 active torsions:
REMARK  status: ('A' for Active; 'I' for Inactive)
ROOT
ATOM      1  O1  BZF d   1       2.223  -2.001   1.122  0.00  0.00    -0.204 OA
ATOM      2  C2  BZF d   1       1.759  -2.105   2.420  0.00  0.00     0.174 A 
ATOM      3  C3  BZF d   1       0.569  -1.485   2.553  0.00  0.00    -0.012 A 
ATOM      4  C3A BZF d   1       0.227  -1.041   1.237  0.00  0.00    -0.107 A 
ATOM      5  C4  BZF d   1      -0.847  -0.373   0.721  0.00  0.00     0.055 A 
ATOM      6  C5  BZF d   1      -0.841  -0.027  -0.593  0.00  0.00    -0.016 A 
ATOM      7  C6  BZF d   1       0.224  -0.327  -1.418  0.00  0.00     0.022 A 
ATOM      8  C7  BZF d   1       1.309  -0.992  -0.953  0.00  0.00     0.029 A 
ATOM      9  C7A BZF d   1       1.291  -1.372   0.367  0.00  0.00     0.058 A 
ENDROOT
TORSDOF 0
ENDMDL
