MODEL 1
REMARK minimizedAffinity -4.94140434
REMARK minimizedRMSD -1
REMARK  0 active torsions:
REMARK  status: ('A' for Active; 'I' for Inactive)
ROOT
ATOM      1  O1  BZF d   1       2.766  -1.934   1.594  0.00  0.00    -0.204 OA
ATOM      2  C2  BZF d   1       2.323  -1.706   2.883  0.00  0.00     0.174 A 
ATOM      3  C3  BZF d   1       1.275  -0.858   2.886  0.00  0.00    -0.012 A 
ATOM      4  C3A BZF d   1       0.989  -0.608   1.507  0.00  0.00    -0.107 A 
ATOM      5  C4  BZF d   1       0.047   0.144   0.864  0.00  0.00     0.055 A 
ATOM      6  C5  BZF d   1       0.086   0.234  -0.491  0.00  0.00    -0.016 A 
ATOM      7  C6  BZF d   1       1.054  -0.409  -1.234  0.00  0.00     0.022 A 
ATOM      8  C7  BZF d   1       2.006  -1.170  -0.642  0.00  0.00     0.029 A 
ATOM      9  C7A BZF d   1       1.950  -1.290   0.725  0.00  0.00     0.058 A 
ENDROOT
TORSDOF 0
ENDMDL
