MODEL 1
REMARK minimizedAffinity -6.44729567
REMARK minimizedRMSD -1
REMARK  0 active torsions:
REMARK  status: ('A' for Active; 'I' for Inactive)
ROOT
ATOM      1  O1  BZF d   1       0.789  -0.783  -0.838  0.00  0.00    -0.204 OA
ATOM      2  C2  BZF d   1      -0.261   0.097  -0.656  0.00  0.00     0.174 A 
ATOM      3  C3  BZF d   1      -0.434   0.372   0.653  0.00  0.00    -0.012 A 
ATOM      4  C3A BZF d   1       0.629  -0.311   1.324  0.00  0.00    -0.107 A 
ATOM      5  C4  BZF d   1       1.002  -0.409   2.634  0.00  0.00     0.055 A 
ATOM      6  C5  BZF d   1       2.044  -1.215   2.966  0.00  0.00    -0.016 A 
ATOM      7  C6  BZF d   1       2.732  -1.941   2.015  0.00  0.00     0.022 A 
ATOM      8  C7  BZF d   1       2.402  -1.873   0.703  0.00  0.00     0.029 A 
ATOM      9  C7A BZF d   1       1.370  -1.033   0.360  0.00  0.00     0.058 A 
ENDROOT
TORSDOF 0
ENDMDL
