MODEL 1
REMARK minimizedAffinity -4.74900484
REMARK minimizedRMSD -1
REMARK  0 active torsions:
REMARK  status: ('A' for Active; 'I' for Inactive)
ROOT
ATOM      1  O1  BZF d   1       0.244  -0.631  -0.994  0.00  0.00    -0.204 OA
ATOM      2  C2  BZF d   1      -1.021  -0.137  -0.742  0.00  0.00     0.174 A 
ATOM      3  C3  BZF d   1      -1.371  -0.352   0.542  0.00  0.00    -0.012 A 
ATOM      4  C3A BZF d   1      -0.219  -0.939   1.154  0.00  0.00    -0.107 A 
ATOM      5  C4  BZF d   1       0.057  -1.364   2.422  0.00  0.00     0.055 A 
ATOM      6  C5  BZF d   1       1.253  -1.959   2.673  0.00  0.00    -0.016 A 
ATOM      7  C6  BZF d   1       2.192  -2.150   1.681  0.00  0.00     0.022 A 
ATOM      8  C7  BZF d   1       1.965  -1.740   0.409  0.00  0.00     0.029 A 
ATOM      9  C7A BZF d   1       0.771  -1.109   0.159  0.00  0.00     0.058 A 
ENDROOT
TORSDOF 0
ENDMDL
