MODEL 1
REMARK minimizedAffinity -1.72043073
REMARK minimizedRMSD -1
REMARK  0 active torsions:
REMARK  status: ('A' for Active; 'I' for Inactive)
ROOT
ATOM      1  O1  BZF d   1       0.675  -0.173  -0.560  0.00  0.00    -0.204 OA
ATOM      2  C2  BZF d   1      -0.476  -0.710  -0.015  0.00  0.00     0.174 A 
ATOM      3  C3  BZF d   1      -1.540   0.075  -0.277  0.00  0.00    -0.012 A 
ATOM      4  C3A BZF d   1      -1.038   1.124  -1.111  0.00  0.00    -0.107 A 
ATOM      5  C4  BZF d   1      -1.618   2.204  -1.713  0.00  0.00     0.055 A 
ATOM      6  C5  BZF d   1      -0.836   3.076  -2.401  0.00  0.00    -0.016 A 
ATOM      7  C6  BZF d   1       0.529   2.902  -2.504  0.00  0.00     0.022 A 
ATOM      8  C7  BZF d   1       1.149   1.843  -1.928  0.00  0.00     0.029 A 
ATOM      9  C7A BZF d   1       0.356   0.942  -1.260  0.00  0.00     0.058 A 
ENDROOT
TORSDOF 0
ENDMDL
