MODEL 1
REMARK minimizedAffinity -5.30464745
REMARK minimizedRMSD -1
REMARK  0 active torsions:
REMARK  status: ('A' for Active; 'I' for Inactive)
ROOT
ATOM      1  O1  BZF d   1       0.269   1.060  -0.657  0.00  0.00    -0.204 OA
ATOM      2  C2  BZF d   1      -0.164   0.231  -1.674  0.00  0.00     0.174 A 
ATOM      3  C3  BZF d   1       0.246  -1.036  -1.465  0.00  0.00    -0.012 A 
ATOM      4  C3A BZF d   1       0.903  -1.015  -0.194  0.00  0.00    -0.107 A 
ATOM      5  C4  BZF d   1       1.510  -1.974   0.566  0.00  0.00     0.055 A 
ATOM      6  C5  BZF d   1       2.119  -1.611   1.725  0.00  0.00    -0.016 A 
ATOM      7  C6  BZF d   1       2.145  -0.299   2.151  0.00  0.00     0.022 A 
ATOM      8  C7  BZF d   1       1.553   0.686   1.434  0.00  0.00     0.029 A 
ATOM      9  C7A BZF d   1       0.908   0.318   0.279  0.00  0.00     0.058 A 
ENDROOT
TORSDOF 0
ENDMDL
