MODEL 1
REMARK minimizedAffinity -0.931810856
REMARK minimizedRMSD -1
REMARK  0 active torsions:
REMARK  status: ('A' for Active; 'I' for Inactive)
ROOT
ATOM      1  O1  BZF d   1      -0.884  -0.689  -0.688  0.00  0.00    -0.204 OA
ATOM      2  C2  BZF d   1      -0.422  -0.391   0.579  0.00  0.00     0.174 A 
ATOM      3  C3  BZF d   1      -0.171   0.928   0.699  0.00  0.00    -0.012 A 
ATOM      4  C3A BZF d   1      -0.583   1.505  -0.544  0.00  0.00    -0.107 A 
ATOM      5  C4  BZF d   1      -0.598   2.782  -1.028  0.00  0.00     0.055 A 
ATOM      6  C5  BZF d   1      -0.994   2.998  -2.310  0.00  0.00    -0.016 A 
ATOM      7  C6  BZF d   1      -1.378   1.961  -3.135  0.00  0.00     0.022 A 
ATOM      8  C7  BZF d   1      -1.385   0.678  -2.699  0.00  0.00     0.029 A 
ATOM      9  C7A BZF d   1      -1.016   0.460  -1.394  0.00  0.00     0.058 A 
ENDROOT
TORSDOF 0
ENDMDL
