MODEL 1
REMARK minimizedAffinity -4.14097166
REMARK minimizedRMSD -1
REMARK  1 active torsions:
REMARK  status: ('A' for Active; 'I' for Inactive)
REMARK    1  A    between atoms: C1_2  and  C2_3 
ROOT
ATOM      1  C2  UNL d   1      -0.023   0.270  -1.201  0.00  0.00    -0.081 A 
ATOM      2  C3  UNL d   1       1.099   0.186  -0.368  0.00  0.00     0.006 A 
ATOM      3  C4  UNL d   1       0.949  -0.069   0.997  0.00  0.00     0.002 A 
ATOM      4  C5  UNL d   1      -0.323  -0.252   1.550  0.00  0.00    -0.080 A 
ATOM      5  C6  UNL d   1      -0.496  -0.556   3.009  0.00  0.00     0.076 C 
ATOM      6  C7  UNL d   1      -1.445  -0.151   0.721  0.00  0.00     0.002 A 
ATOM      7  C8  UNL d   1      -1.296   0.105  -0.644  0.00  0.00     0.006 A 
ENDROOT
BRANCH   1   8
ATOM      8  C1  UNL d   1       0.138   0.481  -2.685  0.00  0.00     0.054 C 
ATOM      9  C   UNL d   1       1.112  -0.524  -3.284  0.00  0.00     0.018 C 
ENDBRANCH   1   8
TORSDOF 1
ENDMDL
