MODEL 1
REMARK minimizedAffinity -4.56771183
REMARK minimizedRMSD -1
REMARK  1 active torsions:
REMARK  status: ('A' for Active; 'I' for Inactive)
REMARK    1  A    between atoms: C1_2  and  C2_3 
ROOT
ATOM      1  C2  UNL d   1      -0.040   0.264  -1.434  0.00  0.00    -0.081 A 
ATOM      2  C3  UNL d   1       0.356  -0.329  -0.229  0.00  0.00     0.006 A 
ATOM      3  C4  UNL d   1      -0.523  -0.385   0.855  0.00  0.00     0.002 A 
ATOM      4  C5  UNL d   1      -1.814   0.145   0.751  0.00  0.00    -0.080 A 
ATOM      5  C6  UNL d   1      -2.777   0.064   1.897  0.00  0.00     0.076 C 
ATOM      6  C7  UNL d   1      -2.204   0.753  -0.447  0.00  0.00     0.002 A 
ATOM      7  C8  UNL d   1      -1.325   0.809  -1.532  0.00  0.00     0.006 A 
ENDROOT
BRANCH   1   8
ATOM      8  C1  UNL d   1       0.882   0.268  -2.626  0.00  0.00     0.054 C 
ATOM      9  C   UNL d   1       0.813  -1.050  -3.384  0.00  0.00     0.018 C 
ENDBRANCH   1   8
TORSDOF 1
ENDMDL
