MODEL 1
REMARK minimizedAffinity -2.58140898
REMARK minimizedRMSD -1
REMARK  1 active torsions:
REMARK  status: ('A' for Active; 'I' for Inactive)
REMARK    1  A    between atoms: C1_2  and  C2_3 
ROOT
ATOM      1  C2  UNL d   1       4.807   1.693  -4.636  0.00  0.00    -0.081 A 
ATOM      2  C3  UNL d   1       5.139   0.373  -4.965  0.00  0.00     0.006 A 
ATOM      3  C4  UNL d   1       4.219  -0.659  -4.764  0.00  0.00     0.002 A 
ATOM      4  C5  UNL d   1       2.951  -0.388  -4.240  0.00  0.00    -0.080 A 
ATOM      5  C6  UNL d   1       1.944  -1.482  -4.047  0.00  0.00     0.076 C 
ATOM      6  C7  UNL d   1       2.626   0.929  -3.895  0.00  0.00     0.002 A 
ATOM      7  C8  UNL d   1       3.545   1.961  -4.094  0.00  0.00     0.006 A 
ENDROOT
BRANCH   1   8
ATOM      8  C1  UNL d   1       5.773   2.818  -4.912  0.00  0.00     0.054 C 
ATOM      9  C   UNL d   1       5.247   3.745  -5.998  0.00  0.00     0.018 C 
ENDBRANCH   1   8
TORSDOF 1
ENDMDL
