MODEL 1
REMARK minimizedAffinity 3.32340002
REMARK minimizedRMSD -1
REMARK  1 active torsions:
REMARK  status: ('A' for Active; 'I' for Inactive)
REMARK    1  A    between atoms: C1_2  and  C2_3 
ROOT
ATOM      1  C2  UNL d   1      -1.956   0.026   2.007  0.00  0.00    -0.081 A 
ATOM      2  C3  UNL d   1      -0.937   0.779   1.412  0.00  0.00     0.006 A 
ATOM      3  C4  UNL d   1       0.392   0.610   1.807  0.00  0.00     0.002 A 
ATOM      4  C5  UNL d   1       0.725  -0.321   2.797  0.00  0.00    -0.080 A 
ATOM      5  C6  UNL d   1       2.151  -0.534   3.209  0.00  0.00     0.076 C 
ATOM      6  C7  UNL d   1      -0.295  -1.061   3.404  0.00  0.00     0.002 A 
ATOM      7  C8  UNL d   1      -1.624  -0.891   3.010  0.00  0.00     0.006 A 
ENDROOT
BRANCH   1   8
ATOM      8  C1  UNL d   1      -3.383   0.160   1.538  0.00  0.00     0.054 C 
ATOM      9  C   UNL d   1      -3.449   0.469   0.049  0.00  0.00     0.018 C 
ENDBRANCH   1   8
TORSDOF 1
ENDMDL
