MODEL 1
REMARK minimizedAffinity 3.38788104
REMARK minimizedRMSD -1
REMARK  1 active torsions:
REMARK  status: ('A' for Active; 'I' for Inactive)
REMARK    1  A    between atoms: C1_2  and  C2_3 
ROOT
ATOM      1  C2  UNL d   1      -0.909   0.434   1.557  0.00  0.00    -0.081 A 
ATOM      2  C3  UNL d   1       0.000   0.915   2.507  0.00  0.00     0.006 A 
ATOM      3  C4  UNL d   1       1.137   1.621   2.104  0.00  0.00     0.002 A 
ATOM      4  C5  UNL d   1       1.378   1.864   0.748  0.00  0.00    -0.080 A 
ATOM      5  C6  UNL d   1       2.578   2.647   0.304  0.00  0.00     0.076 C 
ATOM      6  C7  UNL d   1       0.478   1.368  -0.202  0.00  0.00     0.002 A 
ATOM      7  C8  UNL d   1      -0.658   0.661   0.200  0.00  0.00     0.006 A 
ENDROOT
BRANCH   1   8
ATOM      8  C1  UNL d   1      -2.169  -0.272   1.992  0.00  0.00     0.054 C 
ATOM      9  C   UNL d   1      -3.387   0.629   1.845  0.00  0.00     0.018 C 
ENDBRANCH   1   8
TORSDOF 1
ENDMDL
