MODEL 1
REMARK minimizedAffinity -2.6812458
REMARK minimizedRMSD -1
REMARK  1 active torsions:
REMARK  status: ('A' for Active; 'I' for Inactive)
REMARK    1  A    between atoms: C1_2  and  C2_3 
ROOT
ATOM      1  C2  UNL d   1       0.014   0.335  -0.437  0.00  0.00    -0.081 A 
ATOM      2  C3  UNL d   1       0.749   0.725   0.690  0.00  0.00     0.006 A 
ATOM      3  C4  UNL d   1       0.460   0.185   1.945  0.00  0.00     0.002 A 
ATOM      4  C5  UNL d   1      -0.561  -0.759   2.094  0.00  0.00    -0.080 A 
ATOM      5  C6  UNL d   1      -0.861  -1.370   3.431  0.00  0.00     0.076 C 
ATOM      6  C7  UNL d   1      -1.307  -1.136   0.972  0.00  0.00     0.002 A 
ATOM      7  C8  UNL d   1      -1.020  -0.596  -0.284  0.00  0.00     0.006 A 
ENDROOT
BRANCH   1   8
ATOM      8  C1  UNL d   1       0.364   0.868  -1.803  0.00  0.00     0.054 C 
ATOM      9  C   UNL d   1       1.170  -0.147  -2.602  0.00  0.00     0.018 C 
ENDBRANCH   1   8
TORSDOF 1
ENDMDL
