MODEL 1
REMARK minimizedAffinity -4.5298419
REMARK minimizedRMSD -1
REMARK  1 active torsions:
REMARK  status: ('A' for Active; 'I' for Inactive)
REMARK    1  A    between atoms: C1_2  and  C2_3 
ROOT
ATOM      1  C2  UNL d   1       0.184   0.289   0.861  0.00  0.00    -0.081 A 
ATOM      2  C3  UNL d   1      -1.155   0.361   0.456  0.00  0.00     0.006 A 
ATOM      3  C4  UNL d   1      -2.185   0.263   1.395  0.00  0.00     0.002 A 
ATOM      4  C5  UNL d   1      -1.894   0.099   2.753  0.00  0.00    -0.080 A 
ATOM      5  C6  UNL d   1      -2.989   0.023   3.775  0.00  0.00     0.076 C 
ATOM      6  C7  UNL d   1      -0.557   0.010   3.156  0.00  0.00     0.002 A 
ATOM      7  C8  UNL d   1       0.473   0.107   2.218  0.00  0.00     0.006 A 
ENDROOT
BRANCH   1   8
ATOM      8  C1  UNL d   1       1.297   0.460  -0.140  0.00  0.00     0.054 C 
ATOM      9  C   UNL d   1       0.840   0.093  -1.545  0.00  0.00     0.018 C 
ENDBRANCH   1   8
TORSDOF 1
ENDMDL
