MODEL 1
REMARK minimizedAffinity -3.16045809
REMARK minimizedRMSD -1
REMARK  1 active torsions:
REMARK  status: ('A' for Active; 'I' for Inactive)
REMARK    1  A    between atoms: C1_2  and  C2_3 
ROOT
ATOM      1  C2  UNL d   1       0.207   0.100  -1.167  0.00  0.00    -0.081 A 
ATOM      2  C3  UNL d   1       0.643  -0.306   0.100  0.00  0.00     0.006 A 
ATOM      3  C4  UNL d   1      -0.232  -0.289   1.188  0.00  0.00     0.002 A 
ATOM      4  C5  UNL d   1      -1.558   0.125   1.027  0.00  0.00    -0.080 A 
ATOM      5  C6  UNL d   1      -2.517   0.118   2.181  0.00  0.00     0.076 C 
ATOM      6  C7  UNL d   1      -1.989   0.547  -0.236  0.00  0.00     0.002 A 
ATOM      7  C8  UNL d   1      -1.114   0.532  -1.324  0.00  0.00     0.006 A 
ENDROOT
BRANCH   1   8
ATOM      8  C1  UNL d   1       1.131   0.023  -2.357  0.00  0.00     0.054 C 
ATOM      9  C   UNL d   1       1.053  -1.340  -3.029  0.00  0.00     0.018 C 
ENDBRANCH   1   8
TORSDOF 1
ENDMDL
