MODEL 1
REMARK minimizedAffinity 3.95908999
REMARK minimizedRMSD -1
REMARK  1 active torsions:
REMARK  status: ('A' for Active; 'I' for Inactive)
REMARK    1  A    between atoms: C1_2  and  C2_3 
ROOT
ATOM      1  C2  UNL d   1      -1.966  -1.752   0.738  0.00  0.00    -0.081 A 
ATOM      2  C3  UNL d   1      -1.876  -1.823  -0.658  0.00  0.00     0.006 A 
ATOM      3  C4  UNL d   1      -1.164  -0.856  -1.372  0.00  0.00     0.002 A 
ATOM      4  C5  UNL d   1      -0.525   0.193  -0.702  0.00  0.00    -0.080 A 
ATOM      5  C6  UNL d   1       0.267   1.221  -1.454  0.00  0.00     0.076 C 
ATOM      6  C7  UNL d   1      -0.630   0.274   0.690  0.00  0.00     0.002 A 
ATOM      7  C8  UNL d   1      -1.342  -0.692   1.405  0.00  0.00     0.006 A 
ENDROOT
BRANCH   1   8
ATOM      8  C1  UNL d   1      -2.679  -2.829   1.516  0.00  0.00     0.054 C 
ATOM      9  C   UNL d   1      -1.891  -4.131   1.505  0.00  0.00     0.018 C 
ENDBRANCH   1   8
TORSDOF 1
ENDMDL
