MODEL 1
REMARK minimizedAffinity -4.45171547
REMARK minimizedRMSD -1
REMARK  1 active torsions:
REMARK  status: ('A' for Active; 'I' for Inactive)
REMARK    1  A    between atoms: C1_2  and  C2_3 
ROOT
ATOM      1  C2  UNL d   1       0.059  -0.098   0.181  0.00  0.00    -0.081 A 
ATOM      2  C3  UNL d   1      -1.321  -0.332   0.211  0.00  0.00     0.006 A 
ATOM      3  C4  UNL d   1      -1.975  -0.561   1.424  0.00  0.00     0.002 A 
ATOM      4  C5  UNL d   1      -1.261  -0.553   2.627  0.00  0.00    -0.080 A 
ATOM      5  C6  UNL d   1      -1.956  -0.769   3.939  0.00  0.00     0.076 C 
ATOM      6  C7  UNL d   1       0.121  -0.337   2.596  0.00  0.00     0.002 A 
ATOM      7  C8  UNL d   1       0.775  -0.108   1.384  0.00  0.00     0.006 A 
ENDROOT
BRANCH   1   8
ATOM      8  C1  UNL d   1       0.756   0.214  -1.118  0.00  0.00     0.054 C 
ATOM      9  C   UNL d   1      -0.211   0.797  -2.139  0.00  0.00     0.018 C 
ENDBRANCH   1   8
TORSDOF 1
ENDMDL
