MODEL 1
REMARK minimizedAffinity 1.03613031
REMARK minimizedRMSD -1
REMARK  0 active torsions:
REMARK  status: ('A' for Active; 'I' for Inactive)
ROOT
ATOM      1  C2' OXE d   1      -3.273  -2.463  -3.017  0.00  0.00     0.078 C 
ATOM      2  C1' OXE d   1      -3.725  -2.126  -0.267  0.00  0.00     0.078 C 
ATOM      3  C1  OXE d   1      -2.295  -2.210  -0.739  0.00  0.00    -0.078 A 
ATOM      4  C2  OXE d   1      -2.084  -2.422  -2.081  0.00  0.00    -0.078 A 
ATOM      5  C3  OXE d   1      -0.785  -2.453  -2.578  0.00  0.00     0.003 A 
ATOM      6  C4  OXE d   1       0.309  -2.424  -1.704  0.00  0.00    -0.002 A 
ATOM      7  C5  OXE d   1       0.116  -2.249  -0.330  0.00  0.00    -0.002 A 
ATOM      8  C6  OXE d   1      -1.176  -2.098   0.163  0.00  0.00     0.003 A 
ENDROOT
TORSDOF 0
ENDMDL
