MODEL 1
REMARK minimizedAffinity 8.2059269
REMARK minimizedRMSD -1
REMARK  0 active torsions:
REMARK  status: ('A' for Active; 'I' for Inactive)
ROOT
ATOM      1  C2' OXE d   1      -0.607   1.601   0.600  0.00  0.00     0.078 C 
ATOM      2  C1' OXE d   1      -0.277  -0.402  -1.339  0.00  0.00     0.078 C 
ATOM      3  C1  OXE d   1      -0.819  -0.809   0.009  0.00  0.00    -0.078 A 
ATOM      4  C2  OXE d   1      -0.933   0.170   0.966  0.00  0.00    -0.078 A 
ATOM      5  C3  OXE d   1      -1.479  -0.141   2.208  0.00  0.00     0.003 A 
ATOM      6  C4  OXE d   1      -1.769  -1.470   2.543  0.00  0.00    -0.002 A 
ATOM      7  C5  OXE d   1      -1.622  -2.488   1.595  0.00  0.00    -0.002 A 
ATOM      8  C6  OXE d   1      -1.190  -2.169   0.313  0.00  0.00     0.003 A 
ENDROOT
TORSDOF 0
ENDMDL
