MODEL 1
REMARK minimizedAffinity -4.99604273
REMARK minimizedRMSD -1
REMARK  0 active torsions:
REMARK  status: ('A' for Active; 'I' for Inactive)
ROOT
ATOM      1  C2' OXE d   1       0.800  -1.020  -1.858  0.00  0.00     0.078 C 
ATOM      2  C1' OXE d   1       0.046  -2.948   0.037  0.00  0.00     0.078 C 
ATOM      3  C1  OXE d   1      -0.319  -1.511   0.312  0.00  0.00    -0.078 A 
ATOM      4  C2  OXE d   1       0.095  -0.568  -0.598  0.00  0.00    -0.078 A 
ATOM      5  C3  OXE d   1      -0.262   0.765  -0.419  0.00  0.00     0.003 A 
ATOM      6  C4  OXE d   1      -0.906   1.176   0.754  0.00  0.00    -0.002 A 
ATOM      7  C5  OXE d   1      -1.301   0.237   1.713  0.00  0.00    -0.002 A 
ATOM      8  C6  OXE d   1      -1.054  -1.113   1.488  0.00  0.00     0.003 A 
ENDROOT
TORSDOF 0
ENDMDL
