MODEL 1
REMARK minimizedAffinity 1.43598735
REMARK minimizedRMSD -1
REMARK  0 active torsions:
REMARK  status: ('A' for Active; 'I' for Inactive)
ROOT
ATOM      1  C2' OXE d   1      -0.878   0.830   0.312  0.00  0.00     0.078 C 
ATOM      2  C1' OXE d   1       1.382   2.250   1.180  0.00  0.00     0.078 C 
ATOM      3  C1  OXE d   1       1.458   1.556  -0.157  0.00  0.00    -0.078 A 
ATOM      4  C2  OXE d   1       0.364   0.825  -0.552  0.00  0.00    -0.078 A 
ATOM      5  C3  OXE d   1       0.361   0.210  -1.801  0.00  0.00     0.003 A 
ATOM      6  C4  OXE d   1       1.517   0.202  -2.591  0.00  0.00    -0.002 A 
ATOM      7  C5  OXE d   1       2.656   0.908  -2.188  0.00  0.00    -0.002 A 
ATOM      8  C6  OXE d   1       2.628   1.624  -0.997  0.00  0.00     0.003 A 
ENDROOT
TORSDOF 0
ENDMDL
