MODEL 1
REMARK minimizedAffinity 5.22623587
REMARK minimizedRMSD -1
REMARK  0 active torsions:
REMARK  status: ('A' for Active; 'I' for Inactive)
ROOT
ATOM      1  C2' OXE d   1       0.441  -0.560   3.048  0.00  0.00     0.078 C 
ATOM      2  C1' OXE d   1      -1.187   0.862   1.257  0.00  0.00     0.078 C 
ATOM      3  C1  OXE d   1      -1.224  -0.644   1.197  0.00  0.00    -0.078 A 
ATOM      4  C2  OXE d   1      -0.390  -1.332   2.045  0.00  0.00    -0.078 A 
ATOM      5  C3  OXE d   1      -0.425  -2.723   2.069  0.00  0.00     0.003 A 
ATOM      6  C4  OXE d   1      -1.188  -3.429   1.131  0.00  0.00    -0.002 A 
ATOM      7  C5  OXE d   1      -2.015  -2.748   0.232  0.00  0.00    -0.002 A 
ATOM      8  C6  OXE d   1      -2.077  -1.359   0.280  0.00  0.00     0.003 A 
ENDROOT
TORSDOF 0
ENDMDL
