MODEL 1
REMARK minimizedAffinity -5.746099
REMARK minimizedRMSD -1
REMARK  0 active torsions:
REMARK  status: ('A' for Active; 'I' for Inactive)
ROOT
ATOM      1  C2' OXE d   1       1.958   2.398   0.885  0.00  0.00     0.078 C 
ATOM      2  C1' OXE d   1      -0.681   1.452   0.748  0.00  0.00     0.078 C 
ATOM      3  C1  OXE d   1       0.258   1.081  -0.372  0.00  0.00    -0.078 A 
ATOM      4  C2  OXE d   1       1.535   1.587  -0.321  0.00  0.00    -0.078 A 
ATOM      5  C3  OXE d   1       2.457   1.232  -1.300  0.00  0.00     0.003 A 
ATOM      6  C4  OXE d   1       2.054   0.490  -2.417  0.00  0.00    -0.002 A 
ATOM      7  C5  OXE d   1       0.748  -0.002  -2.510  0.00  0.00    -0.002 A 
ATOM      8  C6  OXE d   1      -0.149   0.248  -1.477  0.00  0.00     0.003 A 
ENDROOT
TORSDOF 0
ENDMDL
