MODEL 1
REMARK minimizedAffinity -3.95415688
REMARK minimizedRMSD -1
REMARK  0 active torsions:
REMARK  status: ('A' for Active; 'I' for Inactive)
ROOT
ATOM      1  C2' OXE d   1       0.253   1.482   0.115  0.00  0.00     0.078 C 
ATOM      2  C1' OXE d   1       0.848   0.043  -2.221  0.00  0.00     0.078 C 
ATOM      3  C1  OXE d   1       0.199  -0.702  -1.082  0.00  0.00    -0.078 A 
ATOM      4  C2  OXE d   1      -0.046  -0.001   0.074  0.00  0.00    -0.078 A 
ATOM      5  C3  OXE d   1      -0.692  -0.628   1.136  0.00  0.00     0.003 A 
ATOM      6  C4  OXE d   1      -0.955  -2.002   1.095  0.00  0.00    -0.002 A 
ATOM      7  C5  OXE d   1      -0.677  -2.743  -0.059  0.00  0.00    -0.002 A 
ATOM      8  C6  OXE d   1      -0.140  -2.101  -1.169  0.00  0.00     0.003 A 
ENDROOT
TORSDOF 0
ENDMDL
