MODEL 1
REMARK minimizedAffinity -4.00924349
REMARK minimizedRMSD -1
REMARK  0 active torsions:
REMARK  status: ('A' for Active; 'I' for Inactive)
ROOT
ATOM      1  C2' OXE d   1       0.282   1.722  -0.365  0.00  0.00     0.078 C 
ATOM      2  C1' OXE d   1       1.547  -0.191  -1.984  0.00  0.00     0.078 C 
ATOM      3  C1  OXE d   1       0.732  -0.686  -0.816  0.00  0.00    -0.078 A 
ATOM      4  C2  OXE d   1       0.154   0.259  -0.002  0.00  0.00    -0.078 A 
ATOM      5  C3  OXE d   1      -0.653  -0.145   1.058  0.00  0.00     0.003 A 
ATOM      6  C4  OXE d   1      -0.758  -1.500   1.393  0.00  0.00    -0.002 A 
ATOM      7  C5  OXE d   1      -0.145  -2.477   0.601  0.00  0.00    -0.002 A 
ATOM      8  C6  OXE d   1       0.566  -2.090  -0.529  0.00  0.00     0.003 A 
ENDROOT
TORSDOF 0
ENDMDL
