MODEL 1
REMARK minimizedAffinity -1.07357371
REMARK minimizedRMSD -1
REMARK  0 active torsions:
REMARK  status: ('A' for Active; 'I' for Inactive)
ROOT
ATOM      1  C2' OXE d   1       3.917   1.703  -0.158  0.00  0.00     0.078 C 
ATOM      2  C1' OXE d   1       2.646   3.466   1.619  0.00  0.00     0.078 C 
ATOM      3  C1  OXE d   1       1.790   2.453   0.901  0.00  0.00    -0.078 A 
ATOM      4  C2  OXE d   1       2.414   1.625  -0.002  0.00  0.00    -0.078 A 
ATOM      5  C3  OXE d   1       1.680   0.635  -0.651  0.00  0.00     0.003 A 
ATOM      6  C4  OXE d   1       0.289   0.576  -0.509  0.00  0.00    -0.002 A 
ATOM      7  C5  OXE d   1      -0.372   1.436   0.375  0.00  0.00    -0.002 A 
ATOM      8  C6  OXE d   1       0.368   2.350   1.118  0.00  0.00     0.003 A 
ENDROOT
TORSDOF 0
ENDMDL
