MODEL 1
REMARK minimizedAffinity -0.758250177
REMARK minimizedRMSD -1
REMARK  0 active torsions:
REMARK  status: ('A' for Active; 'I' for Inactive)
ROOT
ATOM      1  C2' OXE d   1      -0.866   2.228   0.998  0.00  0.00     0.078 C 
ATOM      2  C1' OXE d   1      -1.912   0.607   3.036  0.00  0.00     0.078 C 
ATOM      3  C1  OXE d   1      -1.474  -0.064   1.758  0.00  0.00    -0.078 A 
ATOM      4  C2  OXE d   1      -1.007   0.742   0.749  0.00  0.00    -0.078 A 
ATOM      5  C3  OXE d   1      -0.540   0.169  -0.431  0.00  0.00     0.003 A 
ATOM      6  C4  OXE d   1      -0.684  -1.205  -0.657  0.00  0.00    -0.002 A 
ATOM      7  C5  OXE d   1      -1.194  -2.039   0.343  0.00  0.00    -0.002 A 
ATOM      8  C6  OXE d   1      -1.553  -1.492   1.570  0.00  0.00     0.003 A 
ENDROOT
TORSDOF 0
ENDMDL
