MODEL 1
REMARK minimizedAffinity -4.77670479
REMARK minimizedRMSD -1
REMARK  0 active torsions:
REMARK  status: ('A' for Active; 'I' for Inactive)
ROOT
ATOM      1  C2' OXE d   1       0.821   0.117  -2.174  0.00  0.00     0.078 C 
ATOM      2  C1' OXE d   1      -0.497   0.450   0.282  0.00  0.00     0.078 C 
ATOM      3  C1  OXE d   1       0.713   1.308   0.011  0.00  0.00    -0.078 A 
ATOM      4  C2  OXE d   1       1.379   1.106  -1.173  0.00  0.00    -0.078 A 
ATOM      5  C3  OXE d   1       2.469   1.909  -1.497  0.00  0.00     0.003 A 
ATOM      6  C4  OXE d   1       2.985   2.814  -0.562  0.00  0.00    -0.002 A 
ATOM      7  C5  OXE d   1       2.346   3.008   0.667  0.00  0.00    -0.002 A 
ATOM      8  C6  OXE d   1       1.186   2.295   0.951  0.00  0.00     0.003 A 
ENDROOT
TORSDOF 0
ENDMDL
