MODEL 1
REMARK minimizedAffinity -5.1504364
REMARK minimizedRMSD -1
REMARK  0 active torsions:
REMARK  status: ('A' for Active; 'I' for Inactive)
ROOT
ATOM      1  C2' OXE d   1       0.123   2.060   0.143  0.00  0.00     0.078 C 
ATOM      2  C1' OXE d   1       1.214   0.552  -1.958  0.00  0.00     0.078 C 
ATOM      3  C1  OXE d   1       0.569  -0.195  -0.818  0.00  0.00    -0.078 A 
ATOM      4  C2  OXE d   1       0.079   0.550   0.229  0.00  0.00    -0.078 A 
ATOM      5  C3  OXE d   1      -0.574  -0.086   1.280  0.00  0.00     0.003 A 
ATOM      6  C4  OXE d   1      -0.601  -1.484   1.357  0.00  0.00    -0.002 A 
ATOM      7  C5  OXE d   1      -0.073  -2.262   0.321  0.00  0.00    -0.002 A 
ATOM      8  C6  OXE d   1       0.476  -1.634  -0.791  0.00  0.00     0.003 A 
ENDROOT
TORSDOF 0
ENDMDL
