MODEL 1
REMARK minimizedAffinity 1.87089133
REMARK minimizedRMSD -1
REMARK  0 active torsions:
REMARK  status: ('A' for Active; 'I' for Inactive)
ROOT
ATOM      1  C2' OXE d   1      -1.331  -1.990   1.272  0.00  0.00     0.078 C 
ATOM      2  C1' OXE d   1      -1.690  -0.071   3.289  0.00  0.00     0.078 C 
ATOM      3  C1  OXE d   1      -1.056   0.378   1.997  0.00  0.00    -0.078 A 
ATOM      4  C2  OXE d   1      -0.841  -0.578   1.033  0.00  0.00    -0.078 A 
ATOM      5  C3  OXE d   1      -0.309  -0.207  -0.199  0.00  0.00     0.003 A 
ATOM      6  C4  OXE d   1       0.150   1.099  -0.409  0.00  0.00    -0.002 A 
ATOM      7  C5  OXE d   1      -0.023   2.079   0.575  0.00  0.00    -0.002 A 
ATOM      8  C6  OXE d   1      -0.661   1.745   1.764  0.00  0.00     0.003 A 
ENDROOT
TORSDOF 0
ENDMDL
