MODEL 1
REMARK minimizedAffinity -5.37388325
REMARK minimizedRMSD -1
REMARK  0 active torsions:
REMARK  status: ('A' for Active; 'I' for Inactive)
ROOT
ATOM      1  C2' OXE d   1       0.324   2.222   0.187  0.00  0.00     0.078 C 
ATOM      2  C1' OXE d   1       1.394   0.726  -1.934  0.00  0.00     0.078 C 
ATOM      3  C1  OXE d   1       0.716  -0.025  -0.815  0.00  0.00    -0.078 A 
ATOM      4  C2  OXE d   1       0.237   0.712   0.241  0.00  0.00    -0.078 A 
ATOM      5  C3  OXE d   1      -0.446   0.074   1.273  0.00  0.00     0.003 A 
ATOM      6  C4  OXE d   1      -0.514  -1.324   1.320  0.00  0.00    -0.002 A 
ATOM      7  C5  OXE d   1       0.003  -2.095   0.274  0.00  0.00    -0.002 A 
ATOM      8  C6  OXE d   1       0.582  -1.460  -0.819  0.00  0.00     0.003 A 
ENDROOT
TORSDOF 0
ENDMDL
