MODEL 1
REMARK minimizedAffinity -5.30258417
REMARK minimizedRMSD -1
REMARK  0 active torsions:
REMARK  status: ('A' for Active; 'I' for Inactive)
ROOT
ATOM      1  C2' OXE d   1       1.586  -0.089  -1.539  0.00  0.00     0.078 C 
ATOM      2  C1' OXE d   1       0.140   1.368   0.376  0.00  0.00     0.078 C 
ATOM      3  C1  OXE d   1       0.024  -0.135   0.401  0.00  0.00    -0.078 A 
ATOM      4  C2  OXE d   1       0.698  -0.838  -0.569  0.00  0.00    -0.078 A 
ATOM      5  C3  OXE d   1       0.669  -2.229  -0.558  0.00  0.00     0.003 A 
ATOM      6  C4  OXE d   1      -0.163  -2.914   0.337  0.00  0.00    -0.002 A 
ATOM      7  C5  OXE d   1      -0.889  -2.215   1.307  0.00  0.00    -0.002 A 
ATOM      8  C6  OXE d   1      -0.774  -0.831   1.380  0.00  0.00     0.003 A 
ENDROOT
TORSDOF 0
ENDMDL
