MODEL 1
REMARK minimizedAffinity -4.27055979
REMARK minimizedRMSD -1
REMARK  0 active torsions:
REMARK  status: ('A' for Active; 'I' for Inactive)
ROOT
ATOM      1  C2' OXE d   1       0.789  -0.279  -1.846  0.00  0.00     0.078 C 
ATOM      2  C1' OXE d   1      -0.790   0.655   0.279  0.00  0.00     0.078 C 
ATOM      3  C1  OXE d   1       0.519   1.356   0.014  0.00  0.00    -0.078 A 
ATOM      4  C2  OXE d   1       1.306   0.863  -0.998  0.00  0.00    -0.078 A 
ATOM      5  C3  OXE d   1       2.498   1.507  -1.320  0.00  0.00     0.003 A 
ATOM      6  C4  OXE d   1       2.974   2.556  -0.524  0.00  0.00    -0.002 A 
ATOM      7  C5  OXE d   1       2.206   3.048   0.536  0.00  0.00    -0.002 A 
ATOM      8  C6  OXE d   1       0.959   2.488   0.792  0.00  0.00     0.003 A 
ENDROOT
TORSDOF 0
ENDMDL
