MODEL 1
REMARK minimizedAffinity -4.68798828
REMARK minimizedRMSD -1
REMARK  0 active torsions:
REMARK  status: ('A' for Active; 'I' for Inactive)
ROOT
ATOM      1  C2' OXE d   1       0.231   0.273  -1.854  0.00  0.00     0.078 C 
ATOM      2  C1' OXE d   1       0.629   1.546   0.616  0.00  0.00     0.078 C 
ATOM      3  C1  OXE d   1       0.001   0.175   0.625  0.00  0.00    -0.078 A 
ATOM      4  C2  OXE d   1      -0.232  -0.421  -0.591  0.00  0.00    -0.078 A 
ATOM      5  C3  OXE d   1      -0.759  -1.709  -0.638  0.00  0.00     0.003 A 
ATOM      6  C4  OXE d   1      -1.194  -2.340   0.534  0.00  0.00    -0.002 A 
ATOM      7  C5  OXE d   1      -1.002  -1.733   1.780  0.00  0.00    -0.002 A 
ATOM      8  C6  OXE d   1      -0.368  -0.497   1.846  0.00  0.00     0.003 A 
ENDROOT
TORSDOF 0
ENDMDL
