MODEL 1
REMARK minimizedAffinity -1.56027138
REMARK minimizedRMSD -1
REMARK  0 active torsions:
REMARK  status: ('A' for Active; 'I' for Inactive)
ROOT
ATOM      1  C2' OXE d   1      -2.037   1.514   2.428  0.00  0.00     0.078 C 
ATOM      2  C1' OXE d   1      -0.509   3.303   0.897  0.00  0.00     0.078 C 
ATOM      3  C1  OXE d   1      -0.502   1.850   0.495  0.00  0.00    -0.078 A 
ATOM      4  C2  OXE d   1      -1.215   0.974   1.278  0.00  0.00    -0.078 A 
ATOM      5  C3  OXE d   1      -1.287  -0.369   0.919  0.00  0.00     0.003 A 
ATOM      6  C4  OXE d   1      -0.516  -0.863  -0.141  0.00  0.00    -0.002 A 
ATOM      7  C5  OXE d   1       0.248   0.006  -0.926  0.00  0.00    -0.002 A 
ATOM      8  C6  OXE d   1       0.233   1.369  -0.649  0.00  0.00     0.003 A 
ENDROOT
TORSDOF 0
ENDMDL
