MODEL 1
REMARK minimizedAffinity 1.88142943
REMARK minimizedRMSD -1
REMARK  0 active torsions:
REMARK  status: ('A' for Active; 'I' for Inactive)
ROOT
ATOM      1  C1  DEN d   1       2.892   0.469   0.714  0.00  0.00     0.130 A 
ATOM      2  C2  DEN d   1       2.737  -0.117  -0.615  0.00  0.00    -0.031 A 
ATOM      3  C3  DEN d   1       1.695   0.646  -1.331  0.00  0.00     0.027 A 
ATOM      4  C4  DEN d   1       0.318   2.670  -0.518  0.00  0.00     0.027 A 
ATOM      5  C5  DEN d   1       0.088   3.518   0.543  0.00  0.00    -0.003 A 
ATOM      6  C6  DEN d   1       0.747   3.389   1.737  0.00  0.00     0.001 A 
ATOM      7  C7  DEN d   1       1.701   2.418   1.884  0.00  0.00     0.017 A 
ATOM      8  C8  DEN d   1       1.933   1.554   0.821  0.00  0.00    -0.094 A 
ATOM      9  C9  DEN d   1       1.265   1.708  -0.381  0.00  0.00    -0.072 A 
ENDROOT
TORSDOF 0
ENDMDL
