MODEL 1
REMARK minimizedAffinity 7.17525721
REMARK minimizedRMSD -1
REMARK  0 active torsions:
REMARK  status: ('A' for Active; 'I' for Inactive)
ROOT
ATOM      1  C1  DEN d   1       2.191   0.298  -0.264  0.00  0.00     0.130 A 
ATOM      2  C2  DEN d   1       1.611  -0.883   0.370  0.00  0.00    -0.031 A 
ATOM      3  C3  DEN d   1       0.327  -0.488   0.984  0.00  0.00     0.027 A 
ATOM      4  C4  DEN d   1      -0.816   1.824   1.008  0.00  0.00     0.027 A 
ATOM      5  C5  DEN d   1      -0.700   3.138   0.611  0.00  0.00    -0.003 A 
ATOM      6  C6  DEN d   1       0.395   3.601  -0.071  0.00  0.00     0.001 A 
ATOM      7  C7  DEN d   1       1.397   2.733  -0.415  0.00  0.00     0.017 A 
ATOM      8  C8  DEN d   1       1.290   1.409  -0.012  0.00  0.00    -0.094 A 
ATOM      9  C9  DEN d   1       0.171   0.957   0.666  0.00  0.00    -0.072 A 
ENDROOT
TORSDOF 0
ENDMDL
