MODEL 1
REMARK minimizedAffinity 12.0434914
REMARK minimizedRMSD -1
REMARK  0 active torsions:
REMARK  status: ('A' for Active; 'I' for Inactive)
ROOT
ATOM      1  C1  DEN d   1      -3.785   2.621   0.360  0.00  0.00     0.130 A 
ATOM      2  C2  DEN d   1      -4.566   1.418   0.636  0.00  0.00    -0.031 A 
ATOM      3  C3  DEN d   1      -3.691   0.458   1.340  0.00  0.00     0.027 A 
ATOM      4  C4  DEN d   1      -1.219   0.719   2.029  0.00  0.00     0.027 A 
ATOM      5  C5  DEN d   1      -0.129   1.560   2.000  0.00  0.00    -0.003 A 
ATOM      6  C6  DEN d   1      -0.170   2.789   1.397  0.00  0.00     0.001 A 
ATOM      7  C7  DEN d   1      -1.339   3.231   0.838  0.00  0.00     0.017 A 
ATOM      8  C8  DEN d   1      -2.441   2.387   0.857  0.00  0.00    -0.094 A 
ATOM      9  C9  DEN d   1      -2.383   1.153   1.482  0.00  0.00    -0.072 A 
ENDROOT
TORSDOF 0
ENDMDL
