MODEL 1
REMARK minimizedAffinity 1.64014208
REMARK minimizedRMSD -1
REMARK  0 active torsions:
REMARK  status: ('A' for Active; 'I' for Inactive)
ROOT
ATOM      1  C1  DEN d   1       3.133   3.670   0.685  0.00  0.00     0.130 A 
ATOM      2  C2  DEN d   1       4.074   2.621   1.070  0.00  0.00    -0.031 A 
ATOM      3  C3  DEN d   1       3.326   1.352   1.172  0.00  0.00     0.027 A 
ATOM      4  C4  DEN d   1       0.817   0.910   0.769  0.00  0.00     0.027 A 
ATOM      5  C5  DEN d   1      -0.386   1.492   0.436  0.00  0.00    -0.003 A 
ATOM      6  C6  DEN d   1      -0.505   2.836   0.197  0.00  0.00     0.001 A 
ATOM      7  C7  DEN d   1       0.606   3.635   0.245  0.00  0.00     0.017 A 
ATOM      8  C8  DEN d   1       1.821   3.057   0.588  0.00  0.00    -0.094 A 
ATOM      9  C9  DEN d   1       1.924   1.695   0.813  0.00  0.00    -0.072 A 
ENDROOT
TORSDOF 0
ENDMDL
