MODEL 1
REMARK minimizedAffinity 8.94106007
REMARK minimizedRMSD -1
REMARK  0 active torsions:
REMARK  status: ('A' for Active; 'I' for Inactive)
ROOT
ATOM      1  C1  DEN d   1       2.131   1.371   0.215  0.00  0.00     0.130 A 
ATOM      2  C2  DEN d   1       2.461   2.767  -0.061  0.00  0.00    -0.031 A 
ATOM      3  C3  DEN d   1       1.380   3.609   0.489  0.00  0.00     0.027 A 
ATOM      4  C4  DEN d   1      -0.759   2.892   1.740  0.00  0.00     0.027 A 
ATOM      5  C5  DEN d   1      -1.480   1.814   2.203  0.00  0.00    -0.003 A 
ATOM      6  C6  DEN d   1      -1.070   0.522   2.007  0.00  0.00     0.001 A 
ATOM      7  C7  DEN d   1       0.118   0.276   1.370  0.00  0.00     0.017 A 
ATOM      8  C8  DEN d   1       0.848   1.358   0.895  0.00  0.00    -0.094 A 
ATOM      9  C9  DEN d   1       0.422   2.657   1.113  0.00  0.00    -0.072 A 
ENDROOT
TORSDOF 0
ENDMDL
