MODEL 1
REMARK minimizedAffinity 5.78128338
REMARK minimizedRMSD -1
REMARK  0 active torsions:
REMARK  status: ('A' for Active; 'I' for Inactive)
ROOT
ATOM      1  C1  DEN d   1      -5.935   4.202  -3.468  0.00  0.00     0.130 A 
ATOM      2  C2  DEN d   1      -5.994   5.655  -3.332  0.00  0.00    -0.031 A 
ATOM      3  C3  DEN d   1      -5.999   5.978  -1.891  0.00  0.00     0.027 A 
ATOM      4  C4  DEN d   1      -5.916   4.380   0.131  0.00  0.00     0.027 A 
ATOM      5  C5  DEN d   1      -5.871   3.058   0.516  0.00  0.00    -0.003 A 
ATOM      6  C6  DEN d   1      -5.878   2.032  -0.392  0.00  0.00     0.001 A 
ATOM      7  C7  DEN d   1      -5.886   2.313  -1.733  0.00  0.00     0.017 A 
ATOM      8  C8  DEN d   1      -5.939   3.643  -2.128  0.00  0.00    -0.094 A 
ATOM      9  C9  DEN d   1      -5.919   4.666  -1.195  0.00  0.00    -0.072 A 
ENDROOT
TORSDOF 0
ENDMDL
