MODEL 1
REMARK minimizedAffinity 4.25799847
REMARK minimizedRMSD -1
REMARK  0 active torsions:
REMARK  status: ('A' for Active; 'I' for Inactive)
ROOT
ATOM      1  C1  DEN d   1      -0.880   3.522   0.224  0.00  0.00     0.130 A 
ATOM      2  C2  DEN d   1      -2.275   3.101   0.325  0.00  0.00    -0.031 A 
ATOM      3  C3  DEN d   1      -2.294   1.663   0.660  0.00  0.00     0.027 A 
ATOM      4  C4  DEN d   1      -0.311   0.057   1.035  0.00  0.00     0.027 A 
ATOM      5  C5  DEN d   1       1.063  -0.047   1.046  0.00  0.00    -0.003 A 
ATOM      6  C6  DEN d   1       1.878   1.013   0.752  0.00  0.00     0.001 A 
ATOM      7  C7  DEN d   1       1.327   2.238   0.479  0.00  0.00     0.017 A 
ATOM      8  C8  DEN d   1      -0.057   2.349   0.460  0.00  0.00    -0.094 A 
ATOM      9  C9  DEN d   1      -0.864   1.268   0.771  0.00  0.00    -0.072 A 
ENDROOT
TORSDOF 0
ENDMDL
