MODEL 1
REMARK minimizedAffinity 8.47878361
REMARK minimizedRMSD -1
REMARK  0 active torsions:
REMARK  status: ('A' for Active; 'I' for Inactive)
ROOT
ATOM      1  C1  DEN d   1       2.697   1.457  -0.431  0.00  0.00     0.130 A 
ATOM      2  C2  DEN d   1       2.552   0.836   0.882  0.00  0.00    -0.031 A 
ATOM      3  C3  DEN d   1       2.024  -0.529   0.686  0.00  0.00     0.027 A 
ATOM      4  C4  DEN d   1       1.427  -1.737  -1.514  0.00  0.00     0.027 A 
ATOM      5  C5  DEN d   1       1.371  -1.611  -2.884  0.00  0.00    -0.003 A 
ATOM      6  C6  DEN d   1       1.718  -0.451  -3.526  0.00  0.00     0.001 A 
ATOM      7  C7  DEN d   1       2.180   0.614  -2.799  0.00  0.00     0.017 A 
ATOM      8  C8  DEN d   1       2.233   0.497  -1.416  0.00  0.00    -0.094 A 
ATOM      9  C9  DEN d   1       1.889  -0.688  -0.787  0.00  0.00    -0.072 A 
ENDROOT
TORSDOF 0
ENDMDL
