MODEL 1
REMARK minimizedAffinity 0.107507259
REMARK minimizedRMSD -1
REMARK  0 active torsions:
REMARK  status: ('A' for Active; 'I' for Inactive)
ROOT
ATOM      1  C1  DEN d   1      -0.155   3.659   0.669  0.00  0.00     0.130 A 
ATOM      2  C2  DEN d   1      -1.481   3.049   0.731  0.00  0.00    -0.031 A 
ATOM      3  C3  DEN d   1      -1.308   1.584   0.777  0.00  0.00     0.027 A 
ATOM      4  C4  DEN d   1       0.872   0.205   0.764  0.00  0.00     0.027 A 
ATOM      5  C5  DEN d   1       2.246   0.279   0.708  0.00  0.00    -0.003 A 
ATOM      6  C6  DEN d   1       2.910   1.473   0.602  0.00  0.00     0.001 A 
ATOM      7  C7  DEN d   1       2.201   2.645   0.594  0.00  0.00     0.017 A 
ATOM      8  C8  DEN d   1       0.815   2.578   0.642  0.00  0.00    -0.094 A 
ATOM      9  C9  DEN d   1       0.163   1.363   0.761  0.00  0.00    -0.072 A 
ENDROOT
TORSDOF 0
ENDMDL
