MODEL 1
REMARK minimizedAffinity 5.993783
REMARK minimizedRMSD -1
REMARK  0 active torsions:
REMARK  status: ('A' for Active; 'I' for Inactive)
ROOT
ATOM      1  C1  DEN d   1       0.656   2.942   1.070  0.00  0.00     0.130 A 
ATOM      2  C2  DEN d   1      -0.739   2.520   0.976  0.00  0.00    -0.031 A 
ATOM      3  C3  DEN d   1      -0.759   1.071   0.692  0.00  0.00     0.027 A 
ATOM      4  C4  DEN d   1       1.223  -0.553   0.396  0.00  0.00     0.027 A 
ATOM      5  C5  DEN d   1       2.596  -0.656   0.376  0.00  0.00    -0.003 A 
ATOM      6  C6  DEN d   1       3.412   0.430   0.551  0.00  0.00     0.001 A 
ATOM      7  C7  DEN d   1       2.862   1.660   0.798  0.00  0.00     0.017 A 
ATOM      8  C8  DEN d   1       1.478   1.773   0.813  0.00  0.00    -0.094 A 
ATOM      9  C9  DEN d   1       0.670   0.661   0.646  0.00  0.00    -0.072 A 
ENDROOT
TORSDOF 0
ENDMDL
