MODEL 1
REMARK minimizedAffinity 3.55175424
REMARK minimizedRMSD -1
REMARK  0 active torsions:
REMARK  status: ('A' for Active; 'I' for Inactive)
ROOT
ATOM      1  C1  DEN d   1      -0.606   1.513   1.502  0.00  0.00     0.130 A 
ATOM      2  C2  DEN d   1      -1.922   2.005   1.105  0.00  0.00    -0.031 A 
ATOM      3  C3  DEN d   1      -1.726   3.186   0.239  0.00  0.00     0.027 A 
ATOM      4  C4  DEN d   1       0.476   4.290  -0.525  0.00  0.00     0.027 A 
ATOM      5  C5  DEN d   1       1.850   4.234  -0.435  0.00  0.00    -0.003 A 
ATOM      6  C6  DEN d   1       2.495   3.297   0.327  0.00  0.00     0.001 A 
ATOM      7  C7  DEN d   1       1.767   2.348   0.995  0.00  0.00     0.017 A 
ATOM      8  C8  DEN d   1       0.382   2.401   0.915  0.00  0.00    -0.094 A 
ATOM      9  C9  DEN d   1      -0.251   3.349   0.129  0.00  0.00    -0.072 A 
ENDROOT
TORSDOF 0
ENDMDL
