MODEL 1
REMARK minimizedAffinity 6.29404831
REMARK minimizedRMSD -1
REMARK  0 active torsions:
REMARK  status: ('A' for Active; 'I' for Inactive)
ROOT
ATOM      1  C1  DEN d   1       1.563   2.030   0.071  0.00  0.00     0.130 A 
ATOM      2  C2  DEN d   1       1.846   0.613   0.283  0.00  0.00    -0.031 A 
ATOM      3  C3  DEN d   1       0.611  -0.030   0.777  0.00  0.00     0.027 A 
ATOM      4  C4  DEN d   1      -1.699   1.025   1.228  0.00  0.00     0.027 A 
ATOM      5  C5  DEN d   1      -2.420   2.198   1.207  0.00  0.00    -0.003 A 
ATOM      6  C6  DEN d   1      -1.861   3.393   0.842  0.00  0.00     0.001 A 
ATOM      7  C7  DEN d   1      -0.552   3.435   0.439  0.00  0.00     0.017 A 
ATOM      8  C8  DEN d   1       0.184   2.258   0.464  0.00  0.00    -0.094 A 
ATOM      9  C9  DEN d   1      -0.403   1.057   0.825  0.00  0.00    -0.072 A 
ENDROOT
TORSDOF 0
ENDMDL
