MODEL 1
REMARK minimizedAffinity 8.46051884
REMARK minimizedRMSD -1
REMARK  0 active torsions:
REMARK  status: ('A' for Active; 'I' for Inactive)
ROOT
ATOM      1  C1  DEN d   1       0.375   2.637   0.854  0.00  0.00     0.130 A 
ATOM      2  C2  DEN d   1      -0.946   2.747   1.465  0.00  0.00    -0.031 A 
ATOM      3  C3  DEN d   1      -1.418   1.384   1.780  0.00  0.00     0.027 A 
ATOM      4  C4  DEN d   1      -0.234  -0.874   1.389  0.00  0.00     0.027 A 
ATOM      5  C5  DEN d   1       0.900  -1.475   0.888  0.00  0.00    -0.003 A 
ATOM      6  C6  DEN d   1       1.915  -0.756   0.314  0.00  0.00     0.001 A 
ATOM      7  C7  DEN d   1       1.836   0.611   0.268  0.00  0.00     0.017 A 
ATOM      8  C8  DEN d   1       0.693   1.223   0.765  0.00  0.00    -0.094 A 
ATOM      9  C9  DEN d   1      -0.317   0.480   1.352  0.00  0.00    -0.072 A 
ENDROOT
TORSDOF 0
ENDMDL
