MODEL 1
REMARK minimizedAffinity 12.2041769
REMARK minimizedRMSD -1
REMARK  0 active torsions:
REMARK  status: ('A' for Active; 'I' for Inactive)
ROOT
ATOM      1  C1  DEN d   1       2.802   1.808   1.207  0.00  0.00     0.130 A 
ATOM      2  C2  DEN d   1       3.892   2.321   0.381  0.00  0.00    -0.031 A 
ATOM      3  C3  DEN d   1       3.319   3.271  -0.593  0.00  0.00     0.027 A 
ATOM      4  C4  DEN d   1       0.863   3.999  -0.898  0.00  0.00     0.027 A 
ATOM      5  C5  DEN d   1      -0.424   3.826  -0.439  0.00  0.00    -0.003 A 
ATOM      6  C6  DEN d   1      -0.728   2.950   0.570  0.00  0.00     0.001 A 
ATOM      7  C7  DEN d   1       0.274   2.247   1.183  0.00  0.00     0.017 A 
ATOM      8  C8  DEN d   1       1.574   2.410   0.721  0.00  0.00    -0.094 A 
ATOM      9  C9  DEN d   1       1.862   3.310  -0.291  0.00  0.00    -0.072 A 
ENDROOT
TORSDOF 0
ENDMDL
