MODEL 1
REMARK minimizedAffinity 0.999092937
REMARK minimizedRMSD -1
REMARK  0 active torsions:
REMARK  status: ('A' for Active; 'I' for Inactive)
ROOT
ATOM      1  C   UNL d   1       0.879  -1.031   1.602  0.00  0.00     0.124 A 
ATOM      2  C1  UNL d   1       1.320  -0.959   0.287  0.00  0.00     0.062 A 
ATOM      3  C2  UNL d   1       0.523  -0.362  -0.686  0.00  0.00     0.162 A 
ATOM      4  C3  UNL d   1      -0.722   0.168  -0.349  0.00  0.00    -0.034 A 
ATOM      5  C4  UNL d   1      -1.159   0.091   0.975  0.00  0.00     0.162 A 
ATOM      6  C5  UNL d   1      -0.359  -0.506   1.944  0.00  0.00     0.062 A 
ATOM      7  F   UNL d   1      -0.786  -0.575   3.213  0.00  0.00    -0.097 F 
ATOM      8  F1  UNL d   1      -2.350   0.591   1.334  0.00  0.00    -0.096 F 
ATOM      9  I   UNL d   1      -1.915   1.061  -1.802  0.00  0.00    -0.060 I 
ATOM     10  F2  UNL d   1       0.974  -0.306  -1.948  0.00  0.00    -0.096 F 
ATOM     11  F3  UNL d   1       2.515  -1.466  -0.046  0.00  0.00    -0.097 F 
ATOM     12  F4  UNL d   1       1.647  -1.606   2.536  0.00  0.00    -0.092 F 
ENDROOT
TORSDOF 0
ENDMDL
