MODEL 1
REMARK minimizedAffinity 1.52817965
REMARK minimizedRMSD -1
REMARK  0 active torsions:
REMARK  status: ('A' for Active; 'I' for Inactive)
ROOT
ATOM      1  C   UNL d   1       0.686  -1.107   1.254  0.00  0.00     0.124 A 
ATOM      2  C1  UNL d   1       1.070  -1.258  -0.071  0.00  0.00     0.062 A 
ATOM      3  C2  UNL d   1       0.463  -0.499  -1.067  0.00  0.00     0.162 A 
ATOM      4  C3  UNL d   1      -0.535   0.419  -0.742  0.00  0.00    -0.034 A 
ATOM      5  C4  UNL d   1      -0.917   0.565   0.593  0.00  0.00     0.162 A 
ATOM      6  C5  UNL d   1      -0.307  -0.196   1.584  0.00  0.00     0.062 A 
ATOM      7  F   UNL d   1      -0.680  -0.049   2.864  0.00  0.00    -0.097 F 
ATOM      8  F1  UNL d   1      -1.874   1.439   0.941  0.00  0.00    -0.096 F 
ATOM      9  I   UNL d   1      -1.446   1.556  -2.228  0.00  0.00    -0.060 I 
ATOM     10  F2  UNL d   1       0.854  -0.666  -2.339  0.00  0.00    -0.096 F 
ATOM     11  F3  UNL d   1       2.029  -2.138  -0.394  0.00  0.00    -0.097 F 
ATOM     12  F4  UNL d   1       1.271  -1.840   2.210  0.00  0.00    -0.092 F 
ENDROOT
TORSDOF 0
ENDMDL
