MODEL 1
REMARK minimizedAffinity 0.955025971
REMARK minimizedRMSD -1
REMARK  0 active torsions:
REMARK  status: ('A' for Active; 'I' for Inactive)
ROOT
ATOM      1  C   UNL d   1       1.155  -0.976   2.705  0.00  0.00     0.124 A 
ATOM      2  C1  UNL d   1       1.937  -0.914   1.560  0.00  0.00     0.062 A 
ATOM      3  C2  UNL d   1       1.393  -0.456   0.364  0.00  0.00     0.162 A 
ATOM      4  C3  UNL d   1       0.058  -0.054   0.307  0.00  0.00    -0.034 A 
ATOM      5  C4  UNL d   1      -0.723  -0.120   1.462  0.00  0.00     0.162 A 
ATOM      6  C5  UNL d   1      -0.174  -0.579   2.655  0.00  0.00     0.062 A 
ATOM      7  F   UNL d   1      -0.931  -0.638   3.760  0.00  0.00    -0.097 F 
ATOM      8  F1  UNL d   1      -2.009   0.258   1.442  0.00  0.00    -0.096 F 
ATOM      9  I   UNL d   1      -0.760   0.632  -1.480  0.00  0.00    -0.060 I 
ATOM     10  F2  UNL d   1       2.172  -0.407  -0.726  0.00  0.00    -0.096 F 
ATOM     11  F3  UNL d   1       3.221  -1.298   1.606  0.00  0.00    -0.097 F 
ATOM     12  F4  UNL d   1       1.681  -1.418   3.854  0.00  0.00    -0.092 F 
ENDROOT
TORSDOF 0
ENDMDL
