MODEL 1
REMARK minimizedAffinity -1.53638983
REMARK minimizedRMSD -1
REMARK  0 active torsions:
REMARK  status: ('A' for Active; 'I' for Inactive)
ROOT
ATOM      1  C   UNL d   1       1.019  -1.147   2.395  0.00  0.00     0.124 A 
ATOM      2  C1  UNL d   1      -0.340  -0.870   2.431  0.00  0.00     0.062 A 
ATOM      3  C2  UNL d   1      -0.926  -0.105   1.427  0.00  0.00     0.162 A 
ATOM      4  C3  UNL d   1      -0.152   0.388   0.376  0.00  0.00    -0.034 A 
ATOM      5  C4  UNL d   1       1.215   0.106   0.347  0.00  0.00     0.162 A 
ATOM      6  C5  UNL d   1       1.795  -0.659   1.353  0.00  0.00     0.062 A 
ATOM      7  F   UNL d   1       3.109  -0.926   1.316  0.00  0.00    -0.097 F 
ATOM      8  F1  UNL d   1       1.988   0.565  -0.649  0.00  0.00    -0.096 F 
ATOM      9  I   UNL d   1      -1.024   1.533  -1.127  0.00  0.00    -0.060 I 
ATOM     10  F2  UNL d   1      -2.242   0.147   1.488  0.00  0.00    -0.096 F 
ATOM     11  F3  UNL d   1      -1.092  -1.340   3.437  0.00  0.00    -0.097 F 
ATOM     12  F4  UNL d   1       1.580  -1.883   3.363  0.00  0.00    -0.092 F 
ENDROOT
TORSDOF 0
ENDMDL
