MODEL 1
REMARK minimizedAffinity -0.861596286
REMARK minimizedRMSD -1
REMARK  0 active torsions:
REMARK  status: ('A' for Active; 'I' for Inactive)
ROOT
ATOM      1  C   UNL d   1       0.660  -1.264   2.336  0.00  0.00     0.124 A 
ATOM      2  C1  UNL d   1      -0.696  -1.138   2.072  0.00  0.00     0.062 A 
ATOM      3  C2  UNL d   1      -1.130  -0.399   0.975  0.00  0.00     0.162 A 
ATOM      4  C3  UNL d   1      -0.206   0.219   0.133  0.00  0.00    -0.034 A 
ATOM      5  C4  UNL d   1       1.157   0.089   0.406  0.00  0.00     0.162 A 
ATOM      6  C5  UNL d   1       1.586  -0.651   1.503  0.00  0.00     0.062 A 
ATOM      7  F   UNL d   1       2.897  -0.771   1.757  0.00  0.00    -0.097 F 
ATOM      8  F1  UNL d   1       2.073   0.670  -0.383  0.00  0.00    -0.096 F 
ATOM      9  I   UNL d   1      -0.851   1.325  -1.508  0.00  0.00    -0.060 I 
ATOM     10  F2  UNL d   1      -2.447  -0.295   0.744  0.00  0.00    -0.096 F 
ATOM     11  F3  UNL d   1      -1.592  -1.729   2.876  0.00  0.00    -0.097 F 
ATOM     12  F4  UNL d   1       1.075  -1.975   3.393  0.00  0.00    -0.092 F 
ENDROOT
TORSDOF 0
ENDMDL
