MODEL 1
REMARK minimizedAffinity -2.53035331
REMARK minimizedRMSD -1
REMARK  0 active torsions:
REMARK  status: ('A' for Active; 'I' for Inactive)
ROOT
ATOM      1  C   UNL d   1      -0.147  -0.253   2.485  0.00  0.00     0.124 A 
ATOM      2  C1  UNL d   1       1.165  -0.514   2.117  0.00  0.00     0.062 A 
ATOM      3  C2  UNL d   1       1.533  -0.493   0.775  0.00  0.00     0.162 A 
ATOM      4  C3  UNL d   1       0.587  -0.207  -0.210  0.00  0.00    -0.034 A 
ATOM      5  C4  UNL d   1      -0.731   0.054   0.168  0.00  0.00     0.162 A 
ATOM      6  C5  UNL d   1      -1.094   0.031   1.511  0.00  0.00     0.062 A 
ATOM      7  F   UNL d   1      -2.362   0.284   1.864  0.00  0.00    -0.097 F 
ATOM      8  F1  UNL d   1      -1.665   0.332  -0.753  0.00  0.00    -0.096 F 
ATOM      9  I   UNL d   1       1.134  -0.174  -2.218  0.00  0.00    -0.060 I 
ATOM     10  F2  UNL d   1       2.809  -0.750   0.448  0.00  0.00    -0.096 F 
ATOM     11  F3  UNL d   1       2.081  -0.790   3.056  0.00  0.00    -0.097 F 
ATOM     12  F4  UNL d   1      -0.499  -0.275   3.777  0.00  0.00    -0.092 F 
ENDROOT
TORSDOF 0
ENDMDL
