MODEL 1
REMARK minimizedAffinity -3.40725064
REMARK minimizedRMSD -1
REMARK  0 active torsions:
REMARK  status: ('A' for Active; 'I' for Inactive)
ROOT
ATOM      1  C   UNL d   1      -0.310  -0.520   2.187  0.00  0.00     0.124 A 
ATOM      2  C1  UNL d   1       1.000  -0.735   1.780  0.00  0.00     0.062 A 
ATOM      3  C2  UNL d   1       1.405  -0.365   0.501  0.00  0.00     0.162 A 
ATOM      4  C3  UNL d   1       0.499   0.224  -0.381  0.00  0.00    -0.034 A 
ATOM      5  C4  UNL d   1      -0.817   0.435   0.035  0.00  0.00     0.162 A 
ATOM      6  C5  UNL d   1      -1.216   0.064   1.314  0.00  0.00     0.062 A 
ATOM      7  F   UNL d   1      -2.482   0.272   1.706  0.00  0.00    -0.097 F 
ATOM      8  F1  UNL d   1      -1.713   0.999  -0.788  0.00  0.00    -0.096 F 
ATOM      9  I   UNL d   1       1.101   0.778  -2.295  0.00  0.00    -0.060 I 
ATOM     10  F2  UNL d   1       2.677  -0.584   0.135  0.00  0.00    -0.096 F 
ATOM     11  F3  UNL d   1       1.878  -1.300   2.621  0.00  0.00    -0.097 F 
ATOM     12  F4  UNL d   1      -0.697  -0.878   3.418  0.00  0.00    -0.092 F 
ENDROOT
TORSDOF 0
ENDMDL
