MODEL 1
REMARK minimizedAffinity -0.159569949
REMARK minimizedRMSD -1
REMARK  0 active torsions:
REMARK  status: ('A' for Active; 'I' for Inactive)
ROOT
ATOM      1  C   UNL d   1       0.211  -0.310  -1.625  0.00  0.00     0.124 A 
ATOM      2  C1  UNL d   1       1.445  -0.855  -1.300  0.00  0.00     0.062 A 
ATOM      3  C2  UNL d   1       1.790  -1.061   0.033  0.00  0.00     0.162 A 
ATOM      4  C3  UNL d   1       0.898  -0.722   1.051  0.00  0.00    -0.034 A 
ATOM      5  C4  UNL d   1      -0.341  -0.173   0.716  0.00  0.00     0.162 A 
ATOM      6  C5  UNL d   1      -0.681   0.031  -0.618  0.00  0.00     0.062 A 
ATOM      7  F   UNL d   1      -1.873   0.558  -0.930  0.00  0.00    -0.097 F 
ATOM      8  F1  UNL d   1      -1.222   0.164   1.669  0.00  0.00    -0.096 F 
ATOM      9  I   UNL d   1       1.410  -1.028   3.045  0.00  0.00    -0.060 I 
ATOM     10  F2  UNL d   1       2.989  -1.590   0.319  0.00  0.00    -0.096 F 
ATOM     11  F3  UNL d   1       2.308  -1.184  -2.271  0.00  0.00    -0.097 F 
ATOM     12  F4  UNL d   1      -0.118  -0.112  -2.908  0.00  0.00    -0.092 F 
ENDROOT
TORSDOF 0
ENDMDL
