MODEL 1
REMARK minimizedAffinity -2.26361465
REMARK minimizedRMSD -1
REMARK  0 active torsions:
REMARK  status: ('A' for Active; 'I' for Inactive)
ROOT
ATOM      1  C   UNL d   1      -0.068   0.667  -1.692  0.00  0.00     0.124 A 
ATOM      2  C1  UNL d   1       0.575  -0.554  -1.540  0.00  0.00     0.062 A 
ATOM      3  C2  UNL d   1       0.861  -1.041  -0.268  0.00  0.00     0.162 A 
ATOM      4  C3  UNL d   1       0.502  -0.308   0.863  0.00  0.00    -0.034 A 
ATOM      5  C4  UNL d   1      -0.143   0.919   0.703  0.00  0.00     0.162 A 
ATOM      6  C5  UNL d   1      -0.427   1.402  -0.570  0.00  0.00     0.062 A 
ATOM      7  F   UNL d   1      -1.048   2.581  -0.715  0.00  0.00    -0.097 F 
ATOM      8  F1  UNL d   1      -0.502   1.649   1.769  0.00  0.00    -0.096 F 
ATOM      9  I   UNL d   1       0.928  -1.034   2.767  0.00  0.00    -0.060 I 
ATOM     10  F2  UNL d   1       1.484  -2.224  -0.151  0.00  0.00    -0.096 F 
ATOM     11  F3  UNL d   1       0.924  -1.265  -2.622  0.00  0.00    -0.097 F 
ATOM     12  F4  UNL d   1      -0.341   1.134  -2.917  0.00  0.00    -0.092 F 
ENDROOT
TORSDOF 0
ENDMDL
