MODEL 1
REMARK minimizedAffinity -2.46928167
REMARK minimizedRMSD -1
REMARK  0 active torsions:
REMARK  status: ('A' for Active; 'I' for Inactive)
ROOT
ATOM      1  C   UNL d   1       1.207  -0.794   2.607  0.00  0.00     0.124 A 
ATOM      2  C1  UNL d   1      -0.132  -0.467   2.443  0.00  0.00     0.062 A 
ATOM      3  C2  UNL d   1      -0.628  -0.160   1.180  0.00  0.00     0.162 A 
ATOM      4  C3  UNL d   1       0.215  -0.178   0.069  0.00  0.00    -0.034 A 
ATOM      5  C4  UNL d   1       1.561  -0.507   0.242  0.00  0.00     0.162 A 
ATOM      6  C5  UNL d   1       2.052  -0.814   1.506  0.00  0.00     0.062 A 
ATOM      7  F   UNL d   1       3.346  -1.130   1.663  0.00  0.00    -0.097 F 
ATOM      8  F1  UNL d   1       2.400  -0.535  -0.805  0.00  0.00    -0.096 F 
ATOM      9  I   UNL d   1      -0.522   0.281  -1.822  0.00  0.00    -0.060 I 
ATOM     10  F2  UNL d   1      -1.926   0.153   1.051  0.00  0.00    -0.096 F 
ATOM     11  F3  UNL d   1      -0.950  -0.447   3.505  0.00  0.00    -0.097 F 
ATOM     12  F4  UNL d   1       1.682  -1.089   3.824  0.00  0.00    -0.092 F 
ENDROOT
TORSDOF 0
ENDMDL
