MODEL 1
REMARK minimizedAffinity -3.20621848
REMARK minimizedRMSD -1
REMARK  1 active torsions:
REMARK  status: ('A' for Active; 'I' for Inactive)
REMARK    1  A    between atoms: C1_2  and  C2_3 
ROOT
ATOM      1  C2  UNL d   1       0.216  -0.172   0.002  0.00  0.00    -0.076 A 
ATOM      2  C3  UNL d   1      -0.961   0.585  -0.138  0.00  0.00     0.004 A 
ATOM      3  C4  UNL d   1      -1.269   1.603   0.762  0.00  0.00    -0.003 A 
ATOM      4  C5  UNL d   1      -0.406   1.883   1.816  0.00  0.00     0.000 A 
ATOM      5  C6  UNL d   1       0.774   1.154   1.959  0.00  0.00     0.000 A 
ATOM      6  C7  UNL d   1       1.108   0.134   1.051  0.00  0.00    -0.073 A 
ATOM      7  C8  UNL d   1       2.391  -0.624   1.257  0.00  0.00     0.078 C 
ENDROOT
BRANCH   1   8
ATOM      8  C1  UNL d   1       0.484  -1.282  -0.989  0.00  0.00     0.053 C 
ATOM      9  C   UNL d   1      -0.393  -2.501  -0.749  0.00  0.00     0.018 C 
ENDBRANCH   1   8
TORSDOF 1
ENDMDL
