MODEL 1
REMARK minimizedAffinity -1.34770298
REMARK minimizedRMSD -1
REMARK  1 active torsions:
REMARK  status: ('A' for Active; 'I' for Inactive)
REMARK    1  A    between atoms: C1_2  and  C2_3 
ROOT
ATOM      1  C2  UNL d   1       0.532   0.306   0.427  0.00  0.00    -0.076 A 
ATOM      2  C3  UNL d   1       0.247   0.453   1.796  0.00  0.00     0.004 A 
ATOM      3  C4  UNL d   1      -0.447   1.566   2.268  0.00  0.00    -0.003 A 
ATOM      4  C5  UNL d   1      -0.868   2.549   1.379  0.00  0.00     0.000 A 
ATOM      5  C6  UNL d   1      -0.610   2.410   0.016  0.00  0.00     0.000 A 
ATOM      6  C7  UNL d   1       0.074   1.287  -0.478  0.00  0.00    -0.073 A 
ATOM      7  C8  UNL d   1       0.331   1.191  -1.957  0.00  0.00     0.078 C 
ENDROOT
BRANCH   1   8
ATOM      8  C1  UNL d   1       1.312  -0.909  -0.023  0.00  0.00     0.053 C 
ATOM      9  C   UNL d   1       2.792  -0.808   0.312  0.00  0.00     0.018 C 
ENDBRANCH   1   8
TORSDOF 1
ENDMDL
