MODEL 1
REMARK minimizedAffinity -1.2873224
REMARK minimizedRMSD -1
REMARK  1 active torsions:
REMARK  status: ('A' for Active; 'I' for Inactive)
REMARK    1  A    between atoms: C1_2  and  C2_3 
ROOT
ATOM      1  C2  UNL d   1      -0.013  -2.099  -1.365  0.00  0.00    -0.076 A 
ATOM      2  C3  UNL d   1       0.043  -1.224  -0.266  0.00  0.00     0.004 A 
ATOM      3  C4  UNL d   1       0.265   0.140  -0.446  0.00  0.00    -0.003 A 
ATOM      4  C5  UNL d   1       0.435   0.651  -1.728  0.00  0.00     0.000 A 
ATOM      5  C6  UNL d   1       0.365  -0.199  -2.831  0.00  0.00     0.000 A 
ATOM      6  C7  UNL d   1       0.125  -1.575  -2.668  0.00  0.00    -0.073 A 
ATOM      7  C8  UNL d   1       0.065  -2.447  -3.892  0.00  0.00     0.078 C 
ENDROOT
BRANCH   1   8
ATOM      8  C1  UNL d   1      -0.230  -3.573  -1.107  0.00  0.00     0.053 C 
ATOM      9  C   UNL d   1      -1.700  -3.962  -1.148  0.00  0.00     0.018 C 
ENDBRANCH   1   8
TORSDOF 1
ENDMDL
