MODEL 1
REMARK minimizedAffinity -3.00544262
REMARK minimizedRMSD -1
REMARK  1 active torsions:
REMARK  status: ('A' for Active; 'I' for Inactive)
REMARK    1  A    between atoms: C1_2  and  C2_3 
ROOT
ATOM      1  C2  UNL d   1       0.033  -0.153  -0.462  0.00  0.00    -0.076 A 
ATOM      2  C3  UNL d   1      -1.131   0.544  -0.829  0.00  0.00     0.004 A 
ATOM      3  C4  UNL d   1      -1.674   1.521   0.004  0.00  0.00    -0.003 A 
ATOM      4  C5  UNL d   1      -1.061   1.818   1.216  0.00  0.00     0.000 A 
ATOM      5  C6  UNL d   1       0.105   1.149   1.587  0.00  0.00     0.000 A 
ATOM      6  C7  UNL d   1       0.674   0.172   0.752  0.00  0.00    -0.073 A 
ATOM      7  C8  UNL d   1       1.929  -0.523   1.206  0.00  0.00     0.078 C 
ENDROOT
BRANCH   1   8
ATOM      8  C1  UNL d   1       0.560  -1.222  -1.393  0.00  0.00     0.053 C 
ATOM      9  C   UNL d   1      -0.345  -2.443  -1.450  0.00  0.00     0.018 C 
ENDBRANCH   1   8
TORSDOF 1
ENDMDL
