MODEL 1
REMARK minimizedAffinity 1.55770421
REMARK minimizedRMSD -1
REMARK  1 active torsions:
REMARK  status: ('A' for Active; 'I' for Inactive)
REMARK    1  A    between atoms: C1_2  and  C2_3 
ROOT
ATOM      1  C2  UNL d   1      -0.799  -0.160  -0.671  0.00  0.00    -0.076 A 
ATOM      2  C3  UNL d   1      -1.642   0.166   0.406  0.00  0.00     0.004 A 
ATOM      3  C4  UNL d   1      -2.168   1.450   0.543  0.00  0.00    -0.003 A 
ATOM      4  C5  UNL d   1      -1.860   2.428  -0.396  0.00  0.00     0.000 A 
ATOM      5  C6  UNL d   1      -1.040   2.117  -1.481  0.00  0.00     0.000 A 
ATOM      6  C7  UNL d   1      -0.515   0.824  -1.642  0.00  0.00    -0.073 A 
ATOM      7  C8  UNL d   1       0.369   0.546  -2.827  0.00  0.00     0.078 C 
ENDROOT
BRANCH   1   8
ATOM      8  C1  UNL d   1      -0.237  -1.561  -0.752  0.00  0.00     0.053 C 
ATOM      9  C   UNL d   1      -1.260  -2.572  -1.246  0.00  0.00     0.018 C 
ENDBRANCH   1   8
TORSDOF 1
ENDMDL
