MODEL 1
REMARK minimizedAffinity -1.36220801
REMARK minimizedRMSD -1
REMARK  0 active torsions:
REMARK  status: ('A' for Active; 'I' for Inactive)
ROOT
ATOM      1  C1  BNZ d   1       1.436  -2.484   2.006  0.00  0.00     0.000 A 
ATOM      2  C2  BNZ d   1       1.219  -1.160   2.282  0.00  0.00     0.000 A 
ATOM      3  C3  BNZ d   1       0.079  -0.755   2.918  0.00  0.00     0.000 A 
ATOM      4  C4  BNZ d   1      -0.860  -1.668   3.241  0.00  0.00     0.000 A 
ATOM      5  C5  BNZ d   1      -0.660  -3.005   2.962  0.00  0.00     0.000 A 
ATOM      6  C6  BNZ d   1       0.506  -3.414   2.356  0.00  0.00     0.000 A 
ENDROOT
TORSDOF 0
ENDMDL
