MODEL 1
REMARK minimizedAffinity -1.25750268
REMARK minimizedRMSD -1
REMARK  0 active torsions:
REMARK  status: ('A' for Active; 'I' for Inactive)
ROOT
ATOM      1  C1  BNZ d   1       0.253  -1.451   3.053  0.00  0.00     0.000 A 
ATOM      2  C2  BNZ d   1       1.501  -1.836   2.642  0.00  0.00     0.000 A 
ATOM      3  C3  BNZ d   1       1.823  -3.160   2.526  0.00  0.00     0.000 A 
ATOM      4  C4  BNZ d   1       0.911  -4.095   2.859  0.00  0.00     0.000 A 
ATOM      5  C5  BNZ d   1      -0.349  -3.723   3.284  0.00  0.00     0.000 A 
ATOM      6  C6  BNZ d   1      -0.682  -2.390   3.362  0.00  0.00     0.000 A 
ENDROOT
TORSDOF 0
ENDMDL
