MODEL 1
REMARK minimizedAffinity -2.98917699
REMARK minimizedRMSD -1
REMARK  0 active torsions:
REMARK  status: ('A' for Active; 'I' for Inactive)
ROOT
ATOM      1  C1  BNZ d   1      -3.227   5.370   4.646  0.00  0.00     0.000 A 
ATOM      2  C2  BNZ d   1      -2.840   4.108   5.010  0.00  0.00     0.000 A 
ATOM      3  C3  BNZ d   1      -3.724   3.066   4.971  0.00  0.00     0.000 A 
ATOM      4  C4  BNZ d   1      -5.003   3.295   4.608  0.00  0.00     0.000 A 
ATOM      5  C5  BNZ d   1      -5.411   4.564   4.248  0.00  0.00     0.000 A 
ATOM      6  C6  BNZ d   1      -4.508   5.602   4.250  0.00  0.00     0.000 A 
ENDROOT
TORSDOF 0
ENDMDL
