MODEL 1
REMARK minimizedAffinity 0.996364772
REMARK minimizedRMSD -1
REMARK  0 active torsions:
REMARK  status: ('A' for Active; 'I' for Inactive)
ROOT
ATOM      1  C1  BNZ d   1      -2.297   3.001  -3.445  0.00  0.00     0.000 A 
ATOM      2  C2  BNZ d   1      -2.221   1.901  -4.257  0.00  0.00     0.000 A 
ATOM      3  C3  BNZ d   1      -3.249   1.581  -5.099  0.00  0.00     0.000 A 
ATOM      4  C4  BNZ d   1      -4.366   2.337  -5.099  0.00  0.00     0.000 A 
ATOM      5  C5  BNZ d   1      -4.461   3.444  -4.279  0.00  0.00     0.000 A 
ATOM      6  C6  BNZ d   1      -3.409   3.785  -3.461  0.00  0.00     0.000 A 
ENDROOT
TORSDOF 0
ENDMDL
