MODEL 1
REMARK minimizedAffinity 6.73117495
REMARK minimizedRMSD -1
REMARK  0 active torsions:
REMARK  status: ('A' for Active; 'I' for Inactive)
ROOT
ATOM      1  C1  BNZ d   1       0.571  -0.568   2.668  0.00  0.00     0.000 A 
ATOM      2  C2  BNZ d   1       1.519  -1.199   1.907  0.00  0.00     0.000 A 
ATOM      3  C3  BNZ d   1       1.257  -2.406   1.323  0.00  0.00     0.000 A 
ATOM      4  C4  BNZ d   1       0.064  -3.000   1.534  0.00  0.00     0.000 A 
ATOM      5  C5  BNZ d   1      -0.898  -2.381   2.306  0.00  0.00     0.000 A 
ATOM      6  C6  BNZ d   1      -0.645  -1.147   2.861  0.00  0.00     0.000 A 
ENDROOT
TORSDOF 0
ENDMDL
