MODEL 1
REMARK minimizedAffinity 2.48064256
REMARK minimizedRMSD -1
REMARK  0 active torsions:
REMARK  status: ('A' for Active; 'I' for Inactive)
ROOT
ATOM      1  C1  BNZ d   1       2.388   4.830  -5.800  0.00  0.00     0.000 A 
ATOM      2  C2  BNZ d   1       3.077   3.661  -5.618  0.00  0.00     0.000 A 
ATOM      3  C3  BNZ d   1       4.443   3.650  -5.590  0.00  0.00     0.000 A 
ATOM      4  C4  BNZ d   1       5.120   4.801  -5.783  0.00  0.00     0.000 A 
ATOM      5  C5  BNZ d   1       4.440   5.987  -5.977  0.00  0.00     0.000 A 
ATOM      6  C6  BNZ d   1       3.064   6.000  -5.966  0.00  0.00     0.000 A 
ENDROOT
TORSDOF 0
ENDMDL
