MODEL 1
REMARK minimizedAffinity 5.53316212
REMARK minimizedRMSD -1
REMARK  0 active torsions:
REMARK  status: ('A' for Active; 'I' for Inactive)
ROOT
ATOM      1  C   UNL d   1      -0.065  -0.651  -1.448  0.00  0.00     0.124 A 
ATOM      2  C1  UNL d   1      -0.506  -0.276  -0.187  0.00  0.00     0.062 A 
ATOM      3  C2  UNL d   1       0.069   0.815   0.460  0.00  0.00     0.162 A 
ATOM      4  C3  UNL d   1       1.090   1.539  -0.155  0.00  0.00    -0.034 A 
ATOM      5  C4  UNL d   1       1.529   1.155  -1.423  0.00  0.00     0.162 A 
ATOM      6  C5  UNL d   1       0.952   0.065  -2.065  0.00  0.00     0.062 A 
ATOM      7  F   UNL d   1       1.379  -0.297  -3.284  0.00  0.00    -0.097 F 
ATOM      8  F1  UNL d   1       2.509   1.830  -2.042  0.00  0.00    -0.096 F 
ATOM      9  I   UNL d   1       1.951   3.171   0.809  0.00  0.00    -0.060 I 
ATOM     10  F2  UNL d   1      -0.377   1.155   1.678  0.00  0.00    -0.096 F 
ATOM     11  F3  UNL d   1      -1.487  -0.966   0.412  0.00  0.00    -0.097 F 
ATOM     12  F4  UNL d   1      -0.618  -1.702  -2.067  0.00  0.00    -0.092 F 
ENDROOT
TORSDOF 0
ENDMDL
