MODEL 1
REMARK minimizedAffinity 11.3666782
REMARK minimizedRMSD -1
REMARK  0 active torsions:
REMARK  status: ('A' for Active; 'I' for Inactive)
ROOT
ATOM      1  C   UNL d   1       3.357   3.144  -0.070  0.00  0.00     0.124 A 
ATOM      2  C1  UNL d   1       3.014   2.098  -0.915  0.00  0.00     0.062 A 
ATOM      3  C2  UNL d   1       2.080   1.148  -0.510  0.00  0.00     0.162 A 
ATOM      4  C3  UNL d   1       1.483   1.241   0.747  0.00  0.00    -0.034 A 
ATOM      5  C4  UNL d   1       1.834   2.295   1.592  0.00  0.00     0.162 A 
ATOM      6  C5  UNL d   1       2.767   3.242   1.182  0.00  0.00     0.062 A 
ATOM      7  F   UNL d   1       3.098   4.251   2.000  0.00  0.00    -0.097 F 
ATOM      8  F1  UNL d   1       1.279   2.414   2.807  0.00  0.00    -0.096 F 
ATOM      9  I   UNL d   1       0.086  -0.177   1.357  0.00  0.00    -0.060 I 
ATOM     10  F2  UNL d   1       1.767   0.148  -1.347  0.00  0.00    -0.096 F 
ATOM     11  F3  UNL d   1       3.583   2.001  -2.126  0.00  0.00    -0.097 F 
ATOM     12  F4  UNL d   1       4.256   4.056  -0.463  0.00  0.00    -0.092 F 
ENDROOT
TORSDOF 0
ENDMDL
