MODEL 1
REMARK minimizedAffinity 2.31661725
REMARK minimizedRMSD -1
REMARK  0 active torsions:
REMARK  status: ('A' for Active; 'I' for Inactive)
ROOT
ATOM      1  C   UNL d   1      -0.620  -0.567   1.112  0.00  0.00     0.124 A 
ATOM      2  C1  UNL d   1       0.114   0.369   0.396  0.00  0.00     0.062 A 
ATOM      3  C2  UNL d   1       0.586   0.063  -0.877  0.00  0.00     0.162 A 
ATOM      4  C3  UNL d   1       0.325  -1.185  -1.443  0.00  0.00    -0.034 A 
ATOM      5  C4  UNL d   1      -0.413  -2.121  -0.717  0.00  0.00     0.162 A 
ATOM      6  C5  UNL d   1      -0.883  -1.811   0.555  0.00  0.00     0.062 A 
ATOM      7  F   UNL d   1      -1.591  -2.716   1.245  0.00  0.00    -0.097 F 
ATOM      8  F1  UNL d   1      -0.682  -3.330  -1.232  0.00  0.00    -0.096 F 
ATOM      9  I   UNL d   1       1.030  -1.646  -3.346  0.00  0.00    -0.060 I 
ATOM     10  F2  UNL d   1       1.292   0.986  -1.545  0.00  0.00    -0.096 F 
ATOM     11  F3  UNL d   1       0.369   1.571   0.933  0.00  0.00    -0.097 F 
ATOM     12  F4  UNL d   1      -1.073  -0.270   2.337  0.00  0.00    -0.092 F 
ENDROOT
TORSDOF 0
ENDMDL
