MODEL 1
REMARK minimizedAffinity 10.8059816
REMARK minimizedRMSD -1
REMARK  0 active torsions:
REMARK  status: ('A' for Active; 'I' for Inactive)
ROOT
ATOM      1  C   UNL d   1      -1.486  -1.983   0.459  0.00  0.00     0.124 A 
ATOM      2  C1  UNL d   1      -1.710  -1.408   1.703  0.00  0.00     0.062 A 
ATOM      3  C2  UNL d   1      -1.292  -0.105   1.958  0.00  0.00     0.162 A 
ATOM      4  C3  UNL d   1      -0.645   0.633   0.967  0.00  0.00    -0.034 A 
ATOM      5  C4  UNL d   1      -0.422   0.048  -0.281  0.00  0.00     0.162 A 
ATOM      6  C5  UNL d   1      -0.842  -1.255  -0.531  0.00  0.00     0.062 A 
ATOM      7  F   UNL d   1      -0.623  -1.808  -1.733  0.00  0.00    -0.097 F 
ATOM      8  F1  UNL d   1       0.197   0.729  -1.257  0.00  0.00    -0.096 F 
ATOM      9  I   UNL d   1      -0.018   2.581   1.344  0.00  0.00    -0.060 I 
ATOM     10  F2  UNL d   1      -1.523   0.425   3.168  0.00  0.00    -0.096 F 
ATOM     11  F3  UNL d   1      -2.332  -2.110   2.662  0.00  0.00    -0.097 F 
ATOM     12  F4  UNL d   1      -1.888  -3.237   0.217  0.00  0.00    -0.092 F 
ENDROOT
TORSDOF 0
ENDMDL
