MODEL 1
REMARK minimizedAffinity 7.92561722
REMARK minimizedRMSD -1
REMARK  0 active torsions:
REMARK  status: ('A' for Active; 'I' for Inactive)
ROOT
ATOM      1  C   UNL d   1       0.340   0.202  -1.169  0.00  0.00     0.124 A 
ATOM      2  C1  UNL d   1      -0.451   0.888  -0.257  0.00  0.00     0.062 A 
ATOM      3  C2  UNL d   1       0.088   1.932   0.489  0.00  0.00     0.162 A 
ATOM      4  C3  UNL d   1       1.424   2.298   0.326  0.00  0.00    -0.034 A 
ATOM      5  C4  UNL d   1       2.213   1.603  -0.592  0.00  0.00     0.162 A 
ATOM      6  C5  UNL d   1       1.670   0.560  -1.335  0.00  0.00     0.062 A 
ATOM      7  F   UNL d   1       2.435  -0.102  -2.216  0.00  0.00    -0.097 F 
ATOM      8  F1  UNL d   1       3.501   1.928  -0.774  0.00  0.00    -0.096 F 
ATOM      9  I   UNL d   1       2.232   3.859   1.440  0.00  0.00    -0.060 I 
ATOM     10  F2  UNL d   1      -0.699   2.578   1.363  0.00  0.00    -0.096 F 
ATOM     11  F3  UNL d   1      -1.736   0.543  -0.093  0.00  0.00    -0.097 F 
ATOM     12  F4  UNL d   1      -0.181  -0.803  -1.885  0.00  0.00    -0.092 F 
ENDROOT
TORSDOF 0
ENDMDL
