MODEL 1
REMARK minimizedAffinity 6.78547764
REMARK minimizedRMSD -1
REMARK  0 active torsions:
REMARK  status: ('A' for Active; 'I' for Inactive)
ROOT
ATOM      1  C   UNL d   1      -0.726  -1.625   0.004  0.00  0.00     0.124 A 
ATOM      2  C1  UNL d   1      -0.582  -1.101   1.281  0.00  0.00     0.062 A 
ATOM      3  C2  UNL d   1       0.217   0.020   1.491  0.00  0.00     0.162 A 
ATOM      4  C3  UNL d   1       0.876   0.625   0.421  0.00  0.00    -0.034 A 
ATOM      5  C4  UNL d   1       0.727   0.091  -0.860  0.00  0.00     0.162 A 
ATOM      6  C5  UNL d   1      -0.072  -1.029  -1.065  0.00  0.00     0.062 A 
ATOM      7  F   UNL d   1      -0.210  -1.535  -2.299  0.00  0.00    -0.097 F 
ATOM      8  F1  UNL d   1       1.347   0.647  -1.911  0.00  0.00    -0.096 F 
ATOM      9  I   UNL d   1       2.071   2.301   0.731  0.00  0.00    -0.060 I 
ATOM     10  F2  UNL d   1       0.338   0.506   2.736  0.00  0.00    -0.096 F 
ATOM     11  F3  UNL d   1      -1.212  -1.675   2.316  0.00  0.00    -0.097 F 
ATOM     12  F4  UNL d   1      -1.494  -2.704  -0.195  0.00  0.00    -0.092 F 
ENDROOT
TORSDOF 0
ENDMDL
