MODEL 1
REMARK minimizedAffinity -3.58305216
REMARK minimizedRMSD -1
REMARK  0 active torsions:
REMARK  status: ('A' for Active; 'I' for Inactive)
ROOT
ATOM      1  C   UNL d   1      -1.272  -1.565   1.228  0.00  0.00     0.124 A 
ATOM      2  C1  UNL d   1      -1.189  -0.183   1.135  0.00  0.00     0.062 A 
ATOM      3  C2  UNL d   1      -0.373   0.406   0.173  0.00  0.00     0.162 A 
ATOM      4  C3  UNL d   1       0.366  -0.388  -0.705  0.00  0.00    -0.034 A 
ATOM      5  C4  UNL d   1       0.277  -1.778  -0.603  0.00  0.00     0.162 A 
ATOM      6  C5  UNL d   1      -0.540  -2.361   0.360  0.00  0.00     0.062 A 
ATOM      7  F   UNL d   1      -0.619  -3.697   0.449  0.00  0.00    -0.097 F 
ATOM      8  F1  UNL d   1       0.974  -2.571  -1.431  0.00  0.00    -0.096 F 
ATOM      9  I   UNL d   1       1.587   0.487  -2.144  0.00  0.00    -0.060 I 
ATOM     10  F2  UNL d   1      -0.311   1.744   0.105  0.00  0.00    -0.096 F 
ATOM     11  F3  UNL d   1      -1.895   0.589   1.974  0.00  0.00    -0.097 F 
ATOM     12  F4  UNL d   1      -2.058  -2.128   2.156  0.00  0.00    -0.092 F 
ENDROOT
TORSDOF 0
ENDMDL
