MODEL 1
REMARK minimizedAffinity 5.01693153
REMARK minimizedRMSD -1
REMARK  0 active torsions:
REMARK  status: ('A' for Active; 'I' for Inactive)
ROOT
ATOM      1  C   UNL d   1       1.087  -1.802  -1.461  0.00  0.00     0.124 A 
ATOM      2  C1  UNL d   1       0.809  -0.442  -1.438  0.00  0.00     0.062 A 
ATOM      3  C2  UNL d   1      -0.235   0.046  -0.659  0.00  0.00     0.162 A 
ATOM      4  C3  UNL d   1      -1.009  -0.826   0.107  0.00  0.00    -0.034 A 
ATOM      5  C4  UNL d   1      -0.725  -2.193   0.078  0.00  0.00     0.162 A 
ATOM      6  C5  UNL d   1       0.320  -2.676  -0.703  0.00  0.00     0.062 A 
ATOM      7  F   UNL d   1       0.587  -3.990  -0.724  0.00  0.00    -0.097 F 
ATOM      8  F1  UNL d   1      -1.449  -3.059   0.801  0.00  0.00    -0.096 F 
ATOM      9  I   UNL d   1      -2.572  -0.100   1.274  0.00  0.00    -0.060 I 
ATOM     10  F2  UNL d   1      -0.481   1.364  -0.656  0.00  0.00    -0.096 F 
ATOM     11  F3  UNL d   1       1.548   0.404  -2.171  0.00  0.00    -0.097 F 
ATOM     12  F4  UNL d   1       2.092  -2.269  -2.213  0.00  0.00    -0.092 F 
ENDROOT
TORSDOF 0
ENDMDL
