MODEL 1
REMARK minimizedAffinity 5.29475927
REMARK minimizedRMSD -1
REMARK  0 active torsions:
REMARK  status: ('A' for Active; 'I' for Inactive)
ROOT
ATOM      1  C   UNL d   1      -0.445  -2.201  -0.247  0.00  0.00     0.124 A 
ATOM      2  C1  UNL d   1       0.217  -1.395  -1.163  0.00  0.00     0.062 A 
ATOM      3  C2  UNL d   1       0.776  -0.187  -0.757  0.00  0.00     0.162 A 
ATOM      4  C3  UNL d   1       0.676   0.223   0.573  0.00  0.00    -0.034 A 
ATOM      5  C4  UNL d   1       0.008  -0.593   1.488  0.00  0.00     0.162 A 
ATOM      6  C5  UNL d   1      -0.549  -1.799   1.077  0.00  0.00     0.062 A 
ATOM      7  F   UNL d   1      -1.188  -2.576   1.963  0.00  0.00    -0.097 F 
ATOM      8  F1  UNL d   1      -0.106  -0.229   2.774  0.00  0.00    -0.096 F 
ATOM      9  I   UNL d   1       1.511   2.028   1.184  0.00  0.00    -0.060 I 
ATOM     10  F2  UNL d   1       1.410   0.572  -1.663  0.00  0.00    -0.096 F 
ATOM     11  F3  UNL d   1       0.317  -1.781  -2.443  0.00  0.00    -0.097 F 
ATOM     12  F4  UNL d   1      -0.983  -3.362  -0.641  0.00  0.00    -0.092 F 
ENDROOT
TORSDOF 0
ENDMDL
