MODEL 1
REMARK minimizedAffinity -5.44611645
REMARK minimizedRMSD -1
REMARK  0 active torsions:
REMARK  status: ('A' for Active; 'I' for Inactive)
ROOT
ATOM      1  C   UNL d   1      -0.124  -3.066  -0.777  0.00  0.00     0.124 A 
ATOM      2  C1  UNL d   1       0.186  -2.336  -1.916  0.00  0.00     0.062 A 
ATOM      3  C2  UNL d   1       0.331  -0.953  -1.843  0.00  0.00     0.162 A 
ATOM      4  C3  UNL d   1       0.167  -0.291  -0.626  0.00  0.00    -0.034 A 
ATOM      5  C4  UNL d   1      -0.146  -1.032   0.515  0.00  0.00     0.162 A 
ATOM      6  C5  UNL d   1      -0.290  -2.414   0.437  0.00  0.00     0.062 A 
ATOM      7  F   UNL d   1      -0.590  -3.118   1.538  0.00  0.00    -0.097 F 
ATOM      8  F1  UNL d   1      -0.311  -0.428   1.701  0.00  0.00    -0.096 F 
ATOM      9  I   UNL d   1       0.382   1.775  -0.514  0.00  0.00    -0.060 I 
ATOM     10  F2  UNL d   1       0.631  -0.273  -2.960  0.00  0.00    -0.096 F 
ATOM     11  F3  UNL d   1       0.346  -2.963  -3.090  0.00  0.00    -0.097 F 
ATOM     12  F4  UNL d   1      -0.264  -4.396  -0.850  0.00  0.00    -0.092 F 
ENDROOT
TORSDOF 0
ENDMDL
