MODEL 1
REMARK minimizedAffinity 1.42612457
REMARK minimizedRMSD -1
REMARK  0 active torsions:
REMARK  status: ('A' for Active; 'I' for Inactive)
ROOT
ATOM      1  C   UNL d   1      -0.690  -2.381  -1.020  0.00  0.00     0.124 A 
ATOM      2  C1  UNL d   1      -1.034  -2.051   0.283  0.00  0.00     0.062 A 
ATOM      3  C2  UNL d   1      -0.789  -0.770   0.769  0.00  0.00     0.162 A 
ATOM      4  C3  UNL d   1      -0.198   0.192  -0.050  0.00  0.00    -0.034 A 
ATOM      5  C4  UNL d   1       0.147  -0.148  -1.359  0.00  0.00     0.162 A 
ATOM      6  C5  UNL d   1      -0.100  -1.429  -1.840  0.00  0.00     0.062 A 
ATOM      7  F   UNL d   1       0.234  -1.746  -3.100  0.00  0.00    -0.097 F 
ATOM      8  F1  UNL d   1       0.717   0.753  -2.173  0.00  0.00    -0.096 F 
ATOM      9  I   UNL d   1       0.170   2.109   0.673  0.00  0.00    -0.060 I 
ATOM     10  F2  UNL d   1      -1.133  -0.479   2.033  0.00  0.00    -0.096 F 
ATOM     11  F3  UNL d   1      -1.603  -2.969   1.077  0.00  0.00    -0.097 F 
ATOM     12  F4  UNL d   1      -0.926  -3.615  -1.485  0.00  0.00    -0.092 F 
ENDROOT
TORSDOF 0
ENDMDL
