MODEL 1
REMARK minimizedAffinity 12.8395205
REMARK minimizedRMSD -1
REMARK  0 active torsions:
REMARK  status: ('A' for Active; 'I' for Inactive)
ROOT
ATOM      1  C   UNL d   1      -0.512   0.192   1.549  0.00  0.00     0.124 A 
ATOM      2  C1  UNL d   1      -1.838   0.579   1.686  0.00  0.00     0.062 A 
ATOM      3  C2  UNL d   1      -2.857  -0.365   1.586  0.00  0.00     0.162 A 
ATOM      4  C3  UNL d   1      -2.554  -1.705   1.350  0.00  0.00    -0.034 A 
ATOM      5  C4  UNL d   1      -1.218  -2.087   1.212  0.00  0.00     0.162 A 
ATOM      6  C5  UNL d   1      -0.204  -1.140   1.312  0.00  0.00     0.062 A 
ATOM      7  F   UNL d   1       1.077  -1.516   1.180  0.00  0.00    -0.097 F 
ATOM      8  F1  UNL d   1      -0.891  -3.368   0.984  0.00  0.00    -0.096 F 
ATOM      9  I   UNL d   1      -4.074  -3.119   1.201  0.00  0.00    -0.060 I 
ATOM     10  F2  UNL d   1      -4.129   0.038   1.723  0.00  0.00    -0.096 F 
ATOM     11  F3  UNL d   1      -2.139   1.865   1.913  0.00  0.00    -0.097 F 
ATOM     12  F4  UNL d   1       0.466   1.102   1.644  0.00  0.00    -0.092 F 
ENDROOT
TORSDOF 0
ENDMDL
