MODEL 1
REMARK minimizedAffinity -1.54386437
REMARK minimizedRMSD -1
REMARK  0 active torsions:
REMARK  status: ('A' for Active; 'I' for Inactive)
ROOT
ATOM      1  C   UNL d   1       0.011  -3.873  -0.435  0.00  0.00     0.124 A 
ATOM      2  C1  UNL d   1       0.042  -3.149   0.749  0.00  0.00     0.062 A 
ATOM      3  C2  UNL d   1      -0.052  -1.761   0.724  0.00  0.00     0.162 A 
ATOM      4  C3  UNL d   1      -0.179  -1.086  -0.490  0.00  0.00    -0.034 A 
ATOM      5  C4  UNL d   1      -0.209  -1.820  -1.677  0.00  0.00     0.162 A 
ATOM      6  C5  UNL d   1      -0.115  -3.208  -1.647  0.00  0.00     0.062 A 
ATOM      7  F   UNL d   1      -0.145  -3.905  -2.792  0.00  0.00    -0.097 F 
ATOM      8  F1  UNL d   1      -0.331  -1.203  -2.862  0.00  0.00    -0.096 F 
ATOM      9  I   UNL d   1      -0.320   0.990  -0.532  0.00  0.00    -0.060 I 
ATOM     10  F2  UNL d   1      -0.019  -1.087   1.883  0.00  0.00    -0.096 F 
ATOM     11  F3  UNL d   1       0.164  -3.789   1.921  0.00  0.00    -0.097 F 
ATOM     12  F4  UNL d   1       0.102  -5.208  -0.408  0.00  0.00    -0.092 F 
ENDROOT
TORSDOF 0
ENDMDL
