MODEL 1
REMARK minimizedAffinity 4.62688541
REMARK minimizedRMSD -1
REMARK  0 active torsions:
REMARK  status: ('A' for Active; 'I' for Inactive)
ROOT
ATOM      1  C   UNL d   1      -1.573  -2.755   0.576  0.00  0.00     0.124 A 
ATOM      2  C1  UNL d   1      -0.516  -3.520   0.102  0.00  0.00     0.062 A 
ATOM      3  C2  UNL d   1       0.606  -2.902  -0.441  0.00  0.00     0.162 A 
ATOM      4  C3  UNL d   1       0.679  -1.511  -0.513  0.00  0.00    -0.034 A 
ATOM      5  C4  UNL d   1      -0.389  -0.749  -0.036  0.00  0.00     0.162 A 
ATOM      6  C5  UNL d   1      -1.509  -1.371   0.507  0.00  0.00     0.062 A 
ATOM      7  F   UNL d   1      -2.529  -0.630   0.964  0.00  0.00    -0.097 F 
ATOM      8  F1  UNL d   1      -0.352   0.591  -0.089  0.00  0.00    -0.096 F 
ATOM      9  I   UNL d   1       2.355  -0.583  -1.325  0.00  0.00    -0.060 I 
ATOM     10  F2  UNL d   1       1.613  -3.666  -0.891  0.00  0.00    -0.096 F 
ATOM     11  F3  UNL d   1      -0.576  -4.858   0.167  0.00  0.00    -0.097 F 
ATOM     12  F4  UNL d   1      -2.652  -3.353   1.098  0.00  0.00    -0.092 F 
ENDROOT
TORSDOF 0
ENDMDL
