MODEL 1
REMARK minimizedAffinity -5.82369995
REMARK minimizedRMSD -1
REMARK  0 active torsions:
REMARK  status: ('A' for Active; 'I' for Inactive)
ROOT
ATOM      1  C   UNL d   1      -0.243  -2.926  -0.462  0.00  0.00     0.124 A 
ATOM      2  C1  UNL d   1       0.510  -2.574  -1.573  0.00  0.00     0.062 A 
ATOM      3  C2  UNL d   1       0.796  -1.236  -1.830  0.00  0.00     0.162 A 
ATOM      4  C3  UNL d   1       0.330  -0.240  -0.973  0.00  0.00    -0.034 A 
ATOM      5  C4  UNL d   1      -0.428  -0.601   0.142  0.00  0.00     0.162 A 
ATOM      6  C5  UNL d   1      -0.711  -1.939   0.395  0.00  0.00     0.062 A 
ATOM      7  F   UNL d   1      -1.439  -2.277   1.469  0.00  0.00    -0.097 F 
ATOM      8  F1  UNL d   1      -0.892   0.332   0.987  0.00  0.00    -0.096 F 
ATOM      9  I   UNL d   1       0.756   1.762  -1.354  0.00  0.00    -0.060 I 
ATOM     10  F2  UNL d   1       1.526  -0.926  -2.912  0.00  0.00    -0.096 F 
ATOM     11  F3  UNL d   1       0.962  -3.525  -2.403  0.00  0.00    -0.097 F 
ATOM     12  F4  UNL d   1      -0.518  -4.213  -0.218  0.00  0.00    -0.092 F 
ENDROOT
TORSDOF 0
ENDMDL
