MODEL 1
REMARK minimizedAffinity 7.89491844
REMARK minimizedRMSD -1
REMARK  0 active torsions:
REMARK  status: ('A' for Active; 'I' for Inactive)
ROOT
ATOM      1  C   UNL d   1       5.977   5.987  -2.722  0.00  0.00     0.078 C 
ATOM      2  C1  UNL d   1       5.992   4.559  -2.266  0.00  0.00    -0.077 A 
ATOM      3  C2  UNL d   1       5.993   3.507  -3.190  0.00  0.00    -0.001 A 
ATOM      4  C3  UNL d   1       5.997   2.182  -2.751  0.00  0.00     0.003 A 
ATOM      5  C4  UNL d   1       5.999   1.897  -1.387  0.00  0.00    -0.005 A 
ATOM      6  C5  UNL d   1       5.996   2.937  -0.460  0.00  0.00     0.003 A 
ATOM      7  C6  UNL d   1       5.992   4.262  -0.897  0.00  0.00    -0.001 A 
ENDROOT
TORSDOF 0
ENDMDL
