MODEL 1
REMARK minimizedAffinity 0.390077174
REMARK minimizedRMSD -1
REMARK  0 active torsions:
REMARK  status: ('A' for Active; 'I' for Inactive)
ROOT
ATOM      1  C   UNL d   1       5.998   2.950  -2.155  0.00  0.00     0.078 C 
ATOM      2  C1  UNL d   1       4.915   2.369  -1.295  0.00  0.00    -0.077 A 
ATOM      3  C2  UNL d   1       3.830   1.690  -1.862  0.00  0.00    -0.001 A 
ATOM      4  C3  UNL d   1       2.825   1.163  -1.050  0.00  0.00     0.003 A 
ATOM      5  C4  UNL d   1       2.893   1.311   0.333  0.00  0.00    -0.005 A 
ATOM      6  C5  UNL d   1       3.968   1.988   0.907  0.00  0.00     0.003 A 
ATOM      7  C6  UNL d   1       4.974   2.515   0.096  0.00  0.00    -0.001 A 
ENDROOT
TORSDOF 0
ENDMDL
