MODEL 1
REMARK minimizedAffinity 6.08766937
REMARK minimizedRMSD -1
REMARK  0 active torsions:
REMARK  status: ('A' for Active; 'I' for Inactive)
ROOT
ATOM      1  C   UNL d   1       4.481  -1.417   3.051  0.00  0.00     0.078 C 
ATOM      2  C1  UNL d   1       3.756  -0.859   1.863  0.00  0.00    -0.077 A 
ATOM      3  C2  UNL d   1       2.843  -1.639   1.143  0.00  0.00    -0.001 A 
ATOM      4  C3  UNL d   1       2.183  -1.110   0.033  0.00  0.00     0.003 A 
ATOM      5  C4  UNL d   1       2.428   0.202  -0.367  0.00  0.00    -0.005 A 
ATOM      6  C5  UNL d   1       3.336   0.986   0.342  0.00  0.00     0.003 A 
ATOM      7  C6  UNL d   1       3.998   0.458   1.452  0.00  0.00    -0.001 A 
ENDROOT
TORSDOF 0
ENDMDL
