MODEL 1
REMARK minimizedAffinity 4.04308414
REMARK minimizedRMSD -1
REMARK  0 active torsions:
REMARK  status: ('A' for Active; 'I' for Inactive)
ROOT
ATOM      1  C   UNL d   1       3.668   1.646   1.241  0.00  0.00     0.078 C 
ATOM      2  C1  UNL d   1       4.238   2.004  -0.099  0.00  0.00    -0.077 A 
ATOM      3  C2  UNL d   1       3.579   1.646  -1.282  0.00  0.00    -0.001 A 
ATOM      4  C3  UNL d   1       4.126   1.978  -2.523  0.00  0.00     0.003 A 
ATOM      5  C4  UNL d   1       5.335   2.667  -2.592  0.00  0.00    -0.005 A 
ATOM      6  C5  UNL d   1       5.999   3.025  -1.421  0.00  0.00     0.003 A 
ATOM      7  C6  UNL d   1       5.454   2.695  -0.179  0.00  0.00    -0.001 A 
ENDROOT
TORSDOF 0
ENDMDL
