MODEL 1
REMARK minimizedAffinity 5.11578417
REMARK minimizedRMSD -1
REMARK  0 active torsions:
REMARK  status: ('A' for Active; 'I' for Inactive)
ROOT
ATOM      1  C   UNL d   1       6.000   2.941  -2.226  0.00  0.00     0.078 C 
ATOM      2  C1  UNL d   1       4.993   2.259  -1.349  0.00  0.00    -0.077 A 
ATOM      3  C2  UNL d   1       5.143   2.241   0.043  0.00  0.00    -0.001 A 
ATOM      4  C3  UNL d   1       4.203   1.594   0.846  0.00  0.00     0.003 A 
ATOM      5  C4  UNL d   1       3.107   0.958   0.267  0.00  0.00    -0.005 A 
ATOM      6  C5  UNL d   1       2.950   0.969  -1.118  0.00  0.00     0.003 A 
ATOM      7  C6  UNL d   1       3.889   1.615  -1.923  0.00  0.00    -0.001 A 
ENDROOT
TORSDOF 0
ENDMDL
