MODEL 1
REMARK minimizedAffinity -0.696149111
REMARK minimizedRMSD -1
REMARK  0 active torsions:
REMARK  status: ('A' for Active; 'I' for Inactive)
ROOT
ATOM      1  C   UNL d   1       3.002   1.627   0.199  0.00  0.00     0.078 C 
ATOM      2  C1  UNL d   1       4.052   2.064  -0.778  0.00  0.00    -0.077 A 
ATOM      3  C2  UNL d   1       5.027   3.002  -0.417  0.00  0.00    -0.001 A 
ATOM      4  C3  UNL d   1       5.992   3.408  -1.340  0.00  0.00     0.003 A 
ATOM      5  C4  UNL d   1       5.991   2.882  -2.631  0.00  0.00    -0.005 A 
ATOM      6  C5  UNL d   1       5.023   1.950  -3.000  0.00  0.00     0.003 A 
ATOM      7  C6  UNL d   1       4.057   1.543  -2.078  0.00  0.00    -0.001 A 
ENDROOT
TORSDOF 0
ENDMDL
