MODEL 1
REMARK minimizedAffinity -0.0619089939
REMARK minimizedRMSD -1
REMARK  0 active torsions:
REMARK  status: ('A' for Active; 'I' for Inactive)
ROOT
ATOM      1  C   UNL d   1       3.000  -0.754   2.233  0.00  0.00     0.078 C 
ATOM      2  C1  UNL d   1       3.715  -0.773   3.551  0.00  0.00    -0.077 A 
ATOM      3  C2  UNL d   1       3.057  -0.414   4.733  0.00  0.00    -0.001 A 
ATOM      4  C3  UNL d   1       3.738  -0.427   5.952  0.00  0.00     0.003 A 
ATOM      5  C4  UNL d   1       5.081  -0.797   5.999  0.00  0.00    -0.005 A 
ATOM      6  C5  UNL d   1       5.744  -1.153   4.827  0.00  0.00     0.003 A 
ATOM      7  C6  UNL d   1       5.065  -1.141   3.608  0.00  0.00    -0.001 A 
ENDROOT
TORSDOF 0
ENDMDL
