MODEL 1
REMARK minimizedAffinity 3.72831511
REMARK minimizedRMSD -1
REMARK  0 active torsions:
REMARK  status: ('A' for Active; 'I' for Inactive)
ROOT
ATOM      1  C   UNL d   1       5.919   3.040  -1.584  0.00  0.00     0.078 C 
ATOM      2  C1  UNL d   1       4.846   2.225  -0.925  0.00  0.00    -0.077 A 
ATOM      3  C2  UNL d   1       3.910   1.514  -1.686  0.00  0.00    -0.001 A 
ATOM      4  C3  UNL d   1       2.911   0.768  -1.059  0.00  0.00     0.003 A 
ATOM      5  C4  UNL d   1       2.838   0.725   0.332  0.00  0.00    -0.005 A 
ATOM      6  C5  UNL d   1       3.764   1.431   1.097  0.00  0.00     0.003 A 
ATOM      7  C6  UNL d   1       4.764   2.178   0.472  0.00  0.00    -0.001 A 
ENDROOT
TORSDOF 0
ENDMDL
