MODEL 1
REMARK minimizedAffinity 2.31161356
REMARK minimizedRMSD -1
REMARK  0 active torsions:
REMARK  status: ('A' for Active; 'I' for Inactive)
ROOT
ATOM      1  C   UNL d   1       0.229   3.716   0.673  0.00  0.00     0.078 C 
ATOM      2  C1  UNL d   1       0.932   3.364   1.950  0.00  0.00    -0.077 A 
ATOM      3  C2  UNL d   1       2.329   3.288   2.007  0.00  0.00    -0.001 A 
ATOM      4  C3  UNL d   1       2.970   2.950   3.201  0.00  0.00     0.003 A 
ATOM      5  C4  UNL d   1       2.221   2.684   4.345  0.00  0.00    -0.005 A 
ATOM      6  C5  UNL d   1       0.830   2.754   4.298  0.00  0.00     0.003 A 
ATOM      7  C6  UNL d   1       0.188   3.092   3.105  0.00  0.00    -0.001 A 
ENDROOT
TORSDOF 0
ENDMDL
