MODEL 1
REMARK minimizedAffinity 11.3655167
REMARK minimizedRMSD -1
REMARK  0 active torsions:
REMARK  status: ('A' for Active; 'I' for Inactive)
ROOT
ATOM      1  C   UNL d   1       2.584   0.355  -0.162  0.00  0.00     0.078 C 
ATOM      2  C1  UNL d   1       3.778   1.226  -0.414  0.00  0.00    -0.077 A 
ATOM      3  C2  UNL d   1       4.475   1.819   0.646  0.00  0.00    -0.001 A 
ATOM      4  C3  UNL d   1       5.579   2.635   0.397  0.00  0.00     0.003 A 
ATOM      5  C4  UNL d   1       5.996   2.867  -0.913  0.00  0.00    -0.005 A 
ATOM      6  C5  UNL d   1       5.308   2.284  -1.974  0.00  0.00     0.003 A 
ATOM      7  C6  UNL d   1       4.203   1.467  -1.727  0.00  0.00    -0.001 A 
ENDROOT
TORSDOF 0
ENDMDL
