MODEL 1
REMARK minimizedAffinity 3.35561395
REMARK minimizedRMSD -1
REMARK  0 active torsions:
REMARK  status: ('A' for Active; 'I' for Inactive)
ROOT
ATOM      1  C   UNL d   1       2.973   0.783  -0.006  0.00  0.00     0.078 C 
ATOM      2  C1  UNL d   1       4.035   1.547  -0.737  0.00  0.00    -0.077 A 
ATOM      3  C2  UNL d   1       5.018   2.262  -0.042  0.00  0.00    -0.001 A 
ATOM      4  C3  UNL d   1       5.996   2.976  -0.736  0.00  0.00     0.003 A 
ATOM      5  C4  UNL d   1       6.000   2.983  -2.129  0.00  0.00    -0.005 A 
ATOM      6  C5  UNL d   1       5.025   2.277  -2.830  0.00  0.00     0.003 A 
ATOM      7  C6  UNL d   1       4.046   1.562  -2.138  0.00  0.00    -0.001 A 
ENDROOT
TORSDOF 0
ENDMDL
