MODEL 1
REMARK minimizedAffinity -1.57906592
REMARK minimizedRMSD -1
REMARK  1 active torsions:
REMARK  status: ('A' for Active; 'I' for Inactive)
REMARK    1  A    between atoms: C1_2  and  C2_3 
ROOT
ATOM      1  C2  UNL d   1       0.781  -0.071   0.759  0.00  0.00    -0.081 A 
ATOM      2  C3  UNL d   1       0.249   0.420  -0.440  0.00  0.00     0.006 A 
ATOM      3  C4  UNL d   1      -1.104   0.755  -0.530  0.00  0.00     0.002 A 
ATOM      4  C5  UNL d   1      -1.945   0.613   0.578  0.00  0.00    -0.080 A 
ATOM      5  C6  UNL d   1      -3.393   0.999   0.503  0.00  0.00     0.076 C 
ATOM      6  C7  UNL d   1      -1.419   0.107   1.771  0.00  0.00     0.002 A 
ATOM      7  C8  UNL d   1      -0.066  -0.230   1.861  0.00  0.00     0.006 A 
ENDROOT
BRANCH   1   8
ATOM      8  C1  UNL d   1       2.253  -0.373   0.878  0.00  0.00     0.054 C 
ATOM      9  C   UNL d   1       2.702  -1.366  -0.184  0.00  0.00     0.018 C 
ENDBRANCH   1   8
TORSDOF 1
ENDMDL
