MODEL 1
REMARK minimizedAffinity -4.58038616
REMARK minimizedRMSD -1
REMARK  1 active torsions:
REMARK  status: ('A' for Active; 'I' for Inactive)
REMARK    1  A    between atoms: C1_2  and  C2_3 
ROOT
ATOM      1  C2  UNL d   1       0.326  -0.819   0.364  0.00  0.00    -0.081 A 
ATOM      2  C3  UNL d   1       1.311  -1.797   0.186  0.00  0.00     0.006 A 
ATOM      3  C4  UNL d   1       2.634  -1.431  -0.077  0.00  0.00     0.002 A 
ATOM      4  C5  UNL d   1       2.993  -0.082  -0.159  0.00  0.00    -0.080 A 
ATOM      5  C6  UNL d   1       4.415   0.325  -0.410  0.00  0.00     0.076 C 
ATOM      6  C7  UNL d   1       2.006   0.896   0.002  0.00  0.00     0.002 A 
ATOM      7  C8  UNL d   1       0.683   0.530   0.264  0.00  0.00     0.006 A 
ENDROOT
BRANCH   1   8
ATOM      8  C1  UNL d   1      -1.088  -1.210   0.712  0.00  0.00     0.054 C 
ATOM      9  C   UNL d   1      -1.909   0.001   1.132  0.00  0.00     0.018 C 
ENDBRANCH   1   8
TORSDOF 1
ENDMDL
