MODEL 1
REMARK minimizedAffinity -5.62545538
REMARK minimizedRMSD -1
REMARK  1 active torsions:
REMARK  status: ('A' for Active; 'I' for Inactive)
REMARK    1  A    between atoms: C1_2  and  C2_3 
ROOT
ATOM      1  C2  UNL d   1      -1.094   0.124   0.010  0.00  0.00    -0.081 A 
ATOM      2  C3  UNL d   1      -0.942  -1.268   0.011  0.00  0.00     0.006 A 
ATOM      3  C4  UNL d   1       0.305  -1.844   0.264  0.00  0.00     0.002 A 
ATOM      4  C5  UNL d   1       1.418  -1.039   0.527  0.00  0.00    -0.080 A 
ATOM      5  C6  UNL d   1       2.756  -1.645   0.830  0.00  0.00     0.076 C 
ATOM      6  C7  UNL d   1       1.270   0.352   0.509  0.00  0.00     0.002 A 
ATOM      7  C8  UNL d   1       0.024   0.929   0.256  0.00  0.00     0.006 A 
ENDROOT
BRANCH   1   8
ATOM      8  C1  UNL d   1      -2.451   0.747  -0.198  0.00  0.00     0.054 C 
ATOM      9  C   UNL d   1      -3.161   0.981   1.127  0.00  0.00     0.018 C 
ENDBRANCH   1   8
TORSDOF 1
ENDMDL
