MODEL 1
REMARK minimizedAffinity -4.61699629
REMARK minimizedRMSD -1
REMARK  1 active torsions:
REMARK  status: ('A' for Active; 'I' for Inactive)
REMARK    1  A    between atoms: C1_2  and  C2_3 
ROOT
ATOM      1  C2  UNL d   1      -0.539   0.128   0.309  0.00  0.00    -0.081 A 
ATOM      2  C3  UNL d   1      -1.267   0.640  -0.772  0.00  0.00     0.006 A 
ATOM      3  C4  UNL d   1      -2.595   1.041  -0.605  0.00  0.00     0.002 A 
ATOM      4  C5  UNL d   1      -3.213   0.946   0.646  0.00  0.00    -0.080 A 
ATOM      5  C6  UNL d   1      -4.628   1.401   0.846  0.00  0.00     0.076 C 
ATOM      6  C7  UNL d   1      -2.491   0.418   1.722  0.00  0.00     0.002 A 
ATOM      7  C8  UNL d   1      -1.164   0.016   1.556  0.00  0.00     0.006 A 
ENDROOT
BRANCH   1   8
ATOM      8  C1  UNL d   1       0.912  -0.245   0.147  0.00  0.00     0.054 C 
ATOM      9  C   UNL d   1       1.827   0.836   0.705  0.00  0.00     0.018 C 
ENDBRANCH   1   8
TORSDOF 1
ENDMDL
