MODEL 1
REMARK minimizedAffinity -2.27588582
REMARK minimizedRMSD -1
REMARK  1 active torsions:
REMARK  status: ('A' for Active; 'I' for Inactive)
REMARK    1  A    between atoms: C1_2  and  C2_3 
ROOT
ATOM      1  C2  UNL d   1      -0.997   1.310   0.388  0.00  0.00    -0.081 A 
ATOM      2  C3  UNL d   1      -1.115   0.005  -0.107  0.00  0.00     0.006 A 
ATOM      3  C4  UNL d   1       0.025  -0.754  -0.381  0.00  0.00     0.002 A 
ATOM      4  C5  UNL d   1       1.301  -0.225  -0.158  0.00  0.00    -0.080 A 
ATOM      5  C6  UNL d   1       2.532  -1.040  -0.419  0.00  0.00     0.076 C 
ATOM      6  C7  UNL d   1       1.419   1.085   0.320  0.00  0.00     0.002 A 
ATOM      7  C8  UNL d   1       0.280   1.845   0.594  0.00  0.00     0.006 A 
ENDROOT
BRANCH   1   8
ATOM      8  C1  UNL d   1      -2.225   2.108   0.745  0.00  0.00     0.054 C 
ATOM      9  C   UNL d   1      -2.883   1.574   2.009  0.00  0.00     0.018 C 
ENDBRANCH   1   8
TORSDOF 1
ENDMDL
