MODEL 1
REMARK minimizedAffinity -3.91643047
REMARK minimizedRMSD -1
REMARK  0 active torsions:
REMARK  status: ('A' for Active; 'I' for Inactive)
ROOT
ATOM      1  C1  DEN d   1      -2.120  -1.492   0.684  0.00  0.00     0.130 A 
ATOM      2  C2  DEN d   1      -1.587  -2.408   1.688  0.00  0.00    -0.031 A 
ATOM      3  C3  DEN d   1      -0.153  -2.105   1.866  0.00  0.00     0.027 A 
ATOM      4  C4  DEN d   1       1.285  -0.313   0.695  0.00  0.00     0.027 A 
ATOM      5  C5  DEN d   1       1.277   0.696  -0.243  0.00  0.00    -0.003 A 
ATOM      6  C6  DEN d   1       0.153   1.021  -0.956  0.00  0.00     0.001 A 
ATOM      7  C7  DEN d   1      -1.021   0.361  -0.710  0.00  0.00     0.017 A 
ATOM      8  C8  DEN d   1      -1.019  -0.663   0.228  0.00  0.00    -0.094 A 
ATOM      9  C9  DEN d   1       0.124  -0.968   0.948  0.00  0.00    -0.072 A 
ENDROOT
TORSDOF 0
ENDMDL
