MODEL 1
REMARK minimizedAffinity -6.35667133
REMARK minimizedRMSD -1
REMARK  0 active torsions:
REMARK  status: ('A' for Active; 'I' for Inactive)
ROOT
ATOM      1  C1  DEN d   1      -1.466  -2.244   0.900  0.00  0.00     0.130 A 
ATOM      2  C2  DEN d   1      -2.786  -2.025   1.483  0.00  0.00    -0.031 A 
ATOM      3  C3  DEN d   1      -3.022  -0.569   1.548  0.00  0.00     0.027 A 
ATOM      4  C4  DEN d   1      -1.479   1.358   0.800  0.00  0.00     0.027 A 
ATOM      5  C5  DEN d   1      -0.252   1.667   0.255  0.00  0.00    -0.003 A 
ATOM      6  C6  DEN d   1       0.662   0.704  -0.078  0.00  0.00     0.001 A 
ATOM      7  C7  DEN d   1       0.346  -0.619   0.087  0.00  0.00     0.017 A 
ATOM      8  C8  DEN d   1      -0.886  -0.938   0.643  0.00  0.00    -0.094 A 
ATOM      9  C9  DEN d   1      -1.802   0.050   0.962  0.00  0.00    -0.072 A 
ENDROOT
TORSDOF 0
ENDMDL
