MODEL 1
REMARK minimizedAffinity -4.67513418
REMARK minimizedRMSD -1
REMARK  0 active torsions:
REMARK  status: ('A' for Active; 'I' for Inactive)
ROOT
ATOM      1  C1  DEN d   1      -1.952   1.075   0.724  0.00  0.00     0.130 A 
ATOM      2  C2  DEN d   1      -1.281   2.335   0.414  0.00  0.00    -0.031 A 
ATOM      3  C3  DEN d   1       0.128   2.034   0.089  0.00  0.00     0.027 A 
ATOM      4  C4  DEN d   1       1.327  -0.249   0.030  0.00  0.00     0.027 A 
ATOM      5  C5  DEN d   1       1.174  -1.603   0.230  0.00  0.00    -0.003 A 
ATOM      6  C6  DEN d   1      -0.014  -2.151   0.638  0.00  0.00     0.001 A 
ATOM      7  C7  DEN d   1      -1.107  -1.346   0.816  0.00  0.00     0.017 A 
ATOM      8  C8  DEN d   1      -0.958   0.022   0.623  0.00  0.00    -0.094 A 
ATOM      9  C9  DEN d   1       0.247   0.555   0.199  0.00  0.00    -0.072 A 
ENDROOT
TORSDOF 0
ENDMDL
