MODEL 1
REMARK minimizedAffinity -5.79252386
REMARK minimizedRMSD -1
REMARK  0 active torsions:
REMARK  status: ('A' for Active; 'I' for Inactive)
ROOT
ATOM      1  C1  DEN d   1      -0.301   0.772   0.401  0.00  0.00     0.130 A 
ATOM      2  C2  DEN d   1       0.775  -0.005  -0.208  0.00  0.00    -0.031 A 
ATOM      3  C3  DEN d   1       0.405  -1.433  -0.132  0.00  0.00     0.027 A 
ATOM      4  C4  DEN d   1      -1.719  -2.509   0.860  0.00  0.00     0.027 A 
ATOM      5  C5  DEN d   1      -2.912  -2.255   1.500  0.00  0.00    -0.003 A 
ATOM      6  C6  DEN d   1      -3.299  -0.987   1.846  0.00  0.00     0.001 A 
ATOM      7  C7  DEN d   1      -2.507   0.079   1.514  0.00  0.00     0.017 A 
ATOM      8  C8  DEN d   1      -1.299  -0.170   0.875  0.00  0.00    -0.094 A 
ATOM      9  C9  DEN d   1      -0.931  -1.457   0.522  0.00  0.00    -0.072 A 
ENDROOT
TORSDOF 0
ENDMDL
