MODEL 1
REMARK minimizedAffinity -5.06329203
REMARK minimizedRMSD -1
REMARK  0 active torsions:
REMARK  status: ('A' for Active; 'I' for Inactive)
ROOT
ATOM      1  C1  DEN d   1      -1.493   1.158   0.786  0.00  0.00     0.130 A 
ATOM      2  C2  DEN d   1      -0.391   1.675  -0.021  0.00  0.00    -0.031 A 
ATOM      3  C3  DEN d   1       0.448   0.531  -0.433  0.00  0.00     0.027 A 
ATOM      4  C4  DEN d   1       0.145  -1.976   0.093  0.00  0.00     0.027 A 
ATOM      5  C5  DEN d   1      -0.637  -2.898   0.752  0.00  0.00    -0.003 A 
ATOM      6  C6  DEN d   1      -1.731  -2.533   1.490  0.00  0.00     0.001 A 
ATOM      7  C7  DEN d   1      -2.100  -1.215   1.551  0.00  0.00     0.017 A 
ATOM      8  C8  DEN d   1      -1.312  -0.278   0.895  0.00  0.00    -0.094 A 
ATOM      9  C9  DEN d   1      -0.216  -0.669   0.144  0.00  0.00    -0.072 A 
ENDROOT
TORSDOF 0
ENDMDL
