MODEL 1
REMARK minimizedAffinity -2.75980186
REMARK minimizedRMSD -1
REMARK  0 active torsions:
REMARK  status: ('A' for Active; 'I' for Inactive)
ROOT
ATOM      1  C1  DEN d   1      -1.087   1.292   0.108  0.00  0.00     0.130 A 
ATOM      2  C2  DEN d   1       0.143   1.801  -0.493  0.00  0.00    -0.031 A 
ATOM      3  C3  DEN d   1       1.096   0.678  -0.602  0.00  0.00     0.027 A 
ATOM      4  C4  DEN d   1       0.787  -1.786   0.093  0.00  0.00     0.027 A 
ATOM      5  C5  DEN d   1      -0.082  -2.693   0.659  0.00  0.00    -0.003 A 
ATOM      6  C6  DEN d   1      -1.325  -2.330   1.108  0.00  0.00     0.001 A 
ATOM      7  C7  DEN d   1      -1.750  -1.037   0.958  0.00  0.00     0.017 A 
ATOM      8  C8  DEN d   1      -0.876  -0.116   0.395  0.00  0.00    -0.094 A 
ATOM      9  C9  DEN d   1       0.371  -0.504  -0.064  0.00  0.00    -0.072 A 
ENDROOT
TORSDOF 0
ENDMDL
