MODEL 1
REMARK minimizedAffinity 1.36913168
REMARK minimizedRMSD -1
REMARK  0 active torsions:
REMARK  status: ('A' for Active; 'I' for Inactive)
ROOT
ATOM      1  C1  DEN d   1      -3.232   0.187   0.506  0.00  0.00     0.130 A 
ATOM      2  C2  DEN d   1      -2.633   1.503   0.300  0.00  0.00    -0.031 A 
ATOM      3  C3  DEN d   1      -1.167   1.333   0.243  0.00  0.00     0.027 A 
ATOM      4  C4  DEN d   1       0.225  -0.828   0.448  0.00  0.00     0.027 A 
ATOM      5  C5  DEN d   1       0.161  -2.190   0.642  0.00  0.00    -0.003 A 
ATOM      6  C6  DEN d   1      -1.026  -2.845   0.836  0.00  0.00     0.001 A 
ATOM      7  C7  DEN d   1      -2.202  -2.145   0.796  0.00  0.00     0.017 A 
ATOM      8  C8  DEN d   1      -2.145  -0.770   0.609  0.00  0.00    -0.094 A 
ATOM      9  C9  DEN d   1      -0.936  -0.128   0.402  0.00  0.00    -0.072 A 
ENDROOT
TORSDOF 0
ENDMDL
