MODEL 1
REMARK minimizedAffinity -5.63967276
REMARK minimizedRMSD -1
REMARK  0 active torsions:
REMARK  status: ('A' for Active; 'I' for Inactive)
ROOT
ATOM      1  C1  DEN d   1       0.270   0.377  -3.307  0.00  0.00     0.130 A 
ATOM      2  C2  DEN d   1       0.937   1.675  -3.256  0.00  0.00    -0.031 A 
ATOM      3  C3  DEN d   1       1.103   2.048  -1.837  0.00  0.00     0.027 A 
ATOM      4  C4  DEN d   1       0.398   0.746   0.275  0.00  0.00     0.027 A 
ATOM      5  C5  DEN d   1      -0.213  -0.399   0.737  0.00  0.00    -0.003 A 
ATOM      6  C6  DEN d   1      -0.732  -1.341  -0.111  0.00  0.00     0.001 A 
ATOM      7  C7  DEN d   1      -0.610  -1.178  -1.465  0.00  0.00     0.017 A 
ATOM      8  C8  DEN d   1      -0.001  -0.022  -1.938  0.00  0.00    -0.094 A 
ATOM      9  C9  DEN d   1       0.528   0.913  -1.065  0.00  0.00    -0.072 A 
ENDROOT
TORSDOF 0
ENDMDL
