MODEL 1
REMARK minimizedAffinity -4.83914566
REMARK minimizedRMSD -1
REMARK  0 active torsions:
REMARK  status: ('A' for Active; 'I' for Inactive)
ROOT
ATOM      1  C1  DEN d   1      -0.789   1.746   0.021  0.00  0.00     0.130 A 
ATOM      2  C2  DEN d   1       0.444   1.988  -0.722  0.00  0.00    -0.031 A 
ATOM      3  C3  DEN d   1       1.170   0.706  -0.832  0.00  0.00     0.027 A 
ATOM      4  C4  DEN d   1       0.504  -1.617   0.069  0.00  0.00     0.027 A 
ATOM      5  C5  DEN d   1      -0.449  -2.317   0.775  0.00  0.00    -0.003 A 
ATOM      6  C6  DEN d   1      -1.557  -1.710   1.304  0.00  0.00     0.001 A 
ATOM      7  C7  DEN d   1      -1.762  -0.371   1.096  0.00  0.00     0.017 A 
ATOM      8  C8  DEN d   1      -0.801   0.342   0.392  0.00  0.00    -0.094 A 
ATOM      9  C9  DEN d   1       0.306  -0.292  -0.145  0.00  0.00    -0.072 A 
ENDROOT
TORSDOF 0
ENDMDL
