MODEL 1
REMARK minimizedAffinity -4.93483639
REMARK minimizedRMSD -1
REMARK  0 active torsions:
REMARK  status: ('A' for Active; 'I' for Inactive)
ROOT
ATOM      1  C1  DEN d   1      -2.143  -1.948   1.110  0.00  0.00     0.130 A 
ATOM      2  C2  DEN d   1      -1.421  -3.203   1.303  0.00  0.00    -0.031 A 
ATOM      3  C3  DEN d   1      -0.057  -3.033   0.763  0.00  0.00     0.027 A 
ATOM      4  C4  DEN d   1       1.003  -0.958  -0.343  0.00  0.00     0.027 A 
ATOM      5  C5  DEN d   1       0.777   0.342  -0.739  0.00  0.00    -0.003 A 
ATOM      6  C6  DEN d   1      -0.438   0.954  -0.578  0.00  0.00     0.001 A 
ATOM      7  C7  DEN d   1      -1.461   0.280   0.034  0.00  0.00     0.017 A 
ATOM      8  C8  DEN d   1      -1.243  -1.034   0.429  0.00  0.00    -0.094 A 
ATOM      9  C9  DEN d   1      -0.004  -1.630   0.269  0.00  0.00    -0.072 A 
ENDROOT
TORSDOF 0
ENDMDL
