MODEL 1
REMARK minimizedAffinity -6.54991865
REMARK minimizedRMSD -1
REMARK  0 active torsions:
REMARK  status: ('A' for Active; 'I' for Inactive)
ROOT
ATOM      1  C1  DEN d   1      -1.183   1.127   0.381  0.00  0.00     0.130 A 
ATOM      2  C2  DEN d   1       0.024   1.804  -0.084  0.00  0.00    -0.031 A 
ATOM      3  C3  DEN d   1       1.087   0.790  -0.235  0.00  0.00     0.027 A 
ATOM      4  C4  DEN d   1       0.980  -1.750   0.198  0.00  0.00     0.027 A 
ATOM      5  C5  DEN d   1       0.171  -2.785   0.614  0.00  0.00    -0.003 A 
ATOM      6  C6  DEN d   1      -1.125  -2.585   1.010  0.00  0.00     0.001 A 
ATOM      7  C7  DEN d   1      -1.665  -1.327   0.956  0.00  0.00     0.017 A 
ATOM      8  C8  DEN d   1      -0.853  -0.277   0.545  0.00  0.00    -0.094 A 
ATOM      9  C9  DEN d   1       0.450  -0.502   0.137  0.00  0.00    -0.072 A 
ENDROOT
TORSDOF 0
ENDMDL
