MODEL 1
REMARK minimizedAffinity -4.70565748
REMARK minimizedRMSD -1
REMARK  0 active torsions:
REMARK  status: ('A' for Active; 'I' for Inactive)
ROOT
ATOM      1  C1  DEN d   1       0.252  -1.885   0.308  0.00  0.00     0.130 A 
ATOM      2  C2  DEN d   1      -0.881  -2.697   0.743  0.00  0.00    -0.031 A 
ATOM      3  C3  DEN d   1      -1.978  -1.784   1.124  0.00  0.00     0.027 A 
ATOM      4  C4  DEN d   1      -2.033   0.794   1.077  0.00  0.00     0.027 A 
ATOM      5  C5  DEN d   1      -1.304   1.927   0.794  0.00  0.00    -0.003 A 
ATOM      6  C6  DEN d   1      -0.004   1.871   0.365  0.00  0.00     0.001 A 
ATOM      7  C7  DEN d   1       0.592   0.654   0.164  0.00  0.00     0.017 A 
ATOM      8  C8  DEN d   1      -0.135  -0.493   0.454  0.00  0.00    -0.094 A 
ATOM      9  C9  DEN d   1      -1.451  -0.415   0.875  0.00  0.00    -0.072 A 
ENDROOT
TORSDOF 0
ENDMDL
