MODEL 1
REMARK minimizedAffinity -1.32667923
REMARK minimizedRMSD -1
REMARK  0 active torsions:
REMARK  status: ('A' for Active; 'I' for Inactive)
ROOT
ATOM      1  C1  DEN d   1      -0.482  -2.277   1.526  0.00  0.00     0.130 A 
ATOM      2  C2  DEN d   1       0.664  -2.957   0.929  0.00  0.00    -0.031 A 
ATOM      3  C3  DEN d   1       1.382  -1.984   0.081  0.00  0.00     0.027 A 
ATOM      4  C4  DEN d   1       0.836   0.499  -0.357  0.00  0.00     0.027 A 
ATOM      5  C5  DEN d   1      -0.045   1.520  -0.080  0.00  0.00    -0.003 A 
ATOM      6  C6  DEN d   1      -1.144   1.340   0.719  0.00  0.00     0.001 A 
ATOM      7  C7  DEN d   1      -1.365   0.122   1.304  0.00  0.00     0.017 A 
ATOM      8  C8  DEN d   1      -0.485  -0.915   1.024  0.00  0.00    -0.094 A 
ATOM      9  C9  DEN d   1       0.627  -0.710   0.224  0.00  0.00    -0.072 A 
ENDROOT
TORSDOF 0
ENDMDL
