MODEL 1
REMARK minimizedAffinity 20.3971939
REMARK minimizedRMSD -1
REMARK  0 active torsions:
REMARK  status: ('A' for Active; 'I' for Inactive)
ROOT
ATOM      1  C1  DEN d   1      -3.200   0.756  -3.742  0.00  0.00     0.130 A 
ATOM      2  C2  DEN d   1      -2.150   1.522  -3.077  0.00  0.00    -0.031 A 
ATOM      3  C3  DEN d   1      -2.457   2.957  -3.240  0.00  0.00     0.027 A 
ATOM      4  C4  DEN d   1      -4.449   4.062  -4.450  0.00  0.00     0.027 A 
ATOM      5  C5  DEN d   1      -5.594   3.822  -5.177  0.00  0.00    -0.003 A 
ATOM      6  C6  DEN d   1      -5.999   2.555  -5.504  0.00  0.00     0.001 A 
ATOM      7  C7  DEN d   1      -5.278   1.477  -5.063  0.00  0.00     0.017 A 
ATOM      8  C8  DEN d   1      -4.119   1.711  -4.336  0.00  0.00    -0.094 A 
ATOM      9  C9  DEN d   1      -3.732   2.999  -4.005  0.00  0.00    -0.072 A 
ENDROOT
TORSDOF 0
ENDMDL
