MODEL 1
REMARK minimizedAffinity 17.107336
REMARK minimizedRMSD -1
REMARK  0 active torsions:
REMARK  status: ('A' for Active; 'I' for Inactive)
ROOT
ATOM      1  C1  DEN d   1      -2.346   2.887  -2.776  0.00  0.00     0.130 A 
ATOM      2  C2  DEN d   1      -1.542   2.728  -3.985  0.00  0.00    -0.031 A 
ATOM      3  C3  DEN d   1      -1.168   1.304  -4.102  0.00  0.00     0.027 A 
ATOM      4  C4  DEN d   1      -1.759  -0.661  -2.539  0.00  0.00     0.027 A 
ATOM      5  C5  DEN d   1      -2.411  -1.016  -1.379  0.00  0.00    -0.003 A 
ATOM      6  C6  DEN d   1      -3.053  -0.097  -0.592  0.00  0.00     0.001 A 
ATOM      7  C7  DEN d   1      -3.096   1.216  -0.979  0.00  0.00     0.017 A 
ATOM      8  C8  DEN d   1      -2.434   1.583  -2.143  0.00  0.00    -0.094 A 
ATOM      9  C9  DEN d   1      -1.801   0.637  -2.932  0.00  0.00    -0.072 A 
ENDROOT
TORSDOF 0
ENDMDL
