MODEL 1
REMARK minimizedAffinity 6.75815248
REMARK minimizedRMSD -1
REMARK  0 active torsions:
REMARK  status: ('A' for Active; 'I' for Inactive)
ROOT
ATOM      1  C1  DEN d   1       1.498  -3.720   0.903  0.00  0.00     0.130 A 
ATOM      2  C2  DEN d   1       2.651  -3.070   0.285  0.00  0.00    -0.031 A 
ATOM      3  C3  DEN d   1       2.783  -1.721   0.870  0.00  0.00     0.027 A 
ATOM      4  C4  DEN d   1       1.325  -0.582   2.667  0.00  0.00     0.027 A 
ATOM      5  C5  DEN d   1       0.225  -0.734   3.482  0.00  0.00    -0.003 A 
ATOM      6  C6  DEN d   1      -0.541  -1.869   3.470  0.00  0.00     0.001 A 
ATOM      7  C7  DEN d   1      -0.192  -2.915   2.658  0.00  0.00     0.017 A 
ATOM      8  C8  DEN d   1       0.912  -2.767   1.828  0.00  0.00    -0.094 A 
ATOM      9  C9  DEN d   1       1.681  -1.616   1.864  0.00  0.00    -0.072 A 
ENDROOT
TORSDOF 0
ENDMDL
