MODEL 1
REMARK minimizedAffinity 12.9893723
REMARK minimizedRMSD -1
REMARK  0 active torsions:
REMARK  status: ('A' for Active; 'I' for Inactive)
ROOT
ATOM      1  C1  DEN d   1      -0.800   2.167  -3.371  0.00  0.00     0.130 A 
ATOM      2  C2  DEN d   1      -1.734   3.182  -3.850  0.00  0.00    -0.031 A 
ATOM      3  C3  DEN d   1      -3.083   2.824  -3.368  0.00  0.00     0.027 A 
ATOM      4  C4  DEN d   1      -3.812   0.810  -1.931  0.00  0.00     0.027 A 
ATOM      5  C5  DEN d   1      -3.375  -0.329  -1.292  0.00  0.00    -0.003 A 
ATOM      6  C6  DEN d   1      -2.067  -0.732  -1.330  0.00  0.00     0.001 A 
ATOM      7  C7  DEN d   1      -1.139   0.036  -1.983  0.00  0.00     0.017 A 
ATOM      8  C8  DEN d   1      -1.573   1.182  -2.636  0.00  0.00    -0.094 A 
ATOM      9  C9  DEN d   1      -2.898   1.579  -2.576  0.00  0.00    -0.072 A 
ENDROOT
TORSDOF 0
ENDMDL
