MODEL 1
REMARK minimizedAffinity 19.4888363
REMARK minimizedRMSD -1
REMARK  0 active torsions:
REMARK  status: ('A' for Active; 'I' for Inactive)
ROOT
ATOM      1  C1  DEN d   1      -5.837  -2.515  -4.561  0.00  0.00     0.130 A 
ATOM      2  C2  DEN d   1      -5.386  -2.740  -3.190  0.00  0.00    -0.031 A 
ATOM      3  C3  DEN d   1      -5.001  -1.434  -2.617  0.00  0.00     0.027 A 
ATOM      4  C4  DEN d   1      -5.063   0.900  -3.711  0.00  0.00     0.027 A 
ATOM      5  C5  DEN d   1      -5.360   1.592  -4.865  0.00  0.00    -0.003 A 
ATOM      6  C6  DEN d   1      -5.800   0.964  -6.000  0.00  0.00     0.001 A 
ATOM      7  C7  DEN d   1      -6.000  -0.391  -5.992  0.00  0.00     0.017 A 
ATOM      8  C8  DEN d   1      -5.696  -1.096  -4.834  0.00  0.00    -0.094 A 
ATOM      9  C9  DEN d   1      -5.263  -0.442  -3.693  0.00  0.00    -0.072 A 
ENDROOT
TORSDOF 0
ENDMDL
