MODEL 1
REMARK minimizedAffinity 10.131196
REMARK minimizedRMSD -1
REMARK  0 active torsions:
REMARK  status: ('A' for Active; 'I' for Inactive)
ROOT
ATOM      1  C1  DEN d   1       1.124  -1.131   2.477  0.00  0.00     0.130 A 
ATOM      2  C2  DEN d   1      -0.277  -1.542   2.462  0.00  0.00    -0.031 A 
ATOM      3  C3  DEN d   1      -0.416  -2.653   1.499  0.00  0.00     0.027 A 
ATOM      4  C4  DEN d   1       1.394  -3.775   0.044  0.00  0.00     0.027 A 
ATOM      5  C5  DEN d   1       2.729  -3.761  -0.296  0.00  0.00    -0.003 A 
ATOM      6  C6  DEN d   1       3.609  -2.856   0.235  0.00  0.00     0.001 A 
ATOM      7  C7  DEN d   1       3.173  -1.954   1.170  0.00  0.00     0.017 A 
ATOM      8  C8  DEN d   1       1.827  -1.956   1.512  0.00  0.00    -0.094 A 
ATOM      9  C9  DEN d   1       0.956  -2.888   0.973  0.00  0.00    -0.072 A 
ENDROOT
TORSDOF 0
ENDMDL
