MODEL 1
REMARK minimizedAffinity 16.628912
REMARK minimizedRMSD -1
REMARK  0 active torsions:
REMARK  status: ('A' for Active; 'I' for Inactive)
ROOT
ATOM      1  C   UNL d   1       0.045  -1.125  -1.292  0.00  0.00     0.124 A 
ATOM      2  C1  UNL d   1      -0.120  -1.439   0.050  0.00  0.00     0.062 A 
ATOM      3  C2  UNL d   1       0.835  -1.046   0.983  0.00  0.00     0.162 A 
ATOM      4  C3  UNL d   1       1.964  -0.333   0.577  0.00  0.00    -0.034 A 
ATOM      5  C4  UNL d   1       2.123  -0.022  -0.774  0.00  0.00     0.162 A 
ATOM      6  C5  UNL d   1       1.166  -0.417  -1.703  0.00  0.00     0.062 A 
ATOM      7  F   UNL d   1       1.326  -0.113  -2.999  0.00  0.00    -0.097 F 
ATOM      8  F1  UNL d   1       3.196   0.662  -1.199  0.00  0.00    -0.096 F 
ATOM      9  I   UNL d   1       3.395   0.256   1.969  0.00  0.00    -0.060 I 
ATOM     10  F2  UNL d   1       0.651  -1.363   2.273  0.00  0.00    -0.096 F 
ATOM     11  F3  UNL d   1      -1.201  -2.123   0.449  0.00  0.00    -0.097 F 
ATOM     12  F4  UNL d   1      -0.875  -1.505  -2.188  0.00  0.00    -0.092 F 
ENDROOT
TORSDOF 0
ENDMDL
