MODEL 1
REMARK minimizedAffinity 5.05438328
REMARK minimizedRMSD -1
REMARK  0 active torsions:
REMARK  status: ('A' for Active; 'I' for Inactive)
ROOT
ATOM      1  C   UNL d   1       0.532  -1.450   1.189  0.00  0.00     0.124 A 
ATOM      2  C1  UNL d   1       1.877  -1.138   1.047  0.00  0.00     0.062 A 
ATOM      3  C2  UNL d   1       2.763  -2.079   0.529  0.00  0.00     0.162 A 
ATOM      4  C3  UNL d   1       2.307  -3.341   0.149  0.00  0.00    -0.034 A 
ATOM      5  C4  UNL d   1       0.953  -3.648   0.296  0.00  0.00     0.162 A 
ATOM      6  C5  UNL d   1       0.071  -2.704   0.814  0.00  0.00     0.062 A 
ATOM      7  F   UNL d   1      -1.228  -3.007   0.951  0.00  0.00    -0.097 F 
ATOM      8  F1  UNL d   1       0.480  -4.852  -0.060  0.00  0.00    -0.096 F 
ATOM      9  I   UNL d   1       3.628  -4.750  -0.626  0.00  0.00    -0.060 I 
ATOM     10  F2  UNL d   1       4.057  -1.750   0.403  0.00  0.00    -0.096 F 
ATOM     11  F3  UNL d   1       2.325   0.072   1.410  0.00  0.00    -0.097 F 
ATOM     12  F4  UNL d   1      -0.317  -0.544   1.689  0.00  0.00    -0.092 F 
ENDROOT
TORSDOF 0
ENDMDL
