MODEL 1
REMARK minimizedAffinity 7.035676
REMARK minimizedRMSD -1
REMARK  0 active torsions:
REMARK  status: ('A' for Active; 'I' for Inactive)
ROOT
ATOM      1  C   UNL d   1      -0.332  -2.049   0.447  0.00  0.00     0.124 A 
ATOM      2  C1  UNL d   1       0.168  -0.787   0.735  0.00  0.00     0.062 A 
ATOM      3  C2  UNL d   1       1.540  -0.557   0.716  0.00  0.00     0.162 A 
ATOM      4  C3  UNL d   1       2.423  -1.592   0.408  0.00  0.00    -0.034 A 
ATOM      5  C4  UNL d   1       1.913  -2.859   0.121  0.00  0.00     0.162 A 
ATOM      6  C5  UNL d   1       0.540  -3.084   0.141  0.00  0.00     0.062 A 
ATOM      7  F   UNL d   1       0.059  -4.304  -0.137  0.00  0.00    -0.097 F 
ATOM      8  F1  UNL d   1       2.734  -3.877  -0.179  0.00  0.00    -0.096 F 
ATOM      9  I   UNL d   1       4.476  -1.252   0.379  0.00  0.00    -0.060 I 
ATOM     10  F2  UNL d   1       1.996   0.673   0.998  0.00  0.00    -0.096 F 
ATOM     11  F3  UNL d   1      -0.673   0.214   1.032  0.00  0.00    -0.097 F 
ATOM     12  F4  UNL d   1      -1.653  -2.268   0.467  0.00  0.00    -0.092 F 
ENDROOT
TORSDOF 0
ENDMDL
