MODEL 1
REMARK minimizedAffinity 2.19120812
REMARK minimizedRMSD -1
REMARK  0 active torsions:
REMARK  status: ('A' for Active; 'I' for Inactive)
ROOT
ATOM      1  C   UNL d   1       0.443  -1.258   0.854  0.00  0.00     0.124 A 
ATOM      2  C1  UNL d   1      -0.001  -2.533   0.535  0.00  0.00     0.062 A 
ATOM      3  C2  UNL d   1       0.911  -3.525   0.184  0.00  0.00     0.162 A 
ATOM      4  C3  UNL d   1       2.277  -3.244   0.152  0.00  0.00    -0.034 A 
ATOM      5  C4  UNL d   1       2.716  -1.958   0.473  0.00  0.00     0.162 A 
ATOM      6  C5  UNL d   1       1.800  -0.971   0.823  0.00  0.00     0.062 A 
ATOM      7  F   UNL d   1       2.231   0.261   1.131  0.00  0.00    -0.097 F 
ATOM      8  F1  UNL d   1       4.022  -1.654   0.452  0.00  0.00    -0.096 F 
ATOM      9  I   UNL d   1       3.645  -4.723  -0.372  0.00  0.00    -0.060 I 
ATOM     10  F2  UNL d   1       0.454  -4.749  -0.120  0.00  0.00    -0.096 F 
ATOM     11  F3  UNL d   1      -1.312  -2.812   0.563  0.00  0.00    -0.097 F 
ATOM     12  F4  UNL d   1      -0.437  -0.306   1.190  0.00  0.00    -0.092 F 
ENDROOT
TORSDOF 0
ENDMDL
