MODEL 1
REMARK minimizedAffinity 6.11130667
REMARK minimizedRMSD -1
REMARK  0 active torsions:
REMARK  status: ('A' for Active; 'I' for Inactive)
ROOT
ATOM      1  C   UNL d   1       0.637  -1.107   1.427  0.00  0.00     0.124 A 
ATOM      2  C1  UNL d   1       0.089  -2.253   0.867  0.00  0.00     0.062 A 
ATOM      3  C2  UNL d   1       0.907  -3.178   0.224  0.00  0.00     0.162 A 
ATOM      4  C3  UNL d   1       2.282  -2.961   0.138  0.00  0.00    -0.034 A 
ATOM      5  C4  UNL d   1       2.826  -1.806   0.703  0.00  0.00     0.162 A 
ATOM      6  C5  UNL d   1       2.004  -0.885   1.344  0.00  0.00     0.062 A 
ATOM      7  F   UNL d   1       2.535   0.222   1.884  0.00  0.00    -0.097 F 
ATOM      8  F1  UNL d   1       4.144  -1.567   0.638  0.00  0.00    -0.096 F 
ATOM      9  I   UNL d   1       3.508  -4.342  -0.823  0.00  0.00    -0.060 I 
ATOM     10  F2  UNL d   1       0.350  -4.276  -0.308  0.00  0.00    -0.096 F 
ATOM     11  F3  UNL d   1      -1.232  -2.470   0.945  0.00  0.00    -0.097 F 
ATOM     12  F4  UNL d   1      -0.152  -0.219   2.044  0.00  0.00    -0.092 F 
ENDROOT
TORSDOF 0
ENDMDL
