MODEL 1
REMARK minimizedAffinity 3.30476975
REMARK minimizedRMSD -1
REMARK  0 active torsions:
REMARK  status: ('A' for Active; 'I' for Inactive)
ROOT
ATOM      1  C   UNL d   1       0.183  -0.416   0.993  0.00  0.00     0.124 A 
ATOM      2  C1  UNL d   1       1.571  -0.433   1.015  0.00  0.00     0.062 A 
ATOM      3  C2  UNL d   1       2.258  -1.632   0.851  0.00  0.00     0.162 A 
ATOM      4  C3  UNL d   1       1.559  -2.825   0.663  0.00  0.00    -0.034 A 
ATOM      5  C4  UNL d   1       0.164  -2.800   0.643  0.00  0.00     0.162 A 
ATOM      6  C5  UNL d   1      -0.519  -1.599   0.807  0.00  0.00     0.062 A 
ATOM      7  F   UNL d   1      -1.860  -1.584   0.786  0.00  0.00    -0.097 F 
ATOM      8  F1  UNL d   1      -0.540  -3.928   0.465  0.00  0.00    -0.096 F 
ATOM      9  I   UNL d   1       2.584  -4.619   0.418  0.00  0.00    -0.060 I 
ATOM     10  F2  UNL d   1       3.599  -1.619   0.876  0.00  0.00    -0.096 F 
ATOM     11  F3  UNL d   1       2.251   0.708   1.195  0.00  0.00    -0.097 F 
ATOM     12  F4  UNL d   1      -0.476   0.739   1.152  0.00  0.00    -0.092 F 
ENDROOT
TORSDOF 0
ENDMDL
