MODEL 1
REMARK minimizedAffinity 4.74359846
REMARK minimizedRMSD -1
REMARK  0 active torsions:
REMARK  status: ('A' for Active; 'I' for Inactive)
ROOT
ATOM      1  C   UNL d   1       0.055  -0.746   0.792  0.00  0.00     0.124 A 
ATOM      2  C1  UNL d   1      -0.441  -2.010   0.501  0.00  0.00     0.062 A 
ATOM      3  C2  UNL d   1       0.432  -3.078   0.315  0.00  0.00     0.162 A 
ATOM      4  C3  UNL d   1       1.810  -2.888   0.421  0.00  0.00    -0.034 A 
ATOM      5  C4  UNL d   1       2.301  -1.614   0.713  0.00  0.00     0.162 A 
ATOM      6  C5  UNL d   1       1.424  -0.550   0.898  0.00  0.00     0.062 A 
ATOM      7  F   UNL d   1       1.905   0.670   1.178  0.00  0.00    -0.097 F 
ATOM      8  F1  UNL d   1       3.620  -1.396   0.821  0.00  0.00    -0.096 F 
ATOM      9  I   UNL d   1       3.118  -4.483   0.144  0.00  0.00    -0.060 I 
ATOM     10  F2  UNL d   1      -0.075  -4.288   0.035  0.00  0.00    -0.096 F 
ATOM     11  F3  UNL d   1      -1.764  -2.202   0.398  0.00  0.00    -0.097 F 
ATOM     12  F4  UNL d   1      -0.787   0.280   0.969  0.00  0.00    -0.092 F 
ENDROOT
TORSDOF 0
ENDMDL
