MODEL 1
REMARK minimizedAffinity 2.78843355
REMARK minimizedRMSD -1
REMARK  0 active torsions:
REMARK  status: ('A' for Active; 'I' for Inactive)
ROOT
ATOM      1  C   UNL d   1      -0.097  -0.445   1.152  0.00  0.00     0.124 A 
ATOM      2  C1  UNL d   1      -0.667  -1.605   0.647  0.00  0.00     0.062 A 
ATOM      3  C2  UNL d   1       0.136  -2.691   0.311  0.00  0.00     0.162 A 
ATOM      4  C3  UNL d   1       1.519  -2.623   0.480  0.00  0.00    -0.034 A 
ATOM      5  C4  UNL d   1       2.085  -1.453   0.988  0.00  0.00     0.162 A 
ATOM      6  C5  UNL d   1       1.279  -0.370   1.322  0.00  0.00     0.062 A 
ATOM      7  F   UNL d   1       1.832   0.750   1.810  0.00  0.00    -0.097 F 
ATOM      8  F1  UNL d   1       3.411  -1.353   1.163  0.00  0.00    -0.096 F 
ATOM      9  I   UNL d   1       2.723  -4.245  -0.021  0.00  0.00    -0.060 I 
ATOM     10  F2  UNL d   1      -0.443  -3.800  -0.175  0.00  0.00    -0.096 F 
ATOM     11  F3  UNL d   1      -1.996  -1.680   0.481  0.00  0.00    -0.097 F 
ATOM     12  F4  UNL d   1      -0.871   0.599   1.474  0.00  0.00    -0.092 F 
ENDROOT
TORSDOF 0
ENDMDL
