MODEL 1
REMARK minimizedAffinity 1.91231203
REMARK minimizedRMSD -1
REMARK  0 active torsions:
REMARK  status: ('A' for Active; 'I' for Inactive)
ROOT
ATOM      1  C   UNL d   1       1.993  -2.979  -0.263  0.00  0.00     0.124 A 
ATOM      2  C1  UNL d   1       2.296  -1.670   0.086  0.00  0.00     0.062 A 
ATOM      3  C2  UNL d   1       1.307  -0.835   0.597  0.00  0.00     0.162 A 
ATOM      4  C3  UNL d   1       0.005  -1.306   0.764  0.00  0.00    -0.034 A 
ATOM      5  C4  UNL d   1      -0.292  -2.624   0.410  0.00  0.00     0.162 A 
ATOM      6  C5  UNL d   1       0.700  -3.454  -0.100  0.00  0.00     0.062 A 
ATOM      7  F   UNL d   1       0.406  -4.719  -0.436  0.00  0.00    -0.097 F 
ATOM      8  F1  UNL d   1      -1.534  -3.110   0.558  0.00  0.00    -0.096 F 
ATOM      9  I   UNL d   1      -1.477  -0.061   1.527  0.00  0.00    -0.060 I 
ATOM     10  F2  UNL d   1       1.628   0.426   0.925  0.00  0.00    -0.096 F 
ATOM     11  F3  UNL d   1       3.545  -1.207  -0.071  0.00  0.00    -0.097 F 
ATOM     12  F4  UNL d   1       2.947  -3.780  -0.755  0.00  0.00    -0.092 F 
ENDROOT
TORSDOF 0
ENDMDL
