MODEL 1
REMARK minimizedAffinity 5.29864073
REMARK minimizedRMSD -1
REMARK  0 active torsions:
REMARK  status: ('A' for Active; 'I' for Inactive)
ROOT
ATOM      1  C   UNL d   1       0.316  -1.270   1.485  0.00  0.00     0.124 A 
ATOM      2  C1  UNL d   1      -0.213  -2.457   0.996  0.00  0.00     0.062 A 
ATOM      3  C2  UNL d   1       0.612  -3.381   0.361  0.00  0.00     0.162 A 
ATOM      4  C3  UNL d   1       1.974  -3.124   0.213  0.00  0.00    -0.034 A 
ATOM      5  C4  UNL d   1       2.499  -1.928   0.707  0.00  0.00     0.162 A 
ATOM      6  C5  UNL d   1       1.671  -1.007   1.340  0.00  0.00     0.062 A 
ATOM      7  F   UNL d   1       2.183   0.139   1.813  0.00  0.00    -0.097 F 
ATOM      8  F1  UNL d   1       3.805  -1.649   0.582  0.00  0.00    -0.096 F 
ATOM      9  I   UNL d   1       3.211  -4.504  -0.734  0.00  0.00    -0.060 I 
ATOM     10  F2  UNL d   1       0.073  -4.520  -0.102  0.00  0.00    -0.096 F 
ATOM     11  F3  UNL d   1      -1.522  -2.713   1.133  0.00  0.00    -0.097 F 
ATOM     12  F4  UNL d   1      -0.480  -0.382   2.094  0.00  0.00    -0.092 F 
ENDROOT
TORSDOF 0
ENDMDL
