MODEL 1
REMARK minimizedAffinity 4.13634348
REMARK minimizedRMSD -1
REMARK  0 active torsions:
REMARK  status: ('A' for Active; 'I' for Inactive)
ROOT
ATOM      1  C   UNL d   1       0.259  -0.626   0.836  0.00  0.00     0.124 A 
ATOM      2  C1  UNL d   1      -0.219  -1.919   0.680  0.00  0.00     0.062 A 
ATOM      3  C2  UNL d   1       0.653  -2.953   0.350  0.00  0.00     0.162 A 
ATOM      4  C3  UNL d   1       2.014  -2.697   0.176  0.00  0.00    -0.034 A 
ATOM      5  C4  UNL d   1       2.486  -1.393   0.334  0.00  0.00     0.162 A 
ATOM      6  C5  UNL d   1       1.610  -0.364   0.663  0.00  0.00     0.062 A 
ATOM      7  F   UNL d   1       2.074   0.886   0.813  0.00  0.00    -0.097 F 
ATOM      8  F1  UNL d   1       3.788  -1.112   0.174  0.00  0.00    -0.096 F 
ATOM      9  I   UNL d   1       3.321  -4.239  -0.316  0.00  0.00    -0.060 I 
ATOM     10  F2  UNL d   1       0.164  -4.193   0.206  0.00  0.00    -0.096 F 
ATOM     11  F3  UNL d   1      -1.525  -2.175   0.845  0.00  0.00    -0.097 F 
ATOM     12  F4  UNL d   1      -0.583   0.367   1.151  0.00  0.00    -0.092 F 
ENDROOT
TORSDOF 0
ENDMDL
