MODEL 1
REMARK minimizedAffinity 12.0016794
REMARK minimizedRMSD -1
REMARK  0 active torsions:
REMARK  status: ('A' for Active; 'I' for Inactive)
ROOT
ATOM      1  C   UNL d   1       1.259  -2.420   0.380  0.00  0.00     0.124 A 
ATOM      2  C1  UNL d   1       1.791  -1.339   1.070  0.00  0.00     0.062 A 
ATOM      3  C2  UNL d   1       0.948  -0.437   1.713  0.00  0.00     0.162 A 
ATOM      4  C3  UNL d   1      -0.435  -0.612   1.670  0.00  0.00    -0.034 A 
ATOM      5  C4  UNL d   1      -0.962  -1.700   0.972  0.00  0.00     0.162 A 
ATOM      6  C5  UNL d   1      -0.116  -2.599   0.331  0.00  0.00     0.062 A 
ATOM      7  F   UNL d   1      -0.631  -3.642  -0.335  0.00  0.00    -0.097 F 
ATOM      8  F1  UNL d   1      -2.287  -1.898   0.910  0.00  0.00    -0.096 F 
ATOM      9  I   UNL d   1      -1.698   0.735   2.630  0.00  0.00    -0.060 I 
ATOM     10  F2  UNL d   1       1.489   0.598   2.373  0.00  0.00    -0.096 F 
ATOM     11  F3  UNL d   1       3.119  -1.163   1.118  0.00  0.00    -0.097 F 
ATOM     12  F4  UNL d   1       2.072  -3.286  -0.239  0.00  0.00    -0.092 F 
ENDROOT
TORSDOF 0
ENDMDL
