MODEL 1
REMARK minimizedAffinity 3.22148561
REMARK minimizedRMSD -1
REMARK  0 active torsions:
REMARK  status: ('A' for Active; 'I' for Inactive)
ROOT
ATOM      1  C   UNL d   1       0.136  -0.744   1.062  0.00  0.00     0.124 A 
ATOM      2  C1  UNL d   1      -0.370  -1.926   0.537  0.00  0.00     0.062 A 
ATOM      3  C2  UNL d   1       0.491  -2.968   0.204  0.00  0.00     0.162 A 
ATOM      4  C3  UNL d   1       1.866  -2.834   0.396  0.00  0.00    -0.034 A 
ATOM      5  C4  UNL d   1       2.367  -1.642   0.923  0.00  0.00     0.162 A 
ATOM      6  C5  UNL d   1       1.503  -0.604   1.255  0.00  0.00     0.062 A 
ATOM      7  F   UNL d   1       1.993   0.537   1.761  0.00  0.00    -0.097 F 
ATOM      8  F1  UNL d   1       3.683  -1.480   1.120  0.00  0.00    -0.096 F 
ATOM      9  I   UNL d   1       3.155  -4.390  -0.101  0.00  0.00    -0.060 I 
ATOM     10  F2  UNL d   1      -0.025  -4.098  -0.301  0.00  0.00    -0.096 F 
ATOM     11  F3  UNL d   1      -1.690  -2.064   0.350  0.00  0.00    -0.097 F 
ATOM     12  F4  UNL d   1      -0.694   0.257   1.381  0.00  0.00    -0.092 F 
ENDROOT
TORSDOF 0
ENDMDL
