MODEL 1
REMARK minimizedAffinity 3.05543137
REMARK minimizedRMSD -1
REMARK  0 active torsions:
REMARK  status: ('A' for Active; 'I' for Inactive)
ROOT
ATOM      1  C   UNL d   1       0.088  -0.722   1.230  0.00  0.00     0.124 A 
ATOM      2  C1  UNL d   1       1.454  -0.478   1.240  0.00  0.00     0.062 A 
ATOM      3  C2  UNL d   1       2.338  -1.431   0.742  0.00  0.00     0.162 A 
ATOM      4  C3  UNL d   1       1.859  -2.636   0.228  0.00  0.00    -0.034 A 
ATOM      5  C4  UNL d   1       0.483  -2.874   0.222  0.00  0.00     0.162 A 
ATOM      6  C5  UNL d   1      -0.396  -1.919   0.721  0.00  0.00     0.062 A 
ATOM      7  F   UNL d   1      -1.716  -2.156   0.711  0.00  0.00    -0.097 F 
ATOM      8  F1  UNL d   1      -0.012  -4.022  -0.264  0.00  0.00    -0.096 F 
ATOM      9  I   UNL d   1       3.178  -4.063  -0.518  0.00  0.00    -0.060 I 
ATOM     10  F2  UNL d   1       3.654  -1.169   0.764  0.00  0.00    -0.096 F 
ATOM     11  F3  UNL d   1       1.924   0.677   1.731  0.00  0.00    -0.097 F 
ATOM     12  F4  UNL d   1      -0.761   0.196   1.711  0.00  0.00    -0.092 F 
ENDROOT
TORSDOF 0
ENDMDL
