MODEL 1
REMARK minimizedAffinity 10.0783844
REMARK minimizedRMSD -1
REMARK  0 active torsions:
REMARK  status: ('A' for Active; 'I' for Inactive)
ROOT
ATOM      1  C   UNL d   1       0.026  -0.469   0.985  0.00  0.00     0.124 A 
ATOM      2  C1  UNL d   1       1.382  -0.379   0.705  0.00  0.00     0.062 A 
ATOM      3  C2  UNL d   1       2.103  -1.519   0.362  0.00  0.00     0.162 A 
ATOM      4  C3  UNL d   1       1.469  -2.760   0.297  0.00  0.00    -0.034 A 
ATOM      5  C4  UNL d   1       0.105  -2.843   0.581  0.00  0.00     0.162 A 
ATOM      6  C5  UNL d   1      -0.611  -1.700   0.923  0.00  0.00     0.062 A 
ATOM      7  F   UNL d   1      -1.922  -1.789   1.193  0.00  0.00    -0.097 F 
ATOM      8  F1  UNL d   1      -0.536  -4.020   0.528  0.00  0.00    -0.096 F 
ATOM      9  I   UNL d   1       2.544  -4.467  -0.214  0.00  0.00    -0.060 I 
ATOM     10  F2  UNL d   1       3.413  -1.403   0.097  0.00  0.00    -0.096 F 
ATOM     11  F3  UNL d   1       2.000   0.809   0.765  0.00  0.00    -0.097 F 
ATOM     12  F4  UNL d   1      -0.666   0.629   1.315  0.00  0.00    -0.092 F 
ENDROOT
TORSDOF 0
ENDMDL
