MODEL 1
REMARK minimizedAffinity 3.05994582
REMARK minimizedRMSD -1
REMARK  0 active torsions:
REMARK  status: ('A' for Active; 'I' for Inactive)
ROOT
ATOM      1  C   UNL d   1       0.225  -0.840   0.993  0.00  0.00     0.124 A 
ATOM      2  C1  UNL d   1       1.585  -0.576   0.910  0.00  0.00     0.062 A 
ATOM      3  C2  UNL d   1       2.479  -1.597   0.602  0.00  0.00     0.162 A 
ATOM      4  C3  UNL d   1       2.016  -2.893   0.374  0.00  0.00    -0.034 A 
ATOM      5  C4  UNL d   1       0.646  -3.151   0.461  0.00  0.00     0.162 A 
ATOM      6  C5  UNL d   1      -0.243  -2.127   0.769  0.00  0.00     0.062 A 
ATOM      7  F   UNL d   1      -1.557  -2.384   0.849  0.00  0.00    -0.097 F 
ATOM      8  F1  UNL d   1       0.167  -4.386   0.247  0.00  0.00    -0.096 F 
ATOM      9  I   UNL d   1       3.349  -4.423  -0.087  0.00  0.00    -0.060 I 
ATOM     10  F2  UNL d   1       3.788  -1.313   0.528  0.00  0.00    -0.096 F 
ATOM     11  F3  UNL d   1       2.039   0.667   1.128  0.00  0.00    -0.097 F 
ATOM     12  F4  UNL d   1      -0.633   0.144   1.291  0.00  0.00    -0.092 F 
ENDROOT
TORSDOF 0
ENDMDL
