MODEL 1
REMARK minimizedAffinity 6.1479826
REMARK minimizedRMSD -1
REMARK  0 active torsions:
REMARK  status: ('A' for Active; 'I' for Inactive)
ROOT
ATOM      1  C   UNL d   1      -0.076  -0.775   0.948  0.00  0.00     0.124 A 
ATOM      2  C1  UNL d   1      -0.462  -2.102   0.823  0.00  0.00     0.062 A 
ATOM      3  C2  UNL d   1       0.440  -3.052   0.352  0.00  0.00     0.162 A 
ATOM      4  C3  UNL d   1       1.737  -2.678   0.002  0.00  0.00    -0.034 A 
ATOM      5  C4  UNL d   1       2.117  -1.341   0.128  0.00  0.00     0.162 A 
ATOM      6  C5  UNL d   1       1.213  -0.395   0.600  0.00  0.00     0.062 A 
ATOM      7  F   UNL d   1       1.587   0.887   0.719  0.00  0.00    -0.097 F 
ATOM      8  F1  UNL d   1       3.357  -0.947  -0.199  0.00  0.00    -0.096 F 
ATOM      9  I   UNL d   1       3.088  -4.095  -0.704  0.00  0.00    -0.060 I 
ATOM     10  F2  UNL d   1       0.040  -4.328   0.242  0.00  0.00    -0.096 F 
ATOM     11  F3  UNL d   1      -1.707  -2.471   1.158  0.00  0.00    -0.097 F 
ATOM     12  F4  UNL d   1      -0.946   0.137   1.400  0.00  0.00    -0.092 F 
ENDROOT
TORSDOF 0
ENDMDL
