MODEL 1
REMARK minimizedAffinity 4.91210461
REMARK minimizedRMSD -1
REMARK  0 active torsions:
REMARK  status: ('A' for Active; 'I' for Inactive)
ROOT
ATOM      1  C   UNL d   1       0.935  -2.154  -0.380  0.00  0.00     0.124 A 
ATOM      2  C1  UNL d   1      -0.231  -2.576   0.245  0.00  0.00     0.062 A 
ATOM      3  C2  UNL d   1      -0.618  -2.014   1.458  0.00  0.00     0.162 A 
ATOM      4  C3  UNL d   1       0.161  -1.022   2.054  0.00  0.00    -0.034 A 
ATOM      5  C4  UNL d   1       1.332  -0.603   1.420  0.00  0.00     0.162 A 
ATOM      6  C5  UNL d   1       1.715  -1.168   0.208  0.00  0.00     0.062 A 
ATOM      7  F   UNL d   1       2.841  -0.759  -0.394  0.00  0.00    -0.097 F 
ATOM      8  F1  UNL d   1       2.104   0.348   1.966  0.00  0.00    -0.096 F 
ATOM      9  I   UNL d   1      -0.415  -0.178   3.867  0.00  0.00    -0.060 I 
ATOM     10  F2  UNL d   1      -1.749  -2.441   2.039  0.00  0.00    -0.096 F 
ATOM     11  F3  UNL d   1      -0.985  -3.529  -0.321  0.00  0.00    -0.097 F 
ATOM     12  F4  UNL d   1       1.306  -2.698  -1.546  0.00  0.00    -0.092 F 
ENDROOT
TORSDOF 0
ENDMDL
