MODEL 1
REMARK minimizedAffinity -5.42191792
REMARK minimizedRMSD -1
REMARK  1 active torsions:
REMARK  status: ('A' for Active; 'I' for Inactive)
REMARK    1  A    between atoms: N_2  and  C1_3 
ROOT
ATOM      1  C1  UNL d   1       0.846  -2.017   0.985  0.00  0.00     0.143 A 
ATOM      2  C2  UNL d   1      -0.371  -1.627   1.554  0.00  0.00    -0.057 A 
ATOM      3  C3  UNL d   1      -0.951  -0.389   1.250  0.00  0.00     0.033 A 
ATOM      4  C4  UNL d   1      -0.307   0.495   0.391  0.00  0.00    -0.042 A 
ATOM      5  C5  UNL d   1       0.916   0.138  -0.167  0.00  0.00     0.033 A 
ATOM      6  C6  UNL d   1       1.486  -1.102   0.136  0.00  0.00    -0.057 A 
ENDROOT
BRANCH   1   7
ATOM      7  N   UNL d   1       1.522  -3.192   1.324  0.00  0.00    -0.732 N 
ATOM      8  C   UNL d   1       2.607  -3.168   2.281  0.00  0.00     0.284 C 
ATOM      9  H3  UNL d   1       0.893  -3.986   1.428  0.00  0.00     0.395 HD
ENDBRANCH   1   7
TORSDOF 1
ENDMDL
