MODEL 1
REMARK minimizedAffinity -4.21311092
REMARK minimizedRMSD -1
REMARK  1 active torsions:
REMARK  status: ('A' for Active; 'I' for Inactive)
REMARK    1  A    between atoms: N_2  and  C1_3 
ROOT
ATOM      1  C1  UNL d   1       0.216  -0.024   0.002  0.00  0.00     0.143 A 
ATOM      2  C2  UNL d   1       1.529  -0.350  -0.353  0.00  0.00    -0.057 A 
ATOM      3  C3  UNL d   1       2.071  -1.607  -0.057  0.00  0.00     0.033 A 
ATOM      4  C4  UNL d   1       1.314  -2.553   0.627  0.00  0.00    -0.042 A 
ATOM      5  C5  UNL d   1       0.015  -2.242   1.011  0.00  0.00     0.033 A 
ATOM      6  C6  UNL d   1      -0.522  -0.987   0.707  0.00  0.00    -0.057 A 
ENDROOT
BRANCH   1   7
ATOM      7  N   UNL d   1      -0.346   1.242  -0.177  0.00  0.00    -0.732 N 
ATOM      8  C   UNL d   1      -0.896   1.631  -1.458  0.00  0.00     0.284 C 
ATOM      9  H3  UNL d   1      -0.905   1.535   0.621  0.00  0.00     0.395 HD
ENDBRANCH   1   7
TORSDOF 1
ENDMDL
