MODEL 1
REMARK minimizedAffinity -5.21909904
REMARK minimizedRMSD -1
REMARK  1 active torsions:
REMARK  status: ('A' for Active; 'I' for Inactive)
REMARK    1  A    between atoms: N_2  and  C1_3 
ROOT
ATOM      1  C1  UNL d   1      -0.396  -0.687   1.369  0.00  0.00     0.143 A 
ATOM      2  C2  UNL d   1       0.074   0.033   0.266  0.00  0.00    -0.057 A 
ATOM      3  C3  UNL d   1       1.237  -0.353  -0.411  0.00  0.00     0.033 A 
ATOM      4  C4  UNL d   1       1.968  -1.454   0.022  0.00  0.00    -0.042 A 
ATOM      5  C5  UNL d   1       1.534  -2.170   1.132  0.00  0.00     0.033 A 
ATOM      6  C6  UNL d   1       0.368  -1.783   1.800  0.00  0.00    -0.057 A 
ENDROOT
BRANCH   1   7
ATOM      7  N   UNL d   1      -1.490  -0.296   2.145  0.00  0.00    -0.732 N 
ATOM      8  C   UNL d   1      -2.196  -1.259   2.962  0.00  0.00     0.284 C 
ATOM      9  H3  UNL d   1      -1.345   0.605   2.595  0.00  0.00     0.395 HD
ENDBRANCH   1   7
TORSDOF 1
ENDMDL
