MODEL 1
REMARK minimizedAffinity -2.94563699
REMARK minimizedRMSD -1
REMARK  1 active torsions:
REMARK  status: ('A' for Active; 'I' for Inactive)
REMARK    1  A    between atoms: N_2  and  C1_3 
ROOT
ATOM      1  C1  UNL d   1      -0.942   3.438  -3.656  0.00  0.00     0.143 A 
ATOM      2  C2  UNL d   1      -0.636   3.294  -2.299  0.00  0.00    -0.057 A 
ATOM      3  C3  UNL d   1      -1.408   2.477  -1.464  0.00  0.00     0.033 A 
ATOM      4  C4  UNL d   1      -2.520   1.809  -1.968  0.00  0.00    -0.042 A 
ATOM      5  C5  UNL d   1      -2.856   1.958  -3.309  0.00  0.00     0.033 A 
ATOM      6  C6  UNL d   1      -2.078   2.770  -4.139  0.00  0.00    -0.057 A 
ENDROOT
BRANCH   1   7
ATOM      7  N   UNL d   1      -0.272   4.313  -4.515  0.00  0.00    -0.732 N 
ATOM      8  C   UNL d   1       0.462   5.444  -3.990  0.00  0.00     0.284 C 
ATOM      9  H3  UNL d   1       0.200   3.827  -5.274  0.00  0.00     0.395 HD
ENDBRANCH   1   7
TORSDOF 1
ENDMDL
