MODEL 1
REMARK minimizedAffinity -3.18041229
REMARK minimizedRMSD -1
REMARK  1 active torsions:
REMARK  status: ('A' for Active; 'I' for Inactive)
REMARK    1  A    between atoms: N_2  and  C1_3 
ROOT
ATOM      1  C1  UNL d   1      -0.447   0.217  -0.766  0.00  0.00     0.143 A 
ATOM      2  C2  UNL d   1      -0.467  -1.173  -0.928  0.00  0.00    -0.057 A 
ATOM      3  C3  UNL d   1       0.664  -1.952  -0.654  0.00  0.00     0.033 A 
ATOM      4  C4  UNL d   1       1.848  -1.349  -0.241  0.00  0.00    -0.042 A 
ATOM      5  C5  UNL d   1       1.898   0.033  -0.098  0.00  0.00     0.033 A 
ATOM      6  C6  UNL d   1       0.764   0.805  -0.366  0.00  0.00    -0.057 A 
ENDROOT
BRANCH   1   7
ATOM      7  N   UNL d   1      -1.508   1.056  -1.116  0.00  0.00    -0.732 N 
ATOM      8  C   UNL d   1      -1.549   1.689  -2.416  0.00  0.00     0.284 C 
ATOM      9  H3  UNL d   1      -2.406   0.699  -0.798  0.00  0.00     0.395 HD
ENDBRANCH   1   7
TORSDOF 1
ENDMDL
