MODEL 1
REMARK minimizedAffinity -2.92731881
REMARK minimizedRMSD -1
REMARK  1 active torsions:
REMARK  status: ('A' for Active; 'I' for Inactive)
REMARK    1  A    between atoms: N_2  and  C1_3 
ROOT
ATOM      1  C1  UNL d   1       0.237  -1.137   0.482  0.00  0.00     0.143 A 
ATOM      2  C2  UNL d   1      -0.715  -1.436   1.462  0.00  0.00    -0.057 A 
ATOM      3  C3  UNL d   1      -0.363  -2.120   2.632  0.00  0.00     0.033 A 
ATOM      4  C4  UNL d   1       0.947  -2.545   2.828  0.00  0.00    -0.042 A 
ATOM      5  C5  UNL d   1       1.905  -2.281   1.856  0.00  0.00     0.033 A 
ATOM      6  C6  UNL d   1       1.548  -1.591   0.693  0.00  0.00    -0.057 A 
ENDROOT
BRANCH   1   7
ATOM      7  N   UNL d   1      -0.071  -0.546  -0.746  0.00  0.00    -0.732 N 
ATOM      8  C   UNL d   1      -0.747   0.732  -0.801  0.00  0.00     0.284 C 
ATOM      9  H3  UNL d   1       0.681  -0.648  -1.425  0.00  0.00     0.395 HD
ENDBRANCH   1   7
TORSDOF 1
ENDMDL
