MODEL 1
REMARK minimizedAffinity -4.46756268
REMARK minimizedRMSD -1
REMARK  1 active torsions:
REMARK  status: ('A' for Active; 'I' for Inactive)
REMARK    1  A    between atoms: N_2  and  C1_3 
ROOT
ATOM      1  C1  UNL d   1      -0.026   0.181   0.382  0.00  0.00     0.143 A 
ATOM      2  C2  UNL d   1       1.091  -0.202  -0.369  0.00  0.00    -0.057 A 
ATOM      3  C3  UNL d   1       1.962  -1.201   0.083  0.00  0.00     0.033 A 
ATOM      4  C4  UNL d   1       1.746  -1.817   1.311  0.00  0.00    -0.042 A 
ATOM      5  C5  UNL d   1       0.656  -1.435   2.085  0.00  0.00     0.033 A 
ATOM      6  C6  UNL d   1      -0.214  -0.442   1.626  0.00  0.00    -0.057 A 
ENDROOT
BRANCH   1   7
ATOM      7  N   UNL d   1      -0.874   1.235   0.033  0.00  0.00    -0.732 N 
ATOM      8  C   UNL d   1      -1.447   1.313  -1.293  0.00  0.00     0.284 C 
ATOM      9  H3  UNL d   1      -1.520   1.477   0.781  0.00  0.00     0.395 HD
ENDBRANCH   1   7
TORSDOF 1
ENDMDL
