MODEL 1
REMARK minimizedAffinity -2.54204178
REMARK minimizedRMSD -1
REMARK  1 active torsions:
REMARK  status: ('A' for Active; 'I' for Inactive)
REMARK    1  A    between atoms: N_2  and  C1_3 
ROOT
ATOM      1  C1  UNL d   1      -0.192  -0.051   0.386  0.00  0.00     0.143 A 
ATOM      2  C2  UNL d   1       0.985  -0.666  -0.053  0.00  0.00    -0.057 A 
ATOM      3  C3  UNL d   1       1.558  -1.728   0.657  0.00  0.00     0.033 A 
ATOM      4  C4  UNL d   1       0.978  -2.175   1.840  0.00  0.00    -0.042 A 
ATOM      5  C5  UNL d   1      -0.179  -1.562   2.309  0.00  0.00     0.033 A 
ATOM      6  C6  UNL d   1      -0.750  -0.507   1.591  0.00  0.00    -0.057 A 
ENDROOT
BRANCH   1   7
ATOM      7  N   UNL d   1      -0.757   1.073  -0.223  0.00  0.00    -0.732 N 
ATOM      8  C   UNL d   1      -1.604   0.932  -1.387  0.00  0.00     0.284 C 
ATOM      9  H3  UNL d   1      -1.090   1.755   0.454  0.00  0.00     0.395 HD
ENDBRANCH   1   7
TORSDOF 1
ENDMDL
