MODEL 1
REMARK minimizedAffinity -4.84173489
REMARK minimizedRMSD -1
REMARK  1 active torsions:
REMARK  status: ('A' for Active; 'I' for Inactive)
REMARK    1  A    between atoms: N_2  and  C1_3 
ROOT
ATOM      1  C1  UNL d   1       0.404  -1.055   0.202  0.00  0.00     0.143 A 
ATOM      2  C2  UNL d   1       1.464  -1.961   0.314  0.00  0.00    -0.057 A 
ATOM      3  C3  UNL d   1       1.495  -2.919   1.335  0.00  0.00     0.033 A 
ATOM      4  C4  UNL d   1       0.477  -2.969   2.282  0.00  0.00    -0.042 A 
ATOM      5  C5  UNL d   1      -0.574  -2.062   2.205  0.00  0.00     0.033 A 
ATOM      6  C6  UNL d   1      -0.602  -1.112   1.179  0.00  0.00    -0.057 A 
ENDROOT
BRANCH   1   7
ATOM      7  N   UNL d   1       0.364  -0.016  -0.731  0.00  0.00    -0.732 N 
ATOM      8  C   UNL d   1      -0.425   1.171  -0.479  0.00  0.00     0.284 C 
ATOM      9  H3  UNL d   1       1.276   0.171  -1.143  0.00  0.00     0.395 HD
ENDBRANCH   1   7
TORSDOF 1
ENDMDL
