MODEL 1
REMARK minimizedAffinity -2.43187571
REMARK minimizedRMSD -1
REMARK  1 active torsions:
REMARK  status: ('A' for Active; 'I' for Inactive)
REMARK    1  A    between atoms: N_2  and  C1_3 
ROOT
ATOM      1  C1  UNL d   1      -1.088   1.018  -1.279  0.00  0.00     0.143 A 
ATOM      2  C2  UNL d   1      -1.515   2.280  -1.705  0.00  0.00    -0.057 A 
ATOM      3  C3  UNL d   1      -2.360   2.425  -2.812  0.00  0.00     0.033 A 
ATOM      4  C4  UNL d   1      -2.770   1.308  -3.533  0.00  0.00    -0.042 A 
ATOM      5  C5  UNL d   1      -2.337   0.046  -3.143  0.00  0.00     0.033 A 
ATOM      6  C6  UNL d   1      -1.499  -0.093  -2.032  0.00  0.00    -0.057 A 
ENDROOT
BRANCH   1   7
ATOM      7  N   UNL d   1      -0.169   0.816  -0.247  0.00  0.00    -0.732 N 
ATOM      8  C   UNL d   1       0.917  -0.128  -0.401  0.00  0.00     0.284 C 
ATOM      9  H3  UNL d   1       0.097   1.684   0.212  0.00  0.00     0.395 HD
ENDBRANCH   1   7
TORSDOF 1
ENDMDL
