MODEL 1
REMARK minimizedAffinity -1.15117443
REMARK minimizedRMSD -1
REMARK  0 active torsions:
REMARK  status: ('A' for Active; 'I' for Inactive)
ROOT
ATOM      1  C   UNL d   1       5.982   1.289   5.173  0.00  0.00    -0.002 A 
ATOM      2  C1  UNL d   1       5.994   1.172   3.790  0.00  0.00     0.010 A 
ATOM      3  C2  UNL d   1       5.999  -0.086   3.184  0.00  0.00     0.041 A 
ATOM      4  C3  UNL d   1       5.990  -1.235   3.998  0.00  0.00    -0.075 A 
ATOM      5  S   UNL d   1       5.992  -2.879   3.477  0.00  0.00     0.015 SA
ATOM      6  C4  UNL d   1       5.977  -3.464   5.078  0.00  0.00     0.022 A 
ATOM      7  C5  UNL d   1       5.971  -2.445   6.000  0.00  0.00     0.026 A 
ATOM      8  C6  UNL d   1       5.977  -1.143   5.393  0.00  0.00    -0.082 A 
ATOM      9  C7  UNL d   1       5.973   0.146   5.978  0.00  0.00     0.045 A 
ENDROOT
TORSDOF 0
ENDMDL
