MODEL 1
REMARK minimizedAffinity 0.64466548
REMARK minimizedRMSD -1
REMARK  0 active torsions:
REMARK  status: ('A' for Active; 'I' for Inactive)
ROOT
ATOM      1  C   UNL d   1       5.961   3.728   4.262  0.00  0.00    -0.002 A 
ATOM      2  C1  UNL d   1       5.984   3.268   2.953  0.00  0.00     0.010 A 
ATOM      3  C2  UNL d   1       5.999   1.899   2.682  0.00  0.00     0.041 A 
ATOM      4  C3  UNL d   1       5.987   0.990   3.759  0.00  0.00    -0.075 A 
ATOM      5  S   UNL d   1       6.000  -0.731   3.666  0.00  0.00     0.015 SA
ATOM      6  C4  UNL d   1       5.973  -0.897   5.363  0.00  0.00     0.022 A 
ATOM      7  C5  UNL d   1       5.955   0.322   5.999  0.00  0.00     0.026 A 
ATOM      8  C6  UNL d   1       5.962   1.429   5.085  0.00  0.00    -0.082 A 
ATOM      9  C7  UNL d   1       5.949   2.824   5.328  0.00  0.00     0.045 A 
ENDROOT
TORSDOF 0
ENDMDL
