MODEL 1
REMARK minimizedAffinity -2.39180923
REMARK minimizedRMSD -1
REMARK  0 active torsions:
REMARK  status: ('A' for Active; 'I' for Inactive)
ROOT
ATOM      1  C   UNL d   1       5.980  -0.775   4.512  0.00  0.00    -0.002 A 
ATOM      2  C1  UNL d   1       5.981  -0.215   5.782  0.00  0.00     0.010 A 
ATOM      3  C2  UNL d   1       5.988   1.171   5.947  0.00  0.00     0.041 A 
ATOM      4  C3  UNL d   1       5.992   1.994   4.804  0.00  0.00    -0.075 A 
ATOM      5  S   UNL d   1       5.999   3.718   4.763  0.00  0.00     0.015 SA
ATOM      6  C4  UNL d   1       6.000   3.752   3.060  0.00  0.00     0.022 A 
ATOM      7  C5  UNL d   1       5.995   2.488   2.518  0.00  0.00     0.026 A 
ATOM      8  C6  UNL d   1       5.989   1.454   3.514  0.00  0.00    -0.082 A 
ATOM      9  C7  UNL d   1       5.983   0.045   3.380  0.00  0.00     0.045 A 
ENDROOT
TORSDOF 0
ENDMDL
