MODEL 1
REMARK minimizedAffinity 6.91387892
REMARK minimizedRMSD -1
REMARK  0 active torsions:
REMARK  status: ('A' for Active; 'I' for Inactive)
ROOT
ATOM      1  C   UNL d   1       5.773  -2.537   3.903  0.00  0.00    -0.002 A 
ATOM      2  C1  UNL d   1       5.921  -2.546   5.283  0.00  0.00     0.010 A 
ATOM      3  C2  UNL d   1       6.000  -1.349   5.996  0.00  0.00     0.041 A 
ATOM      4  C3  UNL d   1       5.925  -0.130   5.293  0.00  0.00    -0.075 A 
ATOM      5  S   UNL d   1       5.998   1.459   5.957  0.00  0.00     0.015 SA
ATOM      6  C4  UNL d   1       5.835   2.187   4.425  0.00  0.00     0.022 A 
ATOM      7  C5  UNL d   1       5.726   1.256   3.420  0.00  0.00     0.026 A 
ATOM      8  C6  UNL d   1       5.776  -0.096   3.904  0.00  0.00    -0.082 A 
ATOM      9  C7  UNL d   1       5.700  -1.327   3.209  0.00  0.00     0.045 A 
ENDROOT
TORSDOF 0
ENDMDL
