MODEL 1
REMARK minimizedAffinity 4.58278704
REMARK minimizedRMSD -1
REMARK  0 active torsions:
REMARK  status: ('A' for Active; 'I' for Inactive)
ROOT
ATOM      1  C   UNL d   1       5.987   0.049   3.859  0.00  0.00    -0.002 A 
ATOM      2  C1  UNL d   1       5.993   0.377   5.207  0.00  0.00     0.010 A 
ATOM      3  C2  UNL d   1       5.998   1.713   5.612  0.00  0.00     0.041 A 
ATOM      4  C3  UNL d   1       5.994   2.723   4.630  0.00  0.00    -0.075 A 
ATOM      5  S   UNL d   1       5.998   4.427   4.892  0.00  0.00     0.015 SA
ATOM      6  C4  UNL d   1       5.991   4.759   3.220  0.00  0.00     0.022 A 
ATOM      7  C5  UNL d   1       5.986   3.610   2.466  0.00  0.00     0.026 A 
ATOM      8  C6  UNL d   1       5.987   2.417   3.266  0.00  0.00    -0.082 A 
ATOM      9  C7  UNL d   1       5.983   1.053   2.887  0.00  0.00     0.045 A 
ENDROOT
TORSDOF 0
ENDMDL
