MODEL 1
REMARK minimizedAffinity -1.58360445
REMARK minimizedRMSD -1
REMARK  0 active torsions:
REMARK  status: ('A' for Active; 'I' for Inactive)
ROOT
ATOM      1  C   UNL d   1       5.288   4.125   3.603  0.00  0.00    -0.002 A 
ATOM      2  C1  UNL d   1       5.754   4.280   4.901  0.00  0.00     0.010 A 
ATOM      3  C2  UNL d   1       5.998   3.165   5.705  0.00  0.00     0.041 A 
ATOM      4  C3  UNL d   1       5.767   1.880   5.177  0.00  0.00    -0.075 A 
ATOM      5  S   UNL d   1       5.997   0.370   5.977  0.00  0.00     0.015 SA
ATOM      6  C4  UNL d   1       5.484  -0.515   4.615  0.00  0.00     0.022 A 
ATOM      7  C5  UNL d   1       5.141   0.305   3.566  0.00  0.00     0.026 A 
ATOM      8  C6  UNL d   1       5.299   1.699   3.872  0.00  0.00    -0.082 A 
ATOM      9  C7  UNL d   1       5.060   2.849   3.083  0.00  0.00     0.045 A 
ENDROOT
TORSDOF 0
ENDMDL
