MODEL 1
REMARK minimizedAffinity 0.209980443
REMARK minimizedRMSD -1
REMARK  0 active torsions:
REMARK  status: ('A' for Active; 'I' for Inactive)
ROOT
ATOM      1  C   UNL d   1       5.955   2.960   3.314  0.00  0.00    -0.002 A 
ATOM      2  C1  UNL d   1       5.963   2.125   2.205  0.00  0.00     0.010 A 
ATOM      3  C2  UNL d   1       5.976   0.738   2.360  0.00  0.00     0.041 A 
ATOM      4  C3  UNL d   1       5.979   0.197   3.661  0.00  0.00    -0.075 A 
ATOM      5  S   UNL d   1       5.993  -1.471   4.094  0.00  0.00     0.015 SA
ATOM      6  C4  UNL d   1       5.988  -1.117   5.761  0.00  0.00     0.022 A 
ATOM      7  C5  UNL d   1       5.976   0.237   6.000  0.00  0.00     0.026 A 
ATOM      8  C6  UNL d   1       5.970   1.017   4.794  0.00  0.00    -0.082 A 
ATOM      9  C7  UNL d   1       5.958   2.420   4.603  0.00  0.00     0.045 A 
ENDROOT
TORSDOF 0
ENDMDL
