MODEL 1
REMARK minimizedAffinity 0.227214783
REMARK minimizedRMSD -1
REMARK  0 active torsions:
REMARK  status: ('A' for Active; 'I' for Inactive)
ROOT
ATOM      1  C   UNL d   1       5.948   3.160   4.711  0.00  0.00    -0.002 A 
ATOM      2  C1  UNL d   1       5.938   2.889   3.350  0.00  0.00     0.010 A 
ATOM      3  C2  UNL d   1       5.947   1.571   2.888  0.00  0.00     0.041 A 
ATOM      4  C3  UNL d   1       5.964   0.520   3.826  0.00  0.00    -0.075 A 
ATOM      5  S   UNL d   1       5.977  -1.171   3.492  0.00  0.00     0.015 SA
ATOM      6  C4  UNL d   1       5.995  -1.574   5.148  0.00  0.00     0.022 A 
ATOM      7  C5  UNL d   1       5.992  -0.457   5.950  0.00  0.00     0.026 A 
ATOM      8  C6  UNL d   1       5.974   0.768   5.202  0.00  0.00    -0.082 A 
ATOM      9  C7  UNL d   1       5.965   2.115   5.639  0.00  0.00     0.045 A 
ENDROOT
TORSDOF 0
ENDMDL
