MODEL 1
REMARK minimizedAffinity -3.39902329
REMARK minimizedRMSD -1
REMARK  0 active torsions:
REMARK  status: ('A' for Active; 'I' for Inactive)
ROOT
ATOM      1  C   UNL d   1       5.994  -4.108   5.211  0.00  0.00    -0.002 A 
ATOM      2  C1  UNL d   1       5.987  -4.026   3.826  0.00  0.00     0.010 A 
ATOM      3  C2  UNL d   1       5.982  -2.784   3.188  0.00  0.00     0.041 A 
ATOM      4  C3  UNL d   1       5.985  -1.615   3.973  0.00  0.00    -0.075 A 
ATOM      5  S   UNL d   1       5.981   0.015   3.410  0.00  0.00     0.015 SA
ATOM      6  C4  UNL d   1       5.988   0.641   4.995  0.00  0.00     0.022 A 
ATOM      7  C5  UNL d   1       5.994  -0.355   5.943  0.00  0.00     0.026 A 
ATOM      8  C6  UNL d   1       5.993  -1.672   5.369  0.00  0.00    -0.082 A 
ATOM      9  C7  UNL d   1       5.997  -2.946   5.986  0.00  0.00     0.045 A 
ENDROOT
TORSDOF 0
ENDMDL
