MODEL 1
REMARK minimizedAffinity 0.951260448
REMARK minimizedRMSD -1
REMARK  0 active torsions:
REMARK  status: ('A' for Active; 'I' for Inactive)
ROOT
ATOM      1  C   UNL d   1       5.988  -1.573   4.508  0.00  0.00    -0.002 A 
ATOM      2  C1  UNL d   1       5.986  -1.050   5.794  0.00  0.00     0.010 A 
ATOM      3  C2  UNL d   1       5.989   0.331   5.999  0.00  0.00     0.041 A 
ATOM      4  C3  UNL d   1       5.992   1.186   4.879  0.00  0.00    -0.075 A 
ATOM      5  S   UNL d   1       5.995   2.910   4.888  0.00  0.00     0.015 SA
ATOM      6  C4  UNL d   1       5.998   2.993   3.186  0.00  0.00     0.022 A 
ATOM      7  C5  UNL d   1       5.997   1.745   2.609  0.00  0.00     0.026 A 
ATOM      8  C6  UNL d   1       5.993   0.683   3.575  0.00  0.00    -0.082 A 
ATOM      9  C7  UNL d   1       5.991  -0.722   3.400  0.00  0.00     0.045 A 
ENDROOT
TORSDOF 0
ENDMDL
