MODEL 1
REMARK minimizedAffinity 5.51569986
REMARK minimizedRMSD -1
REMARK  0 active torsions:
REMARK  status: ('A' for Active; 'I' for Inactive)
ROOT
ATOM      1  C   UNL d   1       5.998   1.439   2.943  0.00  0.00    -0.002 A 
ATOM      2  C1  UNL d   1       5.995   1.183   4.307  0.00  0.00     0.010 A 
ATOM      3  C2  UNL d   1       5.995   2.233   5.227  0.00  0.00     0.041 A 
ATOM      4  C3  UNL d   1       5.996   3.558   4.748  0.00  0.00    -0.075 A 
ATOM      5  S   UNL d   1       5.995   5.003   5.688  0.00  0.00     0.015 SA
ATOM      6  C4  UNL d   1       5.997   5.994   4.302  0.00  0.00     0.022 A 
ATOM      7  C5  UNL d   1       5.999   5.257   3.141  0.00  0.00     0.026 A 
ATOM      8  C6  UNL d   1       5.998   3.841   3.379  0.00  0.00    -0.082 A 
ATOM      9  C7  UNL d   1       5.999   2.754   2.472  0.00  0.00     0.045 A 
ENDROOT
TORSDOF 0
ENDMDL
