MODEL 1
REMARK minimizedAffinity -5.23549843
REMARK minimizedRMSD -1
REMARK  2 active torsions:
REMARK  status: ('A' for Active; 'I' for Inactive)
REMARK    1  A    between atoms: C2'_3  and  C1'_4 
REMARK    2  A    between atoms: C1'_4  and  C1_5 
ROOT
ATOM      1  C1  I4B d   1       0.183  -0.096   0.131  0.00  0.00    -0.075 A 
ATOM      2  C2  I4B d   1       0.879  -0.067   1.314  0.00  0.00     0.003 A 
ATOM      3  C3  I4B d   1       0.566   0.897   2.302  0.00  0.00     0.002 A 
ATOM      4  C4  I4B d   1      -0.411   1.838   2.048  0.00  0.00    -0.004 A 
ATOM      5  C5  I4B d   1      -1.131   1.793   0.858  0.00  0.00     0.002 A 
ATOM      6  C6  I4B d   1      -0.842   0.812  -0.101  0.00  0.00     0.003 A 
ENDROOT
BRANCH   1   7
ATOM      7  C1' I4B d   1       0.562  -1.107  -0.904  0.00  0.00     0.060 C 
BRANCH   7   8
ATOM      8  C2' I4B d   1      -0.015  -2.444  -0.485  0.00  0.00    -0.013 C 
ATOM      9  C4' I4B d   1      -1.162  -2.845  -1.374  0.00  0.00     0.013 C 
ATOM     10  C3' I4B d   1       1.088  -3.459  -0.533  0.00  0.00     0.013 C 
ENDBRANCH   7   8
ENDBRANCH   1   7
TORSDOF 2
ENDMDL
