MODEL 1
REMARK minimizedAffinity -6.57690382
REMARK minimizedRMSD -1
REMARK  2 active torsions:
REMARK  status: ('A' for Active; 'I' for Inactive)
REMARK    1  A    between atoms: C2'_3  and  C1'_4 
REMARK    2  A    between atoms: C1'_4  and  C1_5 
ROOT
ATOM      1  C1  I4B d   1      -0.098   0.323  -0.326  0.00  0.00    -0.075 A 
ATOM      2  C2  I4B d   1      -0.447   1.623  -0.593  0.00  0.00     0.003 A 
ATOM      3  C3  I4B d   1      -0.727   2.518   0.468  0.00  0.00     0.002 A 
ATOM      4  C4  I4B d   1      -0.696   2.061   1.770  0.00  0.00    -0.004 A 
ATOM      5  C5  I4B d   1      -0.319   0.748   2.040  0.00  0.00     0.002 A 
ATOM      6  C6  I4B d   1      -0.007  -0.123   0.986  0.00  0.00     0.003 A 
ENDROOT
BRANCH   1   7
ATOM      7  C1' I4B d   1       0.159  -0.604  -1.471  0.00  0.00     0.060 C 
BRANCH   7   8
ATOM      8  C2' I4B d   1      -0.360  -1.975  -1.088  0.00  0.00    -0.013 C 
ATOM      9  C4' I4B d   1      -1.598  -2.327  -1.869  0.00  0.00     0.013 C 
ATOM     10  C3' I4B d   1       0.736  -2.970  -1.331  0.00  0.00     0.013 C 
ENDBRANCH   7   8
ENDBRANCH   1   7
TORSDOF 2
ENDMDL
