MODEL 1
REMARK minimizedAffinity -4.47996759
REMARK minimizedRMSD -1
REMARK  2 active torsions:
REMARK  status: ('A' for Active; 'I' for Inactive)
REMARK    1  A    between atoms: C2'_3  and  C1'_4 
REMARK    2  A    between atoms: C1'_4  and  C1_5 
ROOT
ATOM      1  C1  I4B d   1      -0.248   0.167   0.534  0.00  0.00    -0.075 A 
ATOM      2  C2  I4B d   1       0.795  -0.178   1.356  0.00  0.00     0.003 A 
ATOM      3  C3  I4B d   1       1.245   0.721   2.353  0.00  0.00     0.002 A 
ATOM      4  C4  I4B d   1       0.660   1.967   2.458  0.00  0.00    -0.004 A 
ATOM      5  C5  I4B d   1      -0.413   2.306   1.639  0.00  0.00     0.002 A 
ATOM      6  C6  I4B d   1      -0.878   1.396   0.678  0.00  0.00     0.003 A 
ENDROOT
BRANCH   1   7
ATOM      7  C1' I4B d   1      -0.676  -0.794  -0.530  0.00  0.00     0.060 C 
BRANCH   7   8
ATOM      8  C2' I4B d   1       0.572  -1.394  -1.146  0.00  0.00    -0.013 C 
ATOM      9  C4' I4B d   1       0.353  -2.835  -1.525  0.00  0.00     0.013 C 
ATOM     10  C3' I4B d   1       0.939  -0.569  -2.343  0.00  0.00     0.013 C 
ENDBRANCH   7   8
ENDBRANCH   1   7
TORSDOF 2
ENDMDL
