MODEL 1
REMARK minimizedAffinity -5.51319408
REMARK minimizedRMSD -1
REMARK  2 active torsions:
REMARK  status: ('A' for Active; 'I' for Inactive)
REMARK    1  A    between atoms: C2'_3  and  C1'_4 
REMARK    2  A    between atoms: C1'_4  and  C1_5 
ROOT
ATOM      1  C1  I4B d   1      -0.259   0.337   0.716  0.00  0.00    -0.075 A 
ATOM      2  C2  I4B d   1      -0.817   1.132  -0.254  0.00  0.00     0.003 A 
ATOM      3  C3  I4B d   1      -0.828   2.540  -0.103  0.00  0.00     0.002 A 
ATOM      4  C4  I4B d   1      -0.319   3.104   1.049  0.00  0.00    -0.004 A 
ATOM      5  C5  I4B d   1       0.267   2.298   2.021  0.00  0.00     0.002 A 
ATOM      6  C6  I4B d   1       0.309   0.907   1.848  0.00  0.00     0.003 A 
ENDROOT
BRANCH   1   7
ATOM      7  C1' I4B d   1      -0.294  -1.148   0.539  0.00  0.00     0.060 C 
BRANCH   7   8
ATOM      8  C2' I4B d   1       0.041  -1.454  -0.906  0.00  0.00    -0.013 C 
ATOM      9  C4' I4B d   1       1.522  -1.352  -1.156  0.00  0.00     0.013 C 
ATOM     10  C3' I4B d   1      -0.468  -2.830  -1.218  0.00  0.00     0.013 C 
ENDBRANCH   7   8
ENDBRANCH   1   7
TORSDOF 2
ENDMDL
