MODEL 1
REMARK minimizedAffinity -3.85177112
REMARK minimizedRMSD -1
REMARK  2 active torsions:
REMARK  status: ('A' for Active; 'I' for Inactive)
REMARK    1  A    between atoms: C2'_3  and  C1'_4 
REMARK    2  A    between atoms: C1'_4  and  C1_5 
ROOT
ATOM      1  C1  I4B d   1       0.183  -0.875  -0.011  0.00  0.00    -0.075 A 
ATOM      2  C2  I4B d   1      -0.538   0.160  -0.552  0.00  0.00     0.003 A 
ATOM      3  C3  I4B d   1      -0.908   1.267   0.250  0.00  0.00     0.002 A 
ATOM      4  C4  I4B d   1      -0.583   1.273   1.591  0.00  0.00    -0.004 A 
ATOM      5  C5  I4B d   1       0.169   0.234   2.133  0.00  0.00     0.002 A 
ATOM      6  C6  I4B d   1       0.565  -0.841   1.324  0.00  0.00     0.003 A 
ENDROOT
BRANCH   1   7
ATOM      7  C1' I4B d   1       0.530  -2.043  -0.879  0.00  0.00     0.060 C 
BRANCH   7   8
ATOM      8  C2' I4B d   1      -0.765  -2.681  -1.340  0.00  0.00    -0.013 C 
ATOM      9  C4' I4B d   1      -0.826  -2.764  -2.843  0.00  0.00     0.013 C 
ATOM     10  C3' I4B d   1      -0.857  -4.042  -0.718  0.00  0.00     0.013 C 
ENDBRANCH   7   8
ENDBRANCH   1   7
TORSDOF 2
ENDMDL
