MODEL 1
REMARK minimizedAffinity 0.722907126
REMARK minimizedRMSD -1
REMARK  2 active torsions:
REMARK  status: ('A' for Active; 'I' for Inactive)
REMARK    1  A    between atoms: C2'_3  and  C1'_4 
REMARK    2  A    between atoms: C1'_4  and  C1_5 
ROOT
ATOM      1  C1  I4B d   1       0.010  -0.163  -0.174  0.00  0.00    -0.075 A 
ATOM      2  C2  I4B d   1       0.560  -0.071   1.080  0.00  0.00     0.003 A 
ATOM      3  C3  I4B d   1       0.099   0.911   1.990  0.00  0.00     0.002 A 
ATOM      4  C4  I4B d   1      -0.873   1.806   1.590  0.00  0.00    -0.004 A 
ATOM      5  C5  I4B d   1      -1.446   1.696   0.327  0.00  0.00     0.002 A 
ATOM      6  C6  I4B d   1      -1.011   0.698  -0.557  0.00  0.00     0.003 A 
ENDROOT
BRANCH   1   7
ATOM      7  C1' I4B d   1       0.544  -1.190  -1.122  0.00  0.00     0.060 C 
BRANCH   7   8
ATOM      8  C2' I4B d   1      -0.519  -2.254  -1.304  0.00  0.00    -0.013 C 
ATOM      9  C4' I4B d   1      -1.298  -2.035  -2.574  0.00  0.00     0.013 C 
ATOM     10  C3' I4B d   1       0.161  -3.591  -1.310  0.00  0.00     0.013 C 
ENDBRANCH   7   8
ENDBRANCH   1   7
TORSDOF 2
ENDMDL
