MODEL 1
REMARK minimizedAffinity 4.70705843
REMARK minimizedRMSD -1
REMARK  0 active torsions:
REMARK  status: ('A' for Active; 'I' for Inactive)
ROOT
ATOM      1  C   UNL d   1       1.501   1.915  -5.994  0.00  0.00     0.077 C 
ATOM      2  C1  UNL d   1       2.230   3.225  -5.992  0.00  0.00    -0.074 A 
ATOM      3  C2  UNL d   1       1.531   4.437  -5.987  0.00  0.00    -0.005 A 
ATOM      4  C3  UNL d   1       2.223   5.648  -5.976  0.00  0.00     0.006 A 
ATOM      5  C4  UNL d   1       3.619   5.659  -5.970  0.00  0.00    -0.005 A 
ATOM      6  C5  UNL d   1       4.334   4.458  -5.975  0.00  0.00    -0.074 A 
ATOM      7  C6  UNL d   1       5.834   4.453  -5.959  0.00  0.00     0.077 C 
ATOM      8  C7  UNL d   1       3.632   3.245  -5.979  0.00  0.00    -0.001 A 
ENDROOT
TORSDOF 0
ENDMDL
