MODEL 1
REMARK minimizedAffinity -0.11115922
REMARK minimizedRMSD -1
REMARK  0 active torsions:
REMARK  status: ('A' for Active; 'I' for Inactive)
ROOT
ATOM      1  C   UNL d   1       0.684   2.584  -2.913  0.00  0.00     0.077 C 
ATOM      2  C1  UNL d   1       0.701   2.398  -1.424  0.00  0.00    -0.074 A 
ATOM      3  C2  UNL d   1       1.240   3.377  -0.584  0.00  0.00    -0.005 A 
ATOM      4  C3  UNL d   1       1.241   3.195   0.799  0.00  0.00     0.006 A 
ATOM      5  C4  UNL d   1       0.703   2.033   1.354  0.00  0.00    -0.005 A 
ATOM      6  C5  UNL d   1       0.158   1.044   0.530  0.00  0.00    -0.074 A 
ATOM      7  C6  UNL d   1      -0.433  -0.206   1.111  0.00  0.00     0.077 C 
ATOM      8  C7  UNL d   1       0.155   1.237  -0.858  0.00  0.00    -0.001 A 
ENDROOT
TORSDOF 0
ENDMDL
