MODEL 1
REMARK minimizedAffinity 1.07063425
REMARK minimizedRMSD -1
REMARK  0 active torsions:
REMARK  status: ('A' for Active; 'I' for Inactive)
ROOT
ATOM      1  C   UNL d   1       0.817   3.488  -2.917  0.00  0.00     0.077 C 
ATOM      2  C1  UNL d   1       0.934   2.190  -2.174  0.00  0.00    -0.074 A 
ATOM      3  C2  UNL d   1       1.814   1.192  -2.607  0.00  0.00    -0.005 A 
ATOM      4  C3  UNL d   1       1.919  -0.006  -1.901  0.00  0.00     0.006 A 
ATOM      5  C4  UNL d   1       1.148  -0.218  -0.757  0.00  0.00    -0.005 A 
ATOM      6  C5  UNL d   1       0.264   0.769  -0.310  0.00  0.00    -0.074 A 
ATOM      7  C6  UNL d   1      -0.565   0.561   0.923  0.00  0.00     0.077 C 
ATOM      8  C7  UNL d   1       0.169   1.973  -1.020  0.00  0.00    -0.001 A 
ENDROOT
TORSDOF 0
ENDMDL
