MODEL 1
REMARK minimizedAffinity -2.84299803
REMARK minimizedRMSD -1
REMARK  0 active torsions:
REMARK  status: ('A' for Active; 'I' for Inactive)
ROOT
ATOM      1  C   UNL d   1      -3.735   5.964  -5.998  0.00  0.00     0.077 C 
ATOM      2  C1  UNL d   1      -2.678   4.900  -5.989  0.00  0.00    -0.074 A 
ATOM      3  C2  UNL d   1      -3.023   3.544  -5.991  0.00  0.00    -0.005 A 
ATOM      4  C3  UNL d   1      -2.028   2.566  -5.992  0.00  0.00     0.006 A 
ATOM      5  C4  UNL d   1      -0.682   2.932  -5.992  0.00  0.00    -0.005 A 
ATOM      6  C5  UNL d   1      -0.318   4.283  -5.991  0.00  0.00    -0.074 A 
ATOM      7  C6  UNL d   1       1.124   4.694  -6.000  0.00  0.00     0.077 C 
ATOM      8  C7  UNL d   1      -1.323   5.260  -5.997  0.00  0.00    -0.001 A 
ENDROOT
TORSDOF 0
ENDMDL
