MODEL 1
REMARK minimizedAffinity 2.18194222
REMARK minimizedRMSD -1
REMARK  0 active torsions:
REMARK  status: ('A' for Active; 'I' for Inactive)
ROOT
ATOM      1  C   UNL d   1      -3.856   5.999  -5.986  0.00  0.00     0.077 C 
ATOM      2  C1  UNL d   1      -2.885   4.857  -5.983  0.00  0.00    -0.074 A 
ATOM      3  C2  UNL d   1      -3.333   3.532  -5.991  0.00  0.00    -0.005 A 
ATOM      4  C3  UNL d   1      -2.417   2.480  -5.999  0.00  0.00     0.006 A 
ATOM      5  C4  UNL d   1      -1.046   2.741  -5.998  0.00  0.00    -0.005 A 
ATOM      6  C5  UNL d   1      -0.580   4.059  -5.991  0.00  0.00    -0.074 A 
ATOM      7  C6  UNL d   1       0.890   4.358  -6.000  0.00  0.00     0.077 C 
ATOM      8  C7  UNL d   1      -1.506   5.111  -5.990  0.00  0.00    -0.001 A 
ENDROOT
TORSDOF 0
ENDMDL
