MODEL 1
REMARK minimizedAffinity 0.405903757
REMARK minimizedRMSD -1
REMARK  0 active torsions:
REMARK  status: ('A' for Active; 'I' for Inactive)
ROOT
ATOM      1  C   UNL d   1       5.429   5.965  -5.999  0.00  0.00     0.077 C 
ATOM      2  C1  UNL d   1       4.540   4.757  -5.994  0.00  0.00    -0.074 A 
ATOM      3  C2  UNL d   1       5.080   3.467  -5.974  0.00  0.00    -0.005 A 
ATOM      4  C3  UNL d   1       4.241   2.354  -5.960  0.00  0.00     0.006 A 
ATOM      5  C4  UNL d   1       2.855   2.518  -5.966  0.00  0.00    -0.005 A 
ATOM      6  C5  UNL d   1       2.297   3.800  -5.986  0.00  0.00    -0.074 A 
ATOM      7  C6  UNL d   1       0.810   3.994  -5.982  0.00  0.00     0.077 C 
ATOM      8  C7  UNL d   1       3.147   4.914  -5.992  0.00  0.00    -0.001 A 
ENDROOT
TORSDOF 0
ENDMDL
