MODEL 1
REMARK minimizedAffinity -1.20048952
REMARK minimizedRMSD -1
REMARK  0 active torsions:
REMARK  status: ('A' for Active; 'I' for Inactive)
ROOT
ATOM      1  C   UNL d   1       1.092   2.622  -5.998  0.00  0.00     0.077 C 
ATOM      2  C1  UNL d   1      -0.137   3.481  -5.991  0.00  0.00    -0.074 A 
ATOM      3  C2  UNL d   1      -0.039   4.876  -5.997  0.00  0.00    -0.005 A 
ATOM      4  C3  UNL d   1      -1.192   5.662  -6.000  0.00  0.00     0.006 A 
ATOM      5  C4  UNL d   1      -2.451   5.062  -5.997  0.00  0.00    -0.005 A 
ATOM      6  C5  UNL d   1      -2.569   3.668  -5.992  0.00  0.00    -0.074 A 
ATOM      7  C6  UNL d   1      -3.916   3.008  -6.000  0.00  0.00     0.077 C 
ATOM      8  C7  UNL d   1      -1.407   2.885  -5.996  0.00  0.00    -0.001 A 
ENDROOT
TORSDOF 0
ENDMDL
