MODEL 1
REMARK minimizedAffinity 4.98708725
REMARK minimizedRMSD -1
REMARK  0 active torsions:
REMARK  status: ('A' for Active; 'I' for Inactive)
ROOT
ATOM      1  C   UNL d   1      -1.280  -0.829  -1.098  0.00  0.00     0.077 C 
ATOM      2  C1  UNL d   1      -1.358  -2.293  -1.412  0.00  0.00    -0.074 A 
ATOM      3  C2  UNL d   1      -0.373  -2.916  -2.185  0.00  0.00    -0.005 A 
ATOM      4  C3  UNL d   1      -0.454  -4.281  -2.461  0.00  0.00     0.006 A 
ATOM      5  C4  UNL d   1      -1.519  -5.035  -1.968  0.00  0.00    -0.005 A 
ATOM      6  C5  UNL d   1      -2.514  -4.430  -1.193  0.00  0.00    -0.074 A 
ATOM      7  C6  UNL d   1      -3.660  -5.228  -0.647  0.00  0.00     0.077 C 
ATOM      8  C7  UNL d   1      -2.421  -3.059  -0.914  0.00  0.00    -0.001 A 
ENDROOT
TORSDOF 0
ENDMDL
