MODEL 1
REMARK minimizedAffinity -1.13726187
REMARK minimizedRMSD -1
REMARK  0 active torsions:
REMARK  status: ('A' for Active; 'I' for Inactive)
ROOT
ATOM      1  C   UNL d   1      -3.056   5.975  -5.970  0.00  0.00     0.077 C 
ATOM      2  C1  UNL d   1      -2.169   4.766  -5.974  0.00  0.00    -0.074 A 
ATOM      3  C2  UNL d   1      -2.711   3.477  -5.986  0.00  0.00    -0.005 A 
ATOM      4  C3  UNL d   1      -1.873   2.362  -5.999  0.00  0.00     0.006 A 
ATOM      5  C4  UNL d   1      -0.487   2.524  -6.000  0.00  0.00    -0.005 A 
ATOM      6  C5  UNL d   1       0.073   3.806  -5.989  0.00  0.00    -0.074 A 
ATOM      7  C6  UNL d   1       1.561   3.998  -6.000  0.00  0.00     0.077 C 
ATOM      8  C7  UNL d   1      -0.775   4.921  -5.983  0.00  0.00    -0.001 A 
ENDROOT
TORSDOF 0
ENDMDL
