MODEL 1
REMARK minimizedAffinity -3.28004289
REMARK minimizedRMSD -1
REMARK  0 active torsions:
REMARK  status: ('A' for Active; 'I' for Inactive)
ROOT
ATOM      1  C   UNL d   1       0.991   5.040  -5.971  0.00  0.00     0.077 C 
ATOM      2  C1  UNL d   1      -0.422   4.538  -5.988  0.00  0.00    -0.074 A 
ATOM      3  C2  UNL d   1      -0.697   3.167  -5.992  0.00  0.00    -0.005 A 
ATOM      4  C3  UNL d   1      -2.017   2.714  -5.998  0.00  0.00     0.006 A 
ATOM      5  C4  UNL d   1      -3.073   3.627  -6.000  0.00  0.00    -0.005 A 
ATOM      6  C5  UNL d   1      -2.817   5.002  -5.994  0.00  0.00    -0.074 A 
ATOM      7  C6  UNL d   1      -3.940   5.996  -5.986  0.00  0.00     0.077 C 
ATOM      8  C7  UNL d   1      -1.488   5.448  -5.981  0.00  0.00    -0.001 A 
ENDROOT
TORSDOF 0
ENDMDL
