MODEL 1
REMARK minimizedAffinity 0.384680092
REMARK minimizedRMSD -1
REMARK  0 active torsions:
REMARK  status: ('A' for Active; 'I' for Inactive)
ROOT
ATOM      1  C   UNL d   1       0.904   2.879  -5.979  0.00  0.00     0.077 C 
ATOM      2  C1  UNL d   1      -0.305   3.766  -5.978  0.00  0.00    -0.074 A 
ATOM      3  C2  UNL d   1      -0.175   5.159  -5.984  0.00  0.00    -0.005 A 
ATOM      4  C3  UNL d   1      -1.309   5.971  -5.992  0.00  0.00     0.006 A 
ATOM      5  C4  UNL d   1      -2.583   5.400  -5.994  0.00  0.00    -0.005 A 
ATOM      6  C5  UNL d   1      -2.732   4.009  -5.988  0.00  0.00    -0.074 A 
ATOM      7  C6  UNL d   1      -4.093   3.379  -6.000  0.00  0.00     0.077 C 
ATOM      8  C7  UNL d   1      -1.588   3.200  -5.987  0.00  0.00    -0.001 A 
ENDROOT
TORSDOF 0
ENDMDL
