MODEL 1
REMARK minimizedAffinity -1.32063615
REMARK minimizedRMSD -1
REMARK  0 active torsions:
REMARK  status: ('A' for Active; 'I' for Inactive)
ROOT
ATOM      1  C   UNL d   1      -3.160   3.485  -5.950  0.00  0.00     0.077 C 
ATOM      2  C1  UNL d   1      -1.661   3.446  -5.960  0.00  0.00    -0.074 A 
ATOM      3  C2  UNL d   1      -0.973   2.229  -5.975  0.00  0.00    -0.005 A 
ATOM      4  C3  UNL d   1       0.422   2.209  -5.994  0.00  0.00     0.006 A 
ATOM      5  C4  UNL d   1       1.141   3.405  -5.999  0.00  0.00    -0.005 A 
ATOM      6  C5  UNL d   1       0.471   4.632  -5.985  0.00  0.00    -0.074 A 
ATOM      7  C6  UNL d   1       1.229   5.926  -6.000  0.00  0.00     0.077 C 
ATOM      8  C7  UNL d   1      -0.931   4.643  -5.973  0.00  0.00    -0.001 A 
ENDROOT
TORSDOF 0
ENDMDL
