MODEL 1
REMARK minimizedAffinity -2.52539754
REMARK minimizedRMSD -1
REMARK  0 active torsions:
REMARK  status: ('A' for Active; 'I' for Inactive)
ROOT
ATOM      1  C   UNL d   1       0.047   3.327  -6.000  0.00  0.00     0.077 C 
ATOM      2  C1  UNL d   1      -1.183   3.817  -5.294  0.00  0.00    -0.074 A 
ATOM      3  C2  UNL d   1      -1.105   4.356  -4.006  0.00  0.00    -0.005 A 
ATOM      4  C3  UNL d   1      -2.256   4.816  -3.366  0.00  0.00     0.006 A 
ATOM      5  C4  UNL d   1      -3.493   4.742  -4.006  0.00  0.00    -0.005 A 
ATOM      6  C5  UNL d   1      -3.590   4.206  -5.294  0.00  0.00    -0.074 A 
ATOM      7  C6  UNL d   1      -4.911   4.128  -6.000  0.00  0.00     0.077 C 
ATOM      8  C7  UNL d   1      -2.429   3.753  -5.933  0.00  0.00    -0.001 A 
ENDROOT
TORSDOF 0
ENDMDL
