MODEL 1
REMARK minimizedAffinity -2.14712381
REMARK minimizedRMSD -1
REMARK  0 active torsions:
REMARK  status: ('A' for Active; 'I' for Inactive)
ROOT
ATOM      1  C   UNL d   1      -3.384   2.786  -5.989  0.00  0.00     0.077 C 
ATOM      2  C1  UNL d   1      -2.017   3.405  -5.999  0.00  0.00    -0.074 A 
ATOM      3  C2  UNL d   1      -1.857   4.794  -6.000  0.00  0.00    -0.005 A 
ATOM      4  C3  UNL d   1      -0.580   5.355  -6.000  0.00  0.00     0.006 A 
ATOM      5  C4  UNL d   1       0.548   4.534  -5.999  0.00  0.00    -0.005 A 
ATOM      6  C5  UNL d   1       0.408   3.142  -5.997  0.00  0.00    -0.074 A 
ATOM      7  C6  UNL d   1       1.609   2.245  -5.986  0.00  0.00     0.077 C 
ATOM      8  C7  UNL d   1      -0.879   2.586  -5.990  0.00  0.00    -0.001 A 
ENDROOT
TORSDOF 0
ENDMDL
