MODEL 1
REMARK minimizedAffinity 1.07113647
REMARK minimizedRMSD -1
REMARK  0 active torsions:
REMARK  status: ('A' for Active; 'I' for Inactive)
ROOT
ATOM      1  C   UNL d   1       1.843   1.708  -5.990  0.00  0.00     0.077 C 
ATOM      2  C1  UNL d   1       0.521   2.415  -5.999  0.00  0.00    -0.074 A 
ATOM      3  C2  UNL d   1      -0.679   1.696  -5.998  0.00  0.00    -0.005 A 
ATOM      4  C3  UNL d   1      -1.901   2.368  -5.998  0.00  0.00     0.006 A 
ATOM      5  C4  UNL d   1      -1.936   3.763  -5.998  0.00  0.00    -0.005 A 
ATOM      6  C5  UNL d   1      -0.747   4.498  -5.998  0.00  0.00    -0.074 A 
ATOM      7  C6  UNL d   1      -0.767   5.998  -5.988  0.00  0.00     0.077 C 
ATOM      8  C7  UNL d   1       0.477   3.816  -5.991  0.00  0.00    -0.001 A 
ENDROOT
TORSDOF 0
ENDMDL
