MODEL 1
REMARK minimizedAffinity 5.98116016
REMARK minimizedRMSD -1
REMARK  0 active torsions:
REMARK  status: ('A' for Active; 'I' for Inactive)
ROOT
ATOM      1  C   UNL d   1       2.473   0.873  -5.998  0.00  0.00     0.077 C 
ATOM      2  C1  UNL d   1       2.345   0.683  -4.515  0.00  0.00    -0.074 A 
ATOM      3  C2  UNL d   1       2.240  -0.597  -3.961  0.00  0.00    -0.005 A 
ATOM      4  C3  UNL d   1       2.132  -0.758  -2.580  0.00  0.00     0.006 A 
ATOM      5  C4  UNL d   1       2.127   0.356  -1.740  0.00  0.00    -0.005 A 
ATOM      6  C5  UNL d   1       2.233   1.644  -2.276  0.00  0.00    -0.074 A 
ATOM      7  C6  UNL d   1       2.239   2.852  -1.387  0.00  0.00     0.077 C 
ATOM      8  C7  UNL d   1       2.348   1.797  -3.665  0.00  0.00    -0.001 A 
ENDROOT
TORSDOF 0
ENDMDL
