MODEL 1
REMARK minimizedAffinity -1.73615384
REMARK minimizedRMSD -1
REMARK  0 active torsions:
REMARK  status: ('A' for Active; 'I' for Inactive)
ROOT
ATOM      1  C   UNL d   1      -3.746   5.854  -5.997  0.00  0.00     0.077 C 
ATOM      2  C1  UNL d   1      -2.444   5.109  -5.990  0.00  0.00    -0.074 A 
ATOM      3  C2  UNL d   1      -2.416   3.711  -5.996  0.00  0.00    -0.005 A 
ATOM      4  C3  UNL d   1      -1.198   3.032  -6.000  0.00  0.00     0.006 A 
ATOM      5  C4  UNL d   1       0.003   3.743  -5.997  0.00  0.00    -0.005 A 
ATOM      6  C5  UNL d   1      -0.005   5.142  -5.992  0.00  0.00    -0.074 A 
ATOM      7  C6  UNL d   1       1.276   5.921  -6.000  0.00  0.00     0.077 C 
ATOM      8  C7  UNL d   1      -1.233   5.817  -5.996  0.00  0.00    -0.001 A 
ENDROOT
TORSDOF 0
ENDMDL
