MODEL 1
REMARK minimizedAffinity -4.92664671
REMARK minimizedRMSD -1
REMARK  0 active torsions:
REMARK  status: ('A' for Active; 'I' for Inactive)
ROOT
ATOM      1  C1  DEN d   1       1.704  -4.035   0.112  0.00  0.00     0.130 A 
ATOM      2  C2  DEN d   1       3.030  -3.561  -0.275  0.00  0.00    -0.031 A 
ATOM      3  C3  DEN d   1       3.023  -2.085  -0.214  0.00  0.00     0.027 A 
ATOM      4  C4  DEN d   1       1.100  -0.497   0.443  0.00  0.00     0.027 A 
ATOM      5  C5  DEN d   1      -0.219  -0.434   0.837  0.00  0.00    -0.003 A 
ATOM      6  C6  DEN d   1      -0.992  -1.555   0.983  0.00  0.00     0.001 A 
ATOM      7  C7  DEN d   1      -0.440  -2.792   0.777  0.00  0.00     0.017 A 
ATOM      8  C8  DEN d   1       0.886  -2.863   0.372  0.00  0.00    -0.094 A 
ATOM      9  C9  DEN d   1       1.655  -1.719   0.242  0.00  0.00    -0.072 A 
ENDROOT
TORSDOF 0
ENDMDL
