MODEL 1
REMARK minimizedAffinity -2.31598067
REMARK minimizedRMSD -1
REMARK  0 active torsions:
REMARK  status: ('A' for Active; 'I' for Inactive)
ROOT
ATOM      1  C1  DEN d   1       4.099  -2.277   0.178  0.00  0.00     0.130 A 
ATOM      2  C2  DEN d   1       4.305  -3.662  -0.235  0.00  0.00    -0.031 A 
ATOM      3  C3  DEN d   1       2.983  -4.315  -0.316  0.00  0.00     0.027 A 
ATOM      4  C4  DEN d   1       0.650  -3.320   0.153  0.00  0.00     0.027 A 
ATOM      5  C5  DEN d   1      -0.029  -2.187   0.544  0.00  0.00    -0.003 A 
ATOM      6  C6  DEN d   1       0.617  -1.025   0.870  0.00  0.00     0.001 A 
ATOM      7  C7  DEN d   1       1.981  -0.955   0.769  0.00  0.00     0.017 A 
ATOM      8  C8  DEN d   1       2.673  -2.095   0.382  0.00  0.00    -0.094 A 
ATOM      9  C9  DEN d   1       2.001  -3.257   0.045  0.00  0.00    -0.072 A 
ENDROOT
TORSDOF 0
ENDMDL
