MODEL 1
REMARK minimizedAffinity -3.51825643
REMARK minimizedRMSD -1
REMARK  0 active torsions:
REMARK  status: ('A' for Active; 'I' for Inactive)
ROOT
ATOM      1  C1  DEN d   1       3.531  -2.077  -0.338  0.00  0.00     0.130 A 
ATOM      2  C2  DEN d   1       3.427  -3.493  -0.682  0.00  0.00    -0.031 A 
ATOM      3  C3  DEN d   1       2.041  -3.926  -0.415  0.00  0.00     0.027 A 
ATOM      4  C4  DEN d   1       0.055  -2.550   0.487  0.00  0.00     0.027 A 
ATOM      5  C5  DEN d   1      -0.339  -1.308   0.934  0.00  0.00    -0.003 A 
ATOM      6  C6  DEN d   1       0.531  -0.253   1.020  0.00  0.00     0.001 A 
ATOM      7  C7  DEN d   1       1.829  -0.408   0.610  0.00  0.00     0.017 A 
ATOM      8  C8  DEN d   1       2.235  -1.659   0.165  0.00  0.00    -0.094 A 
ATOM      9  C9  DEN d   1       1.338  -2.710   0.075  0.00  0.00    -0.072 A 
ENDROOT
TORSDOF 0
ENDMDL
