MODEL 1
REMARK minimizedAffinity -0.0784486979
REMARK minimizedRMSD -1
REMARK  0 active torsions:
REMARK  status: ('A' for Active; 'I' for Inactive)
ROOT
ATOM      1  C1  DEN d   1       0.036  -3.599  -0.481  0.00  0.00     0.130 A 
ATOM      2  C2  DEN d   1      -0.714  -2.449   0.016  0.00  0.00    -0.031 A 
ATOM      3  C3  DEN d   1       0.249  -1.490   0.592  0.00  0.00     0.027 A 
ATOM      4  C4  DEN d   1       2.817  -1.669   0.757  0.00  0.00     0.027 A 
ATOM      5  C5  DEN d   1       3.906  -2.466   0.483  0.00  0.00    -0.003 A 
ATOM      6  C6  DEN d   1       3.780  -3.701  -0.096  0.00  0.00     0.001 A 
ATOM      7  C7  DEN d   1       2.541  -4.156  -0.462  0.00  0.00     0.017 A 
ATOM      8  C8  DEN d   1       1.437  -3.362  -0.182  0.00  0.00    -0.094 A 
ATOM      9  C9  DEN d   1       1.586  -2.111   0.394  0.00  0.00    -0.072 A 
ENDROOT
TORSDOF 0
ENDMDL
