MODEL 1
REMARK minimizedAffinity -0.927143395
REMARK minimizedRMSD -1
REMARK  0 active torsions:
REMARK  status: ('A' for Active; 'I' for Inactive)
ROOT
ATOM      1  C1  DEN d   1       3.326  -0.372   0.385  0.00  0.00     0.130 A 
ATOM      2  C2  DEN d   1       4.410  -1.290   0.045  0.00  0.00    -0.031 A 
ATOM      3  C3  DEN d   1       3.829  -2.635  -0.139  0.00  0.00     0.027 A 
ATOM      4  C4  DEN d   1       1.369  -3.381   0.065  0.00  0.00     0.027 A 
ATOM      5  C5  DEN d   1       0.088  -2.960   0.346  0.00  0.00    -0.003 A 
ATOM      6  C6  DEN d   1      -0.196  -1.665   0.690  0.00  0.00     0.001 A 
ATOM      7  C7  DEN d   1       0.808  -0.734   0.718  0.00  0.00     0.017 A 
ATOM      8  C8  DEN d   1       2.104  -1.152   0.443  0.00  0.00    -0.094 A 
ATOM      9  C9  DEN d   1       2.369  -2.464   0.085  0.00  0.00    -0.072 A 
ENDROOT
TORSDOF 0
ENDMDL
