MODEL 1
REMARK minimizedAffinity -4.21322727
REMARK minimizedRMSD -1
REMARK  0 active torsions:
REMARK  status: ('A' for Active; 'I' for Inactive)
ROOT
ATOM      1  C1  DEN d   1      -0.243  -1.268   1.183  0.00  0.00     0.130 A 
ATOM      2  C2  DEN d   1       0.190   0.126   1.221  0.00  0.00    -0.031 A 
ATOM      3  C3  DEN d   1       1.536   0.203   0.619  0.00  0.00     0.027 A 
ATOM      4  C4  DEN d   1       2.982  -1.691  -0.369  0.00  0.00     0.027 A 
ATOM      5  C5  DEN d   1       3.043  -3.045  -0.614  0.00  0.00    -0.003 A 
ATOM      6  C6  DEN d   1       2.037  -3.899  -0.250  0.00  0.00     0.001 A 
ATOM      7  C7  DEN d   1       0.904  -3.402   0.339  0.00  0.00     0.017 A 
ATOM      8  C8  DEN d   1       0.838  -2.039   0.597  0.00  0.00    -0.094 A 
ATOM      9  C9  DEN d   1       1.861  -1.190   0.210  0.00  0.00    -0.072 A 
ENDROOT
TORSDOF 0
ENDMDL
