MODEL 1
REMARK minimizedAffinity -3.54082227
REMARK minimizedRMSD -1
REMARK  0 active torsions:
REMARK  status: ('A' for Active; 'I' for Inactive)
ROOT
ATOM      1  C1  DEN d   1       2.135   0.412   0.810  0.00  0.00     0.130 A 
ATOM      2  C2  DEN d   1       3.428  -0.164   0.451  0.00  0.00    -0.031 A 
ATOM      3  C3  DEN d   1       3.221  -1.592   0.135  0.00  0.00     0.027 A 
ATOM      4  C4  DEN d   1       1.033  -2.958   0.161  0.00  0.00     0.027 A 
ATOM      5  C5  DEN d   1      -0.320  -2.906   0.413  0.00  0.00    -0.003 A 
ATOM      6  C6  DEN d   1      -0.939  -1.762   0.844  0.00  0.00     0.001 A 
ATOM      7  C7  DEN d   1      -0.211  -0.611   0.992  0.00  0.00     0.017 A 
ATOM      8  C8  DEN d   1       1.155  -0.658   0.748  0.00  0.00    -0.094 A 
ATOM      9  C9  DEN d   1       1.760  -1.821   0.301  0.00  0.00    -0.072 A 
ENDROOT
TORSDOF 0
ENDMDL
