MODEL 1
REMARK minimizedAffinity 0.774646699
REMARK minimizedRMSD -1
REMARK  0 active torsions:
REMARK  status: ('A' for Active; 'I' for Inactive)
ROOT
ATOM      1  C1  DEN d   1       2.223  -2.263  -0.629  0.00  0.00     0.130 A 
ATOM      2  C2  DEN d   1       1.450  -3.240  -1.391  0.00  0.00    -0.031 A 
ATOM      3  C3  DEN d   1       0.035  -3.115  -0.991  0.00  0.00     0.027 A 
ATOM      4  C4  DEN d   1      -1.031  -1.511   0.724  0.00  0.00     0.027 A 
ATOM      5  C5  DEN d   1      -0.775  -0.506   1.632  0.00  0.00    -0.003 A 
ATOM      6  C6  DEN d   1       0.491  -0.045   1.872  0.00  0.00     0.001 A 
ATOM      7  C7  DEN d   1       1.546  -0.557   1.164  0.00  0.00     0.017 A 
ATOM      8  C8  DEN d   1       1.297  -1.575   0.253  0.00  0.00    -0.094 A 
ATOM      9  C9  DEN d   1       0.008  -2.019   0.015  0.00  0.00    -0.072 A 
ENDROOT
TORSDOF 0
ENDMDL
