MODEL 1
REMARK minimizedAffinity 5.5811677
REMARK minimizedRMSD -1
REMARK  0 active torsions:
REMARK  status: ('A' for Active; 'I' for Inactive)
ROOT
ATOM      1  C1  DEN d   1       1.251  -2.695  -0.587  0.00  0.00     0.130 A 
ATOM      2  C2  DEN d   1      -0.063  -3.325  -0.481  0.00  0.00    -0.031 A 
ATOM      3  C3  DEN d   1      -0.689  -2.866   0.775  0.00  0.00     0.027 A 
ATOM      4  C4  DEN d   1       0.241  -1.247   2.554  0.00  0.00     0.027 A 
ATOM      5  C5  DEN d   1       1.320  -0.467   2.908  0.00  0.00    -0.003 A 
ATOM      6  C6  DEN d   1       2.456  -0.402   2.145  0.00  0.00     0.001 A 
ATOM      7  C7  DEN d   1       2.521  -1.095   0.965  0.00  0.00     0.017 A 
ATOM      8  C8  DEN d   1       1.440  -1.890   0.606  0.00  0.00    -0.094 A 
ATOM      9  C9  DEN d   1       0.296  -1.932   1.384  0.00  0.00    -0.072 A 
ENDROOT
TORSDOF 0
ENDMDL
