MODEL 1
REMARK minimizedAffinity 5.14760113
REMARK minimizedRMSD -1
REMARK  0 active torsions:
REMARK  status: ('A' for Active; 'I' for Inactive)
ROOT
ATOM      1  C1  DEN d   1      -0.664  -0.924   2.277  0.00  0.00     0.130 A 
ATOM      2  C2  DEN d   1      -1.365  -1.665   1.232  0.00  0.00    -0.031 A 
ATOM      3  C3  DEN d   1      -0.393  -1.982   0.167  0.00  0.00     0.027 A 
ATOM      4  C4  DEN d   1       2.117  -1.405   0.038  0.00  0.00     0.027 A 
ATOM      5  C5  DEN d   1       3.160  -0.777   0.683  0.00  0.00    -0.003 A 
ATOM      6  C6  DEN d   1       2.994  -0.130   1.879  0.00  0.00     0.001 A 
ATOM      7  C7  DEN d   1       1.768  -0.135   2.489  0.00  0.00     0.017 A 
ATOM      8  C8  DEN d   1       0.710  -0.760   1.841  0.00  0.00    -0.094 A 
ATOM      9  C9  DEN d   1       0.901  -1.419   0.638  0.00  0.00    -0.072 A 
ENDROOT
TORSDOF 0
ENDMDL
