MODEL 1
REMARK minimizedAffinity -0.291935652
REMARK minimizedRMSD -1
REMARK  0 active torsions:
REMARK  status: ('A' for Active; 'I' for Inactive)
ROOT
ATOM      1  C1  DEN d   1       3.266  -1.527   0.145  0.00  0.00     0.130 A 
ATOM      2  C2  DEN d   1       3.609  -2.905  -0.198  0.00  0.00    -0.031 A 
ATOM      3  C3  DEN d   1       2.367  -3.703  -0.176  0.00  0.00     0.027 A 
ATOM      4  C4  DEN d   1      -0.041  -2.943   0.349  0.00  0.00     0.027 A 
ATOM      5  C5  DEN d   1      -0.827  -1.869   0.707  0.00  0.00    -0.003 A 
ATOM      6  C6  DEN d   1      -0.302  -0.625   0.934  0.00  0.00     0.001 A 
ATOM      7  C7  DEN d   1       1.040  -0.412   0.761  0.00  0.00     0.017 A 
ATOM      8  C8  DEN d   1       1.839  -1.491   0.408  0.00  0.00    -0.094 A 
ATOM      9  C9  DEN d   1       1.288  -2.739   0.171  0.00  0.00    -0.072 A 
ENDROOT
TORSDOF 0
ENDMDL
