MODEL 1
REMARK minimizedAffinity 15.0170612
REMARK minimizedRMSD -1
REMARK  0 active torsions:
REMARK  status: ('A' for Active; 'I' for Inactive)
ROOT
ATOM      1  C1  DEN d   1       4.665  -0.393  -0.725  0.00  0.00     0.130 A 
ATOM      2  C2  DEN d   1       5.995  -0.713  -1.235  0.00  0.00    -0.031 A 
ATOM      3  C3  DEN d   1       6.000  -0.460  -2.690  0.00  0.00     0.027 A 
ATOM      4  C4  DEN d   1       4.087   0.397  -4.194  0.00  0.00     0.027 A 
ATOM      5  C5  DEN d   1       2.769   0.795  -4.216  0.00  0.00    -0.003 A 
ATOM      6  C6  DEN d   1       1.987   0.792  -3.091  0.00  0.00     0.001 A 
ATOM      7  C7  DEN d   1       2.529   0.426  -1.888  0.00  0.00     0.017 A 
ATOM      8  C8  DEN d   1       3.856   0.017  -1.859  0.00  0.00    -0.094 A 
ATOM      9  C9  DEN d   1       4.634   0.038  -3.004  0.00  0.00    -0.072 A 
ENDROOT
TORSDOF 0
ENDMDL
