MODEL 1
REMARK minimizedAffinity 6.57332134
REMARK minimizedRMSD -1
REMARK  0 active torsions:
REMARK  status: ('A' for Active; 'I' for Inactive)
ROOT
ATOM      1  C1  DEN d   1       0.409  -1.240   0.574  0.00  0.00     0.130 A 
ATOM      2  C2  DEN d   1      -0.665  -2.200   0.334  0.00  0.00    -0.031 A 
ATOM      3  C3  DEN d   1      -0.049  -3.491  -0.033  0.00  0.00     0.027 A 
ATOM      4  C4  DEN d   1       2.449  -4.094  -0.250  0.00  0.00     0.027 A 
ATOM      5  C5  DEN d   1       3.734  -3.607  -0.156  0.00  0.00    -0.003 A 
ATOM      6  C6  DEN d   1       3.998  -2.298   0.151  0.00  0.00     0.001 A 
ATOM      7  C7  DEN d   1       2.962  -1.442   0.421  0.00  0.00     0.017 A 
ATOM      8  C8  DEN d   1       1.664  -1.925   0.321  0.00  0.00    -0.094 A 
ATOM      9  C9  DEN d   1       1.418  -3.254   0.021  0.00  0.00    -0.072 A 
ENDROOT
TORSDOF 0
ENDMDL
