MODEL 1
REMARK minimizedAffinity -3.49168682
REMARK minimizedRMSD -1
REMARK  0 active torsions:
REMARK  status: ('A' for Active; 'I' for Inactive)
ROOT
ATOM      1  C1  DEN d   1       4.113  -2.425   0.008  0.00  0.00     0.130 A 
ATOM      2  C2  DEN d   1       4.294  -3.871  -0.085  0.00  0.00    -0.031 A 
ATOM      3  C3  DEN d   1       2.961  -4.503  -0.013  0.00  0.00     0.027 A 
ATOM      4  C4  DEN d   1       0.647  -3.389   0.227  0.00  0.00     0.027 A 
ATOM      5  C5  DEN d   1      -0.011  -2.186   0.356  0.00  0.00    -0.003 A 
ATOM      6  C6  DEN d   1       0.655  -0.991   0.412  0.00  0.00     0.001 A 
ATOM      7  C7  DEN d   1       2.020  -0.968   0.293  0.00  0.00     0.017 A 
ATOM      8  C8  DEN d   1       2.692  -2.178   0.170  0.00  0.00    -0.094 A 
ATOM      9  C9  DEN d   1       1.999  -3.374   0.103  0.00  0.00    -0.072 A 
ENDROOT
TORSDOF 0
ENDMDL
