MODEL 1
REMARK minimizedAffinity -1.33736575
REMARK minimizedRMSD -1
REMARK  0 active torsions:
REMARK  status: ('A' for Active; 'I' for Inactive)
ROOT
ATOM      1  C1  DEN d   1       2.744  -0.116   2.267  0.00  0.00     0.130 A 
ATOM      2  C2  DEN d   1       3.994  -0.499   1.616  0.00  0.00    -0.031 A 
ATOM      3  C3  DEN d   1       3.667  -1.414   0.504  0.00  0.00     0.027 A 
ATOM      4  C4  DEN d   1       1.359  -2.264  -0.273  0.00  0.00     0.027 A 
ATOM      5  C5  DEN d   1       0.005  -2.222  -0.024  0.00  0.00    -0.003 A 
ATOM      6  C6  DEN d   1      -0.523  -1.509   1.019  0.00  0.00     0.001 A 
ATOM      7  C7  DEN d   1       0.303  -0.771   1.825  0.00  0.00     0.017 A 
ATOM      8  C8  DEN d   1       1.670  -0.814   1.584  0.00  0.00    -0.094 A 
ATOM      9  C9  DEN d   1       2.184  -1.531   0.517  0.00  0.00    -0.072 A 
ENDROOT
TORSDOF 0
ENDMDL
