MODEL 1
REMARK minimizedAffinity 0.708808661
REMARK minimizedRMSD -1
REMARK  0 active torsions:
REMARK  status: ('A' for Active; 'I' for Inactive)
ROOT
ATOM      1  C1  DEN d   1       0.173  -3.610   0.050  0.00  0.00     0.130 A 
ATOM      2  C2  DEN d   1       1.621  -3.721  -0.110  0.00  0.00    -0.031 A 
ATOM      3  C3  DEN d   1       2.235  -2.489   0.425  0.00  0.00     0.027 A 
ATOM      4  C4  DEN d   1       1.092  -0.435   1.485  0.00  0.00     0.027 A 
ATOM      5  C5  DEN d   1      -0.120   0.124   1.827  0.00  0.00    -0.003 A 
ATOM      6  C6  DEN d   1      -1.311  -0.503   1.572  0.00  0.00     0.001 A 
ATOM      7  C7  DEN d   1      -1.314  -1.747   0.998  0.00  0.00     0.017 A 
ATOM      8  C8  DEN d   1      -0.096  -2.313   0.644  0.00  0.00    -0.094 A 
ATOM      9  C9  DEN d   1       1.097  -1.669   0.921  0.00  0.00    -0.072 A 
ENDROOT
TORSDOF 0
ENDMDL
