MODEL 1
REMARK minimizedAffinity 1.34491551
REMARK minimizedRMSD -1
REMARK  0 active torsions:
REMARK  status: ('A' for Active; 'I' for Inactive)
ROOT
ATOM      1  C1  DEN d   1       0.556  -4.132   0.248  0.00  0.00     0.130 A 
ATOM      2  C2  DEN d   1      -0.212  -2.996   0.750  0.00  0.00    -0.031 A 
ATOM      3  C3  DEN d   1       0.732  -1.896   1.034  0.00  0.00     0.027 A 
ATOM      4  C4  DEN d   1       3.294  -1.841   0.743  0.00  0.00     0.027 A 
ATOM      5  C5  DEN d   1       4.396  -2.572   0.359  0.00  0.00    -0.003 A 
ATOM      6  C6  DEN d   1       4.301  -3.875  -0.053  0.00  0.00     0.001 A 
ATOM      7  C7  DEN d   1       3.071  -4.473  -0.134  0.00  0.00     0.017 A 
ATOM      8  C8  DEN d   1       1.955  -3.744   0.258  0.00  0.00    -0.094 A 
ATOM      9  C9  DEN d   1       2.071  -2.425   0.660  0.00  0.00    -0.072 A 
ENDROOT
TORSDOF 0
ENDMDL
