MODEL 1
REMARK minimizedAffinity 4.23997593
REMARK minimizedRMSD -1
REMARK  0 active torsions:
REMARK  status: ('A' for Active; 'I' for Inactive)
ROOT
ATOM      1  C4' PXY d   1       0.295   3.906  -0.981  0.00  0.00     0.077 C 
ATOM      2  C1' PXY d   1      -2.999  -0.571  -2.569  0.00  0.00     0.077 C 
ATOM      3  C1  PXY d   1      -2.128   0.595  -2.146  0.00  0.00    -0.082 A 
ATOM      4  C2  PXY d   1      -2.632   1.819  -2.134  0.00  0.00     0.003 A 
ATOM      5  C3  PXY d   1      -1.849   2.888  -1.785  0.00  0.00     0.003 A 
ATOM      6  C4  PXY d   1      -0.551   2.698  -1.392  0.00  0.00    -0.082 A 
ATOM      7  C5  PXY d   1      -0.032   1.452  -1.391  0.00  0.00     0.003 A 
ATOM      8  C6  PXY d   1      -0.832   0.384  -1.789  0.00  0.00     0.003 A 
ENDROOT
TORSDOF 0
ENDMDL
