MODEL 1
REMARK minimizedAffinity 7.4748311
REMARK minimizedRMSD -1
REMARK  0 active torsions:
REMARK  status: ('A' for Active; 'I' for Inactive)
ROOT
ATOM      1  C4' PXY d   1       0.764   4.074   0.225  0.00  0.00     0.077 C 
ATOM      2  C1' PXY d   1       0.579  -0.660   3.537  0.00  0.00     0.077 C 
ATOM      3  C1  PXY d   1       0.630   0.589   2.679  0.00  0.00    -0.082 A 
ATOM      4  C2  PXY d   1      -0.018   0.617   1.526  0.00  0.00     0.003 A 
ATOM      5  C3  PXY d   1       0.044   1.727   0.722  0.00  0.00     0.003 A 
ATOM      6  C4  PXY d   1       0.733   2.838   1.128  0.00  0.00    -0.082 A 
ATOM      7  C5  PXY d   1       1.387   2.822   2.309  0.00  0.00     0.003 A 
ATOM      8  C6  PXY d   1       1.346   1.671   3.091  0.00  0.00     0.003 A 
ENDROOT
TORSDOF 0
ENDMDL
