MODEL 1
REMARK minimizedAffinity 9.44367599
REMARK minimizedRMSD -1
REMARK  0 active torsions:
REMARK  status: ('A' for Active; 'I' for Inactive)
ROOT
ATOM      1  C4' PXY d   1       3.331  -1.970   0.518  0.00  0.00     0.077 C 
ATOM      2  C1' PXY d   1       5.963  -3.001  -4.524  0.00  0.00     0.077 C 
ATOM      3  C1  PXY d   1       5.281  -2.738  -3.196  0.00  0.00    -0.082 A 
ATOM      4  C2  PXY d   1       4.002  -2.400  -3.172  0.00  0.00     0.003 A 
ATOM      5  C3  PXY d   1       3.379  -2.128  -1.982  0.00  0.00     0.003 A 
ATOM      6  C4  PXY d   1       4.057  -2.254  -0.799  0.00  0.00    -0.082 A 
ATOM      7  C5  PXY d   1       5.360  -2.609  -0.814  0.00  0.00     0.003 A 
ATOM      8  C6  PXY d   1       5.985  -2.841  -2.036  0.00  0.00     0.003 A 
ENDROOT
TORSDOF 0
ENDMDL
