MODEL 1
REMARK minimizedAffinity 7.65684891
REMARK minimizedRMSD -1
REMARK  0 active torsions:
REMARK  status: ('A' for Active; 'I' for Inactive)
ROOT
ATOM      1  C4' PXY d   1       5.710  -3.860  -4.564  0.00  0.00     0.077 C 
ATOM      2  C1' PXY d   1       3.398  -1.391   0.123  0.00  0.00     0.077 C 
ATOM      3  C1  PXY d   1       3.994  -2.034  -1.113  0.00  0.00    -0.082 A 
ATOM      4  C2  PXY d   1       4.850  -3.034  -0.982  0.00  0.00     0.003 A 
ATOM      5  C3  PXY d   1       5.423  -3.607  -2.088  0.00  0.00     0.003 A 
ATOM      6  C4  PXY d   1       5.076  -3.186  -3.344  0.00  0.00    -0.082 A 
ATOM      7  C5  PXY d   1       4.195  -2.174  -3.487  0.00  0.00     0.003 A 
ATOM      8  C6  PXY d   1       3.656  -1.579  -2.350  0.00  0.00     0.003 A 
ENDROOT
TORSDOF 0
ENDMDL
