MODEL 1
REMARK minimizedAffinity 5.41206408
REMARK minimizedRMSD -1
REMARK  0 active torsions:
REMARK  status: ('A' for Active; 'I' for Inactive)
ROOT
ATOM      1  C4' PXY d   1      -0.024   3.841  -1.094  0.00  0.00     0.077 C 
ATOM      2  C1' PXY d   1       1.004   2.149   4.337  0.00  0.00     0.077 C 
ATOM      3  C1  PXY d   1       0.745   2.601   2.913  0.00  0.00    -0.082 A 
ATOM      4  C2  PXY d   1      -0.473   2.496   2.405  0.00  0.00     0.003 A 
ATOM      5  C3  PXY d   1      -0.718   2.870   1.109  0.00  0.00     0.003 A 
ATOM      6  C4  PXY d   1       0.281   3.406   0.342  0.00  0.00    -0.082 A 
ATOM      7  C5  PXY d   1       1.524   3.527   0.856  0.00  0.00     0.003 A 
ATOM      8  C6  PXY d   1       1.761   3.103   2.161  0.00  0.00     0.003 A 
ENDROOT
TORSDOF 0
ENDMDL
