MODEL 1
REMARK minimizedAffinity 2.56095791
REMARK minimizedRMSD -1
REMARK  0 active torsions:
REMARK  status: ('A' for Active; 'I' for Inactive)
ROOT
ATOM      1  C4' PXY d   1       4.483  -1.916  -4.887  0.00  0.00     0.077 C 
ATOM      2  C1' PXY d   1       4.606  -6.000  -0.797  0.00  0.00     0.077 C 
ATOM      3  C1  PXY d   1       4.565  -4.922  -1.863  0.00  0.00    -0.082 A 
ATOM      4  C2  PXY d   1       4.901  -5.220  -3.108  0.00  0.00     0.003 A 
ATOM      5  C3  PXY d   1       4.900  -4.250  -4.077  0.00  0.00     0.003 A 
ATOM      6  C4  PXY d   1       4.500  -2.975  -3.781  0.00  0.00    -0.082 A 
ATOM      7  C5  PXY d   1       4.146  -2.665  -2.515  0.00  0.00     0.003 A 
ATOM      8  C6  PXY d   1       4.193  -3.654  -1.537  0.00  0.00     0.003 A 
ENDROOT
TORSDOF 0
ENDMDL
