MODEL 1
REMARK minimizedAffinity 3.95475864
REMARK minimizedRMSD -1
REMARK  0 active torsions:
REMARK  status: ('A' for Active; 'I' for Inactive)
ROOT
ATOM      1  C4' PXY d   1       1.847  -3.741  -0.725  0.00  0.00     0.077 C 
ATOM      2  C1' PXY d   1       5.999  -5.155  -4.490  0.00  0.00     0.077 C 
ATOM      3  C1  PXY d   1       4.911  -4.771  -3.507  0.00  0.00    -0.082 A 
ATOM      4  C2  PXY d   1       4.740  -5.489  -2.408  0.00  0.00     0.003 A 
ATOM      5  C3  PXY d   1       3.739  -5.175  -1.524  0.00  0.00     0.003 A 
ATOM      6  C4  PXY d   1       2.940  -4.085  -1.740  0.00  0.00    -0.082 A 
ATOM      7  C5  PXY d   1       3.115  -3.342  -2.854  0.00  0.00     0.003 A 
ATOM      8  C6  PXY d   1       4.109  -3.701  -3.759  0.00  0.00     0.003 A 
ENDROOT
TORSDOF 0
ENDMDL
