MODEL 1
REMARK minimizedAffinity -2.33438683
REMARK minimizedRMSD -1
REMARK  0 active torsions:
REMARK  status: ('A' for Active; 'I' for Inactive)
ROOT
ATOM      1  C4' PXY d   1       3.816  -1.653   0.011  0.00  0.00     0.077 C 
ATOM      2  C1' PXY d   1       4.860  -5.554  -4.126  0.00  0.00     0.077 C 
ATOM      3  C1  PXY d   1       4.588  -4.540  -3.032  0.00  0.00    -0.082 A 
ATOM      4  C2  PXY d   1       3.877  -3.458  -3.305  0.00  0.00     0.003 A 
ATOM      5  C3  PXY d   1       3.648  -2.516  -2.335  0.00  0.00     0.003 A 
ATOM      6  C4  PXY d   1       4.108  -2.708  -1.060  0.00  0.00    -0.082 A 
ATOM      7  C5  PXY d   1       4.825  -3.815  -0.771  0.00  0.00     0.003 A 
ATOM      8  C6  PXY d   1       5.081  -4.739  -1.779  0.00  0.00     0.003 A 
ENDROOT
TORSDOF 0
ENDMDL
