MODEL 1
REMARK minimizedAffinity 17.184082
REMARK minimizedRMSD -1
REMARK  0 active torsions:
REMARK  status: ('A' for Active; 'I' for Inactive)
ROOT
ATOM      1  O1  BZF d   1      -1.435  -3.388  -5.866  0.00  0.00    -0.204 OA
ATOM      2  C2  BZF d   1      -2.314  -4.453  -5.890  0.00  0.00     0.174 A 
ATOM      3  C3  BZF d   1      -1.648  -5.621  -5.996  0.00  0.00    -0.012 A 
ATOM      4  C3A BZF d   1      -0.262  -5.270  -5.947  0.00  0.00    -0.107 A 
ATOM      5  C4  BZF d   1       0.893  -5.997  -5.989  0.00  0.00     0.055 A 
ATOM      6  C5  BZF d   1       2.085  -5.344  -5.994  0.00  0.00    -0.016 A 
ATOM      7  C6  BZF d   1       2.158  -3.967  -5.961  0.00  0.00     0.022 A 
ATOM      8  C7  BZF d   1       1.040  -3.203  -5.913  0.00  0.00     0.029 A 
ATOM      9  C7A BZF d   1      -0.165  -3.861  -5.876  0.00  0.00     0.058 A 
ENDROOT
TORSDOF 0
ENDMDL
