MODEL 1
REMARK minimizedAffinity 18.772028
REMARK minimizedRMSD -1
REMARK  0 active torsions:
REMARK  status: ('A' for Active; 'I' for Inactive)
ROOT
ATOM      1  O1  BZF d   1      -0.461   0.516   2.340  0.00  0.00    -0.204 OA
ATOM      2  C2  BZF d   1       0.418  -0.548   2.292  0.00  0.00     0.174 A 
ATOM      3  C3  BZF d   1       1.171  -0.597   3.409  0.00  0.00    -0.012 A 
ATOM      4  C3A BZF d   1       0.672   0.450   4.246  0.00  0.00    -0.107 A 
ATOM      5  C4  BZF d   1       1.002   0.892   5.495  0.00  0.00     0.055 A 
ATOM      6  C5  BZF d   1       0.370   1.984   5.998  0.00  0.00    -0.016 A 
ATOM      7  C6  BZF d   1      -0.594   2.661   5.279  0.00  0.00     0.022 A 
ATOM      8  C7  BZF d   1      -0.959   2.257   4.038  0.00  0.00     0.029 A 
ATOM      9  C7A BZF d   1      -0.345   1.134   3.540  0.00  0.00     0.058 A 
ENDROOT
TORSDOF 0
ENDMDL
