MODEL 1
REMARK minimizedAffinity 6.19538927
REMARK minimizedRMSD -1
REMARK  0 active torsions:
REMARK  status: ('A' for Active; 'I' for Inactive)
ROOT
ATOM      1  O1  BZF d   1       0.372  -0.757  -4.889  0.00  0.00    -0.204 OA
ATOM      2  C2  BZF d   1       1.670  -0.368  -4.620  0.00  0.00     0.174 A 
ATOM      3  C3  BZF d   1       2.523  -1.400  -4.786  0.00  0.00    -0.012 A 
ATOM      4  C3A BZF d   1       1.719  -2.479  -5.272  0.00  0.00    -0.107 A 
ATOM      5  C4  BZF d   1       1.995  -3.765  -5.639  0.00  0.00     0.055 A 
ATOM      6  C5  BZF d   1       0.972  -4.583  -6.000  0.00  0.00    -0.016 A 
ATOM      7  C6  BZF d   1      -0.338  -4.151  -5.999  0.00  0.00     0.022 A 
ATOM      8  C7  BZF d   1      -0.661  -2.883  -5.648  0.00  0.00     0.029 A 
ATOM      9  C7A BZF d   1       0.374  -2.043  -5.315  0.00  0.00     0.058 A 
ENDROOT
TORSDOF 0
ENDMDL
