MODEL 1
REMARK minimizedAffinity 16.7111187
REMARK minimizedRMSD -1
REMARK  0 active torsions:
REMARK  status: ('A' for Active; 'I' for Inactive)
ROOT
ATOM      1  O1  BZF d   1       0.785   1.118   5.924  0.00  0.00    -0.204 OA
ATOM      2  C2  BZF d   1      -0.013   2.244   5.999  0.00  0.00     0.174 A 
ATOM      3  C3  BZF d   1      -0.660   2.450   4.834  0.00  0.00    -0.012 A 
ATOM      4  C3A BZF d   1      -0.311   1.335   4.008  0.00  0.00    -0.107 A 
ATOM      5  C4  BZF d   1      -0.653   0.963   2.739  0.00  0.00     0.055 A 
ATOM      6  C5  BZF d   1      -0.081  -0.145   2.198  0.00  0.00    -0.016 A 
ATOM      7  C6  BZF d   1       0.838  -0.901   2.896  0.00  0.00     0.022 A 
ATOM      8  C7  BZF d   1       1.205  -0.575   4.159  0.00  0.00     0.029 A 
ATOM      9  C7A BZF d   1       0.604   0.526   4.720  0.00  0.00     0.058 A 
ENDROOT
TORSDOF 0
ENDMDL
