MODEL 1
REMARK minimizedAffinity 19.433342
REMARK minimizedRMSD -1
REMARK  0 active torsions:
REMARK  status: ('A' for Active; 'I' for Inactive)
ROOT
ATOM      1  O1  BZF d   1      -1.282   0.318   1.388  0.00  0.00    -0.204 OA
ATOM      2  C2  BZF d   1      -2.461  -0.181   1.908  0.00  0.00     0.174 A 
ATOM      3  C3  BZF d   1      -2.218  -0.955   2.985  0.00  0.00    -0.012 A 
ATOM      4  C3A BZF d   1      -0.807  -0.864   3.204  0.00  0.00    -0.107 A 
ATOM      5  C4  BZF d   1       0.036  -1.401   4.136  0.00  0.00     0.055 A 
ATOM      6  C5  BZF d   1       1.371  -1.175   4.026  0.00  0.00    -0.016 A 
ATOM      7  C6  BZF d   1       1.899  -0.424   2.996  0.00  0.00     0.022 A 
ATOM      8  C7  BZF d   1       1.102   0.133   2.051  0.00  0.00     0.029 A 
ATOM      9  C7A BZF d   1      -0.251  -0.066   2.178  0.00  0.00     0.058 A 
ENDROOT
TORSDOF 0
ENDMDL
