MODEL 1
REMARK minimizedAffinity 11.5431786
REMARK minimizedRMSD -1
REMARK  0 active torsions:
REMARK  status: ('A' for Active; 'I' for Inactive)
ROOT
ATOM      1  O1  BZF d   1      -0.955   1.880   3.070  0.00  0.00    -0.204 OA
ATOM      2  C2  BZF d   1      -0.376   2.599   4.097  0.00  0.00     0.174 A 
ATOM      3  C3  BZF d   1       0.610   1.889   4.682  0.00  0.00    -0.012 A 
ATOM      4  C3A BZF d   1       0.712   0.685   3.916  0.00  0.00    -0.107 A 
ATOM      5  C4  BZF d   1       1.521  -0.412   3.994  0.00  0.00     0.055 A 
ATOM      6  C5  BZF d   1       1.314  -1.448   3.139  0.00  0.00    -0.016 A 
ATOM      7  C6  BZF d   1       0.305  -1.422   2.198  0.00  0.00     0.022 A 
ATOM      8  C7  BZF d   1      -0.519  -0.354   2.079  0.00  0.00     0.029 A 
ATOM      9  C7A BZF d   1      -0.292   0.708   2.920  0.00  0.00     0.058 A 
ENDROOT
TORSDOF 0
ENDMDL
