MODEL 1
REMARK minimizedAffinity 8.46804905
REMARK minimizedRMSD -1
REMARK  0 active torsions:
REMARK  status: ('A' for Active; 'I' for Inactive)
ROOT
ATOM      1  O1  BZF d   1      -0.641   2.118   4.008  0.00  0.00    -0.204 OA
ATOM      2  C2  BZF d   1      -0.186   2.455   5.268  0.00  0.00     0.174 A 
ATOM      3  C3  BZF d   1       0.556   1.458   5.792  0.00  0.00    -0.012 A 
ATOM      4  C3A BZF d   1       0.643   0.471   4.759  0.00  0.00    -0.107 A 
ATOM      5  C4  BZF d   1       1.261  -0.743   4.670  0.00  0.00     0.055 A 
ATOM      6  C5  BZF d   1       1.089  -1.491   3.548  0.00  0.00    -0.016 A 
ATOM      7  C6  BZF d   1       0.303  -1.058   2.500  0.00  0.00     0.022 A 
ATOM      8  C7  BZF d   1      -0.326   0.141   2.541  0.00  0.00     0.029 A 
ATOM      9  C7A BZF d   1      -0.128   0.914   3.659  0.00  0.00     0.058 A 
ENDROOT
TORSDOF 0
ENDMDL
