MODEL 1
REMARK minimizedAffinity 3.46415472
REMARK minimizedRMSD -1
REMARK  0 active torsions:
REMARK  status: ('A' for Active; 'I' for Inactive)
ROOT
ATOM      1  O1  BZF d   1       0.223  -3.450   3.596  0.00  0.00    -0.204 OA
ATOM      2  C2  BZF d   1       1.014  -3.675   4.706  0.00  0.00     0.174 A 
ATOM      3  C3  BZF d   1       1.591  -2.530   5.123  0.00  0.00    -0.012 A 
ATOM      4  C3A BZF d   1       1.059  -1.509   4.273  0.00  0.00    -0.107 A 
ATOM      5  C4  BZF d   1       1.239  -0.157   4.202  0.00  0.00     0.055 A 
ATOM      6  C5  BZF d   1       0.628   0.540   3.209  0.00  0.00    -0.016 A 
ATOM      7  C6  BZF d   1      -0.165  -0.083   2.267  0.00  0.00     0.022 A 
ATOM      8  C7  BZF d   1      -0.377  -1.421   2.298  0.00  0.00     0.029 A 
ATOM      9  C7A BZF d   1       0.213  -2.123   3.321  0.00  0.00     0.058 A 
ENDROOT
TORSDOF 0
ENDMDL
