MODEL 1
REMARK minimizedAffinity -3.36359048
REMARK minimizedRMSD -1
REMARK  1 active torsions:
REMARK  status: ('A' for Active; 'I' for Inactive)
REMARK    1  A    between atoms: C1_2  and  C2_3 
ROOT
ATOM      1  C2  UNL d   1       0.732   0.575  -0.427  0.00  0.00    -0.081 A 
ATOM      2  C3  UNL d   1       1.228  -0.296   0.550  0.00  0.00     0.006 A 
ATOM      3  C4  UNL d   1       0.387  -1.231   1.158  0.00  0.00     0.002 A 
ATOM      4  C5  UNL d   1      -0.961  -1.315   0.795  0.00  0.00    -0.080 A 
ATOM      5  C6  UNL d   1      -1.867  -2.335   1.419  0.00  0.00     0.076 C 
ATOM      6  C7  UNL d   1      -1.461  -0.433  -0.169  0.00  0.00     0.002 A 
ATOM      7  C8  UNL d   1      -0.621   0.502  -0.777  0.00  0.00     0.006 A 
ENDROOT
BRANCH   1   8
ATOM      8  C1  UNL d   1       1.651   1.541  -1.131  0.00  0.00     0.054 C 
ATOM      9  C   UNL d   1       1.185   1.809  -2.555  0.00  0.00     0.018 C 
ENDBRANCH   1   8
TORSDOF 1
ENDMDL
