MODEL 1
REMARK minimizedAffinity -5.61601114
REMARK minimizedRMSD -1
REMARK  1 active torsions:
REMARK  status: ('A' for Active; 'I' for Inactive)
REMARK    1  A    between atoms: C1_2  and  C2_3 
ROOT
ATOM      1  C2  UNL d   1       0.273   0.508  -0.075  0.00  0.00    -0.081 A 
ATOM      2  C3  UNL d   1       0.512  -0.829   0.263  0.00  0.00     0.006 A 
ATOM      3  C4  UNL d   1      -0.493  -1.603   0.847  0.00  0.00     0.002 A 
ATOM      4  C5  UNL d   1      -1.756  -1.056   1.096  0.00  0.00    -0.080 A 
ATOM      5  C6  UNL d   1      -2.854  -1.884   1.694  0.00  0.00     0.076 C 
ATOM      6  C7  UNL d   1      -1.991   0.286   0.774  0.00  0.00     0.002 A 
ATOM      7  C8  UNL d   1      -0.985   1.060   0.190  0.00  0.00     0.006 A 
ENDROOT
BRANCH   1   8
ATOM      8  C1  UNL d   1       1.334   1.327  -0.764  0.00  0.00     0.054 C 
ATOM      9  C   UNL d   1       0.920   1.689  -2.183  0.00  0.00     0.018 C 
ENDBRANCH   1   8
TORSDOF 1
ENDMDL
