MODEL 1
REMARK minimizedAffinity -2.15642524
REMARK minimizedRMSD -1
REMARK  1 active torsions:
REMARK  status: ('A' for Active; 'I' for Inactive)
REMARK    1  A    between atoms: C1_2  and  C2_3 
ROOT
ATOM      1  C2  UNL d   1       0.203   0.917  -1.160  0.00  0.00    -0.081 A 
ATOM      2  C3  UNL d   1      -0.519   1.177   0.011  0.00  0.00     0.006 A 
ATOM      3  C4  UNL d   1      -0.923   0.130   0.842  0.00  0.00     0.002 A 
ATOM      4  C5  UNL d   1      -0.606  -1.194   0.520  0.00  0.00    -0.080 A 
ATOM      5  C6  UNL d   1      -1.008  -2.326   1.419  0.00  0.00     0.076 C 
ATOM      6  C7  UNL d   1       0.100  -1.456  -0.659  0.00  0.00     0.002 A 
ATOM      7  C8  UNL d   1       0.504  -0.409  -1.491  0.00  0.00     0.006 A 
ENDROOT
BRANCH   1   8
ATOM      8  C1  UNL d   1       0.696   2.049  -2.025  0.00  0.00     0.054 C 
ATOM      9  C   UNL d   1       1.665   1.551  -3.088  0.00  0.00     0.018 C 
ENDBRANCH   1   8
TORSDOF 1
ENDMDL
