MODEL 1
REMARK minimizedAffinity -0.725006402
REMARK minimizedRMSD -1
REMARK  1 active torsions:
REMARK  status: ('A' for Active; 'I' for Inactive)
REMARK    1  A    between atoms: C1_2  and  C2_3 
ROOT
ATOM      1  C2  UNL d   1       0.070   1.013  -0.367  0.00  0.00    -0.081 A 
ATOM      2  C3  UNL d   1       1.100   0.095  -0.127  0.00  0.00     0.006 A 
ATOM      3  C4  UNL d   1       0.853  -1.073   0.599  0.00  0.00     0.002 A 
ATOM      4  C5  UNL d   1      -0.428  -1.347   1.089  0.00  0.00    -0.080 A 
ATOM      5  C6  UNL d   1      -0.713  -2.611   1.843  0.00  0.00     0.076 C 
ATOM      6  C7  UNL d   1      -1.453  -0.422   0.864  0.00  0.00     0.002 A 
ATOM      7  C8  UNL d   1      -1.207   0.747   0.140  0.00  0.00     0.006 A 
ENDROOT
BRANCH   1   8
ATOM      8  C1  UNL d   1       0.318   2.241  -1.204  0.00  0.00     0.054 C 
ATOM      9  C   UNL d   1       1.345   1.970  -2.294  0.00  0.00     0.018 C 
ENDBRANCH   1   8
TORSDOF 1
ENDMDL
