MODEL 1
REMARK minimizedAffinity -4.63885546
REMARK minimizedRMSD -1
REMARK  1 active torsions:
REMARK  status: ('A' for Active; 'I' for Inactive)
REMARK    1  A    between atoms: C1_2  and  C2_3 
ROOT
ATOM      1  C2  UNL d   1       0.067   0.450  -0.317  0.00  0.00    -0.081 A 
ATOM      2  C3  UNL d   1      -1.129   0.753   0.346  0.00  0.00     0.006 A 
ATOM      3  C4  UNL d   1      -1.832  -0.242   1.029  0.00  0.00     0.002 A 
ATOM      4  C5  UNL d   1      -1.348  -1.554   1.066  0.00  0.00    -0.080 A 
ATOM      5  C6  UNL d   1      -2.077  -2.626   1.821  0.00  0.00     0.076 C 
ATOM      6  C7  UNL d   1      -0.163  -1.861   0.389  0.00  0.00     0.002 A 
ATOM      7  C8  UNL d   1       0.541  -0.866  -0.294  0.00  0.00     0.006 A 
ENDROOT
BRANCH   1   8
ATOM      8  C1  UNL d   1       0.861   1.535  -0.999  0.00  0.00     0.054 C 
ATOM      9  C   UNL d   1       0.221   1.942  -2.319  0.00  0.00     0.018 C 
ENDBRANCH   1   8
TORSDOF 1
ENDMDL
