MODEL 1
REMARK minimizedAffinity -3.86987114
REMARK minimizedRMSD -1
REMARK  1 active torsions:
REMARK  status: ('A' for Active; 'I' for Inactive)
REMARK    1  A    between atoms: C1_2  and  C2_3 
ROOT
ATOM      1  C2  UNL d   1       0.297   0.544  -0.389  0.00  0.00    -0.081 A 
ATOM      2  C3  UNL d   1       0.961  -0.684  -0.273  0.00  0.00     0.006 A 
ATOM      3  C4  UNL d   1       0.308  -1.794   0.266  0.00  0.00     0.002 A 
ATOM      4  C5  UNL d   1      -1.022  -1.699   0.689  0.00  0.00    -0.080 A 
ATOM      5  C6  UNL d   1      -1.746  -2.892   1.241  0.00  0.00     0.076 C 
ATOM      6  C7  UNL d   1      -1.680  -0.468   0.589  0.00  0.00     0.002 A 
ATOM      7  C8  UNL d   1      -1.027   0.643   0.052  0.00  0.00     0.006 A 
ENDROOT
BRANCH   1   8
ATOM      8  C1  UNL d   1       0.979   1.726  -1.028  0.00  0.00     0.054 C 
ATOM      9  C   UNL d   1       0.359   2.059  -2.378  0.00  0.00     0.018 C 
ENDBRANCH   1   8
TORSDOF 1
ENDMDL
