MODEL 1
REMARK minimizedAffinity -5.20802641
REMARK minimizedRMSD -1
REMARK  1 active torsions:
REMARK  status: ('A' for Active; 'I' for Inactive)
REMARK    1  A    between atoms: C1_2  and  C2_3 
ROOT
ATOM      1  C2  UNL d   1       0.263   1.143  -0.576  0.00  0.00    -0.081 A 
ATOM      2  C3  UNL d   1       0.887  -0.109  -0.636  0.00  0.00     0.006 A 
ATOM      3  C4  UNL d   1       0.328  -1.211   0.016  0.00  0.00     0.002 A 
ATOM      4  C5  UNL d   1      -0.868  -1.081   0.731  0.00  0.00    -0.080 A 
ATOM      5  C6  UNL d   1      -1.495  -2.262   1.410  0.00  0.00     0.076 C 
ATOM      6  C7  UNL d   1      -1.482   0.174   0.805  0.00  0.00     0.002 A 
ATOM      7  C8  UNL d   1      -0.923   1.276   0.155  0.00  0.00     0.006 A 
ENDROOT
BRANCH   1   8
ATOM      8  C1  UNL d   1       0.829   2.319  -1.331  0.00  0.00     0.054 C 
ATOM      9  C   UNL d   1       2.064   1.922  -2.128  0.00  0.00     0.018 C 
ENDBRANCH   1   8
TORSDOF 1
ENDMDL
