MODEL 1
REMARK minimizedAffinity -0.687633097
REMARK minimizedRMSD -1
REMARK  1 active torsions:
REMARK  status: ('A' for Active; 'I' for Inactive)
REMARK    1  A    between atoms: C1_2  and  C2_3 
ROOT
ATOM      1  C2  UNL d   1       0.181   0.544   0.260  0.00  0.00    -0.081 A 
ATOM      2  C3  UNL d   1       0.814  -0.677   0.522  0.00  0.00     0.006 A 
ATOM      3  C4  UNL d   1       0.063  -1.808   0.852  0.00  0.00     0.002 A 
ATOM      4  C5  UNL d   1      -1.333  -1.739   0.917  0.00  0.00    -0.080 A 
ATOM      5  C6  UNL d   1      -2.153  -2.952   1.240  0.00  0.00     0.076 C 
ATOM      6  C7  UNL d   1      -1.965  -0.515   0.672  0.00  0.00     0.002 A 
ATOM      7  C8  UNL d   1      -1.214   0.616   0.342  0.00  0.00     0.006 A 
ENDROOT
BRANCH   1   8
ATOM      8  C1  UNL d   1       0.983   1.749  -0.159  0.00  0.00     0.054 C 
ATOM      9  C   UNL d   1       1.802   1.461  -1.409  0.00  0.00     0.018 C 
ENDBRANCH   1   8
TORSDOF 1
ENDMDL
