MODEL 1
REMARK minimizedAffinity -4.63360405
REMARK minimizedRMSD -1
REMARK  1 active torsions:
REMARK  status: ('A' for Active; 'I' for Inactive)
REMARK    1  A    between atoms: C1_2  and  C2_3 
ROOT
ATOM      1  C2  UNL d   1       0.381   0.803   0.016  0.00  0.00    -0.081 A 
ATOM      2  C3  UNL d   1       0.936  -0.480   0.098  0.00  0.00     0.006 A 
ATOM      3  C4  UNL d   1       0.159  -1.562   0.519  0.00  0.00     0.002 A 
ATOM      4  C5  UNL d   1      -1.186  -1.381   0.856  0.00  0.00    -0.080 A 
ATOM      5  C6  UNL d   1      -2.039  -2.539   1.280  0.00  0.00     0.076 C 
ATOM      6  C7  UNL d   1      -1.736  -0.096   0.791  0.00  0.00     0.002 A 
ATOM      7  C8  UNL d   1      -0.960   0.986   0.372  0.00  0.00     0.006 A 
ENDROOT
BRANCH   1   8
ATOM      8  C1  UNL d   1       1.198   1.961  -0.499  0.00  0.00     0.054 C 
ATOM      9  C   UNL d   1       1.523   1.794  -1.976  0.00  0.00     0.018 C 
ENDBRANCH   1   8
TORSDOF 1
ENDMDL
