MODEL 1
REMARK minimizedAffinity -3.99131513
REMARK minimizedRMSD -1
REMARK  0 active torsions:
REMARK  status: ('A' for Active; 'I' for Inactive)
ROOT
ATOM      1  C1  DEN d   1      -0.774   1.772  -1.751  0.00  0.00     0.130 A 
ATOM      2  C2  DEN d   1      -0.228   0.645  -2.502  0.00  0.00    -0.031 A 
ATOM      3  C3  DEN d   1       0.260  -0.356  -1.532  0.00  0.00     0.027 A 
ATOM      4  C4  DEN d   1       0.218  -0.272   1.046  0.00  0.00     0.027 A 
ATOM      5  C5  DEN d   1      -0.137   0.487   2.138  0.00  0.00    -0.003 A 
ATOM      6  C6  DEN d   1      -0.693   1.733   2.012  0.00  0.00     0.001 A 
ATOM      7  C7  DEN d   1      -0.953   2.237   0.766  0.00  0.00     0.017 A 
ATOM      8  C8  DEN d   1      -0.591   1.480  -0.341  0.00  0.00    -0.094 A 
ATOM      9  C9  DEN d   1      -0.041   0.218  -0.193  0.00  0.00    -0.072 A 
ENDROOT
TORSDOF 0
ENDMDL
