MODEL 1
REMARK minimizedAffinity -1.60745931
REMARK minimizedRMSD -1
REMARK  0 active torsions:
REMARK  status: ('A' for Active; 'I' for Inactive)
ROOT
ATOM      1  C1  DEN d   1      -0.399  -0.492  -1.292  0.00  0.00     0.130 A 
ATOM      2  C2  DEN d   1       0.745  -1.369  -1.062  0.00  0.00    -0.031 A 
ATOM      3  C3  DEN d   1       1.249  -1.114   0.303  0.00  0.00     0.027 A 
ATOM      4  C4  DEN d   1       0.371   0.543   2.073  0.00  0.00     0.027 A 
ATOM      5  C5  DEN d   1      -0.573   1.512   2.333  0.00  0.00    -0.003 A 
ATOM      6  C6  DEN d   1      -1.496   1.901   1.400  0.00  0.00     0.001 A 
ATOM      7  C7  DEN d   1      -1.524   1.287   0.175  0.00  0.00     0.017 A 
ATOM      8  C8  DEN d   1      -0.571   0.315  -0.097  0.00  0.00    -0.094 A 
ATOM      9  C9  DEN d   1       0.346  -0.074   0.865  0.00  0.00    -0.072 A 
ENDROOT
TORSDOF 0
ENDMDL
