MODEL 1
REMARK minimizedAffinity 2.36513329
REMARK minimizedRMSD -1
REMARK  0 active torsions:
REMARK  status: ('A' for Active; 'I' for Inactive)
ROOT
ATOM      1  C1  DEN d   1       0.784   2.180   0.721  0.00  0.00     0.130 A 
ATOM      2  C2  DEN d   1      -0.041   2.546   1.869  0.00  0.00    -0.031 A 
ATOM      3  C3  DEN d   1      -0.397   1.307   2.590  0.00  0.00     0.027 A 
ATOM      4  C4  DEN d   1       0.251  -1.130   2.044  0.00  0.00     0.027 A 
ATOM      5  C5  DEN d   1       0.930  -1.940   1.162  0.00  0.00    -0.003 A 
ATOM      6  C6  DEN d   1       1.575  -1.442   0.060  0.00  0.00     0.001 A 
ATOM      7  C7  DEN d   1       1.591  -0.090  -0.162  0.00  0.00     0.017 A 
ATOM      8  C8  DEN d   1       0.902   0.733   0.719  0.00  0.00    -0.094 A 
ATOM      9  C9  DEN d   1       0.267   0.211   1.833  0.00  0.00    -0.072 A 
ENDROOT
TORSDOF 0
ENDMDL
