MODEL 1
REMARK minimizedAffinity -4.61868334
REMARK minimizedRMSD -1
REMARK  0 active torsions:
REMARK  status: ('A' for Active; 'I' for Inactive)
ROOT
ATOM      1  C1  DEN d   1       0.022   0.564  -1.681  0.00  0.00     0.130 A 
ATOM      2  C2  DEN d   1       0.891  -0.572  -1.385  0.00  0.00    -0.031 A 
ATOM      3  C3  DEN d   1       1.007  -0.688   0.082  0.00  0.00     0.027 A 
ATOM      4  C4  DEN d   1      -0.073   0.771   1.915  0.00  0.00     0.027 A 
ATOM      5  C5  DEN d   1      -0.882   1.860   2.152  0.00  0.00    -0.003 A 
ATOM      6  C6  DEN d   1      -1.415   2.608   1.135  0.00  0.00     0.001 A 
ATOM      7  C7  DEN d   1      -1.181   2.249  -0.166  0.00  0.00     0.017 A 
ATOM      8  C8  DEN d   1      -0.360   1.156  -0.412  0.00  0.00    -0.094 A 
ATOM      9  C9  DEN d   1       0.159   0.406   0.629  0.00  0.00    -0.072 A 
ENDROOT
TORSDOF 0
ENDMDL
