MODEL 1
REMARK minimizedAffinity -4.41891861
REMARK minimizedRMSD -1
REMARK  0 active torsions:
REMARK  status: ('A' for Active; 'I' for Inactive)
ROOT
ATOM      1  C1  DEN d   1      -0.266  -0.530  -0.673  0.00  0.00     0.130 A 
ATOM      2  C2  DEN d   1       0.809  -1.131   0.112  0.00  0.00    -0.031 A 
ATOM      3  C3  DEN d   1       1.111  -0.228   1.240  0.00  0.00     0.027 A 
ATOM      4  C4  DEN d   1       0.021   2.029   1.849  0.00  0.00     0.027 A 
ATOM      5  C5  DEN d   1      -0.927   2.955   1.473  0.00  0.00    -0.003 A 
ATOM      6  C6  DEN d   1      -1.691   2.803   0.347  0.00  0.00     0.001 A 
ATOM      7  C7  DEN d   1      -1.552   1.676  -0.420  0.00  0.00     0.017 A 
ATOM      8  C8  DEN d   1      -0.593   0.741  -0.052  0.00  0.00    -0.094 A 
ATOM      9  C9  DEN d   1       0.161   0.908   1.097  0.00  0.00    -0.072 A 
ENDROOT
TORSDOF 0
ENDMDL
