MODEL 1
REMARK minimizedAffinity 0.213633329
REMARK minimizedRMSD -1
REMARK  0 active torsions:
REMARK  status: ('A' for Active; 'I' for Inactive)
ROOT
ATOM      1  C1  DEN d   1       0.242  -2.178   0.193  0.00  0.00     0.130 A 
ATOM      2  C2  DEN d   1       0.564  -2.914  -1.027  0.00  0.00    -0.031 A 
ATOM      3  C3  DEN d   1       0.409  -1.992  -2.170  0.00  0.00     0.027 A 
ATOM      4  C4  DEN d   1      -0.290   0.491  -2.169  0.00  0.00     0.027 A 
ATOM      5  C5  DEN d   1      -0.674   1.549  -1.375  0.00  0.00    -0.003 A 
ATOM      6  C6  DEN d   1      -0.812   1.430  -0.017  0.00  0.00     0.001 A 
ATOM      7  C7  DEN d   1      -0.520   0.239   0.593  0.00  0.00     0.017 A 
ATOM      8  C8  DEN d   1      -0.139  -0.834  -0.202  0.00  0.00    -0.094 A 
ATOM      9  C9  DEN d   1       0.007  -0.691  -1.571  0.00  0.00    -0.072 A 
ENDROOT
TORSDOF 0
ENDMDL
