MODEL 1
REMARK minimizedAffinity 6.41196394
REMARK minimizedRMSD -1
REMARK  0 active torsions:
REMARK  status: ('A' for Active; 'I' for Inactive)
ROOT
ATOM      1  N1  IND d   1       1.618   4.618  -0.064  0.00  0.00    -0.196 N 
ATOM      2  C2  IND d   1       0.258   4.726   0.026  0.00  0.00     0.054 A 
ATOM      3  C3  IND d   1      -0.310   3.499   0.054  0.00  0.00    -0.031 A 
ATOM      4  C4  IND d   1       0.806   1.179   0.064  0.00  0.00     0.051 A 
ATOM      5  C5  IND d   1       2.024   0.570  -0.044  0.00  0.00    -0.031 A 
ATOM      6  C6  IND d   1       3.193   1.293  -0.163  0.00  0.00     0.015 A 
ATOM      7  C7  IND d   1       3.188   2.659  -0.168  0.00  0.00    -0.016 A 
ATOM      8  C8  IND d   1       1.952   3.281  -0.067  0.00  0.00    -0.047 A 
ATOM      9  C9  IND d   1       0.759   2.552   0.012  0.00  0.00    -0.096 A 
ATOM     10  HN1 IND d   1       2.171   5.274  -0.112  0.00  0.00     0.298 HD
ENDROOT
TORSDOF 0
ENDMDL
