MODEL 1
REMARK minimizedAffinity 6.30857182
REMARK minimizedRMSD -1
REMARK  0 active torsions:
REMARK  status: ('A' for Active; 'I' for Inactive)
ROOT
ATOM      1  N1  IND d   1       1.954   1.287  -0.457  0.00  0.00    -0.196 N 
ATOM      2  C2  IND d   1       1.790  -0.068  -0.379  0.00  0.00     0.054 A 
ATOM      3  C3  IND d   1       2.988  -0.680  -0.251  0.00  0.00    -0.031 A 
ATOM      4  C4  IND d   1       5.338   0.351  -0.046  0.00  0.00     0.051 A 
ATOM      5  C5  IND d   1       5.999   1.546  -0.100  0.00  0.00    -0.031 A 
ATOM      6  C6  IND d   1       5.331   2.740  -0.277  0.00  0.00     0.015 A 
ATOM      7  C7  IND d   1       3.970   2.785  -0.395  0.00  0.00    -0.016 A 
ATOM      8  C8  IND d   1       3.297   1.573  -0.348  0.00  0.00    -0.047 A 
ATOM      9  C9  IND d   1       3.973   0.353  -0.212  0.00  0.00    -0.096 A 
ATOM     10  HN1 IND d   1       1.324   1.864  -0.558  0.00  0.00     0.298 HD
ENDROOT
TORSDOF 0
ENDMDL
