MODEL 1
REMARK minimizedAffinity 2.75619245
REMARK minimizedRMSD -1
REMARK  0 active torsions:
REMARK  status: ('A' for Active; 'I' for Inactive)
ROOT
ATOM      1  N1  IND d   1      -2.627   2.456  -2.529  0.00  0.00    -0.196 N 
ATOM      2  C2  IND d   1      -2.031   1.229  -2.611  0.00  0.00     0.054 A 
ATOM      3  C3  IND d   1      -2.805   0.376  -3.318  0.00  0.00    -0.031 A 
ATOM      4  C4  IND d   1      -5.040   0.808  -4.519  0.00  0.00     0.051 A 
ATOM      5  C5  IND d   1      -5.999   1.765  -4.699  0.00  0.00    -0.031 A 
ATOM      6  C6  IND d   1      -5.879   3.028  -4.156  0.00  0.00     0.015 A 
ATOM      7  C7  IND d   1      -4.786   3.386  -3.419  0.00  0.00    -0.016 A 
ATOM      8  C8  IND d   1      -3.814   2.414  -3.229  0.00  0.00    -0.047 A 
ATOM      9  C9  IND d   1      -3.950   1.118  -3.741  0.00  0.00    -0.096 A 
ATOM     10  HN1 IND d   1      -2.315   3.139  -2.111  0.00  0.00     0.298 HD
ENDROOT
TORSDOF 0
ENDMDL
