MODEL 1
REMARK minimizedAffinity 7.95884228
REMARK minimizedRMSD -1
REMARK  0 active torsions:
REMARK  status: ('A' for Active; 'I' for Inactive)
ROOT
ATOM      1  C2' OXE d   1       0.408  -3.274  -2.930  0.00  0.00     0.078 C 
ATOM      2  C1' OXE d   1      -0.404  -1.513  -4.960  0.00  0.00     0.078 C 
ATOM      3  C1  OXE d   1      -0.951  -2.919  -4.988  0.00  0.00    -0.078 A 
ATOM      4  C2  OXE d   1      -0.512  -3.787  -4.017  0.00  0.00    -0.078 A 
ATOM      5  C3  OXE d   1      -1.027  -5.079  -3.965  0.00  0.00     0.003 A 
ATOM      6  C4  OXE d   1      -1.869  -5.549  -4.980  0.00  0.00    -0.002 A 
ATOM      7  C5  OXE d   1      -2.297  -4.692  -6.000  0.00  0.00    -0.002 A 
ATOM      8  C6  OXE d   1      -1.882  -3.365  -5.994  0.00  0.00     0.003 A 
ENDROOT
TORSDOF 0
ENDMDL
