MODEL 1
REMARK minimizedAffinity 19.725996
REMARK minimizedRMSD -1
REMARK  0 active torsions:
REMARK  status: ('A' for Active; 'I' for Inactive)
ROOT
ATOM      1  C2' OXE d   1      -0.677   4.793  -3.004  0.00  0.00     0.078 C 
ATOM      2  C1' OXE d   1      -0.466   5.861  -0.417  0.00  0.00     0.078 C 
ATOM      3  C1  OXE d   1      -0.402   4.362  -0.566  0.00  0.00    -0.078 A 
ATOM      4  C2  OXE d   1      -0.553   3.845  -1.830  0.00  0.00    -0.078 A 
ATOM      5  C3  OXE d   1      -0.447   2.472  -2.031  0.00  0.00     0.003 A 
ATOM      6  C4  OXE d   1      -0.343   1.602  -0.938  0.00  0.00    -0.002 A 
ATOM      7  C5  OXE d   1      -0.227   2.105   0.362  0.00  0.00    -0.002 A 
ATOM      8  C6  OXE d   1      -0.213   3.482   0.561  0.00  0.00     0.003 A 
ENDROOT
TORSDOF 0
ENDMDL
