MODEL 1
REMARK minimizedAffinity 6.61972094
REMARK minimizedRMSD -1
REMARK  0 active torsions:
REMARK  status: ('A' for Active; 'I' for Inactive)
ROOT
ATOM      1  C2' OXE d   1      -0.033  -4.632  -5.797  0.00  0.00     0.078 C 
ATOM      2  C1' OXE d   1      -1.503  -2.249  -5.988  0.00  0.00     0.078 C 
ATOM      3  C1  OXE d   1      -2.270  -3.547  -5.946  0.00  0.00    -0.078 A 
ATOM      4  C2  OXE d   1      -1.540  -4.711  -5.899  0.00  0.00    -0.078 A 
ATOM      5  C3  OXE d   1      -2.199  -5.934  -5.803  0.00  0.00     0.003 A 
ATOM      6  C4  OXE d   1      -3.593  -5.998  -5.909  0.00  0.00    -0.002 A 
ATOM      7  C5  OXE d   1      -4.354  -4.827  -5.997  0.00  0.00    -0.002 A 
ATOM      8  C6  OXE d   1      -3.711  -3.594  -5.974  0.00  0.00     0.003 A 
ENDROOT
TORSDOF 0
ENDMDL
