MODEL 1
REMARK minimizedAffinity 2.34149122
REMARK minimizedRMSD -1
REMARK  0 active torsions:
REMARK  status: ('A' for Active; 'I' for Inactive)
ROOT
ATOM      1  C2' OXE d   1      -1.539   2.036  -3.221  0.00  0.00     0.078 C 
ATOM      2  C1' OXE d   1       0.501   0.464  -4.338  0.00  0.00     0.078 C 
ATOM      3  C1  OXE d   1       0.225   0.314  -2.863  0.00  0.00    -0.078 A 
ATOM      4  C2  OXE d   1      -0.743   1.121  -2.316  0.00  0.00    -0.078 A 
ATOM      5  C3  OXE d   1      -1.076   0.984  -0.971  0.00  0.00     0.003 A 
ATOM      6  C4  OXE d   1      -0.328   0.142  -0.139  0.00  0.00    -0.002 A 
ATOM      7  C5  OXE d   1       0.689  -0.660  -0.668  0.00  0.00    -0.002 A 
ATOM      8  C6  OXE d   1       0.949  -0.617  -2.033  0.00  0.00     0.003 A 
ENDROOT
TORSDOF 0
ENDMDL
