MODEL 1
REMARK minimizedAffinity 1.32693601
REMARK minimizedRMSD -1
REMARK  0 active torsions:
REMARK  status: ('A' for Active; 'I' for Inactive)
ROOT
ATOM      1  C2' OXE d   1      -1.067   5.992  -3.416  0.00  0.00     0.078 C 
ATOM      2  C1' OXE d   1       1.711   5.998  -3.012  0.00  0.00     0.078 C 
ATOM      3  C1  OXE d   1       0.907   4.905  -2.354  0.00  0.00    -0.078 A 
ATOM      4  C2  OXE d   1      -0.457   4.937  -2.519  0.00  0.00    -0.078 A 
ATOM      5  C3  OXE d   1      -1.240   3.921  -1.978  0.00  0.00     0.003 A 
ATOM      6  C4  OXE d   1      -0.669   2.955  -1.141  0.00  0.00    -0.002 A 
ATOM      7  C5  OXE d   1       0.713   2.928  -0.928  0.00  0.00    -0.002 A 
ATOM      8  C6  OXE d   1       1.519   3.869  -1.560  0.00  0.00     0.003 A 
ENDROOT
TORSDOF 0
ENDMDL
