MODEL 1
REMARK minimizedAffinity 8.23252583
REMARK minimizedRMSD -1
REMARK  0 active torsions:
REMARK  status: ('A' for Active; 'I' for Inactive)
ROOT
ATOM      1  C2' OXE d   1       1.703  -0.918  -3.770  0.00  0.00     0.078 C 
ATOM      2  C1' OXE d   1       2.833  -1.641  -1.304  0.00  0.00     0.078 C 
ATOM      3  C1  OXE d   1       3.712  -1.711  -2.528  0.00  0.00    -0.078 A 
ATOM      4  C2  OXE d   1       3.137  -1.400  -3.737  0.00  0.00    -0.078 A 
ATOM      5  C3  OXE d   1       3.917  -1.396  -4.890  0.00  0.00     0.003 A 
ATOM      6  C4  OXE d   1       5.240  -1.853  -4.853  0.00  0.00    -0.002 A 
ATOM      7  C5  OXE d   1       5.833  -2.212  -3.637  0.00  0.00    -0.002 A 
ATOM      8  C6  OXE d   1       5.097  -2.106  -2.463  0.00  0.00     0.003 A 
ENDROOT
TORSDOF 0
ENDMDL
