MODEL 1
REMARK minimizedAffinity 3.64304829
REMARK minimizedRMSD -1
REMARK  0 active torsions:
REMARK  status: ('A' for Active; 'I' for Inactive)
ROOT
ATOM      1  C2' OXE d   1       1.860  -5.387   2.662  0.00  0.00     0.078 C 
ATOM      2  C1' OXE d   1       3.696  -5.998   0.629  0.00  0.00     0.078 C 
ATOM      3  C1  OXE d   1       2.243  -5.857   0.247  0.00  0.00    -0.078 A 
ATOM      4  C2  OXE d   1       1.346  -5.604   1.256  0.00  0.00    -0.078 A 
ATOM      5  C3  OXE d   1       0.002  -5.411   0.950  0.00  0.00     0.003 A 
ATOM      6  C4  OXE d   1      -0.467  -5.624  -0.352  0.00  0.00    -0.002 A 
ATOM      7  C5  OXE d   1       0.425  -5.922  -1.387  0.00  0.00    -0.002 A 
ATOM      8  C6  OXE d   1       1.786  -6.000  -1.114  0.00  0.00     0.003 A 
ENDROOT
TORSDOF 0
ENDMDL
