MODEL 1
REMARK minimizedAffinity 6.84233761
REMARK minimizedRMSD -1
REMARK  0 active torsions:
REMARK  status: ('A' for Active; 'I' for Inactive)
ROOT
ATOM      1  C2' OXE d   1       0.258   2.186   3.583  0.00  0.00     0.078 C 
ATOM      2  C1' OXE d   1       1.819   0.858   1.666  0.00  0.00     0.078 C 
ATOM      3  C1  OXE d   1       1.022   2.057   1.216  0.00  0.00    -0.078 A 
ATOM      4  C2  OXE d   1       0.225   2.673   2.151  0.00  0.00    -0.078 A 
ATOM      5  C3  OXE d   1      -0.488   3.816   1.802  0.00  0.00     0.003 A 
ATOM      6  C4  OXE d   1      -0.521   4.254   0.473  0.00  0.00    -0.002 A 
ATOM      7  C5  OXE d   1       0.253   3.617  -0.503  0.00  0.00    -0.002 A 
ATOM      8  C6  OXE d   1       1.061   2.545  -0.140  0.00  0.00     0.003 A 
ENDROOT
TORSDOF 0
ENDMDL
