MODEL 1
REMARK minimizedAffinity -6.03438234
REMARK minimizedRMSD -1
REMARK  0 active torsions:
REMARK  status: ('A' for Active; 'I' for Inactive)
ROOT
ATOM      1  C2' OXE d   1       1.473  -0.026   2.865  0.00  0.00     0.078 C 
ATOM      2  C1' OXE d   1       0.090   2.389   2.494  0.00  0.00     0.078 C 
ATOM      3  C1  OXE d   1       0.396   1.559   1.273  0.00  0.00    -0.078 A 
ATOM      4  C2  OXE d   1       1.114   0.402   1.458  0.00  0.00    -0.078 A 
ATOM      5  C3  OXE d   1       1.377  -0.428   0.372  0.00  0.00     0.003 A 
ATOM      6  C4  OXE d   1       1.050  -0.021  -0.927  0.00  0.00    -0.002 A 
ATOM      7  C5  OXE d   1       0.354   1.173  -1.142  0.00  0.00    -0.002 A 
ATOM      8  C6  OXE d   1      -0.017   1.952  -0.052  0.00  0.00     0.003 A 
ENDROOT
TORSDOF 0
ENDMDL
