MODEL 1
REMARK minimizedAffinity -4.04747438
REMARK minimizedRMSD -1
REMARK  0 active torsions:
REMARK  status: ('A' for Active; 'I' for Inactive)
ROOT
ATOM      1  C2' OXE d   1       1.815  -0.356  -0.179  0.00  0.00     0.078 C 
ATOM      2  C1' OXE d   1       0.468   2.106  -0.271  0.00  0.00     0.078 C 
ATOM      3  C1  OXE d   1       0.674   1.466   1.080  0.00  0.00    -0.078 A 
ATOM      4  C2  OXE d   1       1.293   0.240   1.111  0.00  0.00    -0.078 A 
ATOM      5  C3  OXE d   1       1.557  -0.368   2.334  0.00  0.00     0.003 A 
ATOM      6  C4  OXE d   1       1.062   0.184   3.522  0.00  0.00    -0.002 A 
ATOM      7  C5  OXE d   1       0.394   1.413   3.509  0.00  0.00    -0.002 A 
ATOM      8  C6  OXE d   1       0.230   2.087   2.303  0.00  0.00     0.003 A 
ENDROOT
TORSDOF 0
ENDMDL
