MODEL 1
REMARK minimizedAffinity -3.21878958
REMARK minimizedRMSD -1
REMARK  0 active torsions:
REMARK  status: ('A' for Active; 'I' for Inactive)
ROOT
ATOM      1  C2' OXE d   1       1.469  -0.819   0.273  0.00  0.00     0.078 C 
ATOM      2  C1' OXE d   1       1.964  -0.354   2.996  0.00  0.00     0.078 C 
ATOM      3  C1  OXE d   1       1.425   0.790   2.174  0.00  0.00    -0.078 A 
ATOM      4  C2  OXE d   1       1.230   0.567   0.832  0.00  0.00    -0.078 A 
ATOM      5  C3  OXE d   1       0.683   1.572   0.039  0.00  0.00     0.003 A 
ATOM      6  C4  OXE d   1       0.474   2.853   0.563  0.00  0.00    -0.002 A 
ATOM      7  C5  OXE d   1       0.703   3.113   1.918  0.00  0.00    -0.002 A 
ATOM      8  C6  OXE d   1       1.138   2.083   2.745  0.00  0.00     0.003 A 
ENDROOT
TORSDOF 0
ENDMDL
