MODEL 1
REMARK minimizedAffinity 3.61163855
REMARK minimizedRMSD -1
REMARK  0 active torsions:
REMARK  status: ('A' for Active; 'I' for Inactive)
ROOT
ATOM      1  C   UNL d   1      -0.264   0.014   1.978  0.00  0.00     0.124 A 
ATOM      2  C1  UNL d   1      -1.229   0.475   1.092  0.00  0.00     0.062 A 
ATOM      3  C2  UNL d   1      -1.038   0.346  -0.280  0.00  0.00     0.162 A 
ATOM      4  C3  UNL d   1       0.122  -0.249  -0.777  0.00  0.00    -0.034 A 
ATOM      5  C4  UNL d   1       1.088  -0.709   0.120  0.00  0.00     0.162 A 
ATOM      6  C5  UNL d   1       0.893  -0.577   1.491  0.00  0.00     0.062 A 
ATOM      7  F   UNL d   1       1.826  -1.024   2.345  0.00  0.00    -0.097 F 
ATOM      8  F1  UNL d   1       2.215  -1.286  -0.323  0.00  0.00    -0.096 F 
ATOM      9  I   UNL d   1       0.411  -0.444  -2.828  0.00  0.00    -0.060 I 
ATOM     10  F2  UNL d   1      -1.987   0.800  -1.112  0.00  0.00    -0.096 F 
ATOM     11  F3  UNL d   1      -2.347   1.048   1.560  0.00  0.00    -0.097 F 
ATOM     12  F4  UNL d   1      -0.450   0.141   3.298  0.00  0.00    -0.092 F 
ENDROOT
TORSDOF 0
ENDMDL
