MODEL 1
REMARK minimizedAffinity -2.36159396
REMARK minimizedRMSD -1
REMARK  0 active torsions:
REMARK  status: ('A' for Active; 'I' for Inactive)
ROOT
ATOM      1  C   UNL d   1      -0.404   0.720   2.297  0.00  0.00     0.124 A 
ATOM      2  C1  UNL d   1       0.838   0.606   1.688  0.00  0.00     0.062 A 
ATOM      3  C2  UNL d   1       0.929   0.249   0.346  0.00  0.00     0.162 A 
ATOM      4  C3  UNL d   1      -0.225   0.005  -0.398  0.00  0.00    -0.034 A 
ATOM      5  C4  UNL d   1      -1.471   0.121   0.221  0.00  0.00     0.162 A 
ATOM      6  C5  UNL d   1      -1.557   0.477   1.563  0.00  0.00     0.062 A 
ATOM      7  F   UNL d   1      -2.758   0.587   2.149  0.00  0.00    -0.097 F 
ATOM      8  F1  UNL d   1      -2.601  -0.107  -0.464  0.00  0.00    -0.096 F 
ATOM      9  I   UNL d   1      -0.092  -0.528  -2.405  0.00  0.00    -0.060 I 
ATOM     10  F2  UNL d   1       2.143   0.146  -0.217  0.00  0.00    -0.096 F 
ATOM     11  F3  UNL d   1       1.953   0.838   2.395  0.00  0.00    -0.097 F 
ATOM     12  F4  UNL d   1      -0.490   1.062   3.589  0.00  0.00    -0.092 F 
ENDROOT
TORSDOF 0
ENDMDL
