MODEL 1
REMARK minimizedAffinity -0.773689926
REMARK minimizedRMSD -1
REMARK  0 active torsions:
REMARK  status: ('A' for Active; 'I' for Inactive)
ROOT
ATOM      1  C   UNL d   1      -0.765   0.726   2.721  0.00  0.00     0.124 A 
ATOM      2  C1  UNL d   1      -1.796   0.322   1.885  0.00  0.00     0.062 A 
ATOM      3  C2  UNL d   1      -1.514  -0.186   0.620  0.00  0.00     0.162 A 
ATOM      4  C3  UNL d   1      -0.193  -0.293   0.183  0.00  0.00    -0.034 A 
ATOM      5  C4  UNL d   1       0.839   0.117   1.029  0.00  0.00     0.162 A 
ATOM      6  C5  UNL d   1       0.551   0.624   2.293  0.00  0.00     0.062 A 
ATOM      7  F   UNL d   1       1.549   1.014   3.099  0.00  0.00    -0.097 F 
ATOM      8  F1  UNL d   1       2.120   0.028   0.641  0.00  0.00    -0.096 F 
ATOM      9  I   UNL d   1       0.233  -1.051  -1.708  0.00  0.00    -0.060 I 
ATOM     10  F2  UNL d   1      -2.530  -0.569  -0.167  0.00  0.00    -0.096 F 
ATOM     11  F3  UNL d   1      -3.068   0.421   2.296  0.00  0.00    -0.097 F 
ATOM     12  F4  UNL d   1      -1.039   1.215   3.937  0.00  0.00    -0.092 F 
ENDROOT
TORSDOF 0
ENDMDL
