MODEL 1
REMARK minimizedAffinity 3.26681566
REMARK minimizedRMSD -1
REMARK  0 active torsions:
REMARK  status: ('A' for Active; 'I' for Inactive)
ROOT
ATOM      1  C   UNL d   1      -1.399   0.375   1.279  0.00  0.00     0.124 A 
ATOM      2  C1  UNL d   1      -1.729  -0.308   0.116  0.00  0.00     0.062 A 
ATOM      3  C2  UNL d   1      -0.836  -0.346  -0.951  0.00  0.00     0.162 A 
ATOM      4  C3  UNL d   1       0.396   0.300  -0.860  0.00  0.00    -0.034 A 
ATOM      5  C4  UNL d   1       0.721   0.987   0.311  0.00  0.00     0.162 A 
ATOM      6  C5  UNL d   1      -0.175   1.022   1.375  0.00  0.00     0.062 A 
ATOM      7  F   UNL d   1       0.145   1.683   2.497  0.00  0.00    -0.097 F 
ATOM      8  F1  UNL d   1       1.897   1.619   0.432  0.00  0.00    -0.096 F 
ATOM      9  I   UNL d   1       1.734   0.245  -2.454  0.00  0.00    -0.060 I 
ATOM     10  F2  UNL d   1      -1.181  -1.015  -2.061  0.00  0.00    -0.096 F 
ATOM     11  F3  UNL d   1      -2.911  -0.933   0.021  0.00  0.00    -0.097 F 
ATOM     12  F4  UNL d   1      -2.261   0.411   2.303  0.00  0.00    -0.092 F 
ENDROOT
TORSDOF 0
ENDMDL
