MODEL 1
REMARK minimizedAffinity -3.46401644
REMARK minimizedRMSD -1
REMARK  0 active torsions:
REMARK  status: ('A' for Active; 'I' for Inactive)
ROOT
ATOM      1  C   UNL d   1      -0.283   0.187   2.895  0.00  0.00     0.124 A 
ATOM      2  C1  UNL d   1       0.940  -0.373   2.553  0.00  0.00     0.062 A 
ATOM      3  C2  UNL d   1       1.217  -0.689   1.226  0.00  0.00     0.162 A 
ATOM      4  C3  UNL d   1       0.270  -0.446   0.231  0.00  0.00    -0.034 A 
ATOM      5  C4  UNL d   1      -0.958   0.117   0.584  0.00  0.00     0.162 A 
ATOM      6  C5  UNL d   1      -1.230   0.432   1.911  0.00  0.00     0.062 A 
ATOM      7  F   UNL d   1      -2.412   0.973   2.241  0.00  0.00    -0.097 F 
ATOM      8  F1  UNL d   1      -1.891   0.365  -0.347  0.00  0.00    -0.096 F 
ATOM      9  I   UNL d   1       0.681  -0.917  -1.754  0.00  0.00    -0.060 I 
ATOM     10  F2  UNL d   1       2.407  -1.230   0.923  0.00  0.00    -0.096 F 
ATOM     11  F3  UNL d   1       1.856  -0.611   3.502  0.00  0.00    -0.097 F 
ATOM     12  F4  UNL d   1      -0.548   0.490   4.173  0.00  0.00    -0.092 F 
ENDROOT
TORSDOF 0
ENDMDL
