MODEL 1
REMARK minimizedAffinity 2.79923034
REMARK minimizedRMSD -1
REMARK  0 active torsions:
REMARK  status: ('A' for Active; 'I' for Inactive)
ROOT
ATOM      1  C   UNL d   1       1.108   0.335  -3.444  0.00  0.00     0.124 A 
ATOM      2  C1  UNL d   1       1.826   1.168  -2.597  0.00  0.00     0.062 A 
ATOM      3  C2  UNL d   1       1.580   1.154  -1.227  0.00  0.00     0.162 A 
ATOM      4  C3  UNL d   1       0.611   0.303  -0.695  0.00  0.00    -0.034 A 
ATOM      5  C4  UNL d   1      -0.108  -0.531  -1.553  0.00  0.00     0.162 A 
ATOM      6  C5  UNL d   1       0.142  -0.513  -2.921  0.00  0.00     0.062 A 
ATOM      7  F   UNL d   1      -0.553  -1.318  -3.738  0.00  0.00    -0.097 F 
ATOM      8  F1  UNL d   1      -1.046  -1.361  -1.074  0.00  0.00    -0.096 F 
ATOM      9  I   UNL d   1       0.241   0.278   1.353  0.00  0.00    -0.060 I 
ATOM     10  F2  UNL d   1       2.289   1.969  -0.432  0.00  0.00    -0.096 F 
ATOM     11  F3  UNL d   1       2.759   1.989  -3.099  0.00  0.00    -0.097 F 
ATOM     12  F4  UNL d   1       1.346   0.352  -4.761  0.00  0.00    -0.092 F 
ENDROOT
TORSDOF 0
ENDMDL
