MODEL 1
REMARK minimizedAffinity -2.56524873
REMARK minimizedRMSD -1
REMARK  0 active torsions:
REMARK  status: ('A' for Active; 'I' for Inactive)
ROOT
ATOM      1  C   UNL d   1      -0.139   0.651   2.438  0.00  0.00     0.124 A 
ATOM      2  C1  UNL d   1      -1.306   0.735   1.692  0.00  0.00     0.062 A 
ATOM      3  C2  UNL d   1      -1.325   0.299   0.370  0.00  0.00     0.162 A 
ATOM      4  C3  UNL d   1      -0.173  -0.226  -0.214  0.00  0.00    -0.034 A 
ATOM      5  C4  UNL d   1       0.998  -0.306   0.542  0.00  0.00     0.162 A 
ATOM      6  C5  UNL d   1       1.012   0.131   1.863  0.00  0.00     0.062 A 
ATOM      7  F   UNL d   1       2.141   0.049   2.582  0.00  0.00    -0.097 F 
ATOM      8  F1  UNL d   1       2.124  -0.805   0.011  0.00  0.00    -0.096 F 
ATOM      9  I   UNL d   1      -0.197  -0.879  -2.190  0.00  0.00    -0.060 I 
ATOM     10  F2  UNL d   1      -2.467   0.392  -0.327  0.00  0.00    -0.096 F 
ATOM     11  F3  UNL d   1      -2.419   1.238   2.245  0.00  0.00    -0.097 F 
ATOM     12  F4  UNL d   1      -0.123   1.073   3.709  0.00  0.00    -0.092 F 
ENDROOT
TORSDOF 0
ENDMDL
