MODEL 1
REMARK minimizedAffinity -2.80220866
REMARK minimizedRMSD -1
REMARK  0 active torsions:
REMARK  status: ('A' for Active; 'I' for Inactive)
ROOT
ATOM      1  C   UNL d   1      -0.401   0.755   2.037  0.00  0.00     0.124 A 
ATOM      2  C1  UNL d   1      -1.551   0.559   1.285  0.00  0.00     0.062 A 
ATOM      3  C2  UNL d   1      -1.459   0.127  -0.035  0.00  0.00     0.162 A 
ATOM      4  C3  UNL d   1      -0.211  -0.113  -0.611  0.00  0.00    -0.034 A 
ATOM      5  C4  UNL d   1       0.941   0.088   0.151  0.00  0.00     0.162 A 
ATOM      6  C5  UNL d   1       0.843   0.519   1.470  0.00  0.00     0.062 A 
ATOM      7  F   UNL d   1       1.955   0.708   2.195  0.00  0.00    -0.097 F 
ATOM      8  F1  UNL d   1       2.156  -0.134  -0.372  0.00  0.00    -0.096 F 
ATOM      9  I   UNL d   1      -0.069  -0.759  -2.585  0.00  0.00    -0.060 I 
ATOM     10  F2  UNL d   1      -2.586  -0.054  -0.738  0.00  0.00    -0.096 F 
ATOM     11  F3  UNL d   1      -2.754   0.787   1.831  0.00  0.00    -0.097 F 
ATOM     12  F4  UNL d   1      -0.493   1.172   3.307  0.00  0.00    -0.092 F 
ENDROOT
TORSDOF 0
ENDMDL
