MODEL 1
REMARK minimizedAffinity 2.9608295
REMARK minimizedRMSD -1
REMARK  0 active torsions:
REMARK  status: ('A' for Active; 'I' for Inactive)
ROOT
ATOM      1  C   UNL d   1      -1.907   0.331   1.415  0.00  0.00     0.124 A 
ATOM      2  C1  UNL d   1      -1.675  -0.325   0.214  0.00  0.00     0.062 A 
ATOM      3  C2  UNL d   1      -0.375  -0.631  -0.177  0.00  0.00     0.162 A 
ATOM      4  C3  UNL d   1       0.704  -0.282   0.635  0.00  0.00    -0.034 A 
ATOM      5  C4  UNL d   1       0.463   0.379   1.841  0.00  0.00     0.162 A 
ATOM      6  C5  UNL d   1      -0.838   0.682   2.228  0.00  0.00     0.062 A 
ATOM      7  F   UNL d   1      -1.061   1.315   3.388  0.00  0.00    -0.097 F 
ATOM      8  F1  UNL d   1       1.478   0.729   2.646  0.00  0.00    -0.096 F 
ATOM      9  I   UNL d   1       2.650  -0.736   0.054  0.00  0.00    -0.060 I 
ATOM     10  F2  UNL d   1      -0.180  -1.265  -1.342  0.00  0.00    -0.096 F 
ATOM     11  F3  UNL d   1      -2.706  -0.665  -0.573  0.00  0.00    -0.097 F 
ATOM     12  F4  UNL d   1      -3.160   0.624   1.789  0.00  0.00    -0.092 F 
ENDROOT
TORSDOF 0
ENDMDL
