MODEL 1
REMARK minimizedAffinity -1.7597903
REMARK minimizedRMSD -1
REMARK  1 active torsions:
REMARK  status: ('A' for Active; 'I' for Inactive)
REMARK    1  A    between atoms: C1_2  and  C2_3 
ROOT
ATOM      1  C2  UNL d   1       0.649  -1.894  -0.602  0.00  0.00    -0.081 A 
ATOM      2  C3  UNL d   1       0.575  -1.928   0.796  0.00  0.00     0.006 A 
ATOM      3  C4  UNL d   1       0.440  -0.746   1.527  0.00  0.00     0.002 A 
ATOM      4  C5  UNL d   1       0.368   0.489   0.873  0.00  0.00    -0.080 A 
ATOM      5  C6  UNL d   1       0.193   1.763   1.644  0.00  0.00     0.076 C 
ATOM      6  C7  UNL d   1       0.460   0.525  -0.523  0.00  0.00     0.002 A 
ATOM      7  C8  UNL d   1       0.596  -0.658  -1.254  0.00  0.00     0.006 A 
ENDROOT
BRANCH   1   8
ATOM      8  C1  UNL d   1       0.730  -3.173  -1.396  0.00  0.00     0.054 C 
ATOM      9  C   UNL d   1      -0.584  -3.468  -2.105  0.00  0.00     0.018 C 
ENDBRANCH   1   8
TORSDOF 1
ENDMDL
