MODEL 1
REMARK minimizedAffinity -2.96997809
REMARK minimizedRMSD -1
REMARK  1 active torsions:
REMARK  status: ('A' for Active; 'I' for Inactive)
REMARK    1  A    between atoms: C1_2  and  C2_3 
ROOT
ATOM      1  C2  UNL d   1       0.011  -0.352  -0.242  0.00  0.00    -0.081 A 
ATOM      2  C3  UNL d   1      -1.152  -1.025  -0.635  0.00  0.00     0.006 A 
ATOM      3  C4  UNL d   1      -1.087  -2.344  -1.090  0.00  0.00     0.002 A 
ATOM      4  C5  UNL d   1       0.140  -3.014  -1.153  0.00  0.00    -0.080 A 
ATOM      5  C6  UNL d   1       0.220  -4.440  -1.612  0.00  0.00     0.076 C 
ATOM      6  C7  UNL d   1       1.304  -2.335  -0.777  0.00  0.00     0.002 A 
ATOM      7  C8  UNL d   1       1.239  -1.016  -0.322  0.00  0.00     0.006 A 
ENDROOT
BRANCH   1   8
ATOM      8  C1  UNL d   1      -0.064   1.048   0.311  0.00  0.00     0.054 C 
ATOM      9  C   UNL d   1      -0.011   1.046   1.832  0.00  0.00     0.018 C 
ENDBRANCH   1   8
TORSDOF 1
ENDMDL
