MODEL 1
REMARK minimizedAffinity -4.21724796
REMARK minimizedRMSD -1
REMARK  1 active torsions:
REMARK  status: ('A' for Active; 'I' for Inactive)
REMARK    1  A    between atoms: C1_2  and  C2_3 
ROOT
ATOM      1  C2  UNL d   1       0.399  -1.805  -0.695  0.00  0.00    -0.081 A 
ATOM      2  C3  UNL d   1       0.853  -0.596  -1.235  0.00  0.00     0.006 A 
ATOM      3  C4  UNL d   1       0.799   0.580  -0.484  0.00  0.00     0.002 A 
ATOM      4  C5  UNL d   1       0.298   0.565   0.822  0.00  0.00    -0.080 A 
ATOM      5  C6  UNL d   1       0.263   1.815   1.651  0.00  0.00     0.076 C 
ATOM      6  C7  UNL d   1      -0.172  -0.639   1.356  0.00  0.00     0.002 A 
ATOM      7  C8  UNL d   1      -0.119  -1.815   0.605  0.00  0.00     0.006 A 
ENDROOT
BRANCH   1   8
ATOM      8  C1  UNL d   1       0.515  -3.087  -1.480  0.00  0.00     0.054 C 
ATOM      9  C   UNL d   1      -0.805  -3.451  -2.144  0.00  0.00     0.018 C 
ENDBRANCH   1   8
TORSDOF 1
ENDMDL
