MODEL 1
REMARK minimizedAffinity -4.02632618
REMARK minimizedRMSD -1
REMARK  1 active torsions:
REMARK  status: ('A' for Active; 'I' for Inactive)
REMARK    1  A    between atoms: C1_2  and  C2_3 
ROOT
ATOM      1  C2  UNL d   1       0.109  -0.290   0.073  0.00  0.00    -0.081 A 
ATOM      2  C3  UNL d   1      -0.795  -1.340   0.283  0.00  0.00     0.006 A 
ATOM      3  C4  UNL d   1      -0.863  -2.406  -0.618  0.00  0.00     0.002 A 
ATOM      4  C5  UNL d   1      -0.025  -2.444  -1.737  0.00  0.00    -0.080 A 
ATOM      5  C6  UNL d   1      -0.067  -3.598  -2.695  0.00  0.00     0.076 C 
ATOM      6  C7  UNL d   1       0.865  -1.388  -1.956  0.00  0.00     0.002 A 
ATOM      7  C8  UNL d   1       0.934  -0.321  -1.057  0.00  0.00     0.006 A 
ENDROOT
BRANCH   1   8
ATOM      8  C1  UNL d   1       0.231   0.828   1.076  0.00  0.00     0.054 C 
ATOM      9  C   UNL d   1      -0.439   0.465   2.394  0.00  0.00     0.018 C 
ENDBRANCH   1   8
TORSDOF 1
ENDMDL
