MODEL 1
REMARK minimizedAffinity -0.843895793
REMARK minimizedRMSD -1
REMARK  0 active torsions:
REMARK  status: ('A' for Active; 'I' for Inactive)
ROOT
ATOM      1  C   UNL d   1       2.265   1.769   0.047  0.00  0.00     0.023 A 
ATOM      2  C1  UNL d   1       0.956   1.946   0.496  0.00  0.00     0.003 A 
ATOM      3  C2  UNL d   1      -0.049   1.068   0.086  0.00  0.00     0.048 A 
ATOM      4  C3  UNL d   1       0.261   0.013  -0.771  0.00  0.00     0.023 A 
ATOM      5  C4  UNL d   1       1.570  -0.169  -1.222  0.00  0.00     0.048 A 
ATOM      6  C5  UNL d   1       2.571   0.712  -0.811  0.00  0.00     0.003 A 
ATOM      7  I   UNL d   1      -1.233  -1.295  -1.382  0.00  0.00    -0.146 I 
ENDROOT
TORSDOF 0
ENDMDL
