MODEL 1
REMARK minimizedAffinity -2.36930466
REMARK minimizedRMSD -1
REMARK  0 active torsions:
REMARK  status: ('A' for Active; 'I' for Inactive)
ROOT
ATOM      1  C   UNL d   1      -1.596  -2.169   3.135  0.00  0.00     0.023 A 
ATOM      2  C1  UNL d   1      -1.222  -3.186   2.258  0.00  0.00     0.003 A 
ATOM      3  C2  UNL d   1      -0.831  -2.877   0.954  0.00  0.00     0.048 A 
ATOM      4  C3  UNL d   1      -0.815  -1.548   0.533  0.00  0.00     0.023 A 
ATOM      5  C4  UNL d   1      -1.188  -0.526   1.408  0.00  0.00     0.048 A 
ATOM      6  C5  UNL d   1      -1.580  -0.840   2.711  0.00  0.00     0.003 A 
ATOM      7  I   UNL d   1      -0.233  -1.085  -1.408  0.00  0.00    -0.146 I 
ENDROOT
TORSDOF 0
ENDMDL
