MODEL 1
REMARK minimizedAffinity -3.03348589
REMARK minimizedRMSD -1
REMARK  0 active torsions:
REMARK  status: ('A' for Active; 'I' for Inactive)
ROOT
ATOM      1  C   UNL d   1       1.598   1.140   0.151  0.00  0.00     0.023 A 
ATOM      2  C1  UNL d   1       0.401   1.266   0.857  0.00  0.00     0.003 A 
ATOM      3  C2  UNL d   1      -0.396   0.143   1.089  0.00  0.00     0.048 A 
ATOM      4  C3  UNL d   1       0.011  -1.103   0.613  0.00  0.00     0.023 A 
ATOM      5  C4  UNL d   1       1.208  -1.234  -0.093  0.00  0.00     0.048 A 
ATOM      6  C5  UNL d   1       2.001  -0.108  -0.323  0.00  0.00     0.003 A 
ATOM      7  I   UNL d   1      -1.173  -2.776   0.957  0.00  0.00    -0.146 I 
ENDROOT
TORSDOF 0
ENDMDL
