MODEL 1
REMARK minimizedAffinity -2.92792296
REMARK minimizedRMSD -1
REMARK  0 active torsions:
REMARK  status: ('A' for Active; 'I' for Inactive)
ROOT
ATOM      1  C   UNL d   1       1.196   2.607   1.438  0.00  0.00     0.023 A 
ATOM      2  C1  UNL d   1       1.795   2.223   0.238  0.00  0.00     0.003 A 
ATOM      3  C2  UNL d   1       1.361   1.073  -0.424  0.00  0.00     0.048 A 
ATOM      4  C3  UNL d   1       0.326   0.312   0.120  0.00  0.00     0.023 A 
ATOM      5  C4  UNL d   1      -0.276   0.692   1.320  0.00  0.00     0.048 A 
ATOM      6  C5  UNL d   1       0.162   1.843   1.978  0.00  0.00     0.003 A 
ATOM      7  I   UNL d   1      -0.322  -1.401  -0.864  0.00  0.00    -0.146 I 
ENDROOT
TORSDOF 0
ENDMDL
