MODEL 1
REMARK minimizedAffinity -1.55258119
REMARK minimizedRMSD -1
REMARK  0 active torsions:
REMARK  status: ('A' for Active; 'I' for Inactive)
ROOT
ATOM      1  C   UNL d   1       1.251   2.646   1.180  0.00  0.00     0.023 A 
ATOM      2  C1  UNL d   1       1.770   2.342  -0.079  0.00  0.00     0.003 A 
ATOM      3  C2  UNL d   1       1.289   1.238  -0.786  0.00  0.00     0.048 A 
ATOM      4  C3  UNL d   1       0.288   0.443  -0.229  0.00  0.00     0.023 A 
ATOM      5  C4  UNL d   1      -0.235   0.744   1.030  0.00  0.00     0.048 A 
ATOM      6  C5  UNL d   1       0.250   1.848   1.734  0.00  0.00     0.003 A 
ATOM      7  I   UNL d   1      -0.431  -1.200  -1.280  0.00  0.00    -0.146 I 
ENDROOT
TORSDOF 0
ENDMDL
