MODEL 1
REMARK minimizedAffinity -3.80000925
REMARK minimizedRMSD -1
REMARK  0 active torsions:
REMARK  status: ('A' for Active; 'I' for Inactive)
ROOT
ATOM      1  C   UNL d   1       0.648   1.630   0.365  0.00  0.00     0.023 A 
ATOM      2  C1  UNL d   1      -0.227   1.513   1.445  0.00  0.00     0.003 A 
ATOM      3  C2  UNL d   1      -0.743   0.264   1.795  0.00  0.00     0.048 A 
ATOM      4  C3  UNL d   1      -0.379  -0.865   1.063  0.00  0.00     0.023 A 
ATOM      5  C4  UNL d   1       0.498  -0.753  -0.018  0.00  0.00     0.048 A 
ATOM      6  C5  UNL d   1       1.010   0.498  -0.365  0.00  0.00     0.003 A 
ATOM      7  I   UNL d   1      -1.146  -2.725   1.582  0.00  0.00    -0.146 I 
ENDROOT
TORSDOF 0
ENDMDL
