MODEL 1
REMARK minimizedAffinity -1.99382401
REMARK minimizedRMSD -1
REMARK  0 active torsions:
REMARK  status: ('A' for Active; 'I' for Inactive)
ROOT
ATOM      1  C   UNL d   1      -1.536  -1.539  -2.880  0.00  0.00     0.023 A 
ATOM      2  C1  UNL d   1      -2.446  -2.501  -2.441  0.00  0.00     0.003 A 
ATOM      3  C2  UNL d   1      -2.351  -3.015  -1.147  0.00  0.00     0.048 A 
ATOM      4  C3  UNL d   1      -1.343  -2.562  -0.295  0.00  0.00     0.023 A 
ATOM      5  C4  UNL d   1      -0.431  -1.599  -0.730  0.00  0.00     0.048 A 
ATOM      6  C5  UNL d   1      -0.530  -1.088  -2.026  0.00  0.00     0.003 A 
ATOM      7  I   UNL d   1      -1.199  -3.325   1.632  0.00  0.00    -0.146 I 
ENDROOT
TORSDOF 0
ENDMDL
