MODEL 1
REMARK minimizedAffinity -3.23986363
REMARK minimizedRMSD -1
REMARK  0 active torsions:
REMARK  status: ('A' for Active; 'I' for Inactive)
ROOT
ATOM      1  C   UNL d   1       1.806   2.560   0.259  0.00  0.00     0.023 A 
ATOM      2  C1  UNL d   1       1.315   2.414   1.557  0.00  0.00     0.003 A 
ATOM      3  C2  UNL d   1       0.537   1.303   1.890  0.00  0.00     0.048 A 
ATOM      4  C3  UNL d   1       0.254   0.342   0.921  0.00  0.00     0.023 A 
ATOM      5  C4  UNL d   1       0.744   0.483  -0.379  0.00  0.00     0.048 A 
ATOM      6  C5  UNL d   1       1.520   1.596  -0.707  0.00  0.00     0.003 A 
ATOM      7  I   UNL d   1      -0.903  -1.313   1.414  0.00  0.00    -0.146 I 
ENDROOT
TORSDOF 0
ENDMDL
