MODEL 1
REMARK minimizedAffinity 0.427473962
REMARK minimizedRMSD -1
REMARK  0 active torsions:
REMARK  status: ('A' for Active; 'I' for Inactive)
ROOT
ATOM      1  C   UNL d   1       1.823   0.823  -0.398  0.00  0.00     0.023 A 
ATOM      2  C1  UNL d   1       1.940  -0.444  -0.969  0.00  0.00     0.003 A 
ATOM      3  C2  UNL d   1       0.812  -1.086  -1.484  0.00  0.00     0.048 A 
ATOM      4  C3  UNL d   1      -0.430  -0.455  -1.426  0.00  0.00     0.023 A 
ATOM      5  C4  UNL d   1      -0.552   0.813  -0.857  0.00  0.00     0.048 A 
ATOM      6  C5  UNL d   1       0.578   1.451  -0.342  0.00  0.00     0.003 A 
ATOM      7  I   UNL d   1      -2.110  -1.409  -2.193  0.00  0.00    -0.146 I 
ENDROOT
TORSDOF 0
ENDMDL
