MODEL 1
REMARK minimizedAffinity -2.95896125
REMARK minimizedRMSD -1
REMARK  0 active torsions:
REMARK  status: ('A' for Active; 'I' for Inactive)
ROOT
ATOM      1  C   UNL d   1       0.287   2.866   1.365  0.00  0.00     0.023 A 
ATOM      2  C1  UNL d   1       0.742   2.548   0.085  0.00  0.00     0.003 A 
ATOM      3  C2  UNL d   1       0.629   1.241  -0.393  0.00  0.00     0.048 A 
ATOM      4  C3  UNL d   1       0.060   0.257   0.414  0.00  0.00     0.023 A 
ATOM      5  C4  UNL d   1      -0.397   0.570   1.695  0.00  0.00     0.048 A 
ATOM      6  C5  UNL d   1      -0.282   1.878   2.169  0.00  0.00     0.003 A 
ATOM      7  I   UNL d   1      -0.109  -1.690  -0.295  0.00  0.00    -0.146 I 
ENDROOT
TORSDOF 0
ENDMDL
