MODEL 1
REMARK minimizedAffinity -2.81969285
REMARK minimizedRMSD -1
REMARK  0 active torsions:
REMARK  status: ('A' for Active; 'I' for Inactive)
ROOT
ATOM      1  C   UNL d   1       0.866   2.842   1.218  0.00  0.00     0.023 A 
ATOM      2  C1  UNL d   1       0.048   1.868   1.791  0.00  0.00     0.003 A 
ATOM      3  C2  UNL d   1      -0.115   0.632   1.162  0.00  0.00     0.048 A 
ATOM      4  C3  UNL d   1       0.544   0.376  -0.040  0.00  0.00     0.023 A 
ATOM      5  C4  UNL d   1       1.365   1.346  -0.616  0.00  0.00     0.048 A 
ATOM      6  C5  UNL d   1       1.524   2.581   0.016  0.00  0.00     0.003 A 
ATOM      7  I   UNL d   1       0.303  -1.463  -0.978  0.00  0.00    -0.146 I 
ENDROOT
TORSDOF 0
ENDMDL
