MODEL 1
REMARK minimizedAffinity -0.401250571
REMARK minimizedRMSD -1
REMARK  0 active torsions:
REMARK  status: ('A' for Active; 'I' for Inactive)
ROOT
ATOM      1  C   UNL d   1      -3.664  -2.645  -2.221  0.00  0.00     0.023 A 
ATOM      2  C1  UNL d   1      -3.039  -1.635  -2.952  0.00  0.00     0.003 A 
ATOM      3  C2  UNL d   1      -1.871  -1.041  -2.469  0.00  0.00     0.048 A 
ATOM      4  C3  UNL d   1      -1.334  -1.463  -1.253  0.00  0.00     0.023 A 
ATOM      5  C4  UNL d   1      -1.955  -2.474  -0.518  0.00  0.00     0.048 A 
ATOM      6  C5  UNL d   1      -3.123  -3.064  -1.005  0.00  0.00     0.003 A 
ATOM      7  I   UNL d   1       0.404  -0.580  -0.531  0.00  0.00    -0.146 I 
ENDROOT
TORSDOF 0
ENDMDL
