MODEL 1
REMARK minimizedAffinity -4.58765221
REMARK minimizedRMSD -1
REMARK  0 active torsions:
REMARK  status: ('A' for Active; 'I' for Inactive)
ROOT
ATOM      1  C   UNL d   1       0.966   2.741   1.350  0.00  0.00     0.023 A 
ATOM      2  C1  UNL d   1      -0.019   1.904   1.873  0.00  0.00     0.003 A 
ATOM      3  C2  UNL d   1      -0.288   0.675   1.266  0.00  0.00     0.048 A 
ATOM      4  C3  UNL d   1       0.433   0.290   0.136  0.00  0.00     0.023 A 
ATOM      5  C4  UNL d   1       1.421   1.124  -0.390  0.00  0.00     0.048 A 
ATOM      6  C5  UNL d   1       1.685   2.352   0.220  0.00  0.00     0.003 A 
ATOM      7  I   UNL d   1       0.036  -1.538  -0.769  0.00  0.00    -0.146 I 
ENDROOT
TORSDOF 0
ENDMDL
