MODEL 1
REMARK minimizedAffinity 14.2794294
REMARK minimizedRMSD -1
REMARK  0 active torsions:
REMARK  status: ('A' for Active; 'I' for Inactive)
ROOT
ATOM      1  C4' PXY d   1       1.876  -3.255   6.000  0.00  0.00     0.077 C 
ATOM      2  C1' PXY d   1       1.413   0.132   1.338  0.00  0.00     0.077 C 
ATOM      3  C1  PXY d   1       1.533  -0.746   2.568  0.00  0.00    -0.082 A 
ATOM      4  C2  PXY d   1       2.150  -1.913   2.482  0.00  0.00     0.003 A 
ATOM      5  C3  PXY d   1       2.240  -2.734   3.577  0.00  0.00     0.003 A 
ATOM      6  C4  PXY d   1       1.740  -2.332   4.786  0.00  0.00    -0.082 A 
ATOM      7  C5  PXY d   1       1.118  -1.138   4.885  0.00  0.00     0.003 A 
ATOM      8  C6  PXY d   1       1.001  -0.338   3.752  0.00  0.00     0.003 A 
ENDROOT
TORSDOF 0
ENDMDL
