MODEL 1
REMARK minimizedAffinity 10.7188101
REMARK minimizedRMSD -1
REMARK  0 active torsions:
REMARK  status: ('A' for Active; 'I' for Inactive)
ROOT
ATOM      1  C4' PXY d   1      -2.071  -5.249   0.247  0.00  0.00     0.077 C 
ATOM      2  C1' PXY d   1       3.173  -4.697  -2.120  0.00  0.00     0.077 C 
ATOM      3  C1  PXY d   1       1.804  -4.845  -1.488  0.00  0.00    -0.082 A 
ATOM      4  C2  PXY d   1       0.759  -5.128  -2.249  0.00  0.00     0.003 A 
ATOM      5  C3  PXY d   1      -0.492  -5.234  -1.698  0.00  0.00     0.003 A 
ATOM      6  C4  PXY d   1      -0.668  -5.100  -0.347  0.00  0.00    -0.082 A 
ATOM      7  C5  PXY d   1       0.395  -4.822   0.438  0.00  0.00     0.003 A 
ATOM      8  C6  PXY d   1       1.650  -4.678  -0.146  0.00  0.00     0.003 A 
ENDROOT
TORSDOF 0
ENDMDL
