MODEL 1
REMARK minimizedAffinity 14.165266
REMARK minimizedRMSD -1
REMARK  0 active torsions:
REMARK  status: ('A' for Active; 'I' for Inactive)
ROOT
ATOM      1  C4' PXY d   1      -3.281   0.480  -2.543  0.00  0.00     0.077 C 
ATOM      2  C1' PXY d   1      -4.028   5.927  -4.329  0.00  0.00     0.077 C 
ATOM      3  C1  PXY d   1      -3.832   4.503  -3.848  0.00  0.00    -0.082 A 
ATOM      4  C2  PXY d   1      -3.296   3.606  -4.660  0.00  0.00     0.003 A 
ATOM      5  C3  PXY d   1      -3.141   2.306  -4.253  0.00  0.00     0.003 A 
ATOM      6  C4  PXY d   1      -3.489   1.932  -2.983  0.00  0.00    -0.082 A 
ATOM      7  C5  PXY d   1      -4.027   2.843  -2.144  0.00  0.00     0.003 A 
ATOM      8  C6  PXY d   1      -4.214   4.148  -2.591  0.00  0.00     0.003 A 
ENDROOT
TORSDOF 0
ENDMDL
