MODEL 1
REMARK minimizedAffinity 8.04858017
REMARK minimizedRMSD -1
REMARK  0 active torsions:
REMARK  status: ('A' for Active; 'I' for Inactive)
ROOT
ATOM      1  C4' PXY d   1       2.078  -2.238   6.000  0.00  0.00     0.077 C 
ATOM      2  C1' PXY d   1       2.811  -2.934   0.308  0.00  0.00     0.077 C 
ATOM      3  C1  PXY d   1       2.619  -2.738   1.799  0.00  0.00    -0.082 A 
ATOM      4  C2  PXY d   1       2.991  -3.692   2.638  0.00  0.00     0.003 A 
ATOM      5  C3  PXY d   1       2.796  -3.545   3.987  0.00  0.00     0.003 A 
ATOM      6  C4  PXY d   1       2.262  -2.388   4.487  0.00  0.00    -0.082 A 
ATOM      7  C5  PXY d   1       1.889  -1.406   3.639  0.00  0.00     0.003 A 
ATOM      8  C6  PXY d   1       2.058  -1.592   2.270  0.00  0.00     0.003 A 
ENDROOT
TORSDOF 0
ENDMDL
