MODEL 1
REMARK minimizedAffinity 10.6319885
REMARK minimizedRMSD -1
REMARK  0 active torsions:
REMARK  status: ('A' for Active; 'I' for Inactive)
ROOT
ATOM      1  C4' PXY d   1       0.850  -0.656   1.984  0.00  0.00     0.077 C 
ATOM      2  C1' PXY d   1      -2.861   0.787  -2.207  0.00  0.00     0.077 C 
ATOM      3  C1  PXY d   1      -1.879   0.415  -1.114  0.00  0.00    -0.082 A 
ATOM      4  C2  PXY d   1      -2.107  -0.650  -0.364  0.00  0.00     0.003 A 
ATOM      5  C3  PXY d   1      -1.246  -0.983   0.650  0.00  0.00     0.003 A 
ATOM      6  C4  PXY d   1      -0.110  -0.248   0.863  0.00  0.00    -0.082 A 
ATOM      7  C5  PXY d   1       0.136   0.834   0.094  0.00  0.00     0.003 A 
ATOM      8  C6  PXY d   1      -0.773   1.179  -0.902  0.00  0.00     0.003 A 
ENDROOT
TORSDOF 0
ENDMDL
