MODEL 1
REMARK minimizedAffinity 2.60929155
REMARK minimizedRMSD -1
REMARK  0 active torsions:
REMARK  status: ('A' for Active; 'I' for Inactive)
ROOT
ATOM      1  C4' PXY d   1       2.685  -1.797   0.427  0.00  0.00     0.077 C 
ATOM      2  C1' PXY d   1       1.356  -2.567   6.000  0.00  0.00     0.077 C 
ATOM      3  C1  PXY d   1       1.695  -2.357   4.537  0.00  0.00    -0.082 A 
ATOM      4  C2  PXY d   1       2.329  -3.306   3.870  0.00  0.00     0.003 A 
ATOM      5  C3  PXY d   1       2.672  -3.120   2.555  0.00  0.00     0.003 A 
ATOM      6  C4  PXY d   1       2.314  -1.970   1.903  0.00  0.00    -0.082 A 
ATOM      7  C5  PXY d   1       1.657  -1.001   2.574  0.00  0.00     0.003 A 
ATOM      8  C6  PXY d   1       1.355  -1.193   3.919  0.00  0.00     0.003 A 
ENDROOT
TORSDOF 0
ENDMDL
