MODEL 1
REMARK minimizedAffinity 10.7945032
REMARK minimizedRMSD -1
REMARK  0 active torsions:
REMARK  status: ('A' for Active; 'I' for Inactive)
ROOT
ATOM      1  C4' PXY d   1       0.326  -5.064   0.828  0.00  0.00     0.077 C 
ATOM      2  C1' PXY d   1      -3.944  -2.283  -1.900  0.00  0.00     0.077 C 
ATOM      3  C1  PXY d   1      -2.823  -3.002  -1.177  0.00  0.00    -0.082 A 
ATOM      4  C2  PXY d   1      -2.175  -3.982  -1.785  0.00  0.00     0.003 A 
ATOM      5  C3  PXY d   1      -1.179  -4.664  -1.134  0.00  0.00     0.003 A 
ATOM      6  C4  PXY d   1      -0.807  -4.304   0.133  0.00  0.00    -0.082 A 
ATOM      7  C5  PXY d   1      -1.455  -3.297   0.756  0.00  0.00     0.003 A 
ATOM      8  C6  PXY d   1      -2.491  -2.645   0.094  0.00  0.00     0.003 A 
ENDROOT
TORSDOF 0
ENDMDL
