MODEL 1
REMARK minimizedAffinity 10.6565638
REMARK minimizedRMSD -1
REMARK  0 active torsions:
REMARK  status: ('A' for Active; 'I' for Inactive)
ROOT
ATOM      1  C4' PXY d   1       1.588  -1.026   2.283  0.00  0.00     0.077 C 
ATOM      2  C1' PXY d   1      -2.186  -4.816   0.091  0.00  0.00     0.077 C 
ATOM      3  C1  PXY d   1      -1.188  -3.832   0.670  0.00  0.00    -0.082 A 
ATOM      4  C2  PXY d   1      -1.594  -2.626   1.032  0.00  0.00     0.003 A 
ATOM      5  C3  PXY d   1      -0.699  -1.713   1.528  0.00  0.00     0.003 A 
ATOM      6  C4  PXY d   1       0.615  -2.055   1.703  0.00  0.00    -0.082 A 
ATOM      7  C5  PXY d   1       1.035  -3.287   1.346  0.00  0.00     0.003 A 
ATOM      8  C6  PXY d   1       0.119  -4.186   0.806  0.00  0.00     0.003 A 
ENDROOT
TORSDOF 0
ENDMDL
