MODEL 1
REMARK minimizedAffinity 8.38731956
REMARK minimizedRMSD -1
REMARK  0 active torsions:
REMARK  status: ('A' for Active; 'I' for Inactive)
ROOT
ATOM      1  C4' PXY d   1       0.825   0.010   2.216  0.00  0.00     0.077 C 
ATOM      2  C1' PXY d   1       2.758  -3.909   5.999  0.00  0.00     0.077 C 
ATOM      3  C1  PXY d   1       2.261  -2.884   4.999  0.00  0.00    -0.082 A 
ATOM      4  C2  PXY d   1       1.498  -1.885   5.411  0.00  0.00     0.003 A 
ATOM      5  C3  PXY d   1       1.013  -0.967   4.515  0.00  0.00     0.003 A 
ATOM      6  C4  PXY d   1       1.357  -1.043   3.192  0.00  0.00    -0.082 A 
ATOM      7  C5  PXY d   1       2.145  -2.053   2.765  0.00  0.00     0.003 A 
ATOM      8  C6  PXY d   1       2.592  -2.998   3.684  0.00  0.00     0.003 A 
ENDROOT
TORSDOF 0
ENDMDL
