MODEL 1
REMARK minimizedAffinity 9.98797321
REMARK minimizedRMSD -1
REMARK  2 active torsions:
REMARK  status: ('A' for Active; 'I' for Inactive)
REMARK    1  A    between atoms: C1_2  and  C2_3 
REMARK    2  A    between atoms: C2_3  and  C3_4 
ROOT
ATOM      1  C3  UNL d   1       3.160   2.643  -2.914  0.00  0.00    -0.075 A 
ATOM      2  C4  UNL d   1       3.180   2.357  -4.287  0.00  0.00     0.002 A 
ATOM      3  C5  UNL d   1       4.084   3.000  -5.132  0.00  0.00     0.002 A 
ATOM      4  C6  UNL d   1       4.972   3.943  -4.619  0.00  0.00    -0.004 A 
ATOM      5  C7  UNL d   1       4.951   4.247  -3.259  0.00  0.00     0.002 A 
ATOM      6  C8  UNL d   1       4.049   3.602  -2.411  0.00  0.00     0.002 A 
ENDROOT
BRANCH   1   7
ATOM      7  C2  UNL d   1       2.204   1.929  -1.989  0.00  0.00     0.056 C 
BRANCH   7   8
ATOM      8  C1  UNL d   1       2.881   0.945  -1.030  0.00  0.00     0.007 C 
ATOM      9  C   UNL d   1       2.223   0.894   0.342  0.00  0.00     0.009 C 
ENDBRANCH   7   8
ENDBRANCH   1   7
TORSDOF 2
ENDMDL
