MODEL 1
REMARK minimizedAffinity 1.2980963
REMARK minimizedRMSD -1
REMARK  2 active torsions:
REMARK  status: ('A' for Active; 'I' for Inactive)
REMARK    1  A    between atoms: C1_2  and  C2_3 
REMARK    2  A    between atoms: C2_3  and  C3_4 
ROOT
ATOM      1  C3  UNL d   1      -2.101  -5.514  -4.660  0.00  0.00    -0.075 A 
ATOM      2  C4  UNL d   1      -1.375  -5.993  -5.761  0.00  0.00     0.002 A 
ATOM      3  C5  UNL d   1       0.016  -5.892  -5.790  0.00  0.00     0.002 A 
ATOM      4  C6  UNL d   1       0.697  -5.303  -4.727  0.00  0.00    -0.004 A 
ATOM      5  C7  UNL d   1      -0.015  -4.809  -3.636  0.00  0.00     0.002 A 
ATOM      6  C8  UNL d   1      -1.406  -4.913  -3.602  0.00  0.00     0.002 A 
ENDROOT
BRANCH   1   7
ATOM      7  C2  UNL d   1      -3.604  -5.647  -4.609  0.00  0.00     0.056 C 
BRANCH   7   8
ATOM      8  C1  UNL d   1      -4.245  -5.995  -5.957  0.00  0.00     0.007 C 
ATOM      9  C   UNL d   1      -5.768  -5.992  -5.916  0.00  0.00     0.009 C 
ENDBRANCH   7   8
ENDBRANCH   1   7
TORSDOF 2
ENDMDL
