MODEL 1
REMARK minimizedAffinity 4.20810127
REMARK minimizedRMSD -1
REMARK  2 active torsions:
REMARK  status: ('A' for Active; 'I' for Inactive)
REMARK    1  A    between atoms: C1_2  and  C2_3 
REMARK    2  A    between atoms: C2_3  and  C3_4 
ROOT
ATOM      1  C3  UNL d   1      -0.509  -5.599  -4.958  0.00  0.00    -0.075 A 
ATOM      2  C4  UNL d   1      -0.715  -4.836  -3.799  0.00  0.00     0.002 A 
ATOM      3  C5  UNL d   1      -2.007  -4.492  -3.398  0.00  0.00     0.002 A 
ATOM      4  C6  UNL d   1      -3.105  -4.897  -4.153  0.00  0.00    -0.004 A 
ATOM      5  C7  UNL d   1      -2.911  -5.642  -5.314  0.00  0.00     0.002 A 
ATOM      6  C8  UNL d   1      -1.621  -5.991  -5.716  0.00  0.00     0.002 A 
ENDROOT
BRANCH   1   7
ATOM      7  C2  UNL d   1       0.884  -6.000  -5.382  0.00  0.00     0.056 C 
BRANCH   7   8
ATOM      8  C1  UNL d   1       1.908  -5.994  -4.242  0.00  0.00     0.007 C 
ATOM      9  C   UNL d   1       3.350  -5.973  -4.731  0.00  0.00     0.009 C 
ENDBRANCH   7   8
ENDBRANCH   1   7
TORSDOF 2
ENDMDL
