MODEL 1
REMARK minimizedAffinity 15.3313913
REMARK minimizedRMSD -1
REMARK  2 active torsions:
REMARK  status: ('A' for Active; 'I' for Inactive)
REMARK    1  A    between atoms: C1_2  and  C2_3 
REMARK    2  A    between atoms: C2_3  and  C3_4 
ROOT
ATOM      1  C3  UNL d   1      -1.967  -0.605   0.186  0.00  0.00    -0.075 A 
ATOM      2  C4  UNL d   1      -1.972  -1.410  -0.963  0.00  0.00     0.002 A 
ATOM      3  C5  UNL d   1      -3.046  -1.368  -1.852  0.00  0.00     0.002 A 
ATOM      4  C6  UNL d   1      -4.131  -0.531  -1.600  0.00  0.00    -0.004 A 
ATOM      5  C7  UNL d   1      -4.144   0.261  -0.454  0.00  0.00     0.002 A 
ATOM      6  C8  UNL d   1      -3.068   0.224   0.436  0.00  0.00     0.002 A 
ENDROOT
BRANCH   1   7
ATOM      7  C2  UNL d   1      -0.794  -0.623   1.137  0.00  0.00     0.056 C 
BRANCH   7   8
ATOM      8  C1  UNL d   1      -0.611  -1.953   1.875  0.00  0.00     0.007 C 
ATOM      9  C   UNL d   1       0.587  -1.958   2.816  0.00  0.00     0.009 C 
ENDBRANCH   7   8
ENDBRANCH   1   7
TORSDOF 2
ENDMDL
