MODEL 1
REMARK minimizedAffinity 7.65748262
REMARK minimizedRMSD -1
REMARK  2 active torsions:
REMARK  status: ('A' for Active; 'I' for Inactive)
REMARK    1  A    between atoms: C1_2  and  C2_3 
REMARK    2  A    between atoms: C2_3  and  C3_4 
ROOT
ATOM      1  C3  UNL d   1       1.538   4.163  -3.244  0.00  0.00    -0.075 A 
ATOM      2  C4  UNL d   1       0.231   4.134  -3.751  0.00  0.00     0.002 A 
ATOM      3  C5  UNL d   1      -0.727   5.038  -3.291  0.00  0.00     0.002 A 
ATOM      4  C6  UNL d   1      -0.395   5.973  -2.313  0.00  0.00    -0.004 A 
ATOM      5  C7  UNL d   1       0.896   5.999  -1.790  0.00  0.00     0.002 A 
ATOM      6  C8  UNL d   1       1.858   5.099  -2.252  0.00  0.00     0.002 A 
ENDROOT
BRANCH   1   7
ATOM      7  C2  UNL d   1       2.588   3.207  -3.759  0.00  0.00     0.056 C 
BRANCH   7   8
ATOM      8  C1  UNL d   1       3.739   3.888  -4.506  0.00  0.00     0.007 C 
ATOM      9  C   UNL d   1       3.746   3.589  -5.999  0.00  0.00     0.009 C 
ENDBRANCH   7   8
ENDBRANCH   1   7
TORSDOF 2
ENDMDL
