MODEL 1
REMARK minimizedAffinity 9.84607315
REMARK minimizedRMSD -1
REMARK  2 active torsions:
REMARK  status: ('A' for Active; 'I' for Inactive)
REMARK    1  A    between atoms: C1_2  and  C2_3 
REMARK    2  A    between atoms: C2_3  and  C3_4 
ROOT
ATOM      1  C3  UNL d   1       3.831   2.259   0.317  0.00  0.00    -0.075 A 
ATOM      2  C4  UNL d   1       4.163   1.504   1.451  0.00  0.00     0.002 A 
ATOM      3  C5  UNL d   1       5.238   1.874   2.259  0.00  0.00     0.002 A 
ATOM      4  C6  UNL d   1       6.000   2.996   1.939  0.00  0.00    -0.004 A 
ATOM      5  C7  UNL d   1       5.689   3.745   0.806  0.00  0.00     0.002 A 
ATOM      6  C8  UNL d   1       4.611   3.379  -0.002  0.00  0.00     0.002 A 
ENDROOT
BRANCH   1   7
ATOM      7  C2  UNL d   1       2.650   1.881  -0.545  0.00  0.00     0.056 C 
BRANCH   7   8
ATOM      8  C1  UNL d   1       2.948   1.887  -2.048  0.00  0.00     0.007 C 
ATOM      9  C   UNL d   1       2.253   3.019  -2.793  0.00  0.00     0.009 C 
ENDBRANCH   7   8
ENDBRANCH   1   7
TORSDOF 2
ENDMDL
