MODEL 1
REMARK minimizedAffinity 10.7451849
REMARK minimizedRMSD -1
REMARK  2 active torsions:
REMARK  status: ('A' for Active; 'I' for Inactive)
REMARK    1  A    between atoms: C1_2  and  C2_3 
REMARK    2  A    between atoms: C2_3  and  C3_4 
ROOT
ATOM      1  C3  UNL d   1       3.836   2.611   0.193  0.00  0.00    -0.075 A 
ATOM      2  C4  UNL d   1       4.879   2.997  -0.662  0.00  0.00     0.002 A 
ATOM      3  C5  UNL d   1       5.955   3.739  -0.176  0.00  0.00     0.002 A 
ATOM      4  C6  UNL d   1       5.998   4.113   1.166  0.00  0.00    -0.004 A 
ATOM      5  C7  UNL d   1       4.959   3.750   2.020  0.00  0.00     0.002 A 
ATOM      6  C8  UNL d   1       3.883   3.004   1.537  0.00  0.00     0.002 A 
ENDROOT
BRANCH   1   7
ATOM      7  C2  UNL d   1       2.682   1.783  -0.321  0.00  0.00     0.056 C 
BRANCH   7   8
ATOM      8  C1  UNL d   1       2.619   1.682  -1.849  0.00  0.00     0.007 C 
ATOM      9  C   UNL d   1       2.227   2.991  -2.521  0.00  0.00     0.009 C 
ENDBRANCH   7   8
ENDBRANCH   1   7
TORSDOF 2
ENDMDL
