MODEL 1
REMARK minimizedAffinity 13.7329388
REMARK minimizedRMSD -1
REMARK  2 active torsions:
REMARK  status: ('A' for Active; 'I' for Inactive)
REMARK    1  A    between atoms: C1_2  and  C2_3 
REMARK    2  A    between atoms: C2_3  and  C3_4 
ROOT
ATOM      1  C3  UNL d   1      -2.825   1.166   3.291  0.00  0.00    -0.075 A 
ATOM      2  C4  UNL d   1      -1.717   0.309   3.364  0.00  0.00     0.002 A 
ATOM      3  C5  UNL d   1      -1.528  -0.687   2.406  0.00  0.00     0.002 A 
ATOM      4  C6  UNL d   1      -2.447  -0.846   1.371  0.00  0.00    -0.004 A 
ATOM      5  C7  UNL d   1      -3.560  -0.011   1.298  0.00  0.00     0.002 A 
ATOM      6  C8  UNL d   1      -3.750   0.990   2.253  0.00  0.00     0.002 A 
ENDROOT
BRANCH   1   7
ATOM      7  C2  UNL d   1      -3.020   2.265   4.309  0.00  0.00     0.056 C 
BRANCH   7   8
ATOM      8  C1  UNL d   1      -4.413   2.283   4.948  0.00  0.00     0.007 C 
ATOM      9  C   UNL d   1      -4.577   3.374   5.997  0.00  0.00     0.009 C 
ENDBRANCH   7   8
ENDBRANCH   1   7
TORSDOF 2
ENDMDL
