MODEL 1
REMARK minimizedAffinity 0.753771305
REMARK minimizedRMSD -1
REMARK  2 active torsions:
REMARK  status: ('A' for Active; 'I' for Inactive)
REMARK    1  A    between atoms: C1_2  and  C2_3 
REMARK    2  A    between atoms: C2_3  and  C3_4 
ROOT
ATOM      1  C3  UNL d   1      -3.447   1.078   3.193  0.00  0.00    -0.075 A 
ATOM      2  C4  UNL d   1      -4.333   0.708   2.170  0.00  0.00     0.002 A 
ATOM      3  C5  UNL d   1      -4.025  -0.350   1.315  0.00  0.00     0.002 A 
ATOM      4  C6  UNL d   1      -2.827  -1.044   1.463  0.00  0.00    -0.004 A 
ATOM      5  C7  UNL d   1      -1.932  -0.676   2.465  0.00  0.00     0.002 A 
ATOM      6  C8  UNL d   1      -2.239   0.380   3.326  0.00  0.00     0.002 A 
ENDROOT
BRANCH   1   7
ATOM      7  C2  UNL d   1      -3.786   2.203   4.141  0.00  0.00     0.056 C 
BRANCH   7   8
ATOM      8  C1  UNL d   1      -4.921   1.875   5.117  0.00  0.00     0.007 C 
ATOM      9  C   UNL d   1      -5.315   3.054   5.997  0.00  0.00     0.009 C 
ENDBRANCH   7   8
ENDBRANCH   1   7
TORSDOF 2
ENDMDL
