MODEL 1
REMARK minimizedAffinity 17.2263622
REMARK minimizedRMSD -1
REMARK  2 active torsions:
REMARK  status: ('A' for Active; 'I' for Inactive)
REMARK    1  A    between atoms: C1_2  and  C2_3 
REMARK    2  A    between atoms: C2_3  and  C3_4 
ROOT
ATOM      1  C3  UNL d   1       3.803   2.568   0.320  0.00  0.00    -0.075 A 
ATOM      2  C4  UNL d   1       3.845   2.964   1.665  0.00  0.00     0.002 A 
ATOM      3  C5  UNL d   1       4.934   3.683   2.157  0.00  0.00     0.002 A 
ATOM      4  C6  UNL d   1       5.997   4.006   1.317  0.00  0.00    -0.004 A 
ATOM      5  C7  UNL d   1       5.973   3.604  -0.017  0.00  0.00     0.002 A 
ATOM      6  C8  UNL d   1       4.883   2.888  -0.513  0.00  0.00     0.002 A 
ENDROOT
BRANCH   1   7
ATOM      7  C2  UNL d   1       2.613   1.815  -0.226  0.00  0.00     0.056 C 
BRANCH   7   8
ATOM      8  C1  UNL d   1       2.748   1.423  -1.702  0.00  0.00     0.007 C 
ATOM      9  C   UNL d   1       2.292   2.517  -2.658  0.00  0.00     0.009 C 
ENDBRANCH   7   8
ENDBRANCH   1   7
TORSDOF 2
ENDMDL
