MODEL 1
REMARK minimizedAffinity 8.59050941
REMARK minimizedRMSD -1
REMARK  2 active torsions:
REMARK  status: ('A' for Active; 'I' for Inactive)
REMARK    1  A    between atoms: C1_2  and  C2_3 
REMARK    2  A    between atoms: C2_3  and  C3_4 
ROOT
ATOM      1  C3  UNL d   1       3.829   4.371  -3.340  0.00  0.00    -0.075 A 
ATOM      2  C4  UNL d   1       3.326   3.737  -4.485  0.00  0.00     0.002 A 
ATOM      3  C5  UNL d   1       4.124   3.584  -5.619  0.00  0.00     0.002 A 
ATOM      4  C6  UNL d   1       5.429   4.071  -5.627  0.00  0.00    -0.004 A 
ATOM      5  C7  UNL d   1       5.934   4.718  -4.501  0.00  0.00     0.002 A 
ATOM      6  C8  UNL d   1       5.139   4.868  -3.363  0.00  0.00     0.002 A 
ENDROOT
BRANCH   1   7
ATOM      7  C2  UNL d   1       2.980   4.514  -2.100  0.00  0.00     0.056 C 
BRANCH   7   8
ATOM      8  C1  UNL d   1       2.392   5.915  -1.904  0.00  0.00     0.007 C 
ATOM      9  C   UNL d   1       0.912   6.000  -2.256  0.00  0.00     0.009 C 
ENDBRANCH   7   8
ENDBRANCH   1   7
TORSDOF 2
ENDMDL
