MODEL 1
REMARK minimizedAffinity 17.0946922
REMARK minimizedRMSD -1
REMARK  2 active torsions:
REMARK  status: ('A' for Active; 'I' for Inactive)
REMARK    1  A    between atoms: C1_2  and  C2_3 
REMARK    2  A    between atoms: C2_3  and  C3_4 
ROOT
ATOM      1  C3  UNL d   1       2.843   3.741  -3.149  0.00  0.00    -0.075 A 
ATOM      2  C4  UNL d   1       3.748   4.448  -2.345  0.00  0.00     0.002 A 
ATOM      3  C5  UNL d   1       5.014   4.780  -2.826  0.00  0.00     0.002 A 
ATOM      4  C6  UNL d   1       5.395   4.402  -4.112  0.00  0.00    -0.004 A 
ATOM      5  C7  UNL d   1       4.510   3.685  -4.914  0.00  0.00     0.002 A 
ATOM      6  C8  UNL d   1       3.241   3.355  -4.436  0.00  0.00     0.002 A 
ENDROOT
BRANCH   1   7
ATOM      7  C2  UNL d   1       1.460   3.404  -2.645  0.00  0.00     0.056 C 
BRANCH   7   8
ATOM      8  C1  UNL d   1       0.408   4.477  -2.944  0.00  0.00     0.007 C 
ATOM      9  C   UNL d   1       0.440   5.639  -1.960  0.00  0.00     0.009 C 
ENDBRANCH   7   8
ENDBRANCH   1   7
TORSDOF 2
ENDMDL
