MODEL 1
REMARK minimizedAffinity 11.7878408
REMARK minimizedRMSD -1
REMARK  2 active torsions:
REMARK  status: ('A' for Active; 'I' for Inactive)
REMARK    1  A    between atoms: C1_2  and  C2_3 
REMARK    2  A    between atoms: C2_3  and  C3_4 
ROOT
ATOM      1  C3  UNL d   1       3.719   1.618  -0.681  0.00  0.00    -0.075 A 
ATOM      2  C4  UNL d   1       2.895   1.573   0.453  0.00  0.00     0.002 A 
ATOM      3  C5  UNL d   1       3.347   2.069   1.676  0.00  0.00     0.002 A 
ATOM      4  C6  UNL d   1       4.628   2.606   1.784  0.00  0.00    -0.004 A 
ATOM      5  C7  UNL d   1       5.461   2.640   0.668  0.00  0.00     0.002 A 
ATOM      6  C8  UNL d   1       5.010   2.149  -0.559  0.00  0.00     0.002 A 
ENDROOT
BRANCH   1   7
ATOM      7  C2  UNL d   1       3.226   1.110  -2.015  0.00  0.00     0.056 C 
BRANCH   7   8
ATOM      8  C1  UNL d   1       2.373   2.120  -2.791  0.00  0.00     0.007 C 
ATOM      9  C   UNL d   1       3.202   3.135  -3.567  0.00  0.00     0.009 C 
ENDBRANCH   7   8
ENDBRANCH   1   7
TORSDOF 2
ENDMDL
