MODEL 1
REMARK minimizedAffinity 13.2487078
REMARK minimizedRMSD -1
REMARK  2 active torsions:
REMARK  status: ('A' for Active; 'I' for Inactive)
REMARK    1  A    between atoms: C1_2  and  C2_3 
REMARK    2  A    between atoms: C2_3  and  C3_4 
ROOT
ATOM      1  C3  UNL d   1      -2.483   0.150   1.762  0.00  0.00    -0.075 A 
ATOM      2  C4  UNL d   1      -1.489  -0.819   1.964  0.00  0.00     0.002 A 
ATOM      3  C5  UNL d   1      -0.960  -1.036   3.236  0.00  0.00     0.002 A 
ATOM      4  C6  UNL d   1      -1.409  -0.283   4.319  0.00  0.00    -0.004 A 
ATOM      5  C7  UNL d   1      -2.384   0.693   4.127  0.00  0.00     0.002 A 
ATOM      6  C8  UNL d   1      -2.918   0.910   2.855  0.00  0.00     0.002 A 
ENDROOT
BRANCH   1   7
ATOM      7  C2  UNL d   1      -3.081   0.370   0.393  0.00  0.00     0.056 C 
BRANCH   7   8
ATOM      8  C1  UNL d   1      -4.608   0.498   0.392  0.00  0.00     0.007 C 
ATOM      9  C   UNL d   1      -5.159   1.095  -0.896  0.00  0.00     0.009 C 
ENDBRANCH   7   8
ENDBRANCH   1   7
TORSDOF 2
ENDMDL
