MODEL 1
REMARK minimizedAffinity 7.92943811
REMARK minimizedRMSD -1
REMARK  2 active torsions:
REMARK  status: ('A' for Active; 'I' for Inactive)
REMARK    1  A    between atoms: C1_2  and  C2_3 
REMARK    2  A    between atoms: C2_3  and  C3_4 
ROOT
ATOM      1  C3  UNL d   1       4.164   1.757   0.070  0.00  0.00    -0.075 A 
ATOM      2  C4  UNL d   1       5.383   2.262  -0.406  0.00  0.00     0.002 A 
ATOM      3  C5  UNL d   1       6.000   3.339   0.231  0.00  0.00     0.002 A 
ATOM      4  C6  UNL d   1       5.404   3.930   1.343  0.00  0.00    -0.004 A 
ATOM      5  C7  UNL d   1       4.185   3.447   1.815  0.00  0.00     0.002 A 
ATOM      6  C8  UNL d   1       3.567   2.366   1.182  0.00  0.00     0.002 A 
ENDROOT
BRANCH   1   7
ATOM      7  C2  UNL d   1       3.506   0.573  -0.596  0.00  0.00     0.056 C 
BRANCH   7   8
ATOM      8  C1  UNL d   1       4.491  -0.489  -1.097  0.00  0.00     0.007 C 
ATOM      9  C   UNL d   1       4.087  -1.908  -0.721  0.00  0.00     0.009 C 
ENDBRANCH   7   8
ENDBRANCH   1   7
TORSDOF 2
ENDMDL
