MODEL 1
REMARK minimizedAffinity 15.5924864
REMARK minimizedRMSD -1
REMARK  2 active torsions:
REMARK  status: ('A' for Active; 'I' for Inactive)
REMARK    1  A    between atoms: C1_2  and  C2_3 
REMARK    2  A    between atoms: C2_3  and  C3_4 
ROOT
ATOM      1  C3  UNL d   1      -2.659   1.107   3.599  0.00  0.00    -0.075 A 
ATOM      2  C4  UNL d   1      -1.852   0.386   4.491  0.00  0.00     0.002 A 
ATOM      3  C5  UNL d   1      -1.044  -0.655   4.032  0.00  0.00     0.002 A 
ATOM      4  C6  UNL d   1      -1.040  -0.994   2.681  0.00  0.00    -0.004 A 
ATOM      5  C7  UNL d   1      -1.850  -0.295   1.789  0.00  0.00     0.002 A 
ATOM      6  C8  UNL d   1      -2.656   0.750   2.244  0.00  0.00     0.002 A 
ENDROOT
BRANCH   1   7
ATOM      7  C2  UNL d   1      -3.513   2.254   4.085  0.00  0.00     0.056 C 
BRANCH   7   8
ATOM      8  C1  UNL d   1      -4.147   2.020   5.460  0.00  0.00     0.007 C 
ATOM      9  C   UNL d   1      -4.877   3.243   6.000  0.00  0.00     0.009 C 
ENDBRANCH   7   8
ENDBRANCH   1   7
TORSDOF 2
ENDMDL
