MODEL 1
REMARK minimizedAffinity 9.3591795
REMARK minimizedRMSD -1
REMARK  2 active torsions:
REMARK  status: ('A' for Active; 'I' for Inactive)
REMARK    1  A    between atoms: C1_2  and  C2_3 
REMARK    2  A    between atoms: C2_3  and  C3_4 
ROOT
ATOM      1  C3  UNL d   1       3.137   4.744  -2.250  0.00  0.00    -0.075 A 
ATOM      2  C4  UNL d   1       1.974   5.512  -2.088  0.00  0.00     0.002 A 
ATOM      3  C5  UNL d   1       0.716   4.940  -2.276  0.00  0.00     0.002 A 
ATOM      4  C6  UNL d   1       0.603   3.600  -2.637  0.00  0.00    -0.004 A 
ATOM      5  C7  UNL d   1       1.751   2.832  -2.817  0.00  0.00     0.002 A 
ATOM      6  C8  UNL d   1       3.012   3.400  -2.625  0.00  0.00     0.002 A 
ENDROOT
BRANCH   1   7
ATOM      7  C2  UNL d   1       4.501   5.349  -2.019  0.00  0.00     0.056 C 
BRANCH   7   8
ATOM      8  C1  UNL d   1       5.651   4.340  -2.094  0.00  0.00     0.007 C 
ATOM      9  C   UNL d   1       6.000   3.725  -0.745  0.00  0.00     0.009 C 
ENDBRANCH   7   8
ENDBRANCH   1   7
TORSDOF 2
ENDMDL
