MODEL 1
REMARK minimizedAffinity 13.4132051
REMARK minimizedRMSD -1
REMARK  2 active torsions:
REMARK  status: ('A' for Active; 'I' for Inactive)
REMARK    1  A    between atoms: C1_2  and  C2_3 
REMARK    2  A    between atoms: C2_3  and  C3_4 
ROOT
ATOM      1  C3  UNL d   1       4.339   4.454  -2.637  0.00  0.00    -0.075 A 
ATOM      2  C4  UNL d   1       5.222   4.379  -3.725  0.00  0.00     0.002 A 
ATOM      3  C5  UNL d   1       4.912   3.591  -4.834  0.00  0.00     0.002 A 
ATOM      4  C6  UNL d   1       3.725   2.863  -4.866  0.00  0.00    -0.004 A 
ATOM      5  C7  UNL d   1       2.849   2.918  -3.785  0.00  0.00     0.002 A 
ATOM      6  C8  UNL d   1       3.154   3.708  -2.675  0.00  0.00     0.002 A 
ENDROOT
BRANCH   1   7
ATOM      7  C2  UNL d   1       4.654   5.328  -1.447  0.00  0.00     0.056 C 
BRANCH   7   8
ATOM      8  C1  UNL d   1       5.986   4.996  -0.764  0.00  0.00     0.007 C 
ATOM      9  C   UNL d   1       5.999   3.620  -0.113  0.00  0.00     0.009 C 
ENDBRANCH   7   8
ENDBRANCH   1   7
TORSDOF 2
ENDMDL
