MODEL 1
REMARK minimizedAffinity 23.3582268
REMARK minimizedRMSD -1
REMARK  0 active torsions:
REMARK  status: ('A' for Active; 'I' for Inactive)
ROOT
ATOM      1  C   UNL d   1       2.531   2.312   0.789  0.00  0.00     0.124 A 
ATOM      2  C1  UNL d   1       2.272   0.986   0.472  0.00  0.00     0.062 A 
ATOM      3  C2  UNL d   1       3.261   0.020   0.638  0.00  0.00     0.162 A 
ATOM      4  C3  UNL d   1       4.518   0.377   1.125  0.00  0.00    -0.034 A 
ATOM      5  C4  UNL d   1       4.772   1.714   1.441  0.00  0.00     0.162 A 
ATOM      6  C5  UNL d   1       3.780   2.675   1.273  0.00  0.00     0.062 A 
ATOM      7  F   UNL d   1       4.032   3.955   1.580  0.00  0.00    -0.097 F 
ATOM      8  F1  UNL d   1       5.969   2.092   1.911  0.00  0.00    -0.096 F 
ATOM      9  I   UNL d   1       6.000  -1.063   1.374  0.00  0.00    -0.060 I 
ATOM     10  F2  UNL d   1       2.983  -1.254   0.324  0.00  0.00    -0.096 F 
ATOM     11  F3  UNL d   1       1.066   0.633   0.004  0.00  0.00    -0.097 F 
ATOM     12  F4  UNL d   1       1.578   3.239   0.627  0.00  0.00    -0.092 F 
ENDROOT
TORSDOF 0
ENDMDL
