MODEL 1
REMARK minimizedAffinity 20.9122181
REMARK minimizedRMSD -1
REMARK  0 active torsions:
REMARK  status: ('A' for Active; 'I' for Inactive)
ROOT
ATOM      1  C   UNL d   1       3.933  -0.101   1.131  0.00  0.00     0.124 A 
ATOM      2  C1  UNL d   1       4.940  -0.317   0.200  0.00  0.00     0.062 A 
ATOM      3  C2  UNL d   1       4.927   0.363  -1.015  0.00  0.00     0.162 A 
ATOM      4  C3  UNL d   1       3.905   1.267  -1.305  0.00  0.00    -0.034 A 
ATOM      5  C4  UNL d   1       2.896   1.478  -0.363  0.00  0.00     0.162 A 
ATOM      6  C5  UNL d   1       2.913   0.796   0.849  0.00  0.00     0.062 A 
ATOM      7  F   UNL d   1       1.940   1.006   1.748  0.00  0.00    -0.097 F 
ATOM      8  F1  UNL d   1       1.898   2.340  -0.610  0.00  0.00    -0.096 F 
ATOM      9  I   UNL d   1       3.882   2.286  -3.119  0.00  0.00    -0.060 I 
ATOM     10  F2  UNL d   1       5.912   0.135  -1.896  0.00  0.00    -0.096 F 
ATOM     11  F3  UNL d   1       5.926  -1.183   0.470  0.00  0.00    -0.097 F 
ATOM     12  F4  UNL d   1       3.947  -0.757   2.298  0.00  0.00    -0.092 F 
ENDROOT
TORSDOF 0
ENDMDL
