MODEL 1
REMARK minimizedAffinity 15.0050631
REMARK minimizedRMSD -1
REMARK  0 active torsions:
REMARK  status: ('A' for Active; 'I' for Inactive)
ROOT
ATOM      1  C   UNL d   1      -2.278  -3.608  -2.978  0.00  0.00     0.124 A 
ATOM      2  C1  UNL d   1      -0.954  -3.790  -2.604  0.00  0.00     0.062 A 
ATOM      3  C2  UNL d   1      -0.469  -3.207  -1.437  0.00  0.00     0.162 A 
ATOM      4  C3  UNL d   1      -1.310  -2.436  -0.634  0.00  0.00    -0.034 A 
ATOM      5  C4  UNL d   1      -2.640  -2.257  -1.017  0.00  0.00     0.162 A 
ATOM      6  C5  UNL d   1      -3.120  -2.842  -2.184  0.00  0.00     0.062 A 
ATOM      7  F   UNL d   1      -4.399  -2.664  -2.543  0.00  0.00    -0.097 F 
ATOM      8  F1  UNL d   1      -3.475  -1.522  -0.268  0.00  0.00    -0.096 F 
ATOM      9  I   UNL d   1      -0.589  -1.563   1.112  0.00  0.00    -0.060 I 
ATOM     10  F2  UNL d   1       0.815  -3.400  -1.100  0.00  0.00    -0.096 F 
ATOM     11  F3  UNL d   1      -0.138  -4.529  -3.370  0.00  0.00    -0.097 F 
ATOM     12  F4  UNL d   1      -2.741  -4.169  -4.102  0.00  0.00    -0.092 F 
ENDROOT
TORSDOF 0
ENDMDL
