MODEL 1
REMARK minimizedAffinity 10.0989199
REMARK minimizedRMSD -1
REMARK  0 active torsions:
REMARK  status: ('A' for Active; 'I' for Inactive)
ROOT
ATOM      1  C   UNL d   1      -2.358  -2.256  -1.787  0.00  0.00     0.124 A 
ATOM      2  C1  UNL d   1      -1.760  -2.610  -0.586  0.00  0.00     0.062 A 
ATOM      3  C2  UNL d   1      -2.257  -3.679   0.155  0.00  0.00     0.162 A 
ATOM      4  C3  UNL d   1      -3.358  -4.402  -0.304  0.00  0.00    -0.034 A 
ATOM      5  C4  UNL d   1      -3.954  -4.039  -1.513  0.00  0.00     0.162 A 
ATOM      6  C5  UNL d   1      -3.454  -2.971  -2.250  0.00  0.00     0.062 A 
ATOM      7  F   UNL d   1      -4.033  -2.630  -3.410  0.00  0.00    -0.097 F 
ATOM      8  F1  UNL d   1      -5.014  -4.713  -1.984  0.00  0.00    -0.096 F 
ATOM      9  I   UNL d   1      -4.104  -6.000   0.801  0.00  0.00    -0.060 I 
ATOM     10  F2  UNL d   1      -1.660  -3.999   1.313  0.00  0.00    -0.096 F 
ATOM     11  F3  UNL d   1      -0.701  -1.921  -0.136  0.00  0.00    -0.097 F 
ATOM     12  F4  UNL d   1      -1.878  -1.227  -2.498  0.00  0.00    -0.092 F 
ENDROOT
TORSDOF 0
ENDMDL
