MODEL 1
REMARK minimizedAffinity 30.7097683
REMARK minimizedRMSD -1
REMARK  0 active torsions:
REMARK  status: ('A' for Active; 'I' for Inactive)
ROOT
ATOM      1  C   UNL d   1       3.652   0.076  -0.043  0.00  0.00     0.124 A 
ATOM      2  C1  UNL d   1       4.205  -0.620   1.023  0.00  0.00     0.062 A 
ATOM      3  C2  UNL d   1       3.655  -0.501   2.297  0.00  0.00     0.162 A 
ATOM      4  C3  UNL d   1       2.546   0.317   2.511  0.00  0.00    -0.034 A 
ATOM      5  C4  UNL d   1       1.996   1.014   1.434  0.00  0.00     0.162 A 
ATOM      6  C5  UNL d   1       2.549   0.892   0.163  0.00  0.00     0.062 A 
ATOM      7  F   UNL d   1       2.013   1.566  -0.865  0.00  0.00    -0.097 F 
ATOM      8  F1  UNL d   1       0.929   1.809   1.605  0.00  0.00    -0.096 F 
ATOM      9  I   UNL d   1       1.722   0.497   4.414  0.00  0.00    -0.060 I 
ATOM     10  F2  UNL d   1       4.210  -1.185   3.308  0.00  0.00    -0.096 F 
ATOM     11  F3  UNL d   1       5.271  -1.408   0.826  0.00  0.00    -0.097 F 
ATOM     12  F4  UNL d   1       4.183  -0.039  -1.267  0.00  0.00    -0.092 F 
ENDROOT
TORSDOF 0
ENDMDL
