MODEL 1
REMARK minimizedAffinity 15.7337656
REMARK minimizedRMSD -1
REMARK  0 active torsions:
REMARK  status: ('A' for Active; 'I' for Inactive)
ROOT
ATOM      1  C   UNL d   1       3.464   0.333  -0.223  0.00  0.00     0.124 A 
ATOM      2  C1  UNL d   1       3.883  -0.395   0.881  0.00  0.00     0.062 A 
ATOM      3  C2  UNL d   1       3.247  -0.233   2.109  0.00  0.00     0.162 A 
ATOM      4  C3  UNL d   1       2.185   0.662   2.239  0.00  0.00    -0.034 A 
ATOM      5  C4  UNL d   1       1.770   1.392   1.123  0.00  0.00     0.162 A 
ATOM      6  C5  UNL d   1       2.408   1.225  -0.101  0.00  0.00     0.062 A 
ATOM      7  F   UNL d   1       2.002   1.930  -1.168  0.00  0.00    -0.097 F 
ATOM      8  F1  UNL d   1       0.752   2.260   1.213  0.00  0.00    -0.096 F 
ATOM      9  I   UNL d   1       1.232   0.908   4.073  0.00  0.00    -0.060 I 
ATOM     10  F2  UNL d   1       3.673  -0.950   3.160  0.00  0.00    -0.096 F 
ATOM     11  F3  UNL d   1       4.903  -1.258   0.767  0.00  0.00    -0.097 F 
ATOM     12  F4  UNL d   1       4.077   0.175  -1.403  0.00  0.00    -0.092 F 
ENDROOT
TORSDOF 0
ENDMDL
