MODEL 1
REMARK minimizedAffinity 11.5585556
REMARK minimizedRMSD -1
REMARK  0 active torsions:
REMARK  status: ('A' for Active; 'I' for Inactive)
ROOT
ATOM      1  C   UNL d   1       3.448   0.040  -0.308  0.00  0.00     0.124 A 
ATOM      2  C1  UNL d   1       3.977  -0.694   0.744  0.00  0.00     0.062 A 
ATOM      3  C2  UNL d   1       3.458  -0.551   2.028  0.00  0.00     0.162 A 
ATOM      4  C3  UNL d   1       2.404   0.330   2.267  0.00  0.00    -0.034 A 
ATOM      5  C4  UNL d   1       1.878   1.066   1.204  0.00  0.00     0.162 A 
ATOM      6  C5  UNL d   1       2.400   0.919  -0.078  0.00  0.00     0.062 A 
ATOM      7  F   UNL d   1       1.888   1.630  -1.093  0.00  0.00    -0.097 F 
ATOM      8  F1  UNL d   1       0.864   1.922   1.398  0.00  0.00    -0.096 F 
ATOM      9  I   UNL d   1       1.625   0.547   4.185  0.00  0.00    -0.060 I 
ATOM     10  F2  UNL d   1       3.989  -1.274   3.026  0.00  0.00    -0.096 F 
ATOM     11  F3  UNL d   1       4.991  -1.544   0.525  0.00  0.00    -0.097 F 
ATOM     12  F4  UNL d   1       3.950  -0.099  -1.542  0.00  0.00    -0.092 F 
ENDROOT
TORSDOF 0
ENDMDL
