MODEL 1
REMARK minimizedAffinity 27.1621799
REMARK minimizedRMSD -1
REMARK  0 active torsions:
REMARK  status: ('A' for Active; 'I' for Inactive)
ROOT
ATOM      1  C   UNL d   1       4.800  -0.032   0.085  0.00  0.00     0.124 A 
ATOM      2  C1  UNL d   1       3.707   0.695  -0.366  0.00  0.00     0.062 A 
ATOM      3  C2  UNL d   1       2.550   0.772   0.405  0.00  0.00     0.162 A 
ATOM      4  C3  UNL d   1       2.481   0.120   1.636  0.00  0.00    -0.034 A 
ATOM      5  C4  UNL d   1       3.584  -0.610   2.083  0.00  0.00     0.162 A 
ATOM      6  C5  UNL d   1       4.737  -0.683   1.309  0.00  0.00     0.062 A 
ATOM      7  F   UNL d   1       5.792  -1.386   1.747  0.00  0.00    -0.097 F 
ATOM      8  F1  UNL d   1       3.551  -1.248   3.262  0.00  0.00    -0.096 F 
ATOM      9  I   UNL d   1       0.753   0.233   2.792  0.00  0.00    -0.060 I 
ATOM     10  F2  UNL d   1       1.510   1.481  -0.057  0.00  0.00    -0.096 F 
ATOM     11  F3  UNL d   1       3.764   1.324  -1.549  0.00  0.00    -0.097 F 
ATOM     12  F4  UNL d   1       5.911  -0.105  -0.659  0.00  0.00    -0.092 F 
ENDROOT
TORSDOF 0
ENDMDL
