MODEL 1
REMARK minimizedAffinity 6.34465647
REMARK minimizedRMSD -1
REMARK  0 active torsions:
REMARK  status: ('A' for Active; 'I' for Inactive)
ROOT
ATOM      1  C   UNL d   1       1.276   1.226   2.790  0.00  0.00     0.124 A 
ATOM      2  C1  UNL d   1       1.784   0.028   3.273  0.00  0.00     0.062 A 
ATOM      3  C2  UNL d   1       2.764  -0.656   2.560  0.00  0.00     0.162 A 
ATOM      4  C3  UNL d   1       3.243  -0.143   1.354  0.00  0.00    -0.034 A 
ATOM      5  C4  UNL d   1       2.727   1.062   0.874  0.00  0.00     0.162 A 
ATOM      6  C5  UNL d   1       1.747   1.741   1.591  0.00  0.00     0.062 A 
ATOM      7  F   UNL d   1       1.258   2.898   1.122  0.00  0.00    -0.097 F 
ATOM      8  F1  UNL d   1       3.165   1.583  -0.282  0.00  0.00    -0.096 F 
ATOM      9  I   UNL d   1       4.708  -1.162   0.284  0.00  0.00    -0.060 I 
ATOM     10  F2  UNL d   1       3.237  -1.811   3.051  0.00  0.00    -0.096 F 
ATOM     11  F3  UNL d   1       1.329  -0.472   4.431  0.00  0.00    -0.097 F 
ATOM     12  F4  UNL d   1       0.332   1.881   3.478  0.00  0.00    -0.092 F 
ENDROOT
TORSDOF 0
ENDMDL
