MODEL 1
REMARK minimizedAffinity 5.59998083
REMARK minimizedRMSD -1
REMARK  0 active torsions:
REMARK  status: ('A' for Active; 'I' for Inactive)
ROOT
ATOM      1  C   UNL d   1       1.529   0.301   3.301  0.00  0.00     0.124 A 
ATOM      2  C1  UNL d   1       1.091   1.517   2.795  0.00  0.00     0.062 A 
ATOM      3  C2  UNL d   1       1.538   1.960   1.554  0.00  0.00     0.162 A 
ATOM      4  C3  UNL d   1       2.428   1.186   0.809  0.00  0.00    -0.034 A 
ATOM      5  C4  UNL d   1       2.864  -0.035   1.325  0.00  0.00     0.162 A 
ATOM      6  C5  UNL d   1       2.415  -0.474   2.566  0.00  0.00     0.062 A 
ATOM      7  F   UNL d   1       2.839  -1.649   3.054  0.00  0.00    -0.097 F 
ATOM      8  F1  UNL d   1       3.720  -0.804   0.635  0.00  0.00    -0.096 F 
ATOM      9  I   UNL d   1       3.098   1.845  -1.048  0.00  0.00    -0.060 I 
ATOM     10  F2  UNL d   1       1.098   3.139   1.089  0.00  0.00    -0.096 F 
ATOM     11  F3  UNL d   1       0.236   2.268   3.504  0.00  0.00    -0.097 F 
ATOM     12  F4  UNL d   1       1.098  -0.123   4.497  0.00  0.00    -0.092 F 
ENDROOT
TORSDOF 0
ENDMDL
