MODEL 1
REMARK minimizedAffinity 8.08624935
REMARK minimizedRMSD -1
REMARK  0 active torsions:
REMARK  status: ('A' for Active; 'I' for Inactive)
ROOT
ATOM      1  C   UNL d   1       1.841   0.989   2.181  0.00  0.00     0.124 A 
ATOM      2  C1  UNL d   1       2.741   0.323   3.002  0.00  0.00     0.062 A 
ATOM      3  C2  UNL d   1       3.860  -0.298   2.454  0.00  0.00     0.162 A 
ATOM      4  C3  UNL d   1       4.087  -0.255   1.078  0.00  0.00    -0.034 A 
ATOM      5  C4  UNL d   1       3.176   0.416   0.260  0.00  0.00     0.162 A 
ATOM      6  C5  UNL d   1       2.059   1.035   0.812  0.00  0.00     0.062 A 
ATOM      7  F   UNL d   1       1.191   1.677   0.017  0.00  0.00    -0.097 F 
ATOM      8  F1  UNL d   1       3.364   0.477  -1.067  0.00  0.00    -0.096 F 
ATOM      9  I   UNL d   1       5.759  -1.182   0.256  0.00  0.00    -0.060 I 
ATOM     10  F2  UNL d   1       4.713  -0.934   3.271  0.00  0.00    -0.096 F 
ATOM     11  F3  UNL d   1       2.532   0.276   4.325  0.00  0.00    -0.097 F 
ATOM     12  F4  UNL d   1       0.764   1.584   2.710  0.00  0.00    -0.092 F 
ENDROOT
TORSDOF 0
ENDMDL
