MODEL 1
REMARK minimizedAffinity 10.3595638
REMARK minimizedRMSD -1
REMARK  0 active torsions:
REMARK  status: ('A' for Active; 'I' for Inactive)
ROOT
ATOM      1  C   UNL d   1      -1.269  -3.973  -4.258  0.00  0.00     0.124 A 
ATOM      2  C1  UNL d   1      -2.531  -3.731  -3.734  0.00  0.00     0.062 A 
ATOM      3  C2  UNL d   1      -2.684  -3.434  -2.383  0.00  0.00     0.162 A 
ATOM      4  C3  UNL d   1      -1.570  -3.377  -1.545  0.00  0.00    -0.034 A 
ATOM      5  C4  UNL d   1      -0.303  -3.623  -2.079  0.00  0.00     0.162 A 
ATOM      6  C5  UNL d   1      -0.157  -3.919  -3.430  0.00  0.00     0.062 A 
ATOM      7  F   UNL d   1       1.064  -4.153  -3.934  0.00  0.00    -0.097 F 
ATOM      8  F1  UNL d   1       0.789  -3.576  -1.301  0.00  0.00    -0.096 F 
ATOM      9  I   UNL d   1      -1.793  -2.933   0.476  0.00  0.00    -0.060 I 
ATOM     10  F2  UNL d   1      -3.915  -3.203  -1.904  0.00  0.00    -0.096 F 
ATOM     11  F3  UNL d   1      -3.608  -3.783  -4.532  0.00  0.00    -0.097 F 
ATOM     12  F4  UNL d   1      -1.125  -4.260  -5.558  0.00  0.00    -0.092 F 
ENDROOT
TORSDOF 0
ENDMDL
