MODEL 1
REMARK minimizedAffinity 20.389492
REMARK minimizedRMSD -1
REMARK  0 active torsions:
REMARK  status: ('A' for Active; 'I' for Inactive)
ROOT
ATOM      1  C   UNL d   1      -2.176  -2.627  -1.807  0.00  0.00     0.124 A 
ATOM      2  C1  UNL d   1      -3.021  -3.681  -2.126  0.00  0.00     0.062 A 
ATOM      3  C2  UNL d   1      -3.329  -4.645  -1.171  0.00  0.00     0.162 A 
ATOM      4  C3  UNL d   1      -2.792  -4.559   0.114  0.00  0.00    -0.034 A 
ATOM      5  C4  UNL d   1      -1.942  -3.497   0.427  0.00  0.00     0.162 A 
ATOM      6  C5  UNL d   1      -1.638  -2.536  -0.532  0.00  0.00     0.062 A 
ATOM      7  F   UNL d   1      -0.822  -1.518  -0.222  0.00  0.00    -0.097 F 
ATOM      8  F1  UNL d   1      -1.409  -3.384   1.652  0.00  0.00    -0.096 F 
ATOM      9  I   UNL d   1      -3.249  -5.999   1.546  0.00  0.00    -0.060 I 
ATOM     10  F2  UNL d   1      -4.148  -5.653  -1.506  0.00  0.00    -0.096 F 
ATOM     11  F3  UNL d   1      -3.542  -3.772  -3.358  0.00  0.00    -0.097 F 
ATOM     12  F4  UNL d   1      -1.881  -1.701  -2.729  0.00  0.00    -0.092 F 
ENDROOT
TORSDOF 0
ENDMDL
