MODEL 1
REMARK minimizedAffinity 9.06978416
REMARK minimizedRMSD -1
REMARK  0 active torsions:
REMARK  status: ('A' for Active; 'I' for Inactive)
ROOT
ATOM      1  C   UNL d   1      -2.268  -2.222  -1.492  0.00  0.00     0.124 A 
ATOM      2  C1  UNL d   1      -3.128  -3.242  -1.874  0.00  0.00     0.062 A 
ATOM      3  C2  UNL d   1      -3.355  -4.321  -1.026  0.00  0.00     0.162 A 
ATOM      4  C3  UNL d   1      -2.721  -4.386   0.215  0.00  0.00    -0.034 A 
ATOM      5  C4  UNL d   1      -1.857  -3.357   0.593  0.00  0.00     0.162 A 
ATOM      6  C5  UNL d   1      -1.633  -2.280  -0.259  0.00  0.00     0.062 A 
ATOM      7  F   UNL d   1      -0.801  -1.296   0.112  0.00  0.00    -0.097 F 
ATOM      8  F1  UNL d   1      -1.231  -3.388   1.779  0.00  0.00    -0.096 F 
ATOM      9  I   UNL d   1      -3.059  -5.999   1.487  0.00  0.00    -0.060 I 
ATOM     10  F2  UNL d   1      -4.191  -5.292  -1.421  0.00  0.00    -0.096 F 
ATOM     11  F3  UNL d   1      -3.741  -3.188  -3.065  0.00  0.00    -0.097 F 
ATOM     12  F4  UNL d   1      -2.050  -1.185  -2.311  0.00  0.00    -0.092 F 
ENDROOT
TORSDOF 0
ENDMDL
