MODEL 1
REMARK minimizedAffinity 21.6043301
REMARK minimizedRMSD -1
REMARK  0 active torsions:
REMARK  status: ('A' for Active; 'I' for Inactive)
ROOT
ATOM      1  C   UNL d   1      -2.558  -2.630  -2.375  0.00  0.00     0.124 A 
ATOM      2  C1  UNL d   1      -3.532  -3.577  -2.658  0.00  0.00     0.062 A 
ATOM      3  C2  UNL d   1      -3.867  -4.540  -1.710  0.00  0.00     0.162 A 
ATOM      4  C3  UNL d   1      -3.228  -4.561  -0.471  0.00  0.00    -0.034 A 
ATOM      5  C4  UNL d   1      -2.248  -3.605  -0.194  0.00  0.00     0.162 A 
ATOM      6  C5  UNL d   1      -1.917  -2.645  -1.144  0.00  0.00     0.062 A 
ATOM      7  F   UNL d   1      -0.975  -1.730  -0.870  0.00  0.00    -0.097 F 
ATOM      8  F1  UNL d   1      -1.614  -3.596   0.988  0.00  0.00    -0.096 F 
ATOM      9  I   UNL d   1      -3.726  -5.999   0.949  0.00  0.00    -0.060 I 
ATOM     10  F2  UNL d   1      -4.812  -5.444  -2.010  0.00  0.00    -0.096 F 
ATOM     11  F3  UNL d   1      -4.152  -3.566  -3.847  0.00  0.00    -0.097 F 
ATOM     12  F4  UNL d   1      -2.236  -1.705  -3.289  0.00  0.00    -0.092 F 
ENDROOT
TORSDOF 0
ENDMDL
