MODEL 1
REMARK minimizedAffinity 32.2363396
REMARK minimizedRMSD -1
REMARK  0 active torsions:
REMARK  status: ('A' for Active; 'I' for Inactive)
ROOT
ATOM      1  C   UNL d   1      -0.910  -2.023   0.308  0.00  0.00     0.124 A 
ATOM      2  C1  UNL d   1      -1.541  -3.110   0.896  0.00  0.00     0.062 A 
ATOM      3  C2  UNL d   1      -2.505  -3.826   0.192  0.00  0.00     0.162 A 
ATOM      4  C3  UNL d   1      -2.844  -3.456  -1.109  0.00  0.00    -0.034 A 
ATOM      5  C4  UNL d   1      -2.206  -2.361  -1.694  0.00  0.00     0.162 A 
ATOM      6  C5  UNL d   1      -1.243  -1.649  -0.986  0.00  0.00     0.062 A 
ATOM      7  F   UNL d   1      -0.635  -0.599  -1.557  0.00  0.00    -0.097 F 
ATOM      8  F1  UNL d   1      -2.508  -1.979  -2.944  0.00  0.00    -0.096 F 
ATOM      9  I   UNL d   1      -4.286  -4.524  -2.165  0.00  0.00    -0.060 I 
ATOM     10  F2  UNL d   1      -3.098  -4.872   0.786  0.00  0.00    -0.096 F 
ATOM     11  F3  UNL d   1      -1.221  -3.472   2.147  0.00  0.00    -0.097 F 
ATOM     12  F4  UNL d   1       0.017  -1.336   0.988  0.00  0.00    -0.092 F 
ENDROOT
TORSDOF 0
ENDMDL
