MODEL 1
REMARK minimizedAffinity 18.3176804
REMARK minimizedRMSD -1
REMARK  2 active torsions:
REMARK  status: ('A' for Active; 'I' for Inactive)
REMARK    1  A    between atoms: C1_2  and  C2_3 
REMARK    2  A    between atoms: C2_3  and  C3_4 
ROOT
ATOM      1  C3  UNL d   1      -3.739  -3.190   5.024  0.00  0.00    -0.075 A 
ATOM      2  C4  UNL d   1      -4.818  -2.905   5.874  0.00  0.00     0.002 A 
ATOM      3  C5  UNL d   1      -5.939  -3.736   5.898  0.00  0.00     0.002 A 
ATOM      4  C6  UNL d   1      -5.999  -4.854   5.069  0.00  0.00    -0.004 A 
ATOM      5  C7  UNL d   1      -4.940  -5.137   4.209  0.00  0.00     0.002 A 
ATOM      6  C8  UNL d   1      -3.816  -4.310   4.186  0.00  0.00     0.002 A 
ENDROOT
BRANCH   1   7
ATOM      7  C2  UNL d   1      -2.511  -2.312   5.014  0.00  0.00     0.056 C 
BRANCH   7   8
ATOM      8  C1  UNL d   1      -1.453  -2.731   3.989  0.00  0.00     0.007 C 
ATOM      9  C   UNL d   1      -0.621  -3.925   4.438  0.00  0.00     0.009 C 
ENDBRANCH   7   8
ENDBRANCH   1   7
TORSDOF 2
ENDMDL
