MODEL 1
REMARK minimizedAffinity 11.1112013
REMARK minimizedRMSD -1
REMARK  2 active torsions:
REMARK  status: ('A' for Active; 'I' for Inactive)
REMARK    1  A    between atoms: C1_2  and  C2_3 
REMARK    2  A    between atoms: C2_3  and  C3_4 
ROOT
ATOM      1  C3  UNL d   1       3.702  -2.497  -5.989  0.00  0.00    -0.075 A 
ATOM      2  C4  UNL d   1       3.107  -1.227  -5.989  0.00  0.00     0.002 A 
ATOM      3  C5  UNL d   1       1.718  -1.094  -5.976  0.00  0.00     0.002 A 
ATOM      4  C6  UNL d   1       0.908  -2.227  -5.973  0.00  0.00    -0.004 A 
ATOM      5  C7  UNL d   1       1.487  -3.494  -5.990  0.00  0.00     0.002 A 
ATOM      6  C8  UNL d   1       2.877  -3.629  -5.998  0.00  0.00     0.002 A 
ENDROOT
BRANCH   1   7
ATOM      7  C2  UNL d   1       5.204  -2.647  -5.973  0.00  0.00     0.056 C 
BRANCH   7   8
ATOM      8  C1  UNL d   1       5.685  -4.098  -5.865  0.00  0.00     0.007 C 
ATOM      9  C   UNL d   1       5.886  -4.559  -4.427  0.00  0.00     0.009 C 
ENDBRANCH   7   8
ENDBRANCH   1   7
TORSDOF 2
ENDMDL
