MODEL 1
REMARK minimizedAffinity 17.4028034
REMARK minimizedRMSD -1
REMARK  2 active torsions:
REMARK  status: ('A' for Active; 'I' for Inactive)
REMARK    1  A    between atoms: C1_2  and  C2_3 
REMARK    2  A    between atoms: C2_3  and  C3_4 
ROOT
ATOM      1  C3  UNL d   1       1.356  -3.887  -4.694  0.00  0.00    -0.075 A 
ATOM      2  C4  UNL d   1       1.033  -5.251  -4.698  0.00  0.00     0.002 A 
ATOM      3  C5  UNL d   1       1.103  -5.999  -3.522  0.00  0.00     0.002 A 
ATOM      4  C6  UNL d   1       1.507  -5.396  -2.333  0.00  0.00    -0.004 A 
ATOM      5  C7  UNL d   1       1.847  -4.045  -2.321  0.00  0.00     0.002 A 
ATOM      6  C8  UNL d   1       1.773  -3.293  -3.495  0.00  0.00     0.002 A 
ENDROOT
BRANCH   1   7
ATOM      7  C2  UNL d   1       1.254  -3.065  -5.957  0.00  0.00     0.056 C 
BRANCH   7   8
ATOM      8  C1  UNL d   1       2.204  -1.864  -5.999  0.00  0.00     0.007 C 
ATOM      9  C   UNL d   1       3.674  -2.259  -5.970  0.00  0.00     0.009 C 
ENDBRANCH   7   8
ENDBRANCH   1   7
TORSDOF 2
ENDMDL
