MODEL 1
REMARK minimizedAffinity 15.0812368
REMARK minimizedRMSD -1
REMARK  2 active torsions:
REMARK  status: ('A' for Active; 'I' for Inactive)
REMARK    1  A    between atoms: C1_2  and  C2_3 
REMARK    2  A    between atoms: C2_3  and  C3_4 
ROOT
ATOM      1  C3  UNL d   1      -3.792  -3.051   3.908  0.00  0.00    -0.075 A 
ATOM      2  C4  UNL d   1      -4.007  -2.463   2.653  0.00  0.00     0.002 A 
ATOM      3  C5  UNL d   1      -5.107  -2.829   1.878  0.00  0.00     0.002 A 
ATOM      4  C6  UNL d   1      -5.999  -3.794   2.341  0.00  0.00    -0.004 A 
ATOM      5  C7  UNL d   1      -5.787  -4.397   3.579  0.00  0.00     0.002 A 
ATOM      6  C8  UNL d   1      -4.689  -4.029   4.359  0.00  0.00     0.002 A 
ENDROOT
BRANCH   1   7
ATOM      7  C2  UNL d   1      -2.620  -2.638   4.765  0.00  0.00     0.056 C 
BRANCH   7   8
ATOM      8  C1  UNL d   1      -1.258  -3.063   4.207  0.00  0.00     0.007 C 
ATOM      9  C   UNL d   1      -0.532  -4.066   5.093  0.00  0.00     0.009 C 
ENDBRANCH   7   8
ENDBRANCH   1   7
TORSDOF 2
ENDMDL
