MODEL 1
REMARK minimizedAffinity 16.7743187
REMARK minimizedRMSD -1
REMARK  2 active torsions:
REMARK  status: ('A' for Active; 'I' for Inactive)
REMARK    1  A    between atoms: C1_2  and  C2_3 
REMARK    2  A    between atoms: C2_3  and  C3_4 
ROOT
ATOM      1  C3  UNL d   1      -3.870   4.154  -2.903  0.00  0.00    -0.075 A 
ATOM      2  C4  UNL d   1      -4.599   3.083  -3.439  0.00  0.00     0.002 A 
ATOM      3  C5  UNL d   1      -3.942   1.962  -3.947  0.00  0.00     0.002 A 
ATOM      4  C6  UNL d   1      -2.550   1.903  -3.937  0.00  0.00    -0.004 A 
ATOM      5  C7  UNL d   1      -1.815   2.968  -3.422  0.00  0.00     0.002 A 
ATOM      6  C8  UNL d   1      -2.470   4.089  -2.908  0.00  0.00     0.002 A 
ENDROOT
BRANCH   1   7
ATOM      7  C2  UNL d   1      -4.576   5.356  -2.323  0.00  0.00     0.056 C 
BRANCH   7   8
ATOM      8  C1  UNL d   1      -5.321   5.072  -1.015  0.00  0.00     0.007 C 
ATOM      9  C   UNL d   1      -4.587   5.584   0.217  0.00  0.00     0.009 C 
ENDBRANCH   7   8
ENDBRANCH   1   7
TORSDOF 2
ENDMDL
