MODEL 1
REMARK minimizedAffinity 10.0969276
REMARK minimizedRMSD -1
REMARK  2 active torsions:
REMARK  status: ('A' for Active; 'I' for Inactive)
REMARK    1  A    between atoms: C1_2  and  C2_3 
REMARK    2  A    between atoms: C2_3  and  C3_4 
ROOT
ATOM      1  C3  UNL d   1      -2.914   4.872  -0.384  0.00  0.00    -0.075 A 
ATOM      2  C4  UNL d   1      -3.487   4.908  -1.664  0.00  0.00     0.002 A 
ATOM      3  C5  UNL d   1      -4.748   5.473  -1.859  0.00  0.00     0.002 A 
ATOM      4  C6  UNL d   1      -5.454   5.998  -0.780  0.00  0.00    -0.004 A 
ATOM      5  C7  UNL d   1      -4.901   5.953   0.498  0.00  0.00     0.002 A 
ATOM      6  C8  UNL d   1      -3.638   5.392   0.696  0.00  0.00     0.002 A 
ENDROOT
BRANCH   1   7
ATOM      7  C2  UNL d   1      -1.537   4.288  -0.170  0.00  0.00     0.056 C 
BRANCH   7   8
ATOM      8  C1  UNL d   1      -1.295   2.973  -0.917  0.00  0.00     0.007 C 
ATOM      9  C   UNL d   1      -0.983   1.805   0.009  0.00  0.00     0.009 C 
ENDBRANCH   7   8
ENDBRANCH   1   7
TORSDOF 2
ENDMDL
