MODEL 1
REMARK minimizedAffinity 7.91012764
REMARK minimizedRMSD -1
REMARK  2 active torsions:
REMARK  status: ('A' for Active; 'I' for Inactive)
REMARK    1  A    between atoms: C1_2  and  C2_3 
REMARK    2  A    between atoms: C2_3  and  C3_4 
ROOT
ATOM      1  C3  UNL d   1      -0.694   2.721   0.265  0.00  0.00    -0.075 A 
ATOM      2  C4  UNL d   1       0.185   3.655   0.834  0.00  0.00     0.002 A 
ATOM      3  C5  UNL d   1       0.700   4.701   0.068  0.00  0.00     0.002 A 
ATOM      4  C6  UNL d   1       0.351   4.822  -1.276  0.00  0.00    -0.004 A 
ATOM      5  C7  UNL d   1      -0.508   3.891  -1.855  0.00  0.00     0.002 A 
ATOM      6  C8  UNL d   1      -1.028   2.845  -1.090  0.00  0.00     0.002 A 
ENDROOT
BRANCH   1   7
ATOM      7  C2  UNL d   1      -1.277   1.604   1.096  0.00  0.00     0.056 C 
BRANCH   7   8
ATOM      8  C1  UNL d   1      -2.774   1.758   1.386  0.00  0.00     0.007 C 
ATOM      9  C   UNL d   1      -3.586   0.520   1.026  0.00  0.00     0.009 C 
ENDBRANCH   7   8
ENDBRANCH   1   7
TORSDOF 2
ENDMDL
