MODEL 1
REMARK minimizedAffinity 4.25260973
REMARK minimizedRMSD -1
REMARK  2 active torsions:
REMARK  status: ('A' for Active; 'I' for Inactive)
REMARK    1  A    between atoms: C1_2  and  C2_3 
REMARK    2  A    between atoms: C2_3  and  C3_4 
ROOT
ATOM      1  C3  UNL d   1      -2.230   3.538   1.128  0.00  0.00    -0.075 A 
ATOM      2  C4  UNL d   1      -1.543   4.521   0.401  0.00  0.00     0.002 A 
ATOM      3  C5  UNL d   1      -0.283   4.255  -0.136  0.00  0.00     0.002 A 
ATOM      4  C6  UNL d   1       0.309   3.008   0.055  0.00  0.00    -0.004 A 
ATOM      5  C7  UNL d   1      -0.357   2.029   0.789  0.00  0.00     0.002 A 
ATOM      6  C8  UNL d   1      -1.619   2.292   1.324  0.00  0.00     0.002 A 
ENDROOT
BRANCH   1   7
ATOM      7  C2  UNL d   1      -3.606   3.810   1.686  0.00  0.00     0.056 C 
BRANCH   7   8
ATOM      8  C1  UNL d   1      -4.080   5.256   1.500  0.00  0.00     0.007 C 
ATOM      9  C   UNL d   1      -4.273   5.998   2.816  0.00  0.00     0.009 C 
ENDBRANCH   7   8
ENDBRANCH   1   7
TORSDOF 2
ENDMDL
