MODEL 1
REMARK minimizedAffinity 4.0161581
REMARK minimizedRMSD -1
REMARK  2 active torsions:
REMARK  status: ('A' for Active; 'I' for Inactive)
REMARK    1  A    between atoms: C1_2  and  C2_3 
REMARK    2  A    between atoms: C2_3  and  C3_4 
ROOT
ATOM      1  C3  UNL d   1      -0.746   2.882  -0.112  0.00  0.00    -0.075 A 
ATOM      2  C4  UNL d   1      -0.066   4.020   0.346  0.00  0.00     0.002 A 
ATOM      3  C5  UNL d   1       0.288   5.038  -0.540  0.00  0.00     0.002 A 
ATOM      4  C6  UNL d   1      -0.023   4.928  -1.893  0.00  0.00    -0.004 A 
ATOM      5  C7  UNL d   1      -0.684   3.794  -2.362  0.00  0.00     0.002 A 
ATOM      6  C8  UNL d   1      -1.043   2.776  -1.477  0.00  0.00     0.002 A 
ENDROOT
BRANCH   1   7
ATOM      7  C2  UNL d   1      -1.158   1.791   0.847  0.00  0.00     0.056 C 
BRANCH   7   8
ATOM      8  C1  UNL d   1      -0.037   1.327   1.783  0.00  0.00     0.007 C 
ATOM      9  C   UNL d   1      -0.512   1.067   3.206  0.00  0.00     0.009 C 
ENDBRANCH   7   8
ENDBRANCH   1   7
TORSDOF 2
ENDMDL
