MODEL 1
REMARK minimizedAffinity 2.74969792
REMARK minimizedRMSD -1
REMARK  2 active torsions:
REMARK  status: ('A' for Active; 'I' for Inactive)
REMARK    1  A    between atoms: C1_2  and  C2_3 
REMARK    2  A    between atoms: C2_3  and  C3_4 
ROOT
ATOM      1  C3  UNL d   1      -0.400   2.540  -1.355  0.00  0.00    -0.075 A 
ATOM      2  C4  UNL d   1      -0.680   3.741  -2.023  0.00  0.00     0.002 A 
ATOM      3  C5  UNL d   1      -0.458   4.968  -1.397  0.00  0.00     0.002 A 
ATOM      4  C6  UNL d   1       0.037   5.010  -0.095  0.00  0.00    -0.004 A 
ATOM      5  C7  UNL d   1       0.303   3.823   0.584  0.00  0.00     0.002 A 
ATOM      6  C8  UNL d   1       0.085   2.594  -0.041  0.00  0.00     0.002 A 
ENDROOT
BRANCH   1   7
ATOM      7  C2  UNL d   1      -0.610   1.209  -2.037  0.00  0.00     0.056 C 
BRANCH   7   8
ATOM      8  C1  UNL d   1      -1.942   1.096  -2.786  0.00  0.00     0.007 C 
ATOM      9  C   UNL d   1      -3.004   0.326  -2.011  0.00  0.00     0.009 C 
ENDBRANCH   7   8
ENDBRANCH   1   7
TORSDOF 2
ENDMDL
