MODEL 1
REMARK minimizedAffinity 1.59992743
REMARK minimizedRMSD -1
REMARK  2 active torsions:
REMARK  status: ('A' for Active; 'I' for Inactive)
REMARK    1  A    between atoms: C1_2  and  C2_3 
REMARK    2  A    between atoms: C2_3  and  C3_4 
ROOT
ATOM      1  C3  UNL d   1       0.013   3.462   0.493  0.00  0.00    -0.075 A 
ATOM      2  C4  UNL d   1       0.603   4.226   1.510  0.00  0.00     0.002 A 
ATOM      3  C5  UNL d   1       1.129   5.489   1.233  0.00  0.00     0.002 A 
ATOM      4  C6  UNL d   1       1.081   5.998  -0.062  0.00  0.00    -0.004 A 
ATOM      5  C7  UNL d   1       0.511   5.241  -1.084  0.00  0.00     0.002 A 
ATOM      6  C8  UNL d   1      -0.020   3.979  -0.809  0.00  0.00     0.002 A 
ENDROOT
BRANCH   1   7
ATOM      7  C2  UNL d   1      -0.584   2.108   0.792  0.00  0.00     0.056 C 
BRANCH   7   8
ATOM      8  C1  UNL d   1      -1.062   1.942   2.239  0.00  0.00     0.007 C 
ATOM      9  C   UNL d   1      -2.516   1.503   2.344  0.00  0.00     0.009 C 
ENDBRANCH   7   8
ENDBRANCH   1   7
TORSDOF 2
ENDMDL
