MODEL 1
REMARK minimizedAffinity 16.6349907
REMARK minimizedRMSD -1
REMARK  2 active torsions:
REMARK  status: ('A' for Active; 'I' for Inactive)
REMARK    1  A    between atoms: C1_2  and  C2_3 
REMARK    2  A    between atoms: C2_3  and  C3_4 
ROOT
ATOM      1  C3  UNL d   1       1.290  -3.054  -0.075  0.00  0.00    -0.075 A 
ATOM      2  C4  UNL d   1       0.608  -3.577   1.033  0.00  0.00     0.002 A 
ATOM      3  C5  UNL d   1       0.711  -2.964   2.282  0.00  0.00     0.002 A 
ATOM      4  C6  UNL d   1       1.502  -1.829   2.441  0.00  0.00    -0.004 A 
ATOM      5  C7  UNL d   1       2.197  -1.310   1.351  0.00  0.00     0.002 A 
ATOM      6  C8  UNL d   1       2.093  -1.919   0.099  0.00  0.00     0.002 A 
ENDROOT
BRANCH   1   7
ATOM      7  C2  UNL d   1       1.160  -3.696  -1.436  0.00  0.00     0.056 C 
BRANCH   7   8
ATOM      8  C1  UNL d   1       2.355  -4.569  -1.830  0.00  0.00     0.007 C 
ATOM      9  C   UNL d   1       1.965  -5.999  -2.179  0.00  0.00     0.009 C 
ENDBRANCH   7   8
ENDBRANCH   1   7
TORSDOF 2
ENDMDL
