MODEL 1
REMARK minimizedAffinity 3.49698162
REMARK minimizedRMSD -1
REMARK  2 active torsions:
REMARK  status: ('A' for Active; 'I' for Inactive)
REMARK    1  A    between atoms: C1_2  and  C2_3 
REMARK    2  A    between atoms: C2_3  and  C3_4 
ROOT
ATOM      1  C3  UNL d   1      -0.134   2.617   1.199  0.00  0.00    -0.075 A 
ATOM      2  C4  UNL d   1       0.083   4.002   1.256  0.00  0.00     0.002 A 
ATOM      3  C5  UNL d   1       0.304   4.733   0.089  0.00  0.00     0.002 A 
ATOM      4  C6  UNL d   1       0.322   4.090  -1.147  0.00  0.00    -0.004 A 
ATOM      5  C7  UNL d   1       0.125   2.713  -1.214  0.00  0.00     0.002 A 
ATOM      6  C8  UNL d   1      -0.102   1.979  -0.048  0.00  0.00     0.002 A 
ENDROOT
BRANCH   1   7
ATOM      7  C2  UNL d   1      -0.404   1.825   2.455  0.00  0.00     0.056 C 
BRANCH   7   8
ATOM      8  C1  UNL d   1      -1.113   0.489   2.210  0.00  0.00     0.007 C 
ATOM      9  C   UNL d   1      -2.593   0.520   2.567  0.00  0.00     0.009 C 
ENDBRANCH   7   8
ENDBRANCH   1   7
TORSDOF 2
ENDMDL
