MODEL 1
REMARK minimizedAffinity 4.55448151
REMARK minimizedRMSD -1
REMARK  2 active torsions:
REMARK  status: ('A' for Active; 'I' for Inactive)
REMARK    1  A    between atoms: C1_2  and  C2_3 
REMARK    2  A    between atoms: C2_3  and  C3_4 
ROOT
ATOM      1  C3  UNL d   1      -5.457  -4.319   3.384  0.00  0.00    -0.075 A 
ATOM      2  C4  UNL d   1      -4.418  -3.418   3.658  0.00  0.00     0.002 A 
ATOM      3  C5  UNL d   1      -3.918  -3.286   4.954  0.00  0.00     0.002 A 
ATOM      4  C6  UNL d   1      -4.457  -4.043   5.992  0.00  0.00    -0.004 A 
ATOM      5  C7  UNL d   1      -5.501  -4.929   5.734  0.00  0.00     0.002 A 
ATOM      6  C8  UNL d   1      -6.000  -5.066   4.438  0.00  0.00     0.002 A 
ENDROOT
BRANCH   1   7
ATOM      7  C2  UNL d   1      -5.982  -4.488   1.978  0.00  0.00     0.056 C 
BRANCH   7   8
ATOM      8  C1  UNL d   1      -5.278  -3.609   0.940  0.00  0.00     0.007 C 
ATOM      9  C   UNL d   1      -5.952  -2.257   0.742  0.00  0.00     0.009 C 
ENDBRANCH   7   8
ENDBRANCH   1   7
TORSDOF 2
ENDMDL
