MODEL 1
REMARK minimizedAffinity 1.40641439
REMARK minimizedRMSD -1
REMARK  1 active torsions:
REMARK  status: ('A' for Active; 'I' for Inactive)
REMARK    1  A    between atoms: C1_2  and  C2_3 
ROOT
ATOM      1  C2  UNL d   1       3.729  -0.419   3.533  0.00  0.00    -0.073 A 
ATOM      2  C3  UNL d   1       2.580  -0.358   4.330  0.00  0.00    -0.002 A 
ATOM      3  C4  UNL d   1       2.538  -1.023   5.556  0.00  0.00     0.004 A 
ATOM      4  C5  UNL d   1       3.643  -1.749   6.000  0.00  0.00    -0.004 A 
ATOM      5  C6  UNL d   1       4.803  -1.812   5.222  0.00  0.00    -0.075 A 
ATOM      6  C7  UNL d   1       6.000  -2.591   5.684  0.00  0.00     0.076 C 
ATOM      7  C8  UNL d   1       4.838  -1.144   3.991  0.00  0.00     0.001 A 
ENDROOT
BRANCH   1   8
ATOM      8  C1  UNL d   1       3.782   0.303   2.211  0.00  0.00     0.053 C 
ATOM      9  C   UNL d   1       3.004   1.609   2.243  0.00  0.00     0.018 C 
ENDBRANCH   1   8
TORSDOF 1
ENDMDL
