MODEL 1
REMARK minimizedAffinity 4.16399145
REMARK minimizedRMSD -1
REMARK  1 active torsions:
REMARK  status: ('A' for Active; 'I' for Inactive)
REMARK    1  A    between atoms: C1_2  and  C2_3 
ROOT
ATOM      1  C2  UNL d   1       3.225  -2.113   3.642  0.00  0.00    -0.073 A 
ATOM      2  C3  UNL d   1       1.939  -2.562   3.323  0.00  0.00    -0.002 A 
ATOM      3  C4  UNL d   1       1.137  -1.837   2.441  0.00  0.00     0.004 A 
ATOM      4  C5  UNL d   1       1.615  -0.660   1.864  0.00  0.00    -0.004 A 
ATOM      5  C6  UNL d   1       2.902  -0.201   2.162  0.00  0.00    -0.075 A 
ATOM      6  C7  UNL d   1       3.430   1.064   1.551  0.00  0.00     0.076 C 
ATOM      7  C8  UNL d   1       3.700  -0.933   3.050  0.00  0.00     0.001 A 
ENDROOT
BRANCH   1   8
ATOM      8  C1  UNL d   1       4.097  -2.896   4.589  0.00  0.00     0.053 C 
ATOM      9  C   UNL d   1       4.065  -2.325   5.998  0.00  0.00     0.018 C 
ENDBRANCH   1   8
TORSDOF 1
ENDMDL
