MODEL 1
REMARK minimizedAffinity 5.92067146
REMARK minimizedRMSD -1
REMARK  1 active torsions:
REMARK  status: ('A' for Active; 'I' for Inactive)
REMARK    1  A    between atoms: C1_2  and  C2_3 
ROOT
ATOM      1  C2  UNL d   1       3.565  -1.315   2.273  0.00  0.00    -0.073 A 
ATOM      2  C3  UNL d   1       3.412  -1.628   3.628  0.00  0.00    -0.002 A 
ATOM      3  C4  UNL d   1       2.176  -1.465   4.255  0.00  0.00     0.004 A 
ATOM      4  C5  UNL d   1       1.079  -0.995   3.532  0.00  0.00    -0.004 A 
ATOM      5  C6  UNL d   1       1.209  -0.688   2.174  0.00  0.00    -0.075 A 
ATOM      6  C7  UNL d   1       0.040  -0.178   1.383  0.00  0.00     0.076 C 
ATOM      7  C8  UNL d   1       2.455  -0.852   1.553  0.00  0.00     0.001 A 
ENDROOT
BRANCH   1   8
ATOM      8  C1  UNL d   1       4.896  -1.496   1.591  0.00  0.00     0.053 C 
ATOM      9  C   UNL d   1       6.000  -1.842   2.578  0.00  0.00     0.018 C 
ENDBRANCH   1   8
TORSDOF 1
ENDMDL
