MODEL 1
REMARK minimizedAffinity 5.61324978
REMARK minimizedRMSD -1
REMARK  1 active torsions:
REMARK  status: ('A' for Active; 'I' for Inactive)
REMARK    1  A    between atoms: C1_2  and  C2_3 
ROOT
ATOM      1  C2  UNL d   1       2.625  -0.869   2.448  0.00  0.00    -0.073 A 
ATOM      2  C3  UNL d   1       2.377  -0.514   3.778  0.00  0.00    -0.002 A 
ATOM      3  C4  UNL d   1       2.091  -1.496   4.728  0.00  0.00     0.004 A 
ATOM      4  C5  UNL d   1       2.057  -2.840   4.359  0.00  0.00    -0.004 A 
ATOM      5  C6  UNL d   1       2.315  -3.216   3.037  0.00  0.00    -0.075 A 
ATOM      6  C7  UNL d   1       2.281  -4.658   2.624  0.00  0.00     0.076 C 
ATOM      7  C8  UNL d   1       2.599  -2.224   2.089  0.00  0.00     0.001 A 
ENDROOT
BRANCH   1   8
ATOM      8  C1  UNL d   1       2.941   0.187   1.420  0.00  0.00     0.053 C 
ATOM      9  C   UNL d   1       2.622   1.586   1.923  0.00  0.00     0.018 C 
ENDBRANCH   1   8
TORSDOF 1
ENDMDL
