MODEL 1
REMARK minimizedAffinity 0.927643538
REMARK minimizedRMSD -1
REMARK  1 active torsions:
REMARK  status: ('A' for Active; 'I' for Inactive)
REMARK    1  A    between atoms: C1_2  and  C2_3 
ROOT
ATOM      1  C2  UNL d   1       2.798  -0.919   2.466  0.00  0.00    -0.073 A 
ATOM      2  C3  UNL d   1       2.792  -0.343   3.741  0.00  0.00    -0.002 A 
ATOM      3  C4  UNL d   1       2.573  -1.134   4.870  0.00  0.00     0.004 A 
ATOM      4  C5  UNL d   1       2.364  -2.507   4.736  0.00  0.00    -0.004 A 
ATOM      5  C6  UNL d   1       2.378  -3.102   3.471  0.00  0.00    -0.075 A 
ATOM      6  C7  UNL d   1       2.153  -4.577   3.309  0.00  0.00     0.076 C 
ATOM      7  C8  UNL d   1       2.596  -2.301   2.342  0.00  0.00     0.001 A 
ENDROOT
BRANCH   1   8
ATOM      8  C1  UNL d   1       3.040  -0.070   1.244  0.00  0.00     0.053 C 
ATOM      9  C   UNL d   1       3.080   1.412   1.579  0.00  0.00     0.018 C 
ENDBRANCH   1   8
TORSDOF 1
ENDMDL
