MODEL 1
REMARK minimizedAffinity 2.35101461
REMARK minimizedRMSD -1
REMARK  1 active torsions:
REMARK  status: ('A' for Active; 'I' for Inactive)
REMARK    1  A    between atoms: C1_2  and  C2_3 
ROOT
ATOM      1  C2  UNL d   1       1.766   2.252   0.770  0.00  0.00    -0.073 A 
ATOM      2  C3  UNL d   1       2.833   1.954  -0.086  0.00  0.00    -0.002 A 
ATOM      3  C4  UNL d   1       3.667   0.868   0.181  0.00  0.00     0.004 A 
ATOM      4  C5  UNL d   1       3.440   0.066   1.299  0.00  0.00    -0.004 A 
ATOM      5  C6  UNL d   1       2.372   0.341   2.160  0.00  0.00    -0.075 A 
ATOM      6  C7  UNL d   1       2.116  -0.510   3.368  0.00  0.00     0.076 C 
ATOM      7  C8  UNL d   1       1.540   1.435   1.887  0.00  0.00     0.001 A 
ENDROOT
BRANCH   1   8
ATOM      8  C1  UNL d   1       0.858   3.420   0.483  0.00  0.00     0.053 C 
ATOM      9  C   UNL d   1       1.371   4.271  -0.668  0.00  0.00     0.018 C 
ENDBRANCH   1   8
TORSDOF 1
ENDMDL
