MODEL 1
REMARK minimizedAffinity 7.22462893
REMARK minimizedRMSD -1
REMARK  1 active torsions:
REMARK  status: ('A' for Active; 'I' for Inactive)
REMARK    1  A    between atoms: C1_2  and  C2_3 
ROOT
ATOM      1  C2  UNL d   1       2.248  -0.913   2.804  0.00  0.00    -0.073 A 
ATOM      2  C3  UNL d   1       2.302  -1.957   1.874  0.00  0.00    -0.002 A 
ATOM      3  C4  UNL d   1       2.672  -3.241   2.277  0.00  0.00     0.004 A 
ATOM      4  C5  UNL d   1       2.984  -3.496   3.612  0.00  0.00    -0.004 A 
ATOM      5  C6  UNL d   1       2.924  -2.468   4.559  0.00  0.00    -0.075 A 
ATOM      6  C7  UNL d   1       3.260  -2.725   5.999  0.00  0.00     0.076 C 
ATOM      7  C8  UNL d   1       2.555  -1.181   4.146  0.00  0.00     0.001 A 
ENDROOT
BRANCH   1   8
ATOM      8  C1  UNL d   1       1.842   0.473   2.376  0.00  0.00     0.053 C 
ATOM      9  C   UNL d   1       2.962   1.193   1.640  0.00  0.00     0.018 C 
ENDBRANCH   1   8
TORSDOF 1
ENDMDL
