MODEL 1
REMARK minimizedAffinity 6.99374676
REMARK minimizedRMSD -1
REMARK  1 active torsions:
REMARK  status: ('A' for Active; 'I' for Inactive)
REMARK    1  A    between atoms: C1_2  and  C2_3 
ROOT
ATOM      1  C2  UNL d   1       2.034  -1.462   2.294  0.00  0.00    -0.073 A 
ATOM      2  C3  UNL d   1       2.694  -2.493   1.616  0.00  0.00    -0.002 A 
ATOM      3  C4  UNL d   1       3.008  -3.683   2.275  0.00  0.00     0.004 A 
ATOM      4  C5  UNL d   1       2.658  -3.856   3.614  0.00  0.00    -0.004 A 
ATOM      5  C6  UNL d   1       1.987  -2.842   4.305  0.00  0.00    -0.075 A 
ATOM      6  C7  UNL d   1       1.606  -3.013   5.747  0.00  0.00     0.076 C 
ATOM      7  C8  UNL d   1       1.678  -1.650   3.637  0.00  0.00     0.001 A 
ENDROOT
BRANCH   1   8
ATOM      8  C1  UNL d   1       1.687  -0.179   1.584  0.00  0.00     0.053 C 
ATOM      9  C   UNL d   1       0.292  -0.219   0.983  0.00  0.00     0.018 C 
ENDBRANCH   1   8
TORSDOF 1
ENDMDL
