MODEL 1
REMARK minimizedAffinity 14.6858358
REMARK minimizedRMSD -1
REMARK  1 active torsions:
REMARK  status: ('A' for Active; 'I' for Inactive)
REMARK    1  A    between atoms: C1_2  and  C2_3 
ROOT
ATOM      1  C2  UNL d   1      -5.770   3.003   2.919  0.00  0.00    -0.073 A 
ATOM      2  C3  UNL d   1      -5.822   1.774   2.251  0.00  0.00    -0.002 A 
ATOM      3  C4  UNL d   1      -5.939   1.732   0.861  0.00  0.00     0.004 A 
ATOM      4  C5  UNL d   1      -5.998   2.915   0.125  0.00  0.00    -0.004 A 
ATOM      5  C6  UNL d   1      -5.935   4.153   0.774  0.00  0.00    -0.075 A 
ATOM      6  C7  UNL d   1      -5.999   5.435  -0.003  0.00  0.00     0.076 C 
ATOM      7  C8  UNL d   1      -5.820   4.187   2.170  0.00  0.00     0.001 A 
ENDROOT
BRANCH   1   8
ATOM      8  C1  UNL d   1      -5.637   3.053   4.419  0.00  0.00     0.053 C 
ATOM      9  C   UNL d   1      -5.996   4.421   4.977  0.00  0.00     0.018 C 
ENDBRANCH   1   8
TORSDOF 1
ENDMDL
