MODEL 1
REMARK minimizedAffinity 7.81962109
REMARK minimizedRMSD -1
REMARK  1 active torsions:
REMARK  status: ('A' for Active; 'I' for Inactive)
REMARK    1  A    between atoms: C1_2  and  C2_3 
ROOT
ATOM      1  C2  UNL d   1      -3.192   3.237   1.628  0.00  0.00    -0.073 A 
ATOM      2  C3  UNL d   1      -4.078   3.686   0.642  0.00  0.00    -0.002 A 
ATOM      3  C4  UNL d   1      -5.454   3.674   0.873  0.00  0.00     0.004 A 
ATOM      4  C5  UNL d   1      -5.957   3.221   2.092  0.00  0.00    -0.004 A 
ATOM      5  C6  UNL d   1      -5.087   2.779   3.094  0.00  0.00    -0.075 A 
ATOM      6  C7  UNL d   1      -5.613   2.286   4.410  0.00  0.00     0.076 C 
ATOM      7  C8  UNL d   1      -3.707   2.791   2.853  0.00  0.00     0.001 A 
ENDROOT
BRANCH   1   8
ATOM      8  C1  UNL d   1      -1.704   3.254   1.385  0.00  0.00     0.053 C 
ATOM      9  C   UNL d   1      -1.289   4.393   0.468  0.00  0.00     0.018 C 
ENDBRANCH   1   8
TORSDOF 1
ENDMDL
