MODEL 1
REMARK minimizedAffinity 9.36639595
REMARK minimizedRMSD -1
REMARK  2 active torsions:
REMARK  status: ('A' for Active; 'I' for Inactive)
REMARK    1  A    between atoms: C1_2  and  C2_3 
REMARK    2  A    between atoms: C2_3  and  C3_4 
ROOT
ATOM      1  C3  UNL d   1      -1.662  -3.893  -3.872  0.00  0.00    -0.075 A 
ATOM      2  C4  UNL d   1      -0.629  -4.841  -3.890  0.00  0.00     0.002 A 
ATOM      3  C5  UNL d   1       0.283  -4.876  -4.946  0.00  0.00     0.002 A 
ATOM      4  C6  UNL d   1       0.167  -3.972  -5.999  0.00  0.00    -0.004 A 
ATOM      5  C7  UNL d   1      -0.865  -3.036  -6.000  0.00  0.00     0.002 A 
ATOM      6  C8  UNL d   1      -1.776  -2.997  -4.943  0.00  0.00     0.002 A 
ENDROOT
BRANCH   1   7
ATOM      7  C2  UNL d   1      -2.634  -3.832  -2.718  0.00  0.00     0.056 C 
BRANCH   7   8
ATOM      8  C1  UNL d   1      -2.781  -5.153  -1.955  0.00  0.00     0.007 C 
ATOM      9  C   UNL d   1      -4.052  -5.225  -1.119  0.00  0.00     0.009 C 
ENDBRANCH   7   8
ENDBRANCH   1   7
TORSDOF 2
ENDMDL
