MODEL 1
REMARK minimizedAffinity 12.7709312
REMARK minimizedRMSD -1
REMARK  2 active torsions:
REMARK  status: ('A' for Active; 'I' for Inactive)
REMARK    1  A    between atoms: C1_2  and  C2_3 
REMARK    2  A    between atoms: C2_3  and  C3_4 
ROOT
ATOM      1  C3  UNL d   1       2.671   1.646  -0.795  0.00  0.00    -0.075 A 
ATOM      2  C4  UNL d   1       3.099   0.429  -0.246  0.00  0.00     0.002 A 
ATOM      3  C5  UNL d   1       2.482  -0.090   0.893  0.00  0.00     0.002 A 
ATOM      4  C6  UNL d   1       1.439   0.605   1.502  0.00  0.00    -0.004 A 
ATOM      5  C7  UNL d   1       1.017   1.823   0.974  0.00  0.00     0.002 A 
ATOM      6  C8  UNL d   1       1.629   2.342  -0.168  0.00  0.00     0.002 A 
ENDROOT
BRANCH   1   7
ATOM      7  C2  UNL d   1       3.315   2.198  -2.045  0.00  0.00     0.056 C 
BRANCH   7   8
ATOM      8  C1  UNL d   1       4.155   1.176  -2.818  0.00  0.00     0.007 C 
ATOM      9  C   UNL d   1       3.444   0.621  -4.045  0.00  0.00     0.009 C 
ENDBRANCH   7   8
ENDBRANCH   1   7
TORSDOF 2
ENDMDL
