MODEL 1
REMARK minimizedAffinity 14.3167648
REMARK minimizedRMSD -1
REMARK  2 active torsions:
REMARK  status: ('A' for Active; 'I' for Inactive)
REMARK    1  A    between atoms: C1_2  and  C2_3 
REMARK    2  A    between atoms: C2_3  and  C3_4 
ROOT
ATOM      1  C3  UNL d   1       2.330   0.741   2.092  0.00  0.00    -0.075 A 
ATOM      2  C4  UNL d   1       1.704   0.502   3.324  0.00  0.00     0.002 A 
ATOM      3  C5  UNL d   1       2.327  -0.284   4.294  0.00  0.00     0.002 A 
ATOM      4  C6  UNL d   1       3.576  -0.848   4.042  0.00  0.00    -0.004 A 
ATOM      5  C7  UNL d   1       4.199  -0.631   2.815  0.00  0.00     0.002 A 
ATOM      6  C8  UNL d   1       3.581   0.159   1.844  0.00  0.00     0.002 A 
ENDROOT
BRANCH   1   7
ATOM      7  C2  UNL d   1       1.675   1.615   1.049  0.00  0.00     0.056 C 
BRANCH   7   8
ATOM      8  C1  UNL d   1       1.300   3.013   1.553  0.00  0.00     0.007 C 
ATOM      9  C   UNL d   1      -0.167   3.137   1.942  0.00  0.00     0.009 C 
ENDBRANCH   7   8
ENDBRANCH   1   7
TORSDOF 2
ENDMDL
