MODEL 1
REMARK minimizedAffinity 7.00487328
REMARK minimizedRMSD -1
REMARK  2 active torsions:
REMARK  status: ('A' for Active; 'I' for Inactive)
REMARK    1  A    between atoms: C1_2  and  C2_3 
REMARK    2  A    between atoms: C2_3  and  C3_4 
ROOT
ATOM      1  C3  UNL d   1      -3.636  -3.692  -2.249  0.00  0.00    -0.075 A 
ATOM      2  C4  UNL d   1      -3.309  -4.982  -1.807  0.00  0.00     0.002 A 
ATOM      3  C5  UNL d   1      -4.266  -5.997  -1.815  0.00  0.00     0.002 A 
ATOM      4  C6  UNL d   1      -5.561  -5.734  -2.255  0.00  0.00    -0.004 A 
ATOM      5  C7  UNL d   1      -5.901  -4.452  -2.681  0.00  0.00     0.002 A 
ATOM      6  C8  UNL d   1      -4.945  -3.435  -2.677  0.00  0.00     0.002 A 
ENDROOT
BRANCH   1   7
ATOM      7  C2  UNL d   1      -2.597  -2.596  -2.270  0.00  0.00     0.056 C 
BRANCH   7   8
ATOM      8  C1  UNL d   1      -2.050  -2.229  -0.886  0.00  0.00     0.007 C 
ATOM      9  C   UNL d   1      -3.076  -2.388   0.227  0.00  0.00     0.009 C 
ENDBRANCH   7   8
ENDBRANCH   1   7
TORSDOF 2
ENDMDL
