MODEL 1
REMARK minimizedAffinity 2.5074594
REMARK minimizedRMSD -1
REMARK  2 active torsions:
REMARK  status: ('A' for Active; 'I' for Inactive)
REMARK    1  A    between atoms: C1_2  and  C2_3 
REMARK    2  A    between atoms: C2_3  and  C3_4 
ROOT
ATOM      1  C3  UNL d   1       4.272   1.558  -0.548  0.00  0.00    -0.075 A 
ATOM      2  C4  UNL d   1       2.908   1.610  -0.229  0.00  0.00     0.002 A 
ATOM      3  C5  UNL d   1       2.410   0.911   0.872  0.00  0.00     0.002 A 
ATOM      4  C6  UNL d   1       3.267   0.145   1.659  0.00  0.00    -0.004 A 
ATOM      5  C7  UNL d   1       4.621   0.073   1.341  0.00  0.00     0.002 A 
ATOM      6  C8  UNL d   1       5.122   0.774   0.244  0.00  0.00     0.002 A 
ENDROOT
BRANCH   1   7
ATOM      7  C2  UNL d   1       4.822   2.335  -1.720  0.00  0.00     0.056 C 
BRANCH   7   8
ATOM      8  C1  UNL d   1       4.233   1.923  -3.073  0.00  0.00     0.007 C 
ATOM      9  C   UNL d   1       3.357   3.000  -3.700  0.00  0.00     0.009 C 
ENDBRANCH   7   8
ENDBRANCH   1   7
TORSDOF 2
ENDMDL
