MODEL 1
REMARK minimizedAffinity 14.2094975
REMARK minimizedRMSD -1
REMARK  2 active torsions:
REMARK  status: ('A' for Active; 'I' for Inactive)
REMARK    1  A    between atoms: C1_2  and  C2_3 
REMARK    2  A    between atoms: C2_3  and  C3_4 
ROOT
ATOM      1  C3  UNL d   1       3.146   0.108   0.739  0.00  0.00    -0.075 A 
ATOM      2  C4  UNL d   1       1.938  -0.251   1.356  0.00  0.00     0.002 A 
ATOM      3  C5  UNL d   1       0.932   0.697   1.548  0.00  0.00     0.002 A 
ATOM      4  C6  UNL d   1       1.124   2.014   1.136  0.00  0.00    -0.004 A 
ATOM      5  C7  UNL d   1       2.326   2.385   0.538  0.00  0.00     0.002 A 
ATOM      6  C8  UNL d   1       3.333   1.438   0.341  0.00  0.00     0.002 A 
ENDROOT
BRANCH   1   7
ATOM      7  C2  UNL d   1       4.227  -0.920   0.502  0.00  0.00     0.056 C 
BRANCH   7   8
ATOM      8  C1  UNL d   1       5.290  -0.972   1.604  0.00  0.00     0.007 C 
ATOM      9  C   UNL d   1       4.708  -0.844   3.006  0.00  0.00     0.009 C 
ENDBRANCH   7   8
ENDBRANCH   1   7
TORSDOF 2
ENDMDL
