MODEL 1
REMARK minimizedAffinity 15.6712179
REMARK minimizedRMSD -1
REMARK  2 active torsions:
REMARK  status: ('A' for Active; 'I' for Inactive)
REMARK    1  A    between atoms: C1_2  and  C2_3 
REMARK    2  A    between atoms: C2_3  and  C3_4 
ROOT
ATOM      1  C3  UNL d   1       2.630   0.858   1.208  0.00  0.00    -0.075 A 
ATOM      2  C4  UNL d   1       2.527   2.205   0.830  0.00  0.00     0.002 A 
ATOM      3  C5  UNL d   1       1.432   2.971   1.231  0.00  0.00     0.002 A 
ATOM      4  C6  UNL d   1       0.424   2.400   2.004  0.00  0.00    -0.004 A 
ATOM      5  C7  UNL d   1       0.508   1.058   2.371  0.00  0.00     0.002 A 
ATOM      6  C8  UNL d   1       1.604   0.290   1.975  0.00  0.00     0.002 A 
ENDROOT
BRANCH   1   7
ATOM      7  C2  UNL d   1       3.827   0.032   0.802  0.00  0.00     0.056 C 
BRANCH   7   8
ATOM      8  C1  UNL d   1       4.560  -0.624   1.978  0.00  0.00     0.007 C 
ATOM      9  C   UNL d   1       5.992  -1.020   1.647  0.00  0.00     0.009 C 
ENDBRANCH   7   8
ENDBRANCH   1   7
TORSDOF 2
ENDMDL
