MODEL 1
REMARK minimizedAffinity 11.7581644
REMARK minimizedRMSD -1
REMARK  2 active torsions:
REMARK  status: ('A' for Active; 'I' for Inactive)
REMARK    1  A    between atoms: C1_2  and  C2_3 
REMARK    2  A    between atoms: C2_3  and  C3_4 
ROOT
ATOM      1  C3  UNL d   1      -3.692  -3.742  -2.607  0.00  0.00    -0.075 A 
ATOM      2  C4  UNL d   1      -3.396  -5.021  -2.114  0.00  0.00     0.002 A 
ATOM      3  C5  UNL d   1      -4.389  -5.998  -2.039  0.00  0.00     0.002 A 
ATOM      4  C6  UNL d   1      -5.690  -5.706  -2.443  0.00  0.00    -0.004 A 
ATOM      5  C7  UNL d   1      -5.999  -4.434  -2.919  0.00  0.00     0.002 A 
ATOM      6  C8  UNL d   1      -5.007  -3.456  -3.000  0.00  0.00     0.002 A 
ENDROOT
BRANCH   1   7
ATOM      7  C2  UNL d   1      -2.616  -2.689  -2.719  0.00  0.00     0.056 C 
BRANCH   7   8
ATOM      8  C1  UNL d   1      -2.528  -1.754  -1.508  0.00  0.00     0.007 C 
ATOM      9  C   UNL d   1      -1.783  -2.367  -0.329  0.00  0.00     0.009 C 
ENDBRANCH   7   8
ENDBRANCH   1   7
TORSDOF 2
ENDMDL
