MODEL 1
REMARK minimizedAffinity 6.85338736
REMARK minimizedRMSD -1
REMARK  2 active torsions:
REMARK  status: ('A' for Active; 'I' for Inactive)
REMARK    1  A    between atoms: C1_2  and  C2_3 
REMARK    2  A    between atoms: C2_3  and  C3_4 
ROOT
ATOM      1  C3  UNL d   1      -4.308   1.772   3.817  0.00  0.00    -0.075 A 
ATOM      2  C4  UNL d   1      -4.871   0.488   3.865  0.00  0.00     0.002 A 
ATOM      3  C5  UNL d   1      -5.661   0.101   4.948  0.00  0.00     0.002 A 
ATOM      4  C6  UNL d   1      -5.889   0.987   5.999  0.00  0.00    -0.004 A 
ATOM      5  C7  UNL d   1      -5.322   2.259   5.970  0.00  0.00     0.002 A 
ATOM      6  C8  UNL d   1      -4.535   2.650   4.885  0.00  0.00     0.002 A 
ENDROOT
BRANCH   1   7
ATOM      7  C2  UNL d   1      -3.477   2.208   2.634  0.00  0.00     0.056 C 
BRANCH   7   8
ATOM      8  C1  UNL d   1      -2.339   1.244   2.283  0.00  0.00     0.007 C 
ATOM      9  C   UNL d   1      -1.043   1.953   1.914  0.00  0.00     0.009 C 
ENDBRANCH   7   8
ENDBRANCH   1   7
TORSDOF 2
ENDMDL
