MODEL 1
REMARK minimizedAffinity 0.19306618
REMARK minimizedRMSD -1
REMARK  2 active torsions:
REMARK  status: ('A' for Active; 'I' for Inactive)
REMARK    1  A    between atoms: C1_2  and  C2_3 
REMARK    2  A    between atoms: C2_3  and  C3_4 
ROOT
ATOM      1  C3  UNL d   1      -0.419   1.036   2.175  0.00  0.00    -0.075 A 
ATOM      2  C4  UNL d   1      -1.235   2.028   2.738  0.00  0.00     0.002 A 
ATOM      3  C5  UNL d   1      -2.575   1.764   3.026  0.00  0.00     0.002 A 
ATOM      4  C6  UNL d   1      -3.117   0.511   2.746  0.00  0.00    -0.004 A 
ATOM      5  C7  UNL d   1      -2.319  -0.476   2.172  0.00  0.00     0.002 A 
ATOM      6  C8  UNL d   1      -0.978  -0.216   1.887  0.00  0.00     0.002 A 
ENDROOT
BRANCH   1   7
ATOM      7  C2  UNL d   1       1.039   1.306   1.889  0.00  0.00     0.056 C 
BRANCH   7   8
ATOM      8  C1  UNL d   1       2.003   0.380   2.637  0.00  0.00     0.007 C 
ATOM      9  C   UNL d   1       1.740   0.324   4.136  0.00  0.00     0.009 C 
ENDBRANCH   7   8
ENDBRANCH   1   7
TORSDOF 2
ENDMDL
