MODEL 1
REMARK minimizedAffinity 9.8339529
REMARK minimizedRMSD -1
REMARK  2 active torsions:
REMARK  status: ('A' for Active; 'I' for Inactive)
REMARK    1  A    between atoms: C1_2  and  C2_3 
REMARK    2  A    between atoms: C2_3  and  C3_4 
ROOT
ATOM      1  C3  UNL d   1      -2.204  -2.407   0.802  0.00  0.00    -0.075 A 
ATOM      2  C4  UNL d   1      -3.341  -1.896   0.161  0.00  0.00     0.002 A 
ATOM      3  C5  UNL d   1      -4.155  -2.728  -0.608  0.00  0.00     0.002 A 
ATOM      4  C6  UNL d   1      -3.837  -4.077  -0.754  0.00  0.00    -0.004 A 
ATOM      5  C7  UNL d   1      -2.700  -4.591  -0.135  0.00  0.00     0.002 A 
ATOM      6  C8  UNL d   1      -1.886  -3.762   0.638  0.00  0.00     0.002 A 
ENDROOT
BRANCH   1   7
ATOM      7  C2  UNL d   1      -1.335  -1.517   1.659  0.00  0.00     0.056 C 
BRANCH   7   8
ATOM      8  C1  UNL d   1      -1.975  -0.169   2.007  0.00  0.00     0.007 C 
ATOM      9  C   UNL d   1      -0.960   0.956   2.161  0.00  0.00     0.009 C 
ENDBRANCH   7   8
ENDBRANCH   1   7
TORSDOF 2
ENDMDL
