MODEL 1
REMARK minimizedAffinity 5.71583223
REMARK minimizedRMSD -1
REMARK  2 active torsions:
REMARK  status: ('A' for Active; 'I' for Inactive)
REMARK    1  A    between atoms: C1_2  and  C2_3 
REMARK    2  A    between atoms: C2_3  and  C3_4 
ROOT
ATOM      1  C3  UNL d   1      -4.129   2.016   4.068  0.00  0.00    -0.075 A 
ATOM      2  C4  UNL d   1      -4.725   1.204   5.044  0.00  0.00     0.002 A 
ATOM      3  C5  UNL d   1      -5.579   1.756   5.999  0.00  0.00     0.002 A 
ATOM      4  C6  UNL d   1      -5.841   3.124   5.997  0.00  0.00    -0.004 A 
ATOM      5  C7  UNL d   1      -5.241   3.943   5.042  0.00  0.00     0.002 A 
ATOM      6  C8  UNL d   1      -4.389   3.393   4.082  0.00  0.00     0.002 A 
ENDROOT
BRANCH   1   7
ATOM      7  C2  UNL d   1      -3.226   1.420   3.014  0.00  0.00     0.056 C 
BRANCH   7   8
ATOM      8  C1  UNL d   1      -2.251   2.423   2.389  0.00  0.00     0.007 C 
ATOM      9  C   UNL d   1      -0.964   1.779   1.892  0.00  0.00     0.009 C 
ENDBRANCH   7   8
ENDBRANCH   1   7
TORSDOF 2
ENDMDL
