MODEL 1
REMARK minimizedAffinity 0.51251626
REMARK minimizedRMSD -1
REMARK  2 active torsions:
REMARK  status: ('A' for Active; 'I' for Inactive)
REMARK    1  A    between atoms: C1_2  and  C2_3 
REMARK    2  A    between atoms: C2_3  and  C3_4 
ROOT
ATOM      1  C3  UNL d   1      -4.096  -2.800  -3.436  0.00  0.00    -0.075 A 
ATOM      2  C4  UNL d   1      -5.357  -3.278  -3.822  0.00  0.00     0.002 A 
ATOM      3  C5  UNL d   1      -5.551  -3.814  -5.096  0.00  0.00     0.002 A 
ATOM      4  C6  UNL d   1      -4.493  -3.871  -6.000  0.00  0.00    -0.004 A 
ATOM      5  C7  UNL d   1      -3.240  -3.384  -5.632  0.00  0.00     0.002 A 
ATOM      6  C8  UNL d   1      -3.042  -2.851  -4.358  0.00  0.00     0.002 A 
ENDROOT
BRANCH   1   7
ATOM      7  C2  UNL d   1      -3.872  -2.245  -2.049  0.00  0.00     0.056 C 
BRANCH   7   8
ATOM      8  C1  UNL d   1      -3.970  -3.292  -0.935  0.00  0.00     0.007 C 
ATOM      9  C   UNL d   1      -3.082  -4.506  -1.172  0.00  0.00     0.009 C 
ENDBRANCH   7   8
ENDBRANCH   1   7
TORSDOF 2
ENDMDL
