MODEL 1
REMARK minimizedAffinity -2.70836639
REMARK minimizedRMSD -1
REMARK  0 active torsions:
REMARK  status: ('A' for Active; 'I' for Inactive)
ROOT
ATOM      1  C   UNL d   1       1.057  -1.181  -0.941  0.00  0.00     0.023 A 
ATOM      2  C1  UNL d   1       1.833  -0.812   0.158  0.00  0.00     0.003 A 
ATOM      3  C2  UNL d   1       1.284  -0.016   1.166  0.00  0.00     0.048 A 
ATOM      4  C3  UNL d   1      -0.041   0.407   1.068  0.00  0.00     0.023 A 
ATOM      5  C4  UNL d   1      -0.821   0.039  -0.029  0.00  0.00     0.048 A 
ATOM      6  C5  UNL d   1      -0.268  -0.756  -1.035  0.00  0.00     0.003 A 
ATOM      7  I   UNL d   1      -0.860   1.591   2.567  0.00  0.00    -0.146 I 
ENDROOT
TORSDOF 0
ENDMDL
