MODEL 1
REMARK minimizedAffinity -2.79886079
REMARK minimizedRMSD -1
REMARK  0 active torsions:
REMARK  status: ('A' for Active; 'I' for Inactive)
ROOT
ATOM      1  C   UNL d   1       1.143  -1.226  -0.658  0.00  0.00     0.023 A 
ATOM      2  C1  UNL d   1       1.909  -0.953   0.475  0.00  0.00     0.003 A 
ATOM      3  C2  UNL d   1       1.420  -0.090   1.458  0.00  0.00     0.048 A 
ATOM      4  C3  UNL d   1       0.164   0.495   1.302  0.00  0.00     0.023 A 
ATOM      5  C4  UNL d   1      -0.606   0.224   0.170  0.00  0.00     0.048 A 
ATOM      6  C5  UNL d   1      -0.113  -0.639  -0.810  0.00  0.00     0.003 A 
ATOM      7  I   UNL d   1      -0.566   1.780   2.764  0.00  0.00    -0.146 I 
ENDROOT
TORSDOF 0
ENDMDL
