MODEL 1
REMARK minimizedAffinity -2.65987873
REMARK minimizedRMSD -1
REMARK  0 active torsions:
REMARK  status: ('A' for Active; 'I' for Inactive)
ROOT
ATOM      1  C   UNL d   1      -1.451   0.374   2.060  0.00  0.00     0.023 A 
ATOM      2  C1  UNL d   1      -0.380   1.250   1.884  0.00  0.00     0.003 A 
ATOM      3  C2  UNL d   1       0.324   1.261   0.678  0.00  0.00     0.048 A 
ATOM      4  C3  UNL d   1      -0.049   0.394  -0.348  0.00  0.00     0.023 A 
ATOM      5  C4  UNL d   1      -1.121  -0.483  -0.178  0.00  0.00     0.048 A 
ATOM      6  C5  UNL d   1      -1.821  -0.492   1.030  0.00  0.00     0.003 A 
ATOM      7  I   UNL d   1       0.998   0.409  -2.144  0.00  0.00    -0.146 I 
ENDROOT
TORSDOF 0
ENDMDL
