MODEL 1
REMARK minimizedAffinity -3.40938568
REMARK minimizedRMSD -1
REMARK  0 active torsions:
REMARK  status: ('A' for Active; 'I' for Inactive)
ROOT
ATOM      1  C   UNL d   1      -2.408   0.315   0.291  0.00  0.00     0.023 A 
ATOM      2  C1  UNL d   1      -2.015   0.876   1.506  0.00  0.00     0.003 A 
ATOM      3  C2  UNL d   1      -0.677   0.819   1.903  0.00  0.00     0.048 A 
ATOM      4  C3  UNL d   1       0.262   0.200   1.079  0.00  0.00     0.023 A 
ATOM      5  C4  UNL d   1      -0.126  -0.362  -0.138  0.00  0.00     0.048 A 
ATOM      6  C5  UNL d   1      -1.465  -0.303  -0.530  0.00  0.00     0.003 A 
ATOM      7  I   UNL d   1       2.254   0.113   1.668  0.00  0.00    -0.146 I 
ENDROOT
TORSDOF 0
ENDMDL
