MODEL 1
REMARK minimizedAffinity -3.22860003
REMARK minimizedRMSD -1
REMARK  0 active torsions:
REMARK  status: ('A' for Active; 'I' for Inactive)
ROOT
ATOM      1  C   UNL d   1       0.144  -0.710   0.606  0.00  0.00     0.023 A 
ATOM      2  C1  UNL d   1       1.324  -1.195   0.041  0.00  0.00     0.003 A 
ATOM      3  C2  UNL d   1       1.629  -0.914  -1.292  0.00  0.00     0.048 A 
ATOM      4  C3  UNL d   1       0.751  -0.145  -2.055  0.00  0.00     0.023 A 
ATOM      5  C4  UNL d   1      -0.431   0.344  -1.494  0.00  0.00     0.048 A 
ATOM      6  C5  UNL d   1      -0.732   0.058  -0.161  0.00  0.00     0.003 A 
ATOM      7  I   UNL d   1       1.203   0.276  -4.039  0.00  0.00    -0.146 I 
ENDROOT
TORSDOF 0
ENDMDL
