MODEL 1
REMARK minimizedAffinity -3.26179147
REMARK minimizedRMSD -1
REMARK  0 active torsions:
REMARK  status: ('A' for Active; 'I' for Inactive)
ROOT
ATOM      1  C   UNL d   1      -1.477   1.435   2.617  0.00  0.00     0.023 A 
ATOM      2  C1  UNL d   1      -2.189   0.647   1.713  0.00  0.00     0.003 A 
ATOM      3  C2  UNL d   1      -1.535   0.068   0.623  0.00  0.00     0.048 A 
ATOM      4  C3  UNL d   1      -0.168   0.280   0.445  0.00  0.00     0.023 A 
ATOM      5  C4  UNL d   1       0.548   1.066   1.348  0.00  0.00     0.048 A 
ATOM      6  C5  UNL d   1      -0.110   1.644   2.435  0.00  0.00     0.003 A 
ATOM      7  I   UNL d   1       0.808  -0.582  -1.175  0.00  0.00    -0.146 I 
ENDROOT
TORSDOF 0
ENDMDL
