MODEL 1
REMARK minimizedAffinity -3.00431132
REMARK minimizedRMSD -1
REMARK  0 active torsions:
REMARK  status: ('A' for Active; 'I' for Inactive)
ROOT
ATOM      1  C   UNL d   1      -0.997   0.569   2.486  0.00  0.00     0.023 A 
ATOM      2  C1  UNL d   1      -1.684  -0.095   1.470  0.00  0.00     0.003 A 
ATOM      3  C2  UNL d   1      -1.157  -0.132   0.178  0.00  0.00     0.048 A 
ATOM      4  C3  UNL d   1       0.059   0.495  -0.091  0.00  0.00     0.023 A 
ATOM      5  C4  UNL d   1       0.751   1.160   0.923  0.00  0.00     0.048 A 
ATOM      6  C5  UNL d   1       0.219   1.195   2.213  0.00  0.00     0.003 A 
ATOM      7  I   UNL d   1       0.847   0.441  -2.014  0.00  0.00    -0.146 I 
ENDROOT
TORSDOF 0
ENDMDL
