MODEL 1
REMARK minimizedAffinity -2.50352621
REMARK minimizedRMSD -1
REMARK  0 active torsions:
REMARK  status: ('A' for Active; 'I' for Inactive)
ROOT
ATOM      1  C   UNL d   1      -2.168  -0.136   1.018  0.00  0.00     0.023 A 
ATOM      2  C1  UNL d   1      -1.468  -0.032   2.220  0.00  0.00     0.003 A 
ATOM      3  C2  UNL d   1      -0.128  -0.420   2.284  0.00  0.00     0.048 A 
ATOM      4  C3  UNL d   1       0.505  -0.911   1.143  0.00  0.00     0.023 A 
ATOM      5  C4  UNL d   1      -0.191  -1.016  -0.062  0.00  0.00     0.048 A 
ATOM      6  C5  UNL d   1      -1.531  -0.628  -0.121  0.00  0.00     0.003 A 
ATOM      7  I   UNL d   1       2.499  -1.490   1.237  0.00  0.00    -0.146 I 
ENDROOT
TORSDOF 0
ENDMDL
