MODEL 1
REMARK minimizedAffinity 14.4379082
REMARK minimizedRMSD -1
REMARK  0 active torsions:
REMARK  status: ('A' for Active; 'I' for Inactive)
ROOT
ATOM      1  C   UNL d   1       1.052  -1.143   3.574  0.00  0.00    -0.002 A 
ATOM      2  C1  UNL d   1       0.299  -0.759   2.473  0.00  0.00     0.010 A 
ATOM      3  C2  UNL d   1      -0.322   0.491   2.438  0.00  0.00     0.041 A 
ATOM      4  C3  UNL d   1      -0.169   1.359   3.538  0.00  0.00    -0.075 A 
ATOM      5  S   UNL d   1      -0.836   2.939   3.716  0.00  0.00     0.015 SA
ATOM      6  C4  UNL d   1      -0.137   3.141   5.257  0.00  0.00     0.022 A 
ATOM      7  C5  UNL d   1       0.591   2.040   5.642  0.00  0.00     0.026 A 
ATOM      8  C6  UNL d   1       0.585   0.995   4.657  0.00  0.00    -0.082 A 
ATOM      9  C7  UNL d   1       1.201  -0.280   4.663  0.00  0.00     0.045 A 
ENDROOT
TORSDOF 0
ENDMDL
