MODEL 1
REMARK minimizedAffinity 22.809309
REMARK minimizedRMSD -1
REMARK  0 active torsions:
REMARK  status: ('A' for Active; 'I' for Inactive)
ROOT
ATOM      1  C   UNL d   1      -1.875  -2.175  -2.239  0.00  0.00    -0.002 A 
ATOM      2  C1  UNL d   1      -2.110  -3.338  -1.520  0.00  0.00     0.010 A 
ATOM      3  C2  UNL d   1      -2.219  -4.567  -2.173  0.00  0.00     0.041 A 
ATOM      4  C3  UNL d   1      -2.086  -4.608  -3.575  0.00  0.00    -0.075 A 
ATOM      5  S   UNL d   1      -2.182  -6.000  -4.588  0.00  0.00     0.015 SA
ATOM      6  C4  UNL d   1      -1.913  -5.083  -6.000  0.00  0.00     0.022 A 
ATOM      7  C5  UNL d   1      -1.752  -3.746  -5.723  0.00  0.00     0.026 A 
ATOM      8  C6  UNL d   1      -1.849  -3.450  -4.321  0.00  0.00    -0.082 A 
ATOM      9  C7  UNL d   1      -1.744  -2.219  -3.630  0.00  0.00     0.045 A 
ENDROOT
TORSDOF 0
ENDMDL
