MODEL 1
REMARK minimizedAffinity 27.8911247
REMARK minimizedRMSD -1
REMARK  0 active torsions:
REMARK  status: ('A' for Active; 'I' for Inactive)
ROOT
ATOM      1  C   UNL d   1       1.445  -0.502  -4.769  0.00  0.00    -0.002 A 
ATOM      2  C1  UNL d   1       0.074  -0.283  -4.779  0.00  0.00     0.010 A 
ATOM      3  C2  UNL d   1      -0.814  -1.350  -4.934  0.00  0.00     0.041 A 
ATOM      4  C3  UNL d   1      -0.296  -2.652  -5.078  0.00  0.00    -0.075 A 
ATOM      5  S   UNL d   1      -1.193  -4.110  -5.279  0.00  0.00     0.015 SA
ATOM      6  C4  UNL d   1       0.221  -5.058  -5.356  0.00  0.00     0.022 A 
ATOM      7  C5  UNL d   1       1.359  -4.296  -5.233  0.00  0.00     0.026 A 
ATOM      8  C6  UNL d   1       1.080  -2.897  -5.070  0.00  0.00    -0.082 A 
ATOM      9  C7  UNL d   1       1.954  -1.795  -4.912  0.00  0.00     0.045 A 
ENDROOT
TORSDOF 0
ENDMDL
