MODEL 1
REMARK minimizedAffinity 19.6413002
REMARK minimizedRMSD -1
REMARK  0 active torsions:
REMARK  status: ('A' for Active; 'I' for Inactive)
ROOT
ATOM      1  C   UNL d   1       0.839  -0.262   2.276  0.00  0.00    -0.002 A 
ATOM      2  C1  UNL d   1       0.382   1.002   2.621  0.00  0.00     0.010 A 
ATOM      3  C2  UNL d   1      -0.900   1.417   2.257  0.00  0.00     0.041 A 
ATOM      4  C3  UNL d   1      -1.725   0.531   1.536  0.00  0.00    -0.075 A 
ATOM      5  S   UNL d   1      -3.332   0.823   0.985  0.00  0.00     0.015 SA
ATOM      6  C4  UNL d   1      -3.451  -0.724   0.280  0.00  0.00     0.022 A 
ATOM      7  C5  UNL d   1      -2.301  -1.458   0.451  0.00  0.00     0.026 A 
ATOM      8  C6  UNL d   1      -1.288  -0.747   1.179  0.00  0.00    -0.082 A 
ATOM      9  C7  UNL d   1       0.018  -1.138   1.561  0.00  0.00     0.045 A 
ENDROOT
TORSDOF 0
ENDMDL
