MODEL 1
REMARK minimizedAffinity 16.9525471
REMARK minimizedRMSD -1
REMARK  0 active torsions:
REMARK  status: ('A' for Active; 'I' for Inactive)
ROOT
ATOM      1  C   UNL d   1      -5.985   5.753  -2.230  0.00  0.00    -0.002 A 
ATOM      2  C1  UNL d   1      -5.996   5.922  -0.853  0.00  0.00     0.010 A 
ATOM      3  C2  UNL d   1      -5.998   4.815  -0.001  0.00  0.00     0.041 A 
ATOM      4  C3  UNL d   1      -5.987   3.523  -0.563  0.00  0.00    -0.075 A 
ATOM      5  S   UNL d   1      -5.987   2.022   0.284  0.00  0.00     0.015 SA
ATOM      6  C4  UNL d   1      -5.971   1.120  -1.162  0.00  0.00     0.022 A 
ATOM      7  C5  UNL d   1      -5.966   1.929  -2.274  0.00  0.00     0.026 A 
ATOM      8  C6  UNL d   1      -5.975   3.328  -1.947  0.00  0.00    -0.082 A 
ATOM      9  C7  UNL d   1      -5.974   4.470  -2.783  0.00  0.00     0.045 A 
ENDROOT
TORSDOF 0
ENDMDL
