MODEL 1
REMARK minimizedAffinity 24.4007454
REMARK minimizedRMSD -1
REMARK  0 active torsions:
REMARK  status: ('A' for Active; 'I' for Inactive)
ROOT
ATOM      1  C   UNL d   1       1.273  -1.582   2.165  0.00  0.00    -0.002 A 
ATOM      2  C1  UNL d   1       1.908  -1.275   3.360  0.00  0.00     0.010 A 
ATOM      3  C2  UNL d   1       1.608  -0.093   4.041  0.00  0.00     0.041 A 
ATOM      4  C3  UNL d   1       0.647   0.781   3.497  0.00  0.00    -0.075 A 
ATOM      5  S   UNL d   1       0.118   2.284   4.156  0.00  0.00     0.015 SA
ATOM      6  C4  UNL d   1      -0.965   2.553   2.868  0.00  0.00     0.022 A 
ATOM      7  C5  UNL d   1      -0.936   1.531   1.948  0.00  0.00     0.026 A 
ATOM      8  C6  UNL d   1      -0.007   0.493   2.296  0.00  0.00    -0.082 A 
ATOM      9  C7  UNL d   1       0.320  -0.712   1.629  0.00  0.00     0.045 A 
ENDROOT
TORSDOF 0
ENDMDL
