MODEL 1
REMARK minimizedAffinity 18.6714287
REMARK minimizedRMSD -1
REMARK  0 active torsions:
REMARK  status: ('A' for Active; 'I' for Inactive)
ROOT
ATOM      1  C   UNL d   1       2.184  -0.410   4.848  0.00  0.00    -0.002 A 
ATOM      2  C1  UNL d   1       1.850  -1.718   4.526  0.00  0.00     0.010 A 
ATOM      3  C2  UNL d   1       0.852  -1.984   3.586  0.00  0.00     0.041 A 
ATOM      4  C3  UNL d   1       0.191  -0.904   2.969  0.00  0.00    -0.075 A 
ATOM      5  S   UNL d   1      -1.063  -0.990   1.788  0.00  0.00     0.015 SA
ATOM      6  C4  UNL d   1      -1.183   0.707   1.684  0.00  0.00     0.022 A 
ATOM      7  C5  UNL d   1      -0.296   1.339   2.523  0.00  0.00     0.026 A 
ATOM      8  C6  UNL d   1       0.511   0.421   3.277  0.00  0.00    -0.082 A 
ATOM      9  C7  UNL d   1       1.526   0.659   4.234  0.00  0.00     0.045 A 
ENDROOT
TORSDOF 0
ENDMDL
