MODEL 1
REMARK minimizedAffinity -1.27772808
REMARK minimizedRMSD -1
REMARK  0 active torsions:
REMARK  status: ('A' for Active; 'I' for Inactive)
ROOT
ATOM      1  C   UNL d   1      -2.041  -4.883  -3.886  0.00  0.00     0.078 C 
ATOM      2  C1  UNL d   1      -3.355  -4.876  -4.608  0.00  0.00    -0.077 A 
ATOM      3  C2  UNL d   1      -3.770  -3.757  -5.340  0.00  0.00    -0.001 A 
ATOM      4  C3  UNL d   1      -5.001  -3.762  -5.999  0.00  0.00     0.003 A 
ATOM      5  C4  UNL d   1      -5.826  -4.883  -5.931  0.00  0.00    -0.005 A 
ATOM      6  C5  UNL d   1      -5.422  -6.000  -5.204  0.00  0.00     0.003 A 
ATOM      7  C6  UNL d   1      -4.192  -5.997  -4.544  0.00  0.00    -0.001 A 
ENDROOT
TORSDOF 0
ENDMDL
