MODEL 1
REMARK minimizedAffinity 3.40579557
REMARK minimizedRMSD -1
REMARK  0 active torsions:
REMARK  status: ('A' for Active; 'I' for Inactive)
ROOT
ATOM      1  C   UNL d   1       1.816  -4.105  -4.459  0.00  0.00     0.078 C 
ATOM      2  C1  UNL d   1       1.778  -4.152  -2.961  0.00  0.00    -0.077 A 
ATOM      3  C2  UNL d   1       0.567  -4.051  -2.266  0.00  0.00    -0.001 A 
ATOM      4  C3  UNL d   1       0.548  -4.086  -0.871  0.00  0.00     0.003 A 
ATOM      5  C4  UNL d   1       1.738  -4.221  -0.159  0.00  0.00    -0.005 A 
ATOM      6  C5  UNL d   1       2.949  -4.319  -0.841  0.00  0.00     0.003 A 
ATOM      7  C6  UNL d   1       2.969  -4.284  -2.236  0.00  0.00    -0.001 A 
ENDROOT
TORSDOF 0
ENDMDL
