MODEL 1
REMARK minimizedAffinity 9.63479805
REMARK minimizedRMSD -1
REMARK  0 active torsions:
REMARK  status: ('A' for Active; 'I' for Inactive)
ROOT
ATOM      1  C   UNL d   1       4.123   5.996  -0.386  0.00  0.00     0.078 C 
ATOM      2  C1  UNL d   1       3.176   5.175  -1.209  0.00  0.00    -0.077 A 
ATOM      3  C2  UNL d   1       2.984   5.441  -2.570  0.00  0.00    -0.001 A 
ATOM      4  C3  UNL d   1       2.092   4.675  -3.321  0.00  0.00     0.003 A 
ATOM      5  C4  UNL d   1       1.382   3.637  -2.719  0.00  0.00    -0.005 A 
ATOM      6  C5  UNL d   1       1.564   3.366  -1.364  0.00  0.00     0.003 A 
ATOM      7  C6  UNL d   1       2.457   4.131  -0.612  0.00  0.00    -0.001 A 
ENDROOT
TORSDOF 0
ENDMDL
