MODEL 1
REMARK minimizedAffinity 8.72387695
REMARK minimizedRMSD -1
REMARK  0 active torsions:
REMARK  status: ('A' for Active; 'I' for Inactive)
ROOT
ATOM      1  C   UNL d   1       1.269   4.115  -2.295  0.00  0.00     0.078 C 
ATOM      2  C1  UNL d   1       0.536   3.454  -1.166  0.00  0.00    -0.077 A 
ATOM      3  C2  UNL d   1      -0.804   3.759  -0.900  0.00  0.00    -0.001 A 
ATOM      4  C3  UNL d   1      -1.471   3.143   0.161  0.00  0.00     0.003 A 
ATOM      5  C4  UNL d   1      -0.805   2.220   0.965  0.00  0.00    -0.005 A 
ATOM      6  C5  UNL d   1       0.530   1.912   0.709  0.00  0.00     0.003 A 
ATOM      7  C6  UNL d   1       1.198   2.527  -0.351  0.00  0.00    -0.001 A 
ENDROOT
TORSDOF 0
ENDMDL
