MODEL 1
REMARK minimizedAffinity 10.1101465
REMARK minimizedRMSD -1
REMARK  0 active torsions:
REMARK  status: ('A' for Active; 'I' for Inactive)
ROOT
ATOM      1  C   UNL d   1       2.015   4.536  -1.806  0.00  0.00     0.078 C 
ATOM      2  C1  UNL d   1       1.058   3.718  -0.991  0.00  0.00    -0.077 A 
ATOM      3  C2  UNL d   1      -0.319   3.758  -1.240  0.00  0.00    -0.001 A 
ATOM      4  C3  UNL d   1      -1.199   2.998  -0.467  0.00  0.00     0.003 A 
ATOM      5  C4  UNL d   1      -0.711   2.194   0.561  0.00  0.00    -0.005 A 
ATOM      6  C5  UNL d   1       0.658   2.150   0.819  0.00  0.00     0.003 A 
ATOM      7  C6  UNL d   1       1.539   2.909   0.047  0.00  0.00    -0.001 A 
ENDROOT
TORSDOF 0
ENDMDL
