MODEL 1
REMARK minimizedAffinity 8.94450188
REMARK minimizedRMSD -1
REMARK  0 active torsions:
REMARK  status: ('A' for Active; 'I' for Inactive)
ROOT
ATOM      1  C   UNL d   1      -4.811   1.349  -5.887  0.00  0.00     0.078 C 
ATOM      2  C1  UNL d   1      -4.467   2.306  -4.785  0.00  0.00    -0.077 A 
ATOM      3  C2  UNL d   1      -4.908   2.086  -3.474  0.00  0.00    -0.001 A 
ATOM      4  C3  UNL d   1      -4.588   2.990  -2.460  0.00  0.00     0.003 A 
ATOM      5  C4  UNL d   1      -3.826   4.122  -2.747  0.00  0.00    -0.005 A 
ATOM      6  C5  UNL d   1      -3.385   4.350  -4.048  0.00  0.00     0.003 A 
ATOM      7  C6  UNL d   1      -3.704   3.447  -5.064  0.00  0.00    -0.001 A 
ENDROOT
TORSDOF 0
ENDMDL
