MODEL 1
REMARK minimizedAffinity 8.62820625
REMARK minimizedRMSD -1
REMARK  0 active torsions:
REMARK  status: ('A' for Active; 'I' for Inactive)
ROOT
ATOM      1  C   UNL d   1       0.423  -4.023  -1.762  0.00  0.00     0.078 C 
ATOM      2  C1  UNL d   1       1.326  -3.176  -0.916  0.00  0.00    -0.077 A 
ATOM      3  C2  UNL d   1       1.773  -1.928  -1.364  0.00  0.00    -0.001 A 
ATOM      4  C3  UNL d   1       2.622  -1.155  -0.570  0.00  0.00     0.003 A 
ATOM      5  C4  UNL d   1       3.032  -1.622   0.677  0.00  0.00    -0.005 A 
ATOM      6  C5  UNL d   1       2.594  -2.865   1.131  0.00  0.00     0.003 A 
ATOM      7  C6  UNL d   1       1.745  -3.639   0.338  0.00  0.00    -0.001 A 
ENDROOT
TORSDOF 0
ENDMDL
