MODEL 1
REMARK minimizedAffinity 13.1862659
REMARK minimizedRMSD -1
REMARK  0 active torsions:
REMARK  status: ('A' for Active; 'I' for Inactive)
ROOT
ATOM      1  C   UNL d   1       2.831  -2.011  -0.038  0.00  0.00     0.078 C 
ATOM      2  C1  UNL d   1       2.305  -3.367  -0.401  0.00  0.00    -0.077 A 
ATOM      3  C2  UNL d   1       3.164  -4.468  -0.511  0.00  0.00    -0.001 A 
ATOM      4  C3  UNL d   1       2.663  -5.723  -0.860  0.00  0.00     0.003 A 
ATOM      5  C4  UNL d   1       1.301  -5.889  -1.103  0.00  0.00    -0.005 A 
ATOM      6  C5  UNL d   1       0.439  -4.799  -0.998  0.00  0.00     0.003 A 
ATOM      7  C6  UNL d   1       0.938  -3.544  -0.649  0.00  0.00    -0.001 A 
ENDROOT
TORSDOF 0
ENDMDL
