MODEL 1
REMARK minimizedAffinity 13.0427828
REMARK minimizedRMSD -1
REMARK  1 active torsions:
REMARK  status: ('A' for Active; 'I' for Inactive)
REMARK    1  A    between atoms: C1_2  and  C2_3 
ROOT
ATOM      1  C2  UNL d   1      -0.697  -1.132  -1.490  0.00  0.00    -0.073 A 
ATOM      2  C3  UNL d   1      -1.025  -1.193  -2.849  0.00  0.00    -0.002 A 
ATOM      3  C4  UNL d   1      -0.204  -0.585  -3.801  0.00  0.00     0.004 A 
ATOM      4  C5  UNL d   1       0.955   0.082  -3.405  0.00  0.00    -0.004 A 
ATOM      5  C6  UNL d   1       1.306   0.144  -2.052  0.00  0.00    -0.075 A 
ATOM      6  C7  UNL d   1       2.548   0.860  -1.610  0.00  0.00     0.076 C 
ATOM      7  C8  UNL d   1       0.475  -0.466  -1.103  0.00  0.00     0.001 A 
ENDROOT
BRANCH   1   8
ATOM      8  C1  UNL d   1      -1.576  -1.791  -0.460  0.00  0.00     0.053 C 
ATOM      9  C   UNL d   1      -0.854  -2.909   0.275  0.00  0.00     0.018 C 
ENDBRANCH   1   8
TORSDOF 1
ENDMDL
