MODEL 1
REMARK minimizedAffinity 16.2662849
REMARK minimizedRMSD -1
REMARK  1 active torsions:
REMARK  status: ('A' for Active; 'I' for Inactive)
REMARK    1  A    between atoms: C1_2  and  C2_3 
ROOT
ATOM      1  C2  UNL d   1       1.373  -0.322  -2.144  0.00  0.00    -0.073 A 
ATOM      2  C3  UNL d   1       1.081  -0.533  -3.496  0.00  0.00    -0.002 A 
ATOM      3  C4  UNL d   1       0.021  -1.362  -3.867  0.00  0.00     0.004 A 
ATOM      4  C5  UNL d   1      -0.761  -1.981  -2.892  0.00  0.00    -0.004 A 
ATOM      5  C6  UNL d   1      -0.492  -1.773  -1.535  0.00  0.00    -0.075 A 
ATOM      6  C7  UNL d   1      -1.321  -2.434  -0.474  0.00  0.00     0.076 C 
ATOM      7  C8  UNL d   1       0.576  -0.942  -1.171  0.00  0.00     0.001 A 
ENDROOT
BRANCH   1   8
ATOM      8  C1  UNL d   1       2.513   0.577  -1.739  0.00  0.00     0.053 C 
ATOM      9  C   UNL d   1       2.182   1.393  -0.499  0.00  0.00     0.018 C 
ENDBRANCH   1   8
TORSDOF 1
ENDMDL
