MODEL 1
REMARK minimizedAffinity 6.8224225
REMARK minimizedRMSD -1
REMARK  1 active torsions:
REMARK  status: ('A' for Active; 'I' for Inactive)
REMARK    1  A    between atoms: C1_2  and  C2_3 
ROOT
ATOM      1  C2  UNL d   1       1.203  -0.294  -2.151  0.00  0.00    -0.073 A 
ATOM      2  C3  UNL d   1       0.949  -0.583  -3.497  0.00  0.00    -0.002 A 
ATOM      3  C4  UNL d   1      -0.262  -1.164  -3.876  0.00  0.00     0.004 A 
ATOM      4  C5  UNL d   1      -1.232  -1.454  -2.917  0.00  0.00    -0.004 A 
ATOM      5  C6  UNL d   1      -1.001  -1.162  -1.569  0.00  0.00    -0.075 A 
ATOM      6  C7  UNL d   1      -2.034  -1.471  -0.524  0.00  0.00     0.076 C 
ATOM      7  C8  UNL d   1       0.218  -0.582  -1.195  0.00  0.00     0.001 A 
ENDROOT
BRANCH   1   8
ATOM      8  C1  UNL d   1       2.507   0.339  -1.737  0.00  0.00     0.053 C 
ATOM      9  C   UNL d   1       3.694  -0.277  -2.460  0.00  0.00     0.018 C 
ENDBRANCH   1   8
TORSDOF 1
ENDMDL
