MODEL 1
REMARK minimizedAffinity 19.3346195
REMARK minimizedRMSD -1
REMARK  1 active torsions:
REMARK  status: ('A' for Active; 'I' for Inactive)
REMARK    1  A    between atoms: C1_2  and  C2_3 
ROOT
ATOM      1  C2  UNL d   1       3.103   2.120  -0.811  0.00  0.00    -0.073 A 
ATOM      2  C3  UNL d   1       3.203   1.265   0.293  0.00  0.00    -0.002 A 
ATOM      3  C4  UNL d   1       3.934   1.649   1.418  0.00  0.00     0.004 A 
ATOM      4  C5  UNL d   1       4.565   2.892   1.455  0.00  0.00    -0.004 A 
ATOM      5  C6  UNL d   1       4.467   3.766   0.367  0.00  0.00    -0.075 A 
ATOM      6  C7  UNL d   1       5.142   5.106   0.389  0.00  0.00     0.076 C 
ATOM      7  C8  UNL d   1       3.734   3.372  -0.761  0.00  0.00     0.001 A 
ENDROOT
BRANCH   1   8
ATOM      8  C1  UNL d   1       2.310   1.713  -2.026  0.00  0.00     0.053 C 
ATOM      9  C   UNL d   1       2.409   0.220  -2.297  0.00  0.00     0.018 C 
ENDBRANCH   1   8
TORSDOF 1
ENDMDL
