MODEL 1
REMARK minimizedAffinity 13.0651226
REMARK minimizedRMSD -1
REMARK  1 active torsions:
REMARK  status: ('A' for Active; 'I' for Inactive)
REMARK    1  A    between atoms: C1_2  and  C2_3 
ROOT
ATOM      1  C2  UNL d   1       0.382  -0.135  -1.807  0.00  0.00    -0.073 A 
ATOM      2  C3  UNL d   1      -0.110  -0.408  -3.088  0.00  0.00    -0.002 A 
ATOM      3  C4  UNL d   1      -1.392  -0.932  -3.254  0.00  0.00     0.004 A 
ATOM      4  C5  UNL d   1      -2.198  -1.181  -2.142  0.00  0.00    -0.004 A 
ATOM      5  C6  UNL d   1      -1.728  -0.904  -0.854  0.00  0.00    -0.075 A 
ATOM      6  C7  UNL d   1      -2.581  -1.169   0.351  0.00  0.00     0.076 C 
ATOM      7  C8  UNL d   1      -0.438  -0.380  -0.696  0.00  0.00     0.001 A 
ENDROOT
BRANCH   1   8
ATOM      8  C1  UNL d   1       1.764   0.437  -1.623  0.00  0.00     0.053 C 
ATOM      9  C   UNL d   1       1.753   1.957  -1.590  0.00  0.00     0.018 C 
ENDBRANCH   1   8
TORSDOF 1
ENDMDL
