MODEL 1
REMARK minimizedAffinity 5.69035101
REMARK minimizedRMSD -1
REMARK  1 active torsions:
REMARK  status: ('A' for Active; 'I' for Inactive)
REMARK    1  A    between atoms: C1_2  and  C2_3 
ROOT
ATOM      1  C2  UNL d   1      -1.706  -1.952   1.591  0.00  0.00    -0.073 A 
ATOM      2  C3  UNL d   1      -0.795  -3.009   1.484  0.00  0.00    -0.002 A 
ATOM      3  C4  UNL d   1      -0.402  -3.476   0.229  0.00  0.00     0.004 A 
ATOM      4  C5  UNL d   1      -0.910  -2.888  -0.930  0.00  0.00    -0.004 A 
ATOM      5  C6  UNL d   1      -1.813  -1.823  -0.843  0.00  0.00    -0.075 A 
ATOM      6  C7  UNL d   1      -2.370  -1.181  -2.079  0.00  0.00     0.076 C 
ATOM      7  C8  UNL d   1      -2.204  -1.361   0.421  0.00  0.00     0.001 A 
ENDROOT
BRANCH   1   8
ATOM      8  C1  UNL d   1      -2.129  -1.440   2.944  0.00  0.00     0.053 C 
ATOM      9  C   UNL d   1      -1.109  -1.770   4.022  0.00  0.00     0.018 C 
ENDBRANCH   1   8
TORSDOF 1
ENDMDL
