MODEL 1
REMARK minimizedAffinity 13.4323826
REMARK minimizedRMSD -1
REMARK  1 active torsions:
REMARK  status: ('A' for Active; 'I' for Inactive)
REMARK    1  A    between atoms: C1_2  and  C2_3 
ROOT
ATOM      1  C2  UNL d   1      -3.181   3.062  -4.618  0.00  0.00    -0.073 A 
ATOM      2  C3  UNL d   1      -3.842   2.023  -5.282  0.00  0.00    -0.002 A 
ATOM      3  C4  UNL d   1      -5.033   2.270  -5.966  0.00  0.00     0.004 A 
ATOM      4  C5  UNL d   1      -5.571   3.556  -5.998  0.00  0.00    -0.004 A 
ATOM      5  C6  UNL d   1      -4.919   4.610  -5.351  0.00  0.00    -0.075 A 
ATOM      6  C7  UNL d   1      -5.485   5.999  -5.374  0.00  0.00     0.076 C 
ATOM      7  C8  UNL d   1      -3.724   4.354  -4.664  0.00  0.00     0.001 A 
ENDROOT
BRANCH   1   8
ATOM      8  C1  UNL d   1      -1.890   2.803  -3.884  0.00  0.00     0.053 C 
ATOM      9  C   UNL d   1      -0.867   2.098  -4.761  0.00  0.00     0.018 C 
ENDBRANCH   1   8
TORSDOF 1
ENDMDL
