MODEL 1
REMARK minimizedAffinity 8.45211506
REMARK minimizedRMSD -1
REMARK  1 active torsions:
REMARK  status: ('A' for Active; 'I' for Inactive)
REMARK    1  A    between atoms: C1_2  and  C2_3 
ROOT
ATOM      1  C2  UNL d   1      -4.705   5.300  -1.049  0.00  0.00    -0.073 A 
ATOM      2  C3  UNL d   1      -5.394   5.996  -0.049  0.00  0.00    -0.002 A 
ATOM      3  C4  UNL d   1      -5.772   5.348   1.127  0.00  0.00     0.004 A 
ATOM      4  C5  UNL d   1      -5.461   4.002   1.319  0.00  0.00    -0.004 A 
ATOM      5  C6  UNL d   1      -4.763   3.293   0.336  0.00  0.00    -0.075 A 
ATOM      6  C7  UNL d   1      -4.422   1.843   0.525  0.00  0.00     0.076 C 
ATOM      7  C8  UNL d   1      -4.389   3.950  -0.844  0.00  0.00     0.001 A 
ENDROOT
BRANCH   1   8
ATOM      8  C1  UNL d   1      -4.288   5.998  -2.318  0.00  0.00     0.053 C 
ATOM      9  C   UNL d   1      -4.976   5.413  -3.542  0.00  0.00     0.018 C 
ENDBRANCH   1   8
TORSDOF 1
ENDMDL
