MODEL 1
REMARK minimizedAffinity 14.6818819
REMARK minimizedRMSD -1
REMARK  1 active torsions:
REMARK  status: ('A' for Active; 'I' for Inactive)
REMARK    1  A    between atoms: C1_2  and  C2_3 
ROOT
ATOM      1  C2  UNL d   1       2.260   1.403  -0.571  0.00  0.00    -0.073 A 
ATOM      2  C3  UNL d   1       2.956   1.496  -1.781  0.00  0.00    -0.002 A 
ATOM      3  C4  UNL d   1       2.634   0.653  -2.846  0.00  0.00     0.004 A 
ATOM      4  C5  UNL d   1       1.611  -0.285  -2.714  0.00  0.00    -0.004 A 
ATOM      5  C6  UNL d   1       0.895  -0.385  -1.517  0.00  0.00    -0.075 A 
ATOM      6  C7  UNL d   1      -0.207  -1.390  -1.358  0.00  0.00     0.076 C 
ATOM      7  C8  UNL d   1       1.226   0.463  -0.451  0.00  0.00     0.001 A 
ENDROOT
BRANCH   1   8
ATOM      8  C1  UNL d   1       2.599   2.315   0.579  0.00  0.00     0.053 C 
ATOM      9  C   UNL d   1       3.918   1.939   1.235  0.00  0.00     0.018 C 
ENDBRANCH   1   8
TORSDOF 1
ENDMDL
