MODEL 1
REMARK minimizedAffinity 15.5128889
REMARK minimizedRMSD -1
REMARK  1 active torsions:
REMARK  status: ('A' for Active; 'I' for Inactive)
REMARK    1  A    between atoms: C1_2  and  C2_3 
ROOT
ATOM      1  C2  UNL d   1       3.207   1.359  -1.166  0.00  0.00    -0.073 A 
ATOM      2  C3  UNL d   1       2.388   0.289  -1.547  0.00  0.00    -0.002 A 
ATOM      3  C4  UNL d   1       2.730  -0.505  -2.642  0.00  0.00     0.004 A 
ATOM      4  C5  UNL d   1       3.895  -0.244  -3.362  0.00  0.00    -0.004 A 
ATOM      5  C6  UNL d   1       4.733   0.813  -2.990  0.00  0.00    -0.075 A 
ATOM      6  C7  UNL d   1       5.989   1.109  -3.756  0.00  0.00     0.076 C 
ATOM      7  C8  UNL d   1       4.381   1.608  -1.891  0.00  0.00     0.001 A 
ENDROOT
BRANCH   1   8
ATOM      8  C1  UNL d   1       2.845   2.215   0.020  0.00  0.00     0.053 C 
ATOM      9  C   UNL d   1       4.036   3.007   0.536  0.00  0.00     0.018 C 
ENDBRANCH   1   8
TORSDOF 1
ENDMDL
