MODEL 1
REMARK minimizedAffinity 19.1362648
REMARK minimizedRMSD -1
REMARK  1 active torsions:
REMARK  status: ('A' for Active; 'I' for Inactive)
REMARK    1  A    between atoms: C1_2  and  C2_3 
ROOT
ATOM      1  C2  UNL d   1       2.761   0.561  -0.076  0.00  0.00    -0.073 A 
ATOM      2  C3  UNL d   1       2.708   1.959  -0.031  0.00  0.00    -0.002 A 
ATOM      3  C4  UNL d   1       3.325   2.655   1.009  0.00  0.00     0.004 A 
ATOM      4  C5  UNL d   1       4.006   1.962   2.010  0.00  0.00    -0.004 A 
ATOM      5  C6  UNL d   1       4.081   0.566   1.976  0.00  0.00    -0.075 A 
ATOM      6  C7  UNL d   1       4.808  -0.194   3.046  0.00  0.00     0.076 C 
ATOM      7  C8  UNL d   1       3.457  -0.126   0.930  0.00  0.00     0.001 A 
ENDROOT
BRANCH   1   8
ATOM      8  C1  UNL d   1       2.102  -0.195  -1.201  0.00  0.00     0.053 C 
ATOM      9  C   UNL d   1       2.363   0.452  -2.552  0.00  0.00     0.018 C 
ENDBRANCH   1   8
TORSDOF 1
ENDMDL
