MODEL 1
REMARK minimizedAffinity 17.6196327
REMARK minimizedRMSD -1
REMARK  1 active torsions:
REMARK  status: ('A' for Active; 'I' for Inactive)
REMARK    1  A    between atoms: C1_2  and  C2_3 
ROOT
ATOM      1  C2  UNL d   1       1.392   0.141  -2.048  0.00  0.00    -0.073 A 
ATOM      2  C3  UNL d   1       1.228  -0.377  -3.338  0.00  0.00    -0.002 A 
ATOM      3  C4  UNL d   1       0.154  -1.221  -3.627  0.00  0.00     0.004 A 
ATOM      4  C5  UNL d   1      -0.768  -1.549  -2.633  0.00  0.00    -0.004 A 
ATOM      5  C6  UNL d   1      -0.627  -1.031  -1.342  0.00  0.00    -0.075 A 
ATOM      6  C7  UNL d   1      -1.610  -1.376  -0.261  0.00  0.00     0.076 C 
ATOM      7  C8  UNL d   1       0.455  -0.187  -1.058  0.00  0.00     0.001 A 
ENDROOT
BRANCH   1   8
ATOM      8  C1  UNL d   1       2.546   1.057  -1.733  0.00  0.00     0.053 C 
ATOM      9  C   UNL d   1       2.115   2.249  -0.894  0.00  0.00     0.018 C 
ENDBRANCH   1   8
TORSDOF 1
ENDMDL
