MODEL 1
REMARK minimizedAffinity 3.66469812
REMARK minimizedRMSD -1
REMARK  2 active torsions:
REMARK  status: ('A' for Active; 'I' for Inactive)
REMARK    1  A    between atoms: C2'_3  and  C1'_4 
REMARK    2  A    between atoms: C1'_4  and  C1_5 
ROOT
ATOM      1  C1  I4B d   1       4.492  -1.087  -3.878  0.00  0.00    -0.075 A 
ATOM      2  C2  I4B d   1       3.774   0.047  -4.166  0.00  0.00     0.003 A 
ATOM      3  C3  I4B d   1       4.157   0.878  -5.247  0.00  0.00     0.002 A 
ATOM      4  C4  I4B d   1       5.286   0.567  -5.976  0.00  0.00    -0.004 A 
ATOM      5  C5  I4B d   1       6.000  -0.595  -5.697  0.00  0.00     0.002 A 
ATOM      6  C6  I4B d   1       5.593  -1.434  -4.650  0.00  0.00     0.003 A 
ENDROOT
BRANCH   1   7
ATOM      7  C1' I4B d   1       4.079  -1.924  -2.710  0.00  0.00     0.060 C 
BRANCH   7   8
ATOM      8  C2' I4B d   1       2.795  -2.639  -3.078  0.00  0.00    -0.013 C 
ATOM      9  C4' I4B d   1       2.664  -3.943  -2.336  0.00  0.00     0.013 C 
ATOM     10  C3' I4B d   1       1.649  -1.722  -2.768  0.00  0.00     0.013 C 
ENDBRANCH   7   8
ENDBRANCH   1   7
TORSDOF 2
ENDMDL
