MODEL 1
REMARK minimizedAffinity 3.46567535
REMARK minimizedRMSD -1
REMARK  2 active torsions:
REMARK  status: ('A' for Active; 'I' for Inactive)
REMARK    1  A    between atoms: C2'_3  and  C1'_4 
REMARK    2  A    between atoms: C1'_4  and  C1_5 
ROOT
ATOM      1  C1  I4B d   1      -5.039  -3.934  -2.978  0.00  0.00    -0.075 A 
ATOM      2  C2  I4B d   1      -4.568  -3.521  -1.756  0.00  0.00     0.003 A 
ATOM      3  C3  I4B d   1      -3.684  -4.344  -1.018  0.00  0.00     0.002 A 
ATOM      4  C4  I4B d   1      -3.340  -5.586  -1.511  0.00  0.00    -0.004 A 
ATOM      5  C5  I4B d   1      -3.801  -5.994  -2.759  0.00  0.00     0.002 A 
ATOM      6  C6  I4B d   1      -4.646  -5.158  -3.503  0.00  0.00     0.003 A 
ENDROOT
BRANCH   1   7
ATOM      7  C1' I4B d   1      -5.997  -3.054  -3.716  0.00  0.00     0.060 C 
BRANCH   7   8
ATOM      8  C2' I4B d   1      -5.700  -3.179  -5.196  0.00  0.00    -0.013 C 
ATOM      9  C4' I4B d   1      -4.315  -2.681  -5.519  0.00  0.00     0.013 C 
ATOM     10  C3' I4B d   1      -5.860  -4.620  -5.580  0.00  0.00     0.013 C 
ENDBRANCH   7   8
ENDBRANCH   1   7
TORSDOF 2
ENDMDL
