MODEL 1
REMARK minimizedAffinity 2.2620306
REMARK minimizedRMSD -1
REMARK  2 active torsions:
REMARK  status: ('A' for Active; 'I' for Inactive)
REMARK    1  A    between atoms: C2'_3  and  C1'_4 
REMARK    2  A    between atoms: C1'_4  and  C1_5 
ROOT
ATOM      1  C1  I4B d   1       3.500  -1.526  -3.768  0.00  0.00    -0.075 A 
ATOM      2  C2  I4B d   1       4.639  -1.899  -3.099  0.00  0.00     0.003 A 
ATOM      3  C3  I4B d   1       5.910  -1.500  -3.578  0.00  0.00     0.002 A 
ATOM      4  C4  I4B d   1       5.998  -0.777  -4.750  0.00  0.00    -0.004 A 
ATOM      5  C5  I4B d   1       4.841  -0.380  -5.414  0.00  0.00     0.002 A 
ATOM      6  C6  I4B d   1       3.583  -0.747  -4.914  0.00  0.00     0.003 A 
ENDROOT
BRANCH   1   7
ATOM      7  C1' I4B d   1       2.176  -1.993  -3.252  0.00  0.00     0.060 C 
BRANCH   7   8
ATOM      8  C2' I4B d   1       2.404  -3.269  -2.468  0.00  0.00    -0.013 C 
ATOM      9  C4' I4B d   1       1.115  -3.792  -1.890  0.00  0.00     0.013 C 
ATOM     10  C3' I4B d   1       3.031  -4.273  -3.389  0.00  0.00     0.013 C 
ENDBRANCH   7   8
ENDBRANCH   1   7
TORSDOF 2
ENDMDL
