MODEL 1
REMARK minimizedAffinity 11.3007345
REMARK minimizedRMSD -1
REMARK  2 active torsions:
REMARK  status: ('A' for Active; 'I' for Inactive)
REMARK    1  A    between atoms: C2'_3  and  C1'_4 
REMARK    2  A    between atoms: C1'_4  and  C1_5 
ROOT
ATOM      1  C1  I4B d   1       1.278   2.530   0.267  0.00  0.00    -0.075 A 
ATOM      2  C2  I4B d   1       2.132   3.414  -0.345  0.00  0.00     0.003 A 
ATOM      3  C3  I4B d   1       1.679   4.213  -1.422  0.00  0.00     0.002 A 
ATOM      4  C4  I4B d   1       0.387   4.062  -1.885  0.00  0.00    -0.004 A 
ATOM      5  C5  I4B d   1      -0.484   3.182  -1.249  0.00  0.00     0.002 A 
ATOM      6  C6  I4B d   1      -0.040   2.420  -0.158  0.00  0.00     0.003 A 
ENDROOT
BRANCH   1   7
ATOM      7  C1' I4B d   1       1.799   1.677   1.380  0.00  0.00     0.060 C 
BRANCH   7   8
ATOM      8  C2' I4B d   1       1.790   0.238   0.908  0.00  0.00    -0.013 C 
ATOM      9  C4' I4B d   1       3.096  -0.130   0.254  0.00  0.00     0.013 C 
ATOM     10  C3' I4B d   1       1.514  -0.637   2.095  0.00  0.00     0.013 C 
ENDBRANCH   7   8
ENDBRANCH   1   7
TORSDOF 2
ENDMDL
