MODEL 1
REMARK minimizedAffinity 4.79687881
REMARK minimizedRMSD -1
REMARK  2 active torsions:
REMARK  status: ('A' for Active; 'I' for Inactive)
REMARK    1  A    between atoms: C2'_3  and  C1'_4 
REMARK    2  A    between atoms: C1'_4  and  C1_5 
ROOT
ATOM      1  C1  I4B d   1       4.535  -0.716  -3.729  0.00  0.00    -0.075 A 
ATOM      2  C2  I4B d   1       5.605  -1.114  -4.491  0.00  0.00     0.003 A 
ATOM      3  C3  I4B d   1       5.998  -0.356  -5.620  0.00  0.00     0.002 A 
ATOM      4  C4  I4B d   1       5.266   0.757  -5.980  0.00  0.00    -0.004 A 
ATOM      5  C5  I4B d   1       4.195   1.172  -5.194  0.00  0.00     0.002 A 
ATOM      6  C6  I4B d   1       3.834   0.439  -4.054  0.00  0.00     0.003 A 
ENDROOT
BRANCH   1   7
ATOM      7  C1' I4B d   1       4.127  -1.558  -2.562  0.00  0.00     0.060 C 
BRANCH   7   8
ATOM      8  C2' I4B d   1       2.887  -2.333  -2.956  0.00  0.00    -0.013 C 
ATOM      9  C4' I4B d   1       3.065  -3.809  -2.712  0.00  0.00     0.013 C 
ATOM     10  C3' I4B d   1       1.731  -1.790  -2.170  0.00  0.00     0.013 C 
ENDBRANCH   7   8
ENDBRANCH   1   7
TORSDOF 2
ENDMDL
