MODEL 1
REMARK minimizedAffinity 0.829806805
REMARK minimizedRMSD -1
REMARK  0 active torsions:
REMARK  status: ('A' for Active; 'I' for Inactive)
ROOT
ATOM      1  N1  IND d   1      -0.669   0.816  -1.379  0.00  0.00    -0.196 N 
ATOM      2  C2  IND d   1       0.054   0.635  -0.233  0.00  0.00     0.054 A 
ATOM      3  C3  IND d   1       1.379   0.681  -0.501  0.00  0.00    -0.031 A 
ATOM      4  C4  IND d   1       2.581   1.143  -2.730  0.00  0.00     0.051 A 
ATOM      5  C5  IND d   1       2.344   1.332  -4.063  0.00  0.00    -0.031 A 
ATOM      6  C6  IND d   1       1.065   1.362  -4.579  0.00  0.00     0.015 A 
ATOM      7  C7  IND d   1      -0.031   1.214  -3.776  0.00  0.00    -0.016 A 
ATOM      8  C8  IND d   1       0.206   1.015  -2.423  0.00  0.00    -0.047 A 
ATOM      9  C9  IND d   1       1.503   0.941  -1.900  0.00  0.00    -0.096 A 
ATOM     10  HN1 IND d   1      -1.527   0.806  -1.437  0.00  0.00     0.298 HD
ENDROOT
TORSDOF 0
ENDMDL
