MODEL 1
REMARK minimizedAffinity -1.23637617
REMARK minimizedRMSD -1
REMARK  0 active torsions:
REMARK  status: ('A' for Active; 'I' for Inactive)
ROOT
ATOM      1  N1  IND d   1      -1.958   0.656   1.990  0.00  0.00    -0.196 N 
ATOM      2  C2  IND d   1      -1.008   1.073   2.880  0.00  0.00     0.054 A 
ATOM      3  C3  IND d   1       0.230   0.859   2.381  0.00  0.00    -0.031 A 
ATOM      4  C4  IND d   1       0.929  -0.068   0.083  0.00  0.00     0.051 A 
ATOM      5  C5  IND d   1       0.416  -0.618  -1.058  0.00  0.00    -0.031 A 
ATOM      6  C6  IND d   1      -0.942  -0.772  -1.246  0.00  0.00     0.015 A 
ATOM      7  C7  IND d   1      -1.843  -0.370  -0.301  0.00  0.00    -0.016 A 
ATOM      8  C8  IND d   1      -1.325   0.183   0.862  0.00  0.00    -0.047 A 
ATOM      9  C9  IND d   1       0.054   0.303   1.077  0.00  0.00    -0.096 A 
ATOM     10  HN1 IND d   1      -2.808   0.685   2.114  0.00  0.00     0.298 HD
ENDROOT
TORSDOF 0
ENDMDL
