MODEL 1
REMARK minimizedAffinity -3.88865662
REMARK minimizedRMSD -1
REMARK  0 active torsions:
REMARK  status: ('A' for Active; 'I' for Inactive)
ROOT
ATOM      1  N1  IND d   1      -1.821   0.390   2.172  0.00  0.00    -0.196 N 
ATOM      2  C2  IND d   1      -1.137   1.257   2.978  0.00  0.00     0.054 A 
ATOM      3  C3  IND d   1       0.067   1.551   2.438  0.00  0.00    -0.031 A 
ATOM      4  C4  IND d   1       1.079   0.802   0.193  0.00  0.00     0.051 A 
ATOM      5  C5  IND d   1       0.845  -0.020  -0.874  0.00  0.00    -0.031 A 
ATOM      6  C6  IND d   1      -0.314  -0.761  -0.983  0.00  0.00     0.015 A 
ATOM      7  C7  IND d   1      -1.292  -0.698  -0.031  0.00  0.00    -0.016 A 
ATOM      8  C8  IND d   1      -1.055   0.131   1.057  0.00  0.00    -0.047 A 
ATOM      9  C9  IND d   1       0.138   0.853   1.194  0.00  0.00    -0.096 A 
ATOM     10  HN1 IND d   1      -2.599   0.061   2.334  0.00  0.00     0.298 HD
ENDROOT
TORSDOF 0
ENDMDL
