MODEL 1
REMARK minimizedAffinity -4.19423723
REMARK minimizedRMSD -1
REMARK  0 active torsions:
REMARK  status: ('A' for Active; 'I' for Inactive)
ROOT
ATOM      1  N1  IND d   1       1.819  -0.735   1.185  0.00  0.00    -0.196 N 
ATOM      2  C2  IND d   1       1.710  -1.082  -0.133  0.00  0.00     0.054 A 
ATOM      3  C3  IND d   1       0.516  -0.684  -0.627  0.00  0.00    -0.031 A 
ATOM      4  C4  IND d   1      -1.370   0.640   0.521  0.00  0.00     0.051 A 
ATOM      5  C5  IND d   1      -1.744   1.150   1.733  0.00  0.00    -0.031 A 
ATOM      6  C6  IND d   1      -0.933   1.059   2.845  0.00  0.00     0.015 A 
ATOM      7  C7  IND d   1       0.294   0.461   2.784  0.00  0.00    -0.016 A 
ATOM      8  C8  IND d   1       0.675  -0.065   1.558  0.00  0.00    -0.047 A 
ATOM      9  C9  IND d   1      -0.163  -0.012   0.436  0.00  0.00    -0.096 A 
ATOM     10  HN1 IND d   1       2.489  -0.907   1.695  0.00  0.00     0.298 HD
ENDROOT
TORSDOF 0
ENDMDL
