MODEL 1
REMARK minimizedAffinity -2.71177864
REMARK minimizedRMSD -1
REMARK  0 active torsions:
REMARK  status: ('A' for Active; 'I' for Inactive)
ROOT
ATOM      1  N1  IND d   1       1.383   0.006   0.035  0.00  0.00    -0.196 N 
ATOM      2  C2  IND d   1       1.104  -0.527  -1.193  0.00  0.00     0.054 A 
ATOM      3  C3  IND d   1      -0.231  -0.548  -1.405  0.00  0.00    -0.031 A 
ATOM      4  C4  IND d   1      -2.137   0.335   0.084  0.00  0.00     0.051 A 
ATOM      5  C5  IND d   1      -2.380   0.874   1.316  0.00  0.00    -0.031 A 
ATOM      6  C6  IND d   1      -1.361   1.161   2.200  0.00  0.00     0.015 A 
ATOM      7  C7  IND d   1      -0.053   0.927   1.880  0.00  0.00    -0.016 A 
ATOM      8  C8  IND d   1       0.197   0.373   0.633  0.00  0.00    -0.047 A 
ATOM      9  C9  IND d   1      -0.837   0.041  -0.252  0.00  0.00    -0.096 A 
ATOM     10  HN1 IND d   1       2.167   0.098   0.376  0.00  0.00     0.298 HD
ENDROOT
TORSDOF 0
ENDMDL
