MODEL 1
REMARK minimizedAffinity 1.95813453
REMARK minimizedRMSD -1
REMARK  0 active torsions:
REMARK  status: ('A' for Active; 'I' for Inactive)
ROOT
ATOM      1  N1  IND d   1       1.288  -0.793   0.427  0.00  0.00    -0.196 N 
ATOM      2  C2  IND d   1       2.350  -0.462   1.222  0.00  0.00     0.054 A 
ATOM      3  C3  IND d   1       1.990   0.484   2.119  0.00  0.00    -0.031 A 
ATOM      4  C4  IND d   1      -0.314   1.558   2.526  0.00  0.00     0.051 A 
ATOM      5  C5  IND d   1      -1.585   1.603   2.027  0.00  0.00    -0.031 A 
ATOM      6  C6  IND d   1      -1.972   0.834   0.948  0.00  0.00     0.015 A 
ATOM      7  C7  IND d   1      -1.101  -0.021   0.334  0.00  0.00    -0.016 A 
ATOM      8  C8  IND d   1       0.192  -0.064   0.834  0.00  0.00    -0.047 A 
ATOM      9  C9  IND d   1       0.603   0.746   1.901  0.00  0.00    -0.096 A 
ATOM     10  HN1 IND d   1       1.302  -1.361  -0.218  0.00  0.00     0.298 HD
ENDROOT
TORSDOF 0
ENDMDL
