MODEL 1
REMARK minimizedAffinity -6.10767508
REMARK minimizedRMSD -1
REMARK  0 active torsions:
REMARK  status: ('A' for Active; 'I' for Inactive)
ROOT
ATOM      1  N1  IND d   1       0.448  -0.876  -0.118  0.00  0.00    -0.196 N 
ATOM      2  C2  IND d   1      -0.692  -0.647  -0.837  0.00  0.00     0.054 A 
ATOM      3  C3  IND d   1      -1.505   0.204  -0.171  0.00  0.00    -0.031 A 
ATOM      4  C4  IND d   1      -1.121   1.421   2.064  0.00  0.00     0.051 A 
ATOM      5  C5  IND d   1      -0.244   1.503   3.109  0.00  0.00    -0.031 A 
ATOM      6  C6  IND d   1       0.933   0.784   3.131  0.00  0.00     0.015 A 
ATOM      7  C7  IND d   1       1.285  -0.039   2.099  0.00  0.00    -0.016 A 
ATOM      8  C8  IND d   1       0.393  -0.130   1.039  0.00  0.00    -0.047 A 
ATOM      9  C9  IND d   1      -0.823   0.564   1.031  0.00  0.00    -0.096 A 
ATOM     10  HN1 IND d   1       1.091  -1.397  -0.350  0.00  0.00     0.298 HD
ENDROOT
TORSDOF 0
ENDMDL
