MODEL 1
REMARK minimizedAffinity -2.43200493
REMARK minimizedRMSD -1
REMARK  0 active torsions:
REMARK  status: ('A' for Active; 'I' for Inactive)
ROOT
ATOM      1  N1  IND d   1      -1.948   0.386   2.751  0.00  0.00    -0.196 N 
ATOM      2  C2  IND d   1      -1.058   1.072   3.529  0.00  0.00     0.054 A 
ATOM      3  C3  IND d   1       0.143   1.150   2.914  0.00  0.00    -0.031 A 
ATOM      4  C4  IND d   1       0.844   0.310   0.583  0.00  0.00     0.051 A 
ATOM      5  C5  IND d   1       0.386  -0.409  -0.485  0.00  0.00    -0.031 A 
ATOM      6  C6  IND d   1      -0.899  -0.908  -0.532  0.00  0.00     0.015 A 
ATOM      7  C7  IND d   1      -1.783  -0.695   0.488  0.00  0.00    -0.016 A 
ATOM      8  C8  IND d   1      -1.320   0.029   1.578  0.00  0.00    -0.047 A 
ATOM      9  C9  IND d   1      -0.003   0.501   1.649  0.00  0.00    -0.096 A 
ATOM     10  HN1 IND d   1      -2.763   0.207   2.959  0.00  0.00     0.298 HD
ENDROOT
TORSDOF 0
ENDMDL
