MODEL 1
REMARK minimizedAffinity 6.05736494
REMARK minimizedRMSD -1
REMARK  1 active torsions:
REMARK  status: ('A' for Active; 'I' for Inactive)
REMARK    1  A    between atoms: C1_2  and  C2_3 
ROOT
ATOM      1  C2  UNL d   1       0.784  -1.776   1.181  0.00  0.00    -0.076 A 
ATOM      2  C3  UNL d   1       1.166  -1.306  -0.087  0.00  0.00     0.004 A 
ATOM      3  C4  UNL d   1       0.276  -0.592  -0.887  0.00  0.00    -0.003 A 
ATOM      4  C5  UNL d   1      -1.012  -0.335  -0.430  0.00  0.00     0.000 A 
ATOM      5  C6  UNL d   1      -1.403  -0.778   0.833  0.00  0.00     0.000 A 
ATOM      6  C7  UNL d   1      -0.513  -1.486   1.658  0.00  0.00    -0.073 A 
ATOM      7  C8  UNL d   1      -0.989  -1.945   3.009  0.00  0.00     0.078 C 
ENDROOT
BRANCH   1   8
ATOM      8  C1  UNL d   1       1.784  -2.569   1.992  0.00  0.00     0.053 C 
ATOM      9  C   UNL d   1       2.312  -3.781   1.241  0.00  0.00     0.018 C 
ENDBRANCH   1   8
TORSDOF 1
ENDMDL
