MODEL 1
REMARK minimizedAffinity 6.01379967
REMARK minimizedRMSD -1
REMARK  1 active torsions:
REMARK  status: ('A' for Active; 'I' for Inactive)
REMARK    1  A    between atoms: C1_2  and  C2_3 
ROOT
ATOM      1  C2  UNL d   1       0.660  -2.051   1.865  0.00  0.00    -0.076 A 
ATOM      2  C3  UNL d   1       1.466  -2.606   2.874  0.00  0.00     0.004 A 
ATOM      3  C4  UNL d   1       2.692  -3.195   2.571  0.00  0.00    -0.003 A 
ATOM      4  C5  UNL d   1       3.132  -3.239   1.252  0.00  0.00     0.000 A 
ATOM      5  C6  UNL d   1       2.354  -2.678   0.241  0.00  0.00     0.000 A 
ATOM      6  C7  UNL d   1       1.123  -2.066   0.532  0.00  0.00    -0.073 A 
ATOM      7  C8  UNL d   1       0.321  -1.482  -0.600  0.00  0.00     0.078 C 
ENDROOT
BRANCH   1   8
ATOM      8  C1  UNL d   1      -0.673  -1.450   2.250  0.00  0.00     0.053 C 
ATOM      9  C   UNL d   1      -0.590  -0.618   3.521  0.00  0.00     0.018 C 
ENDBRANCH   1   8
TORSDOF 1
ENDMDL
