MODEL 1
REMARK minimizedAffinity -4.14795446
REMARK minimizedRMSD -1
REMARK  0 active torsions:
REMARK  status: ('A' for Active; 'I' for Inactive)
ROOT
ATOM      1  N1  IND d   1       1.024  -1.048   0.987  0.00  0.00    -0.196 N 
ATOM      2  C2  IND d   1       1.013  -0.056   0.047  0.00  0.00     0.054 A 
ATOM      3  C3  IND d   1      -0.174  -0.034  -0.600  0.00  0.00    -0.031 A 
ATOM      4  C4  IND d   1      -2.277  -1.467  -0.208  0.00  0.00     0.051 A 
ATOM      5  C5  IND d   1      -2.736  -2.530   0.518  0.00  0.00    -0.031 A 
ATOM      6  C6  IND d   1      -1.951  -3.164   1.459  0.00  0.00     0.015 A 
ATOM      7  C7  IND d   1      -0.675  -2.750   1.718  0.00  0.00    -0.016 A 
ATOM      8  C8  IND d   1      -0.202  -1.676   0.977  0.00  0.00    -0.047 A 
ATOM      9  C9  IND d   1      -0.980  -1.055  -0.009  0.00  0.00    -0.096 A 
ATOM     10  HN1 IND d   1       1.686  -1.247   1.499  0.00  0.00     0.298 HD
ENDROOT
TORSDOF 0
ENDMDL
