MODEL 1
REMARK minimizedAffinity -6.25894737
REMARK minimizedRMSD -1
REMARK  0 active torsions:
REMARK  status: ('A' for Active; 'I' for Inactive)
ROOT
ATOM      1  N1  IND d   1       0.662  -0.748   0.371  0.00  0.00    -0.196 N 
ATOM      2  C2  IND d   1       0.892  -0.050  -0.782  0.00  0.00     0.054 A 
ATOM      3  C3  IND d   1      -0.241   0.034  -1.516  0.00  0.00    -0.031 A 
ATOM      4  C4  IND d   1      -2.610  -0.811  -0.968  0.00  0.00     0.051 A 
ATOM      5  C5  IND d   1      -3.307  -1.539  -0.045  0.00  0.00    -0.031 A 
ATOM      6  C6  IND d   1      -2.706  -2.049   1.088  0.00  0.00     0.015 A 
ATOM      7  C7  IND d   1      -1.381  -1.838   1.347  0.00  0.00    -0.016 A 
ATOM      8  C8  IND d   1      -0.668  -1.105   0.408  0.00  0.00    -0.047 A 
ATOM      9  C9  IND d   1      -1.264  -0.622  -0.764  0.00  0.00    -0.096 A 
ATOM     10  HN1 IND d   1       1.249  -0.932   0.971  0.00  0.00     0.298 HD
ENDROOT
TORSDOF 0
ENDMDL
