MODEL 1
REMARK minimizedAffinity -5.08004379
REMARK minimizedRMSD -1
REMARK  0 active torsions:
REMARK  status: ('A' for Active; 'I' for Inactive)
ROOT
ATOM      1  N1  IND d   1      -2.211  -1.326   0.677  0.00  0.00    -0.196 N 
ATOM      2  C2  IND d   1      -3.187  -1.133  -0.260  0.00  0.00     0.054 A 
ATOM      3  C3  IND d   1      -2.697  -0.441  -1.313  0.00  0.00    -0.031 A 
ATOM      4  C4  IND d   1      -0.298   0.384  -1.755  0.00  0.00     0.051 A 
ATOM      5  C5  IND d   1       0.934   0.475  -1.171  0.00  0.00    -0.031 A 
ATOM      6  C6  IND d   1       1.187  -0.042   0.083  0.00  0.00     0.015 A 
ATOM      7  C7  IND d   1       0.215  -0.683   0.799  0.00  0.00    -0.016 A 
ATOM      8  C8  IND d   1      -1.039  -0.772   0.212  0.00  0.00    -0.047 A 
ATOM      9  C9  IND d   1      -1.313  -0.211  -1.043  0.00  0.00    -0.096 A 
ATOM     10  HN1 IND d   1      -2.312  -1.727   1.431  0.00  0.00     0.298 HD
ENDROOT
TORSDOF 0
ENDMDL
