MODEL 1
REMARK minimizedAffinity -5.41097879
REMARK minimizedRMSD -1
REMARK  0 active torsions:
REMARK  status: ('A' for Active; 'I' for Inactive)
ROOT
ATOM      1  N1  IND d   1       1.233  -0.382   0.875  0.00  0.00    -0.196 N 
ATOM      2  C2  IND d   1       1.352   0.370  -0.261  0.00  0.00     0.054 A 
ATOM      3  C3  IND d   1       0.197   0.347  -0.962  0.00  0.00    -0.031 A 
ATOM      4  C4  IND d   1      -2.047  -0.774  -0.383  0.00  0.00     0.051 A 
ATOM      5  C5  IND d   1      -2.633  -1.603   0.532  0.00  0.00    -0.031 A 
ATOM      6  C6  IND d   1      -1.946  -2.074   1.633  0.00  0.00     0.015 A 
ATOM      7  C7  IND d   1      -0.646  -1.723   1.866  0.00  0.00    -0.016 A 
ATOM      8  C8  IND d   1      -0.046  -0.888   0.934  0.00  0.00    -0.047 A 
ATOM      9  C9  IND d   1      -0.725  -0.441  -0.207  0.00  0.00    -0.096 A 
ATOM     10  HN1 IND d   1       1.854  -0.517   1.455  0.00  0.00     0.298 HD
ENDROOT
TORSDOF 0
ENDMDL
