MODEL 1
REMARK minimizedAffinity -4.13834524
REMARK minimizedRMSD -1
REMARK  0 active torsions:
REMARK  status: ('A' for Active; 'I' for Inactive)
ROOT
ATOM      1  N1  IND d   1       1.046   1.250  -1.152  0.00  0.00    -0.196 N 
ATOM      2  C2  IND d   1       1.763   1.174   0.010  0.00  0.00     0.054 A 
ATOM      3  C3  IND d   1       1.074   0.482   0.944  0.00  0.00    -0.031 A 
ATOM      4  C4  IND d   1      -1.203  -0.705   0.751  0.00  0.00     0.051 A 
ATOM      5  C5  IND d   1      -2.254  -0.886  -0.103  0.00  0.00    -0.031 A 
ATOM      6  C6  IND d   1      -2.259  -0.356  -1.377  0.00  0.00     0.015 A 
ATOM      7  C7  IND d   1      -1.201   0.369  -1.850  0.00  0.00    -0.016 A 
ATOM      8  C8  IND d   1      -0.135   0.560  -0.983  0.00  0.00    -0.047 A 
ATOM      9  C9  IND d   1      -0.143   0.061   0.325  0.00  0.00    -0.096 A 
ATOM     10  HN1 IND d   1       1.291   1.659  -1.867  0.00  0.00     0.298 HD
ENDROOT
TORSDOF 0
ENDMDL
