MODEL 1
REMARK minimizedAffinity -6.1168766
REMARK minimizedRMSD -1
REMARK  0 active torsions:
REMARK  status: ('A' for Active; 'I' for Inactive)
ROOT
ATOM      1  N1  IND d   1       0.530  -0.665  -0.495  0.00  0.00    -0.196 N 
ATOM      2  C2  IND d   1       0.034   0.173  -1.454  0.00  0.00     0.054 A 
ATOM      3  C3  IND d   1      -1.318   0.154  -1.441  0.00  0.00    -0.031 A 
ATOM      4  C4  IND d   1      -2.921  -1.102   0.135  0.00  0.00     0.051 A 
ATOM      5  C5  IND d   1      -2.937  -2.020   1.147  0.00  0.00    -0.031 A 
ATOM      6  C6  IND d   1      -1.774  -2.542   1.676  0.00  0.00     0.015 A 
ATOM      7  C7  IND d   1      -0.547  -2.155   1.218  0.00  0.00    -0.016 A 
ATOM      8  C8  IND d   1      -0.527  -1.228   0.186  0.00  0.00    -0.047 A 
ATOM      9  C9  IND d   1      -1.704  -0.727  -0.384  0.00  0.00    -0.096 A 
ATOM     10  HN1 IND d   1       1.363  -0.816  -0.343  0.00  0.00     0.298 HD
ENDROOT
TORSDOF 0
ENDMDL
