MODEL 1
REMARK minimizedAffinity -4.94219589
REMARK minimizedRMSD -1
REMARK  0 active torsions:
REMARK  status: ('A' for Active; 'I' for Inactive)
ROOT
ATOM      1  N1  IND d   1      -0.003  -2.366   1.955  0.00  0.00    -0.196 N 
ATOM      2  C2  IND d   1      -1.287  -2.713   2.270  0.00  0.00     0.054 A 
ATOM      3  C3  IND d   1      -2.161  -2.046   1.482  0.00  0.00    -0.031 A 
ATOM      4  C4  IND d   1      -1.701  -0.415  -0.456  0.00  0.00     0.051 A 
ATOM      5  C5  IND d   1      -0.685   0.240  -1.094  0.00  0.00    -0.031 A 
ATOM      6  C6  IND d   1       0.636   0.054  -0.744  0.00  0.00     0.015 A 
ATOM      7  C7  IND d   1       0.994  -0.807   0.255  0.00  0.00    -0.016 A 
ATOM      8  C8  IND d   1      -0.035  -1.468   0.910  0.00  0.00    -0.047 A 
ATOM      9  C9  IND d   1      -1.381  -1.251   0.588  0.00  0.00    -0.096 A 
ATOM     10  HN1 IND d   1       0.705  -2.659   2.343  0.00  0.00     0.298 HD
ENDROOT
TORSDOF 0
ENDMDL
