MODEL 1
REMARK minimizedAffinity -6.16526318
REMARK minimizedRMSD -1
REMARK  0 active torsions:
REMARK  status: ('A' for Active; 'I' for Inactive)
ROOT
ATOM      1  N1  IND d   1       0.613  -1.846   1.119  0.00  0.00    -0.196 N 
ATOM      2  C2  IND d   1       1.306  -0.808   0.561  0.00  0.00     0.054 A 
ATOM      3  C3  IND d   1       0.468   0.002  -0.125  0.00  0.00    -0.031 A 
ATOM      4  C4  IND d   1      -2.090  -0.129  -0.378  0.00  0.00     0.051 A 
ATOM      5  C5  IND d   1      -3.164  -0.920  -0.077  0.00  0.00    -0.031 A 
ATOM      6  C6  IND d   1      -3.030  -2.082   0.655  0.00  0.00     0.015 A 
ATOM      7  C7  IND d   1      -1.815  -2.492   1.125  0.00  0.00    -0.016 A 
ATOM      8  C8  IND d   1      -0.722  -1.695   0.816  0.00  0.00    -0.047 A 
ATOM      9  C9  IND d   1      -0.845  -0.537   0.037  0.00  0.00    -0.096 A 
ATOM     10  HN1 IND d   1       0.954  -2.485   1.583  0.00  0.00     0.298 HD
ENDROOT
TORSDOF 0
ENDMDL
