MODEL 1
REMARK minimizedAffinity -3.62433052
REMARK minimizedRMSD -1
REMARK  0 active torsions:
REMARK  status: ('A' for Active; 'I' for Inactive)
ROOT
ATOM      1  N1  IND d   1       0.741  -0.549   1.154  0.00  0.00    -0.196 N 
ATOM      2  C2  IND d   1       1.508   0.262   0.366  0.00  0.00     0.054 A 
ATOM      3  C3  IND d   1       0.829   0.610  -0.751  0.00  0.00    -0.031 A 
ATOM      4  C4  IND d   1      -1.587   0.047  -1.439  0.00  0.00     0.051 A 
ATOM      5  C5  IND d   1      -2.670  -0.695  -1.059  0.00  0.00    -0.031 A 
ATOM      6  C6  IND d   1      -2.673  -1.439   0.103  0.00  0.00     0.015 A 
ATOM      7  C7  IND d   1      -1.591  -1.460   0.938  0.00  0.00    -0.016 A 
ATOM      8  C8  IND d   1      -0.487  -0.714   0.552  0.00  0.00    -0.047 A 
ATOM      9  C9  IND d   1      -0.463   0.010  -0.648  0.00  0.00    -0.096 A 
ATOM     10  HN1 IND d   1       0.984  -0.899   1.901  0.00  0.00     0.298 HD
ENDROOT
TORSDOF 0
ENDMDL
