MODEL 1
REMARK minimizedAffinity -6.25206661
REMARK minimizedRMSD -1
REMARK  0 active torsions:
REMARK  status: ('A' for Active; 'I' for Inactive)
ROOT
ATOM      1  N1  IND d   1       0.586  -0.615   0.792  0.00  0.00    -0.196 N 
ATOM      2  C2  IND d   1       0.725   0.337  -0.179  0.00  0.00     0.054 A 
ATOM      3  C3  IND d   1      -0.454   0.544  -0.807  0.00  0.00    -0.031 A 
ATOM      4  C4  IND d   1      -2.762  -0.495  -0.337  0.00  0.00     0.051 A 
ATOM      5  C5  IND d   1      -3.381  -1.442   0.429  0.00  0.00    -0.031 A 
ATOM      6  C6  IND d   1      -2.696  -2.174   1.378  0.00  0.00     0.015 A 
ATOM      7  C7  IND d   1      -1.363  -1.978   1.603  0.00  0.00    -0.016 A 
ATOM      8  C8  IND d   1      -0.730  -1.023   0.821  0.00  0.00    -0.047 A 
ATOM      9  C9  IND d   1      -1.410  -0.306  -0.172  0.00  0.00    -0.096 A 
ATOM     10  HN1 IND d   1       1.214  -0.909   1.300  0.00  0.00     0.298 HD
ENDROOT
TORSDOF 0
ENDMDL
