MODEL 1
REMARK minimizedAffinity -6.45469761
REMARK minimizedRMSD -1
REMARK  0 active torsions:
REMARK  status: ('A' for Active; 'I' for Inactive)
ROOT
ATOM      1  N1  IND d   1       0.501  -1.713   1.155  0.00  0.00    -0.196 N 
ATOM      2  C2  IND d   1       1.283  -0.696   0.683  0.00  0.00     0.054 A 
ATOM      3  C3  IND d   1       0.541   0.168  -0.045  0.00  0.00    -0.031 A 
ATOM      4  C4  IND d   1      -1.992   0.163  -0.506  0.00  0.00     0.051 A 
ATOM      5  C5  IND d   1      -3.120  -0.583  -0.315  0.00  0.00    -0.031 A 
ATOM      6  C6  IND d   1      -3.099  -1.768   0.393  0.00  0.00     0.015 A 
ATOM      7  C7  IND d   1      -1.946  -2.246   0.948  0.00  0.00    -0.016 A 
ATOM      8  C8  IND d   1      -0.797  -1.493   0.750  0.00  0.00    -0.047 A 
ATOM      9  C9  IND d   1      -0.804  -0.313  -0.004  0.00  0.00    -0.096 A 
ATOM     10  HN1 IND d   1       0.775  -2.379   1.626  0.00  0.00     0.298 HD
ENDROOT
TORSDOF 0
ENDMDL
