MODEL 1
REMARK minimizedAffinity -6.24171019
REMARK minimizedRMSD -1
REMARK  0 active torsions:
REMARK  status: ('A' for Active; 'I' for Inactive)
ROOT
ATOM      1  N1  IND d   1       0.632  -0.195   0.546  0.00  0.00    -0.196 N 
ATOM      2  C2  IND d   1       0.602   0.692  -0.494  0.00  0.00     0.054 A 
ATOM      3  C3  IND d   1      -0.623   0.705  -1.066  0.00  0.00    -0.031 A 
ATOM      4  C4  IND d   1      -2.756  -0.571  -0.394  0.00  0.00     0.051 A 
ATOM      5  C5  IND d   1      -3.212  -1.527   0.470  0.00  0.00    -0.031 A 
ATOM      6  C6  IND d   1      -2.394  -2.097   1.424  0.00  0.00     0.015 A 
ATOM      7  C7  IND d   1      -1.087  -1.723   1.558  0.00  0.00    -0.016 A 
ATOM      8  C8  IND d   1      -0.619  -0.757   0.678  0.00  0.00    -0.047 A 
ATOM      9  C9  IND d   1      -1.432  -0.206  -0.320  0.00  0.00    -0.096 A 
ATOM     10  HN1 IND d   1       1.317  -0.371   1.035  0.00  0.00     0.298 HD
ENDROOT
TORSDOF 0
ENDMDL
