MODEL 1
REMARK minimizedAffinity -5.48053932
REMARK minimizedRMSD -1
REMARK  0 active torsions:
REMARK  status: ('A' for Active; 'I' for Inactive)
ROOT
ATOM      1  N1  IND d   1       0.745  -0.383   0.663  0.00  0.00    -0.196 N 
ATOM      2  C2  IND d   1       0.905   0.536  -0.337  0.00  0.00     0.054 A 
ATOM      3  C3  IND d   1      -0.207   0.595  -1.103  0.00  0.00    -0.031 A 
ATOM      4  C4  IND d   1      -2.443  -0.652  -0.840  0.00  0.00     0.051 A 
ATOM      5  C5  IND d   1      -3.054  -1.623  -0.097  0.00  0.00    -0.031 A 
ATOM      6  C6  IND d   1      -2.418  -2.241   0.960  0.00  0.00     0.015 A 
ATOM      7  C7  IND d   1      -1.145  -1.901   1.322  0.00  0.00    -0.016 A 
ATOM      8  C8  IND d   1      -0.519  -0.920   0.566  0.00  0.00    -0.047 A 
ATOM      9  C9  IND d   1      -1.145  -0.320  -0.534  0.00  0.00    -0.096 A 
ATOM     10  HN1 IND d   1       1.336  -0.590   1.253  0.00  0.00     0.298 HD
ENDROOT
TORSDOF 0
ENDMDL
