MODEL 1
REMARK minimizedAffinity -6.33181047
REMARK minimizedRMSD -1
REMARK  0 active torsions:
REMARK  status: ('A' for Active; 'I' for Inactive)
ROOT
ATOM      1  N1  IND d   1       0.609  -0.851   0.503  0.00  0.00    -0.196 N 
ATOM      2  C2  IND d   1       0.916   0.038  -0.489  0.00  0.00     0.054 A 
ATOM      3  C3  IND d   1      -0.191   0.348  -1.202  0.00  0.00    -0.031 A 
ATOM      4  C4  IND d   1      -2.626  -0.409  -0.852  0.00  0.00     0.051 A 
ATOM      5  C5  IND d   1      -3.396  -1.248  -0.096  0.00  0.00    -0.031 A 
ATOM      6  C6  IND d   1      -2.859  -2.012   0.920  0.00  0.00     0.015 A 
ATOM      7  C7  IND d   1      -1.529  -1.955   1.227  0.00  0.00    -0.016 A 
ATOM      8  C8  IND d   1      -0.744  -1.109   0.457  0.00  0.00    -0.047 A 
ATOM      9  C9  IND d   1      -1.275  -0.364  -0.603  0.00  0.00    -0.096 A 
ATOM     10  HN1 IND d   1       1.167  -1.192   1.061  0.00  0.00     0.298 HD
ENDROOT
TORSDOF 0
ENDMDL
