MODEL 1
REMARK minimizedAffinity -3.01194
REMARK minimizedRMSD -1
REMARK  0 active torsions:
REMARK  status: ('A' for Active; 'I' for Inactive)
ROOT
ATOM      1  N1  IND d   1      -2.106  -1.069   0.900  0.00  0.00    -0.196 N 
ATOM      2  C2  IND d   1      -3.220  -0.815   0.149  0.00  0.00     0.054 A 
ATOM      3  C3  IND d   1      -2.900  -0.058  -0.925  0.00  0.00    -0.031 A 
ATOM      4  C4  IND d   1      -0.597   0.793  -1.699  0.00  0.00     0.051 A 
ATOM      5  C5  IND d   1       0.715   0.847  -1.320  0.00  0.00    -0.031 A 
ATOM      6  C6  IND d   1       1.163   0.250  -0.159  0.00  0.00     0.015 A 
ATOM      7  C7  IND d   1       0.314  -0.435   0.663  0.00  0.00    -0.016 A 
ATOM      8  C8  IND d   1      -1.020  -0.486   0.285  0.00  0.00    -0.047 A 
ATOM      9  C9  IND d   1      -1.489   0.154  -0.870  0.00  0.00    -0.096 A 
ATOM     10  HN1 IND d   1      -2.087  -1.518   1.633  0.00  0.00     0.298 HD
ENDROOT
TORSDOF 0
ENDMDL
