MODEL 1
REMARK minimizedAffinity -5.74107361
REMARK minimizedRMSD -1
REMARK  0 active torsions:
REMARK  status: ('A' for Active; 'I' for Inactive)
ROOT
ATOM      1  N1  IND d   1       0.629  -0.572   0.609  0.00  0.00    -0.196 N 
ATOM      2  C2  IND d   1       1.082   0.012  -0.541  0.00  0.00     0.054 A 
ATOM      3  C3  IND d   1       0.089   0.085  -1.454  0.00  0.00    -0.031 A 
ATOM      4  C4  IND d   1      -2.384  -0.600  -1.240  0.00  0.00     0.051 A 
ATOM      5  C5  IND d   1      -3.262  -1.213  -0.391  0.00  0.00    -0.031 A 
ATOM      6  C6  IND d   1      -2.881  -1.650   0.861  0.00  0.00     0.015 A 
ATOM      7  C7  IND d   1      -1.605  -1.480   1.317  0.00  0.00    -0.016 A 
ATOM      8  C8  IND d   1      -0.708  -0.864   0.455  0.00  0.00    -0.047 A 
ATOM      9  C9  IND d   1      -1.078  -0.456  -0.833  0.00  0.00    -0.096 A 
ATOM     10  HN1 IND d   1       1.100  -0.731   1.311  0.00  0.00     0.298 HD
ENDROOT
TORSDOF 0
ENDMDL
