MODEL 1
REMARK minimizedAffinity -4.92680073
REMARK minimizedRMSD -1
REMARK  0 active torsions:
REMARK  status: ('A' for Active; 'I' for Inactive)
ROOT
ATOM      1  N1  IND d   1       0.818  -0.398   0.350  0.00  0.00    -0.196 N 
ATOM      2  C2  IND d   1       1.170   0.294  -0.776  0.00  0.00     0.054 A 
ATOM      3  C3  IND d   1       0.102   0.440  -1.591  0.00  0.00    -0.031 A 
ATOM      4  C4  IND d   1      -2.341  -0.287  -1.232  0.00  0.00     0.051 A 
ATOM      5  C5  IND d   1      -3.142  -0.984  -0.372  0.00  0.00    -0.031 A 
ATOM      6  C6  IND d   1      -2.655  -1.530   0.798  0.00  0.00     0.015 A 
ATOM      7  C7  IND d   1      -1.345  -1.389   1.158  0.00  0.00    -0.016 A 
ATOM      8  C8  IND d   1      -0.527  -0.688   0.283  0.00  0.00    -0.047 A 
ATOM      9  C9  IND d   1      -1.006  -0.168  -0.926  0.00  0.00    -0.096 A 
ATOM     10  HN1 IND d   1       1.348  -0.615   0.991  0.00  0.00     0.298 HD
ENDROOT
TORSDOF 0
ENDMDL
