MODEL 1
REMARK minimizedAffinity -1.67601264
REMARK minimizedRMSD -1
REMARK  0 active torsions:
REMARK  status: ('A' for Active; 'I' for Inactive)
ROOT
ATOM      1  N1  IND d   1       0.431  -0.198  -1.897  0.00  0.00    -0.196 N 
ATOM      2  C2  IND d   1       0.759  -1.372  -1.279  0.00  0.00     0.054 A 
ATOM      3  C3  IND d   1       0.486  -1.300   0.043  0.00  0.00    -0.031 A 
ATOM      4  C4  IND d   1      -0.595   0.610   1.389  0.00  0.00     0.051 A 
ATOM      5  C5  IND d   1      -1.034   1.898   1.267  0.00  0.00    -0.031 A 
ATOM      6  C6  IND d   1      -1.010   2.567   0.060  0.00  0.00     0.015 A 
ATOM      7  C7  IND d   1      -0.553   1.964  -1.078  0.00  0.00    -0.016 A 
ATOM      8  C8  IND d   1      -0.100   0.658  -0.957  0.00  0.00    -0.047 A 
ATOM      9  C9  IND d   1      -0.083  -0.010   0.273  0.00  0.00    -0.096 A 
ATOM     10  HN1 IND d   1       0.539  -0.023  -2.732  0.00  0.00     0.298 HD
ENDROOT
TORSDOF 0
ENDMDL
