MODEL 1
REMARK minimizedAffinity -4.75877142
REMARK minimizedRMSD -1
REMARK  0 active torsions:
REMARK  status: ('A' for Active; 'I' for Inactive)
ROOT
ATOM      1  N1  IND d   1      -0.038  -0.004  -1.315  0.00  0.00    -0.196 N 
ATOM      2  C2  IND d   1       0.617  -1.050  -0.726  0.00  0.00     0.054 A 
ATOM      3  C3  IND d   1       0.722  -0.848   0.607  0.00  0.00    -0.031 A 
ATOM      4  C4  IND d   1      -0.199   1.077   2.047  0.00  0.00     0.051 A 
ATOM      5  C5  IND d   1      -0.836   2.282   1.954  0.00  0.00    -0.031 A 
ATOM      6  C6  IND d   1      -1.250   2.797   0.743  0.00  0.00     0.015 A 
ATOM      7  C7  IND d   1      -1.052   2.116  -0.425  0.00  0.00    -0.016 A 
ATOM      8  C8  IND d   1      -0.400   0.894  -0.335  0.00  0.00    -0.047 A 
ATOM      9  C9  IND d   1       0.061   0.387   0.887  0.00  0.00    -0.096 A 
ATOM     10  HN1 IND d   1      -0.198   0.078  -2.156  0.00  0.00     0.298 HD
ENDROOT
TORSDOF 0
ENDMDL
