MODEL 1
REMARK minimizedAffinity -4.04127598
REMARK minimizedRMSD -1
REMARK  0 active torsions:
REMARK  status: ('A' for Active; 'I' for Inactive)
ROOT
ATOM      1  N1  IND d   1      -0.186  -0.947  -0.680  0.00  0.00    -0.196 N 
ATOM      2  C2  IND d   1       1.100  -1.329  -0.419  0.00  0.00     0.054 A 
ATOM      3  C3  IND d   1       1.699  -0.436   0.401  0.00  0.00    -0.031 A 
ATOM      4  C4  IND d   1       0.725   1.670   1.516  0.00  0.00     0.051 A 
ATOM      5  C5  IND d   1      -0.397   2.449   1.551  0.00  0.00    -0.031 A 
ATOM      6  C6  IND d   1      -1.530   2.128   0.832  0.00  0.00     0.015 A 
ATOM      7  C7  IND d   1      -1.587   1.005   0.056  0.00  0.00    -0.016 A 
ATOM      8  C8  IND d   1      -0.447   0.215   0.013  0.00  0.00    -0.047 A 
ATOM      9  C9  IND d   1       0.720   0.558   0.707  0.00  0.00    -0.096 A 
ATOM     10  HN1 IND d   1      -0.739  -1.362  -1.191  0.00  0.00     0.298 HD
ENDROOT
TORSDOF 0
ENDMDL
