MODEL 1
REMARK minimizedAffinity -1.72715402
REMARK minimizedRMSD -1
REMARK  0 active torsions:
REMARK  status: ('A' for Active; 'I' for Inactive)
ROOT
ATOM      1  N1  IND d   1      -0.142  -0.562  -0.372  0.00  0.00    -0.196 N 
ATOM      2  C2  IND d   1       1.160  -0.820  -0.044  0.00  0.00     0.054 A 
ATOM      3  C3  IND d   1       1.596   0.065   0.880  0.00  0.00    -0.031 A 
ATOM      4  C4  IND d   1       0.314   1.955   2.069  0.00  0.00     0.051 A 
ATOM      5  C5  IND d   1      -0.890   2.600   2.076  0.00  0.00    -0.031 A 
ATOM      6  C6  IND d   1      -1.929   2.215   1.253  0.00  0.00     0.015 A 
ATOM      7  C7  IND d   1      -1.805   1.158   0.396  0.00  0.00    -0.016 A 
ATOM      8  C8  IND d   1      -0.581   0.505   0.381  0.00  0.00    -0.047 A 
ATOM      9  C9  IND d   1       0.491   0.918   1.183  0.00  0.00    -0.096 A 
ATOM     10  HN1 IND d   1      -0.609  -0.993  -0.952  0.00  0.00     0.298 HD
ENDROOT
TORSDOF 0
ENDMDL
