MODEL 1
REMARK minimizedAffinity -0.000928891124
REMARK minimizedRMSD -1
REMARK  0 active torsions:
REMARK  status: ('A' for Active; 'I' for Inactive)
ROOT
ATOM      1  N1  IND d   1      -1.311  -2.280  -2.212  0.00  0.00    -0.196 N 
ATOM      2  C2  IND d   1      -0.540  -3.392  -2.018  0.00  0.00     0.054 A 
ATOM      3  C3  IND d   1       0.509  -3.103  -1.216  0.00  0.00    -0.031 A 
ATOM      4  C4  IND d   1       1.101  -0.896  -0.029  0.00  0.00     0.051 A 
ATOM      5  C5  IND d   1       0.716   0.411   0.069  0.00  0.00    -0.031 A 
ATOM      6  C6  IND d   1      -0.389   0.898  -0.599  0.00  0.00     0.015 A 
ATOM      7  C7  IND d   1      -1.160   0.088  -1.385  0.00  0.00    -0.016 A 
ATOM      8  C8  IND d   1      -0.767  -1.238  -1.493  0.00  0.00    -0.047 A 
ATOM      9  C9  IND d   1       0.378  -1.728  -0.851  0.00  0.00    -0.096 A 
ATOM     10  HN1 IND d   1      -2.017  -2.238  -2.701  0.00  0.00     0.298 HD
ENDROOT
TORSDOF 0
ENDMDL
