MODEL 1
REMARK minimizedAffinity -3.4683404
REMARK minimizedRMSD -1
REMARK  0 active torsions:
REMARK  status: ('A' for Active; 'I' for Inactive)
ROOT
ATOM      1  N1  IND d   1      -0.317   2.041  -1.203  0.00  0.00    -0.196 N 
ATOM      2  C2  IND d   1       0.100   1.057  -2.056  0.00  0.00     0.054 A 
ATOM      3  C3  IND d   1       0.577   0.001  -1.358  0.00  0.00    -0.031 A 
ATOM      4  C4  IND d   1       0.672  -0.368   1.188  0.00  0.00     0.051 A 
ATOM      5  C5  IND d   1       0.440   0.264   2.377  0.00  0.00    -0.031 A 
ATOM      6  C6  IND d   1      -0.070   1.545   2.435  0.00  0.00     0.015 A 
ATOM      7  C7  IND d   1      -0.377   2.241   1.301  0.00  0.00    -0.016 A 
ATOM      8  C8  IND d   1      -0.136   1.605   0.091  0.00  0.00    -0.047 A 
ATOM      9  C9  IND d   1       0.420   0.322   0.025  0.00  0.00    -0.096 A 
ATOM     10  HN1 IND d   1      -0.638   2.804  -1.437  0.00  0.00     0.298 HD
ENDROOT
TORSDOF 0
ENDMDL
