MODEL 1
REMARK minimizedAffinity -3.83816004
REMARK minimizedRMSD -1
REMARK  0 active torsions:
REMARK  status: ('A' for Active; 'I' for Inactive)
ROOT
ATOM      1  N1  IND d   1       0.162  -0.566  -1.094  0.00  0.00    -0.196 N 
ATOM      2  C2  IND d   1       0.824  -1.419  -0.256  0.00  0.00     0.054 A 
ATOM      3  C3  IND d   1       0.781  -0.957   1.014  0.00  0.00    -0.031 A 
ATOM      4  C4  IND d   1      -0.408   1.122   1.959  0.00  0.00     0.051 A 
ATOM      5  C5  IND d   1      -1.112   2.228   1.574  0.00  0.00    -0.031 A 
ATOM      6  C6  IND d   1      -1.437   2.462   0.254  0.00  0.00     0.015 A 
ATOM      7  C7  IND d   1      -1.077   1.590  -0.734  0.00  0.00    -0.016 A 
ATOM      8  C8  IND d   1      -0.356   0.469  -0.348  0.00  0.00    -0.047 A 
ATOM      9  C9  IND d   1       0.014   0.247   0.985  0.00  0.00    -0.096 A 
ATOM     10  HN1 IND d   1       0.082  -0.661  -1.945  0.00  0.00     0.298 HD
ENDROOT
TORSDOF 0
ENDMDL
