MODEL 1
REMARK minimizedAffinity -1.15283537
REMARK minimizedRMSD -1
REMARK  0 active torsions:
REMARK  status: ('A' for Active; 'I' for Inactive)
ROOT
ATOM      1  N1  IND d   1      -0.125   1.647   0.903  0.00  0.00    -0.196 N 
ATOM      2  C2  IND d   1       0.008   1.171   2.178  0.00  0.00     0.054 A 
ATOM      3  C3  IND d   1       0.385  -0.127   2.158  0.00  0.00    -0.031 A 
ATOM      4  C4  IND d   1       0.939  -1.639   0.149  0.00  0.00     0.051 A 
ATOM      5  C5  IND d   1       0.928  -1.661  -1.217  0.00  0.00    -0.031 A 
ATOM      6  C6  IND d   1       0.561  -0.559  -1.962  0.00  0.00     0.015 A 
ATOM      7  C7  IND d   1       0.200   0.616  -1.365  0.00  0.00    -0.016 A 
ATOM      8  C8  IND d   1       0.203   0.640   0.023  0.00  0.00    -0.047 A 
ATOM      9  C9  IND d   1       0.534  -0.488   0.784  0.00  0.00    -0.096 A 
ATOM     10  HN1 IND d   1      -0.372   2.442   0.688  0.00  0.00     0.298 HD
ENDROOT
TORSDOF 0
ENDMDL
