MODEL 1
REMARK minimizedAffinity -4.05249214
REMARK minimizedRMSD -1
REMARK  0 active torsions:
REMARK  status: ('A' for Active; 'I' for Inactive)
ROOT
ATOM      1  C   UNL d   1      -3.663   0.293   2.051  0.00  0.00     0.077 C 
ATOM      2  C1  UNL d   1      -2.236  -0.003   1.695  0.00  0.00    -0.074 A 
ATOM      3  C2  UNL d   1      -1.503  -0.961   2.403  0.00  0.00    -0.005 A 
ATOM      4  C3  UNL d   1      -0.180  -1.233   2.055  0.00  0.00     0.006 A 
ATOM      5  C4  UNL d   1       0.422  -0.551   0.997  0.00  0.00    -0.005 A 
ATOM      6  C5  UNL d   1      -0.295   0.410   0.277  0.00  0.00    -0.074 A 
ATOM      7  C6  UNL d   1       0.334   1.145  -0.869  0.00  0.00     0.077 C 
ATOM      8  C7  UNL d   1      -1.627   0.672   0.629  0.00  0.00    -0.001 A 
ENDROOT
TORSDOF 0
ENDMDL
