MODEL 1
REMARK minimizedAffinity -1.46175861
REMARK minimizedRMSD -1
REMARK  0 active torsions:
REMARK  status: ('A' for Active; 'I' for Inactive)
ROOT
ATOM      1  C   UNL d   1      -1.948   0.497   2.143  0.00  0.00     0.077 C 
ATOM      2  C1  UNL d   1      -0.843   0.025   1.246  0.00  0.00    -0.074 A 
ATOM      3  C2  UNL d   1      -0.330  -1.271   1.359  0.00  0.00    -0.005 A 
ATOM      4  C3  UNL d   1       0.691  -1.700   0.511  0.00  0.00     0.006 A 
ATOM      5  C4  UNL d   1       1.208  -0.838  -0.457  0.00  0.00    -0.005 A 
ATOM      6  C5  UNL d   1       0.707   0.461  -0.586  0.00  0.00    -0.074 A 
ATOM      7  C6  UNL d   1       1.244   1.396  -1.628  0.00  0.00     0.077 C 
ATOM      8  C7  UNL d   1      -0.324   0.882   0.265  0.00  0.00    -0.001 A 
ENDROOT
TORSDOF 0
ENDMDL
