MODEL 1
REMARK minimizedAffinity -2.26998639
REMARK minimizedRMSD -1
REMARK  0 active torsions:
REMARK  status: ('A' for Active; 'I' for Inactive)
ROOT
ATOM      1  C   UNL d   1      -1.484   0.636   1.777  0.00  0.00     0.077 C 
ATOM      2  C1  UNL d   1      -0.502   0.486   0.654  0.00  0.00    -0.074 A 
ATOM      3  C2  UNL d   1      -0.049   1.602  -0.058  0.00  0.00    -0.005 A 
ATOM      4  C3  UNL d   1       0.873   1.448  -1.094  0.00  0.00     0.006 A 
ATOM      5  C4  UNL d   1       1.349   0.180  -1.428  0.00  0.00    -0.005 A 
ATOM      6  C5  UNL d   1       0.908  -0.947  -0.727  0.00  0.00    -0.074 A 
ATOM      7  C6  UNL d   1       1.417  -2.316  -1.067  0.00  0.00     0.077 C 
ATOM      8  C7  UNL d   1      -0.013  -0.784   0.317  0.00  0.00    -0.001 A 
ENDROOT
TORSDOF 0
ENDMDL
