MODEL 1
REMARK minimizedAffinity -2.92026591
REMARK minimizedRMSD -1
REMARK  0 active torsions:
REMARK  status: ('A' for Active; 'I' for Inactive)
ROOT
ATOM      1  C   UNL d   1       2.431  -1.388  -1.403  0.00  0.00     0.077 C 
ATOM      2  C1  UNL d   1       1.512  -0.272  -1.003  0.00  0.00    -0.074 A 
ATOM      3  C2  UNL d   1       1.554   0.963  -1.657  0.00  0.00    -0.005 A 
ATOM      4  C3  UNL d   1       0.686   1.988  -1.281  0.00  0.00     0.006 A 
ATOM      5  C4  UNL d   1      -0.232   1.788  -0.249  0.00  0.00    -0.005 A 
ATOM      6  C5  UNL d   1      -0.289   0.559   0.416  0.00  0.00    -0.074 A 
ATOM      7  C6  UNL d   1      -1.276   0.324   1.521  0.00  0.00     0.077 C 
ATOM      8  C7  UNL d   1       0.582  -0.468   0.027  0.00  0.00    -0.001 A 
ENDROOT
TORSDOF 0
ENDMDL
