MODEL 1
REMARK minimizedAffinity -4.73205853
REMARK minimizedRMSD -1
REMARK  0 active torsions:
REMARK  status: ('A' for Active; 'I' for Inactive)
ROOT
ATOM      1  C   UNL d   1      -0.405  -0.133   1.370  0.00  0.00     0.077 C 
ATOM      2  C1  UNL d   1       0.268  -0.757   0.183  0.00  0.00    -0.074 A 
ATOM      3  C2  UNL d   1       0.363  -2.147   0.058  0.00  0.00    -0.005 A 
ATOM      4  C3  UNL d   1       0.983  -2.712  -1.056  0.00  0.00     0.006 A 
ATOM      5  C4  UNL d   1       1.514  -1.895  -2.054  0.00  0.00    -0.005 A 
ATOM      6  C5  UNL d   1       1.428  -0.504  -1.947  0.00  0.00    -0.074 A 
ATOM      7  C6  UNL d   1       1.985   0.389  -3.017  0.00  0.00     0.077 C 
ATOM      8  C7  UNL d   1       0.797   0.057  -0.828  0.00  0.00    -0.001 A 
ENDROOT
TORSDOF 0
ENDMDL
