MODEL 1
REMARK minimizedAffinity -1.67692196
REMARK minimizedRMSD -1
REMARK  0 active torsions:
REMARK  status: ('A' for Active; 'I' for Inactive)
ROOT
ATOM      1  C   UNL d   1      -1.172   0.264   1.224  0.00  0.00     0.077 C 
ATOM      2  C1  UNL d   1      -0.031  -0.049   0.303  0.00  0.00    -0.074 A 
ATOM      3  C2  UNL d   1       0.708   0.975  -0.299  0.00  0.00    -0.005 A 
ATOM      4  C3  UNL d   1       1.774   0.669  -1.146  0.00  0.00     0.006 A 
ATOM      5  C4  UNL d   1       2.110  -0.662  -1.399  0.00  0.00    -0.005 A 
ATOM      6  C5  UNL d   1       1.383  -1.698  -0.806  0.00  0.00    -0.074 A 
ATOM      7  C6  UNL d   1       1.737  -3.134  -1.060  0.00  0.00     0.077 C 
ATOM      8  C7  UNL d   1       0.318  -1.383   0.049  0.00  0.00    -0.001 A 
ENDROOT
TORSDOF 0
ENDMDL
