MODEL 1
REMARK minimizedAffinity -2.66444874
REMARK minimizedRMSD -1
REMARK  0 active torsions:
REMARK  status: ('A' for Active; 'I' for Inactive)
ROOT
ATOM      1  C   UNL d   1      -2.079   0.024   1.483  0.00  0.00     0.077 C 
ATOM      2  C1  UNL d   1      -0.808  -0.121   0.700  0.00  0.00    -0.074 A 
ATOM      3  C2  UNL d   1      -0.207  -1.372   0.530  0.00  0.00    -0.005 A 
ATOM      4  C3  UNL d   1       0.969  -1.493  -0.209  0.00  0.00     0.006 A 
ATOM      5  C4  UNL d   1       1.556  -0.366  -0.786  0.00  0.00    -0.005 A 
ATOM      6  C5  UNL d   1       0.969   0.894  -0.628  0.00  0.00    -0.074 A 
ATOM      7  C6  UNL d   1       1.580   2.114  -1.249  0.00  0.00     0.077 C 
ATOM      8  C7  UNL d   1      -0.217   1.006   0.111  0.00  0.00    -0.001 A 
ENDROOT
TORSDOF 0
ENDMDL
