MODEL 1
REMARK minimizedAffinity -3.39585638
REMARK minimizedRMSD -1
REMARK  0 active torsions:
REMARK  status: ('A' for Active; 'I' for Inactive)
ROOT
ATOM      1  C   UNL d   1      -0.741   0.385   0.460  0.00  0.00     0.077 C 
ATOM      2  C1  UNL d   1       0.416  -0.059  -0.385  0.00  0.00    -0.074 A 
ATOM      3  C2  UNL d   1       1.194   0.870  -1.084  0.00  0.00    -0.005 A 
ATOM      4  C3  UNL d   1       2.272   0.443  -1.858  0.00  0.00     0.006 A 
ATOM      5  C4  UNL d   1       2.583  -0.914  -1.943  0.00  0.00    -0.005 A 
ATOM      6  C5  UNL d   1       1.817  -1.858  -1.251  0.00  0.00    -0.074 A 
ATOM      7  C6  UNL d   1       2.144  -3.320  -1.323  0.00  0.00     0.077 C 
ATOM      8  C7  UNL d   1       0.739  -1.421  -0.469  0.00  0.00    -0.001 A 
ENDROOT
TORSDOF 0
ENDMDL
