MODEL 1
REMARK minimizedAffinity -1.29212916
REMARK minimizedRMSD -1
REMARK  0 active torsions:
REMARK  status: ('A' for Active; 'I' for Inactive)
ROOT
ATOM      1  C   UNL d   1      -2.151   1.094   3.678  0.00  0.00     0.077 C 
ATOM      2  C1  UNL d   1      -2.046   0.897   2.195  0.00  0.00    -0.074 A 
ATOM      3  C2  UNL d   1      -3.185   0.922   1.384  0.00  0.00    -0.005 A 
ATOM      4  C3  UNL d   1      -3.070   0.747   0.005  0.00  0.00     0.006 A 
ATOM      5  C4  UNL d   1      -1.818   0.546  -0.577  0.00  0.00    -0.005 A 
ATOM      6  C5  UNL d   1      -0.667   0.519   0.218  0.00  0.00    -0.074 A 
ATOM      7  C6  UNL d   1       0.687   0.314  -0.392  0.00  0.00     0.077 C 
ATOM      8  C7  UNL d   1      -0.790   0.703   1.602  0.00  0.00    -0.001 A 
ENDROOT
TORSDOF 0
ENDMDL
