MODEL 1
REMARK minimizedAffinity -3.29623461
REMARK minimizedRMSD -1
REMARK  0 active torsions:
REMARK  status: ('A' for Active; 'I' for Inactive)
ROOT
ATOM      1  C   UNL d   1      -0.637   2.326  -1.194  0.00  0.00     0.077 C 
ATOM      2  C1  UNL d   1      -1.101   1.312  -0.191  0.00  0.00    -0.074 A 
ATOM      3  C2  UNL d   1      -0.341   0.170   0.080  0.00  0.00    -0.005 A 
ATOM      4  C3  UNL d   1      -0.781  -0.760   1.023  0.00  0.00     0.006 A 
ATOM      5  C4  UNL d   1      -1.982  -0.557   1.702  0.00  0.00    -0.005 A 
ATOM      6  C5  UNL d   1      -2.755   0.580   1.445  0.00  0.00    -0.074 A 
ATOM      7  C6  UNL d   1      -4.044   0.818   2.174  0.00  0.00     0.077 C 
ATOM      8  C7  UNL d   1      -2.303   1.513   0.502  0.00  0.00    -0.001 A 
ENDROOT
TORSDOF 0
ENDMDL
