MODEL 1
REMARK minimizedAffinity -1.9282738
REMARK minimizedRMSD -1
REMARK  0 active torsions:
REMARK  status: ('A' for Active; 'I' for Inactive)
ROOT
ATOM      1  C   UNL d   1       0.379  -2.346   0.370  0.00  0.00     0.077 C 
ATOM      2  C1  UNL d   1      -0.136  -0.937   0.371  0.00  0.00    -0.074 A 
ATOM      3  C2  UNL d   1       0.565   0.085  -0.277  0.00  0.00    -0.005 A 
ATOM      4  C3  UNL d   1       0.069   1.388  -0.275  0.00  0.00     0.006 A 
ATOM      5  C4  UNL d   1      -1.132   1.683   0.373  0.00  0.00    -0.005 A 
ATOM      6  C5  UNL d   1      -1.847   0.674   1.026  0.00  0.00    -0.074 A 
ATOM      7  C6  UNL d   1      -3.143   0.971   1.719  0.00  0.00     0.077 C 
ATOM      8  C7  UNL d   1      -1.345  -0.635   1.014  0.00  0.00    -0.001 A 
ENDROOT
TORSDOF 0
ENDMDL
