MODEL 1
REMARK minimizedAffinity -3.47576666
REMARK minimizedRMSD -1
REMARK  0 active torsions:
REMARK  status: ('A' for Active; 'I' for Inactive)
ROOT
ATOM      1  C   UNL d   1       2.453  -2.198  -1.840  0.00  0.00     0.077 C 
ATOM      2  C1  UNL d   1       1.871  -0.937  -1.275  0.00  0.00    -0.074 A 
ATOM      3  C2  UNL d   1       2.348   0.316  -1.673  0.00  0.00    -0.005 A 
ATOM      4  C3  UNL d   1       1.790   1.481  -1.146  0.00  0.00     0.006 A 
ATOM      5  C4  UNL d   1       0.750   1.404  -0.218  0.00  0.00    -0.005 A 
ATOM      6  C5  UNL d   1       0.260   0.160   0.191  0.00  0.00    -0.074 A 
ATOM      7  C6  UNL d   1      -0.863   0.061   1.180  0.00  0.00     0.077 C 
ATOM      8  C7  UNL d   1       0.821  -1.005  -0.348  0.00  0.00    -0.001 A 
ENDROOT
TORSDOF 0
ENDMDL
