MODEL 1
REMARK minimizedAffinity -1.734442
REMARK minimizedRMSD -1
REMARK  0 active torsions:
REMARK  status: ('A' for Active; 'I' for Inactive)
ROOT
ATOM      1  C   UNL d   1      -0.525   2.266  -1.273  0.00  0.00     0.077 C 
ATOM      2  C1  UNL d   1      -0.896   1.314  -0.175  0.00  0.00    -0.074 A 
ATOM      3  C2  UNL d   1       0.061   0.473   0.402  0.00  0.00    -0.005 A 
ATOM      4  C3  UNL d   1      -0.297  -0.400   1.429  0.00  0.00     0.006 A 
ATOM      5  C4  UNL d   1      -1.614  -0.442   1.889  0.00  0.00    -0.005 A 
ATOM      6  C5  UNL d   1      -2.585   0.392   1.325  0.00  0.00    -0.074 A 
ATOM      7  C6  UNL d   1      -4.002   0.366   1.814  0.00  0.00     0.077 C 
ATOM      8  C7  UNL d   1      -2.216   1.272   0.298  0.00  0.00    -0.001 A 
ENDROOT
TORSDOF 0
ENDMDL
