MODEL 1
REMARK minimizedAffinity -0.590359092
REMARK minimizedRMSD -1
REMARK  0 active torsions:
REMARK  status: ('A' for Active; 'I' for Inactive)
ROOT
ATOM      1  C   UNL d   1       0.700   0.929  -0.865  0.00  0.00     0.077 C 
ATOM      2  C1  UNL d   1      -0.173   0.250   0.148  0.00  0.00    -0.074 A 
ATOM      3  C2  UNL d   1       0.204  -0.968   0.722  0.00  0.00    -0.005 A 
ATOM      4  C3  UNL d   1      -0.614  -1.582   1.669  0.00  0.00     0.006 A 
ATOM      5  C4  UNL d   1      -1.817  -0.987   2.051  0.00  0.00    -0.005 A 
ATOM      6  C5  UNL d   1      -2.211   0.231   1.488  0.00  0.00    -0.074 A 
ATOM      7  C6  UNL d   1      -3.495   0.890   1.895  0.00  0.00     0.077 C 
ATOM      8  C7  UNL d   1      -1.379   0.846   0.542  0.00  0.00    -0.001 A 
ENDROOT
TORSDOF 0
ENDMDL
