MODEL 1
REMARK minimizedAffinity -3.13979959
REMARK minimizedRMSD -1
REMARK  0 active torsions:
REMARK  status: ('A' for Active; 'I' for Inactive)
ROOT
ATOM      1  C   UNL d   1       2.654  -2.232  -1.306  0.00  0.00     0.077 C 
ATOM      2  C1  UNL d   1       1.904  -0.945  -1.130  0.00  0.00    -0.074 A 
ATOM      3  C2  UNL d   1       2.344   0.233  -1.741  0.00  0.00    -0.005 A 
ATOM      4  C3  UNL d   1       1.630   1.420  -1.575  0.00  0.00     0.006 A 
ATOM      5  C4  UNL d   1       0.471   1.441  -0.799  0.00  0.00    -0.005 A 
ATOM      6  C5  UNL d   1       0.015   0.272  -0.181  0.00  0.00    -0.074 A 
ATOM      7  C6  UNL d   1      -1.234   0.275   0.649  0.00  0.00     0.077 C 
ATOM      8  C7  UNL d   1       0.734  -0.918  -0.358  0.00  0.00    -0.001 A 
ENDROOT
TORSDOF 0
ENDMDL
