MODEL 1
REMARK minimizedAffinity -2.72515249
REMARK minimizedRMSD -1
REMARK  0 active torsions:
REMARK  status: ('A' for Active; 'I' for Inactive)
ROOT
ATOM      1  C   UNL d   1       2.383   0.378  -2.278  0.00  0.00     0.077 C 
ATOM      2  C1  UNL d   1       1.159   0.357  -1.411  0.00  0.00    -0.074 A 
ATOM      3  C2  UNL d   1       0.012   1.071  -1.770  0.00  0.00    -0.005 A 
ATOM      4  C3  UNL d   1      -1.122   1.034  -0.959  0.00  0.00     0.006 A 
ATOM      5  C4  UNL d   1      -1.120   0.283   0.217  0.00  0.00    -0.005 A 
ATOM      6  C5  UNL d   1       0.018  -0.438   0.592  0.00  0.00    -0.074 A 
ATOM      7  C6  UNL d   1       0.034  -1.258   1.848  0.00  0.00     0.077 C 
ATOM      8  C7  UNL d   1       1.151  -0.401  -0.232  0.00  0.00    -0.001 A 
ENDROOT
TORSDOF 0
ENDMDL
