MODEL 1
REMARK minimizedAffinity -3.06954861
REMARK minimizedRMSD -1
REMARK  0 active torsions:
REMARK  status: ('A' for Active; 'I' for Inactive)
ROOT
ATOM      1  C   UNL d   1      -3.755   0.053   1.870  0.00  0.00     0.077 C 
ATOM      2  C1  UNL d   1      -2.372   0.262   1.330  0.00  0.00    -0.074 A 
ATOM      3  C2  UNL d   1      -1.276  -0.408   1.882  0.00  0.00    -0.005 A 
ATOM      4  C3  UNL d   1       0.004  -0.211   1.363  0.00  0.00     0.006 A 
ATOM      5  C4  UNL d   1       0.200   0.658   0.289  0.00  0.00    -0.005 A 
ATOM      6  C5  UNL d   1      -0.884   1.337  -0.276  0.00  0.00    -0.074 A 
ATOM      7  C6  UNL d   1      -0.692   2.266  -1.438  0.00  0.00     0.077 C 
ATOM      8  C7  UNL d   1      -2.168   1.128   0.246  0.00  0.00    -0.001 A 
ENDROOT
TORSDOF 0
ENDMDL
