MODEL 1
REMARK minimizedAffinity -1.68008351
REMARK minimizedRMSD -1
REMARK  0 active torsions:
REMARK  status: ('A' for Active; 'I' for Inactive)
ROOT
ATOM      1  C   UNL d   1       2.451   1.119  -0.179  0.00  0.00     0.077 C 
ATOM      2  C1  UNL d   1       1.022   0.684  -0.042  0.00  0.00    -0.074 A 
ATOM      3  C2  UNL d   1      -0.025   1.597  -0.201  0.00  0.00    -0.005 A 
ATOM      4  C3  UNL d   1      -1.350   1.176  -0.081  0.00  0.00     0.006 A 
ATOM      5  C4  UNL d   1      -1.640  -0.160   0.200  0.00  0.00    -0.005 A 
ATOM      6  C5  UNL d   1      -0.605  -1.087   0.361  0.00  0.00    -0.074 A 
ATOM      7  C6  UNL d   1      -0.900  -2.529   0.653  0.00  0.00     0.077 C 
ATOM      8  C7  UNL d   1       0.723  -0.658   0.232  0.00  0.00    -0.001 A 
ENDROOT
TORSDOF 0
ENDMDL
