MODEL 1
REMARK minimizedAffinity 8.90175247
REMARK minimizedRMSD -1
REMARK  0 active torsions:
REMARK  status: ('A' for Active; 'I' for Inactive)
ROOT
ATOM      1  C   UNL d   1       2.918   1.210   1.967  0.00  0.00     0.077 C 
ATOM      2  C1  UNL d   1       1.892   1.729   1.005  0.00  0.00    -0.074 A 
ATOM      3  C2  UNL d   1       1.710   1.128  -0.245  0.00  0.00    -0.005 A 
ATOM      4  C3  UNL d   1       0.745   1.616  -1.126  0.00  0.00     0.006 A 
ATOM      5  C4  UNL d   1      -0.046   2.708  -0.767  0.00  0.00    -0.005 A 
ATOM      6  C5  UNL d   1       0.121   3.321   0.479  0.00  0.00    -0.074 A 
ATOM      7  C6  UNL d   1      -0.727   4.490   0.884  0.00  0.00     0.077 C 
ATOM      8  C7  UNL d   1       1.088   2.821   1.361  0.00  0.00    -0.001 A 
ENDROOT
TORSDOF 0
ENDMDL
