MODEL 1
REMARK minimizedAffinity -3.5346303
REMARK minimizedRMSD -1
REMARK  0 active torsions:
REMARK  status: ('A' for Active; 'I' for Inactive)
ROOT
ATOM      1  C   UNL d   1       3.251  -0.551   1.621  0.00  0.00     0.077 C 
ATOM      2  C1  UNL d   1       1.902  -0.053   1.196  0.00  0.00    -0.074 A 
ATOM      3  C2  UNL d   1       0.781  -0.888   1.241  0.00  0.00    -0.005 A 
ATOM      4  C3  UNL d   1      -0.470  -0.408   0.851  0.00  0.00     0.006 A 
ATOM      5  C4  UNL d   1      -0.612   0.909   0.412  0.00  0.00    -0.005 A 
ATOM      6  C5  UNL d   1       0.498   1.759   0.361  0.00  0.00    -0.074 A 
ATOM      7  C6  UNL d   1       0.361   3.180  -0.098  0.00  0.00     0.077 C 
ATOM      8  C7  UNL d   1       1.750   1.271   0.761  0.00  0.00    -0.001 A 
ENDROOT
TORSDOF 0
ENDMDL
