MODEL 1
REMARK minimizedAffinity -2.65046525
REMARK minimizedRMSD -1
REMARK  0 active torsions:
REMARK  status: ('A' for Active; 'I' for Inactive)
ROOT
ATOM      1  C   UNL d   1      -0.780  -0.797   0.122  0.00  0.00     0.077 C 
ATOM      2  C1  UNL d   1       0.392  -0.114   0.763  0.00  0.00    -0.074 A 
ATOM      3  C2  UNL d   1       0.816   1.146   0.328  0.00  0.00    -0.005 A 
ATOM      4  C3  UNL d   1       1.901   1.773   0.940  0.00  0.00     0.006 A 
ATOM      5  C4  UNL d   1       2.573   1.147   1.990  0.00  0.00    -0.005 A 
ATOM      6  C5  UNL d   1       2.163  -0.112   2.440  0.00  0.00    -0.074 A 
ATOM      7  C6  UNL d   1       2.868  -0.794   3.574  0.00  0.00     0.077 C 
ATOM      8  C7  UNL d   1       1.067  -0.733   1.824  0.00  0.00    -0.001 A 
ENDROOT
TORSDOF 0
ENDMDL
