MODEL 1
REMARK minimizedAffinity 3.46496844
REMARK minimizedRMSD -1
REMARK  0 active torsions:
REMARK  status: ('A' for Active; 'I' for Inactive)
ROOT
ATOM      1  C   UNL d   1       3.345  -4.569  -5.999  0.00  0.00     0.077 C 
ATOM      2  C1  UNL d   1       3.868  -3.373  -5.260  0.00  0.00    -0.074 A 
ATOM      3  C2  UNL d   1       3.596  -3.193  -3.900  0.00  0.00    -0.005 A 
ATOM      4  C3  UNL d   1       4.097  -2.081  -3.223  0.00  0.00     0.006 A 
ATOM      5  C4  UNL d   1       4.874  -1.139  -3.899  0.00  0.00    -0.005 A 
ATOM      6  C5  UNL d   1       5.158  -1.303  -5.259  0.00  0.00    -0.074 A 
ATOM      7  C6  UNL d   1       5.999  -0.305  -5.998  0.00  0.00     0.077 C 
ATOM      8  C7  UNL d   1       4.656  -2.427  -5.930  0.00  0.00    -0.001 A 
ENDROOT
TORSDOF 0
ENDMDL
