MODEL 1
REMARK minimizedAffinity 9.7353363
REMARK minimizedRMSD -1
REMARK  0 active torsions:
REMARK  status: ('A' for Active; 'I' for Inactive)
ROOT
ATOM      1  C   UNL d   1      -2.551  -0.350  -3.826  0.00  0.00     0.077 C 
ATOM      2  C1  UNL d   1      -3.411   0.873  -3.709  0.00  0.00    -0.074 A 
ATOM      3  C2  UNL d   1      -3.815   1.579  -4.847  0.00  0.00    -0.005 A 
ATOM      4  C3  UNL d   1      -4.623   2.709  -4.724  0.00  0.00     0.006 A 
ATOM      5  C4  UNL d   1      -5.034   3.144  -3.463  0.00  0.00    -0.005 A 
ATOM      6  C5  UNL d   1      -4.641   2.451  -2.314  0.00  0.00    -0.074 A 
ATOM      7  C6  UNL d   1      -5.083   2.900  -0.953  0.00  0.00     0.077 C 
ATOM      8  C7  UNL d   1      -3.835   1.312  -2.447  0.00  0.00    -0.001 A 
ENDROOT
TORSDOF 0
ENDMDL
