MODEL 1
REMARK minimizedAffinity 3.66353512
REMARK minimizedRMSD -1
REMARK  0 active torsions:
REMARK  status: ('A' for Active; 'I' for Inactive)
ROOT
ATOM      1  C   UNL d   1      -2.927  -0.877  -3.093  0.00  0.00     0.077 C 
ATOM      2  C1  UNL d   1      -1.687  -1.457  -2.481  0.00  0.00    -0.074 A 
ATOM      3  C2  UNL d   1      -0.635  -1.912  -3.282  0.00  0.00    -0.005 A 
ATOM      4  C3  UNL d   1       0.517  -2.439  -2.698  0.00  0.00     0.006 A 
ATOM      5  C4  UNL d   1       0.627  -2.518  -1.309  0.00  0.00    -0.005 A 
ATOM      6  C5  UNL d   1      -0.414  -2.068  -0.492  0.00  0.00    -0.074 A 
ATOM      7  C6  UNL d   1      -0.308  -2.136   1.003  0.00  0.00     0.077 C 
ATOM      8  C7  UNL d   1      -1.565  -1.532  -1.086  0.00  0.00    -0.001 A 
ENDROOT
TORSDOF 0
ENDMDL
