MODEL 1
REMARK minimizedAffinity 5.13437891
REMARK minimizedRMSD -1
REMARK  0 active torsions:
REMARK  status: ('A' for Active; 'I' for Inactive)
ROOT
ATOM      1  C   UNL d   1       2.433   1.726   0.920  0.00  0.00     0.077 C 
ATOM      2  C1  UNL d   1       1.785   0.431   1.313  0.00  0.00    -0.074 A 
ATOM      3  C2  UNL d   1       0.852  -0.189   0.476  0.00  0.00    -0.005 A 
ATOM      4  C3  UNL d   1       0.265  -1.397   0.850  0.00  0.00     0.006 A 
ATOM      5  C4  UNL d   1       0.603  -1.997   2.064  0.00  0.00    -0.005 A 
ATOM      6  C5  UNL d   1       1.534  -1.392   2.914  0.00  0.00    -0.074 A 
ATOM      7  C6  UNL d   1       1.917  -2.028   4.217  0.00  0.00     0.077 C 
ATOM      8  C7  UNL d   1       2.125  -0.181   2.527  0.00  0.00    -0.001 A 
ENDROOT
TORSDOF 0
ENDMDL
