MODEL 1
REMARK minimizedAffinity 8.20522308
REMARK minimizedRMSD -1
REMARK  0 active torsions:
REMARK  status: ('A' for Active; 'I' for Inactive)
ROOT
ATOM      1  C   UNL d   1      -0.485   0.665  -0.096  0.00  0.00     0.077 C 
ATOM      2  C1  UNL d   1       0.709   0.955   0.764  0.00  0.00    -0.074 A 
ATOM      3  C2  UNL d   1       1.615   1.963   0.421  0.00  0.00    -0.005 A 
ATOM      4  C3  UNL d   1       2.716   2.227   1.236  0.00  0.00     0.006 A 
ATOM      5  C4  UNL d   1       2.921   1.487   2.400  0.00  0.00    -0.005 A 
ATOM      6  C5  UNL d   1       2.026   0.475   2.760  0.00  0.00    -0.074 A 
ATOM      7  C6  UNL d   1       2.227  -0.324   4.014  0.00  0.00     0.077 C 
ATOM      8  C7  UNL d   1       0.918   0.220   1.940  0.00  0.00    -0.001 A 
ENDROOT
TORSDOF 0
ENDMDL
