MODEL 1
REMARK minimizedAffinity 7.61070156
REMARK minimizedRMSD -1
REMARK  1 active torsions:
REMARK  status: ('A' for Active; 'I' for Inactive)
REMARK    1  A    between atoms: C1_2  and  C2_3 
ROOT
ATOM      1  C2  UNL d   1      -2.084  -2.684  -3.388  0.00  0.00    -0.077 A 
ATOM      2  C3  UNL d   1      -0.734  -3.062  -3.396  0.00  0.00     0.002 A 
ATOM      3  C4  UNL d   1       0.269  -2.104  -3.236  0.00  0.00     0.002 A 
ATOM      4  C5  UNL d   1      -0.068  -0.763  -3.062  0.00  0.00    -0.004 A 
ATOM      5  C6  UNL d   1      -1.407  -0.377  -3.055  0.00  0.00     0.002 A 
ATOM      6  C7  UNL d   1      -2.411  -1.333  -3.216  0.00  0.00     0.002 A 
ENDROOT
BRANCH   1   7
ATOM      7  C1  UNL d   1      -3.168  -3.723  -3.512  0.00  0.00     0.055 C 
ATOM      8  C   UNL d   1      -2.947  -4.872  -2.540  0.00  0.00     0.019 C 
ENDBRANCH   1   7
TORSDOF 1
ENDMDL
