MODEL 1
REMARK minimizedAffinity 13.8188648
REMARK minimizedRMSD -1
REMARK  1 active torsions:
REMARK  status: ('A' for Active; 'I' for Inactive)
REMARK    1  A    between atoms: C1_2  and  C2_3 
ROOT
ATOM      1  C2  UNL d   1       3.534   0.519  -0.651  0.00  0.00    -0.077 A 
ATOM      2  C3  UNL d   1       2.524   0.595  -1.621  0.00  0.00     0.002 A 
ATOM      3  C4  UNL d   1       1.784  -0.539  -1.960  0.00  0.00     0.002 A 
ATOM      4  C5  UNL d   1       2.042  -1.755  -1.332  0.00  0.00    -0.004 A 
ATOM      5  C6  UNL d   1       3.045  -1.842  -0.368  0.00  0.00     0.002 A 
ATOM      6  C7  UNL d   1       3.787  -0.710  -0.028  0.00  0.00     0.002 A 
ENDROOT
BRANCH   1   7
ATOM      7  C1  UNL d   1       4.300   1.751  -0.248  0.00  0.00     0.055 C 
ATOM      8  C   UNL d   1       3.693   2.402   0.987  0.00  0.00     0.019 C 
ENDBRANCH   1   7
TORSDOF 1
ENDMDL
