MODEL 1
REMARK minimizedAffinity 11.2405157
REMARK minimizedRMSD -1
REMARK  1 active torsions:
REMARK  status: ('A' for Active; 'I' for Inactive)
REMARK    1  A    between atoms: C1_2  and  C2_3 
ROOT
ATOM      1  C2  UNL d   1       2.483  -3.571  -1.400  0.00  0.00    -0.077 A 
ATOM      2  C3  UNL d   1       1.558  -3.583  -2.454  0.00  0.00     0.002 A 
ATOM      3  C4  UNL d   1       1.129  -4.793  -3.003  0.00  0.00     0.002 A 
ATOM      4  C5  UNL d   1       1.617  -5.999  -2.502  0.00  0.00    -0.004 A 
ATOM      5  C6  UNL d   1       2.539  -5.997  -1.456  0.00  0.00     0.002 A 
ATOM      6  C7  UNL d   1       2.969  -4.788  -0.907  0.00  0.00     0.002 A 
ENDROOT
BRANCH   1   7
ATOM      7  C1  UNL d   1       2.909  -2.268  -0.774  0.00  0.00     0.055 C 
ATOM      8  C   UNL d   1       2.400  -1.077  -1.573  0.00  0.00     0.019 C 
ENDBRANCH   1   7
TORSDOF 1
ENDMDL
