MODEL 1
REMARK minimizedAffinity 7.55428553
REMARK minimizedRMSD -1
REMARK  1 active torsions:
REMARK  status: ('A' for Active; 'I' for Inactive)
REMARK    1  A    between atoms: C1_2  and  C2_3 
ROOT
ATOM      1  C2  UNL d   1      -2.171   0.203   2.713  0.00  0.00    -0.077 A 
ATOM      2  C3  UNL d   1      -2.589  -0.365   3.924  0.00  0.00     0.002 A 
ATOM      3  C4  UNL d   1      -3.778  -1.094   3.990  0.00  0.00     0.002 A 
ATOM      4  C5  UNL d   1      -4.556  -1.265   2.847  0.00  0.00    -0.004 A 
ATOM      5  C6  UNL d   1      -4.151  -0.702   1.638  0.00  0.00     0.002 A 
ATOM      6  C7  UNL d   1      -2.963   0.028   1.570  0.00  0.00     0.002 A 
ENDROOT
BRANCH   1   7
ATOM      7  C1  UNL d   1      -0.864   0.947   2.629  0.00  0.00     0.055 C 
ATOM      8  C   UNL d   1       0.311   0.043   2.970  0.00  0.00     0.019 C 
ENDBRANCH   1   7
TORSDOF 1
ENDMDL
