MODEL 1
REMARK minimizedAffinity -1.07147145
REMARK minimizedRMSD -1
REMARK  1 active torsions:
REMARK  status: ('A' for Active; 'I' for Inactive)
REMARK    1  A    between atoms: C1_2  and  C2_3 
ROOT
ATOM      1  C2  UNL d   1      -4.242  -4.330  -5.251  0.00  0.00    -0.077 A 
ATOM      2  C3  UNL d   1      -3.165  -3.835  -6.000  0.00  0.00     0.002 A 
ATOM      3  C4  UNL d   1      -1.894  -3.740  -5.431  0.00  0.00     0.002 A 
ATOM      4  C5  UNL d   1      -1.686  -4.142  -4.113  0.00  0.00    -0.004 A 
ATOM      5  C6  UNL d   1      -2.751  -4.634  -3.360  0.00  0.00     0.002 A 
ATOM      6  C7  UNL d   1      -4.023  -4.729  -3.926  0.00  0.00     0.002 A 
ENDROOT
BRANCH   1   7
ATOM      7  C1  UNL d   1      -5.603  -4.480  -5.878  0.00  0.00     0.055 C 
ATOM      8  C   UNL d   1      -5.999  -5.944  -5.999  0.00  0.00     0.019 C 
ENDBRANCH   1   7
TORSDOF 1
ENDMDL
