MODEL 1
REMARK minimizedAffinity 16.8019962
REMARK minimizedRMSD -1
REMARK  1 active torsions:
REMARK  status: ('A' for Active; 'I' for Inactive)
REMARK    1  A    between atoms: C1_2  and  C2_3 
ROOT
ATOM      1  C2  UNL d   1      -4.522  -0.930   2.744  0.00  0.00    -0.077 A 
ATOM      2  C3  UNL d   1      -3.789  -0.653   3.907  0.00  0.00     0.002 A 
ATOM      3  C4  UNL d   1      -2.723   0.248   3.872  0.00  0.00     0.002 A 
ATOM      4  C5  UNL d   1      -2.382   0.881   2.679  0.00  0.00    -0.004 A 
ATOM      5  C6  UNL d   1      -3.103   0.610   1.517  0.00  0.00     0.002 A 
ATOM      6  C7  UNL d   1      -4.168  -0.290   1.549  0.00  0.00     0.002 A 
ENDROOT
BRANCH   1   7
ATOM      7  C1  UNL d   1      -5.703  -1.864   2.790  0.00  0.00     0.055 C 
ATOM      8  C   UNL d   1      -5.997  -2.453   1.418  0.00  0.00     0.019 C 
ENDBRANCH   1   7
TORSDOF 1
ENDMDL
