MODEL 1
REMARK minimizedAffinity 9.59550571
REMARK minimizedRMSD -1
REMARK  1 active torsions:
REMARK  status: ('A' for Active; 'I' for Inactive)
REMARK    1  A    between atoms: C1_2  and  C2_3 
ROOT
ATOM      1  C2  UNL d   1      -2.800   0.037   2.433  0.00  0.00    -0.077 A 
ATOM      2  C3  UNL d   1      -2.189   1.299   2.437  0.00  0.00     0.002 A 
ATOM      3  C4  UNL d   1      -0.812   1.416   2.632  0.00  0.00     0.002 A 
ATOM      4  C5  UNL d   1      -0.033   0.276   2.821  0.00  0.00    -0.004 A 
ATOM      5  C6  UNL d   1      -0.632  -0.983   2.821  0.00  0.00     0.002 A 
ATOM      6  C7  UNL d   1      -2.009  -1.102   2.627  0.00  0.00     0.002 A 
ENDROOT
BRANCH   1   7
ATOM      7  C1  UNL d   1      -4.278  -0.095   2.173  0.00  0.00     0.055 C 
ATOM      8  C   UNL d   1      -4.610  -1.434   1.530  0.00  0.00     0.019 C 
ENDBRANCH   1   7
TORSDOF 1
ENDMDL
