MODEL 1
REMARK minimizedAffinity 3.81191206
REMARK minimizedRMSD -1
REMARK  1 active torsions:
REMARK  status: ('A' for Active; 'I' for Inactive)
REMARK    1  A    between atoms: C1_2  and  C2_3 
ROOT
ATOM      1  C2  UNL d   1      -3.749  -3.835  -5.008  0.00  0.00    -0.077 A 
ATOM      2  C3  UNL d   1      -3.767  -5.235  -5.072  0.00  0.00     0.002 A 
ATOM      3  C4  UNL d   1      -4.889  -5.905  -5.563  0.00  0.00     0.002 A 
ATOM      4  C5  UNL d   1      -5.999  -5.183  -5.997  0.00  0.00    -0.004 A 
ATOM      5  C6  UNL d   1      -5.992  -3.790  -5.935  0.00  0.00     0.002 A 
ATOM      6  C7  UNL d   1      -4.872  -3.119  -5.444  0.00  0.00     0.002 A 
ENDROOT
BRANCH   1   7
ATOM      7  C1  UNL d   1      -2.521  -3.108  -4.524  0.00  0.00     0.055 C 
ATOM      8  C   UNL d   1      -1.389  -4.078  -4.218  0.00  0.00     0.019 C 
ENDBRANCH   1   7
TORSDOF 1
ENDMDL
