MODEL 1
REMARK minimizedAffinity -1.43900406
REMARK minimizedRMSD -1
REMARK  1 active torsions:
REMARK  status: ('A' for Active; 'I' for Inactive)
REMARK    1  A    between atoms: C1_2  and  C2_3 
ROOT
ATOM      1  C2  UNL d   1      -1.543  -4.353  -4.002  0.00  0.00    -0.077 A 
ATOM      2  C3  UNL d   1      -2.421  -4.952  -3.087  0.00  0.00     0.002 A 
ATOM      3  C4  UNL d   1      -3.777  -5.081  -3.392  0.00  0.00     0.002 A 
ATOM      4  C5  UNL d   1      -4.267  -4.617  -4.611  0.00  0.00    -0.004 A 
ATOM      5  C6  UNL d   1      -3.402  -4.018  -5.526  0.00  0.00     0.002 A 
ATOM      6  C7  UNL d   1      -2.046  -3.888  -5.223  0.00  0.00     0.002 A 
ENDROOT
BRANCH   1   7
ATOM      7  C1  UNL d   1      -0.071  -4.258  -3.696  0.00  0.00     0.055 C 
ATOM      8  C   UNL d   1       0.432  -5.514  -2.999  0.00  0.00     0.019 C 
ENDBRANCH   1   7
TORSDOF 1
ENDMDL
