MODEL 1
REMARK minimizedAffinity 4.92620039
REMARK minimizedRMSD -1
REMARK  1 active torsions:
REMARK  status: ('A' for Active; 'I' for Inactive)
REMARK    1  A    between atoms: C1_2  and  C2_3 
ROOT
ATOM      1  C2  UNL d   1      -3.917  -3.617  -4.160  0.00  0.00    -0.077 A 
ATOM      2  C3  UNL d   1      -2.797  -2.774  -4.194  0.00  0.00     0.002 A 
ATOM      3  C4  UNL d   1      -1.627  -3.127  -3.519  0.00  0.00     0.002 A 
ATOM      4  C5  UNL d   1      -1.564  -4.324  -2.809  0.00  0.00    -0.004 A 
ATOM      5  C6  UNL d   1      -2.673  -5.168  -2.768  0.00  0.00     0.002 A 
ATOM      6  C7  UNL d   1      -3.844  -4.817  -3.441  0.00  0.00     0.002 A 
ENDROOT
BRANCH   1   7
ATOM      7  C1  UNL d   1      -5.163  -3.262  -4.929  0.00  0.00     0.055 C 
ATOM      8  C   UNL d   1      -5.499  -4.328  -5.962  0.00  0.00     0.019 C 
ENDBRANCH   1   7
TORSDOF 1
ENDMDL
