MODEL 1
REMARK minimizedAffinity -0.703789532
REMARK minimizedRMSD -1
REMARK  1 active torsions:
REMARK  status: ('A' for Active; 'I' for Inactive)
REMARK    1  A    between atoms: C1_2  and  C2_3 
ROOT
ATOM      1  C2  UNL d   1      -3.521  -4.229  -5.121  0.00  0.00    -0.077 A 
ATOM      2  C3  UNL d   1      -2.254  -3.936  -5.643  0.00  0.00     0.002 A 
ATOM      3  C4  UNL d   1      -1.114  -4.070  -4.848  0.00  0.00     0.002 A 
ATOM      4  C5  UNL d   1      -1.230  -4.500  -3.528  0.00  0.00    -0.004 A 
ATOM      5  C6  UNL d   1      -2.487  -4.792  -2.998  0.00  0.00     0.002 A 
ATOM      6  C7  UNL d   1      -3.627  -4.658  -3.791  0.00  0.00     0.002 A 
ENDROOT
BRANCH   1   7
ATOM      7  C1  UNL d   1      -4.747  -4.133  -5.992  0.00  0.00     0.055 C 
ATOM      8  C   UNL d   1      -5.524  -5.442  -6.000  0.00  0.00     0.019 C 
ENDBRANCH   1   7
TORSDOF 1
ENDMDL
