MODEL 1
REMARK minimizedAffinity 1.98197889
REMARK minimizedRMSD -1
REMARK  1 active torsions:
REMARK  status: ('A' for Active; 'I' for Inactive)
REMARK    1  A    between atoms: C1_2  and  C2_3 
ROOT
ATOM      1  C2  UNL d   1      -2.755  -3.839  -4.368  0.00  0.00    -0.077 A 
ATOM      2  C3  UNL d   1      -1.365  -3.652  -4.358  0.00  0.00     0.002 A 
ATOM      3  C4  UNL d   1      -0.567  -4.338  -3.441  0.00  0.00     0.002 A 
ATOM      4  C5  UNL d   1      -1.148  -5.219  -2.531  0.00  0.00    -0.004 A 
ATOM      5  C6  UNL d   1      -2.529  -5.411  -2.531  0.00  0.00     0.002 A 
ATOM      6  C7  UNL d   1      -3.328  -4.725  -3.446  0.00  0.00     0.002 A 
ENDROOT
BRANCH   1   7
ATOM      7  C1  UNL d   1      -3.612  -3.138  -5.388  0.00  0.00     0.055 C 
ATOM      8  C   UNL d   1      -4.815  -3.986  -5.778  0.00  0.00     0.019 C 
ENDBRANCH   1   7
TORSDOF 1
ENDMDL
