MODEL 1
REMARK minimizedAffinity 3.98066854
REMARK minimizedRMSD -1
REMARK  1 active torsions:
REMARK  status: ('A' for Active; 'I' for Inactive)
REMARK    1  A    between atoms: C1_2  and  C2_3 
ROOT
ATOM      1  C2  UNL d   1      -3.242  -4.069  -4.783  0.00  0.00    -0.077 A 
ATOM      2  C3  UNL d   1      -3.589  -2.711  -4.823  0.00  0.00     0.002 A 
ATOM      3  C4  UNL d   1      -4.778  -2.303  -5.430  0.00  0.00     0.002 A 
ATOM      4  C5  UNL d   1      -5.631  -3.247  -5.999  0.00  0.00    -0.004 A 
ATOM      5  C6  UNL d   1      -5.294  -4.599  -5.967  0.00  0.00     0.002 A 
ATOM      6  C7  UNL d   1      -4.105  -5.008  -5.361  0.00  0.00     0.002 A 
ENDROOT
BRANCH   1   7
ATOM      7  C1  UNL d   1      -1.985  -4.515  -4.085  0.00  0.00     0.055 C 
ATOM      8  C   UNL d   1      -2.288  -5.532  -2.994  0.00  0.00     0.019 C 
ENDBRANCH   1   7
TORSDOF 1
ENDMDL
