MODEL 1
REMARK minimizedAffinity -0.463934153
REMARK minimizedRMSD -1
REMARK  1 active torsions:
REMARK  status: ('A' for Active; 'I' for Inactive)
REMARK    1  A    between atoms: C1_2  and  C2_3 
ROOT
ATOM      1  C2  UNL d   1       1.935  -4.098  -2.298  0.00  0.00    -0.077 A 
ATOM      2  C3  UNL d   1       1.426  -2.873  -1.843  0.00  0.00     0.002 A 
ATOM      3  C4  UNL d   1       2.154  -2.100  -0.936  0.00  0.00     0.002 A 
ATOM      4  C5  UNL d   1       3.395  -2.540  -0.481  0.00  0.00    -0.004 A 
ATOM      5  C6  UNL d   1       3.908  -3.758  -0.926  0.00  0.00     0.002 A 
ATOM      6  C7  UNL d   1       3.181  -4.533  -1.831  0.00  0.00     0.002 A 
ENDROOT
BRANCH   1   7
ATOM      7  C1  UNL d   1       1.174  -4.910  -3.313  0.00  0.00     0.055 C 
ATOM      8  C   UNL d   1      -0.293  -4.509  -3.356  0.00  0.00     0.019 C 
ENDBRANCH   1   7
TORSDOF 1
ENDMDL
