MODEL 1
REMARK minimizedAffinity -4.15614891
REMARK minimizedRMSD -1
REMARK  0 active torsions:
REMARK  status: ('A' for Active; 'I' for Inactive)
ROOT
ATOM      1  C   UNL d   1       1.514   0.687  -0.430  0.00  0.00     0.078 C 
ATOM      2  C1  UNL d   1       0.545  -0.029   0.463  0.00  0.00    -0.077 A 
ATOM      3  C2  UNL d   1      -0.788   0.389   0.562  0.00  0.00    -0.001 A 
ATOM      4  C3  UNL d   1      -1.677  -0.281   1.404  0.00  0.00     0.003 A 
ATOM      5  C4  UNL d   1      -1.243  -1.371   2.155  0.00  0.00    -0.005 A 
ATOM      6  C5  UNL d   1       0.082  -1.793   2.065  0.00  0.00     0.003 A 
ATOM      7  C6  UNL d   1       0.973  -1.124   1.223  0.00  0.00    -0.001 A 
ENDROOT
TORSDOF 0
ENDMDL
