MODEL 1
REMARK minimizedAffinity -3.93429518
REMARK minimizedRMSD -1
REMARK  0 active torsions:
REMARK  status: ('A' for Active; 'I' for Inactive)
ROOT
ATOM      1  C   UNL d   1      -0.172   0.483   0.413  0.00  0.00     0.078 C 
ATOM      2  C1  UNL d   1      -1.062  -0.723   0.365  0.00  0.00    -0.077 A 
ATOM      3  C2  UNL d   1      -2.124  -0.801  -0.544  0.00  0.00    -0.001 A 
ATOM      4  C3  UNL d   1      -2.949  -1.926  -0.571  0.00  0.00     0.003 A 
ATOM      5  C4  UNL d   1      -2.723  -2.981   0.311  0.00  0.00    -0.005 A 
ATOM      6  C5  UNL d   1      -1.670  -2.912   1.221  0.00  0.00     0.003 A 
ATOM      7  C6  UNL d   1      -0.843  -1.788   1.249  0.00  0.00    -0.001 A 
ENDROOT
TORSDOF 0
ENDMDL
