MODEL 1
REMARK minimizedAffinity -3.96637249
REMARK minimizedRMSD -1
REMARK  0 active torsions:
REMARK  status: ('A' for Active; 'I' for Inactive)
ROOT
ATOM      1  C   UNL d   1       1.540   1.197   0.666  0.00  0.00     0.078 C 
ATOM      2  C1  UNL d   1       0.342   0.877  -0.176  0.00  0.00    -0.077 A 
ATOM      3  C2  UNL d   1      -0.469  -0.227   0.114  0.00  0.00    -0.001 A 
ATOM      4  C3  UNL d   1      -1.576  -0.519  -0.685  0.00  0.00     0.003 A 
ATOM      5  C4  UNL d   1      -1.882   0.287  -1.779  0.00  0.00    -0.005 A 
ATOM      6  C5  UNL d   1      -1.079   1.387  -2.077  0.00  0.00     0.003 A 
ATOM      7  C6  UNL d   1       0.028   1.681  -1.279  0.00  0.00    -0.001 A 
ENDROOT
TORSDOF 0
ENDMDL
