MODEL 1
REMARK minimizedAffinity -3.74196982
REMARK minimizedRMSD -1
REMARK  0 active torsions:
REMARK  status: ('A' for Active; 'I' for Inactive)
ROOT
ATOM      1  C   UNL d   1       3.123   3.775  -1.792  0.00  0.00     0.078 C 
ATOM      2  C1  UNL d   1       2.653   3.090  -0.543  0.00  0.00    -0.077 A 
ATOM      3  C2  UNL d   1       1.978   1.865  -0.603  0.00  0.00    -0.001 A 
ATOM      4  C3  UNL d   1       1.537   1.244   0.567  0.00  0.00     0.003 A 
ATOM      5  C4  UNL d   1       1.767   1.841   1.805  0.00  0.00    -0.005 A 
ATOM      6  C5  UNL d   1       2.436   3.061   1.874  0.00  0.00     0.003 A 
ATOM      7  C6  UNL d   1       2.877   3.684   0.705  0.00  0.00    -0.001 A 
ENDROOT
TORSDOF 0
ENDMDL
