MODEL 1
REMARK minimizedAffinity -3.09735274
REMARK minimizedRMSD -1
REMARK  0 active torsions:
REMARK  status: ('A' for Active; 'I' for Inactive)
ROOT
ATOM      1  C   UNL d   1      -1.959  -0.741  -1.152  0.00  0.00     0.078 C 
ATOM      2  C1  UNL d   1      -0.650  -0.445  -0.482  0.00  0.00    -0.077 A 
ATOM      3  C2  UNL d   1       0.290   0.402  -1.081  0.00  0.00    -0.001 A 
ATOM      4  C3  UNL d   1       1.509   0.661  -0.451  0.00  0.00     0.003 A 
ATOM      5  C4  UNL d   1       1.798   0.075   0.780  0.00  0.00    -0.005 A 
ATOM      6  C5  UNL d   1       0.870  -0.771   1.382  0.00  0.00     0.003 A 
ATOM      7  C6  UNL d   1      -0.349  -1.031   0.754  0.00  0.00    -0.001 A 
ENDROOT
TORSDOF 0
ENDMDL
