MODEL 1
REMARK minimizedAffinity 0.243990317
REMARK minimizedRMSD -1
REMARK  0 active torsions:
REMARK  status: ('A' for Active; 'I' for Inactive)
ROOT
ATOM      1  C   UNL d   1       0.004  -0.245   0.764  0.00  0.00     0.078 C 
ATOM      2  C1  UNL d   1       1.123   0.745   0.636  0.00  0.00    -0.077 A 
ATOM      3  C2  UNL d   1       1.841   0.872  -0.559  0.00  0.00    -0.001 A 
ATOM      4  C3  UNL d   1       2.886   1.791  -0.661  0.00  0.00     0.003 A 
ATOM      5  C4  UNL d   1       3.224   2.590   0.429  0.00  0.00    -0.005 A 
ATOM      6  C5  UNL d   1       2.517   2.470   1.624  0.00  0.00     0.003 A 
ATOM      7  C6  UNL d   1       1.471   1.551   1.728  0.00  0.00    -0.001 A 
ENDROOT
TORSDOF 0
ENDMDL
