MODEL 1
REMARK minimizedAffinity -3.99619794
REMARK minimizedRMSD -1
REMARK  0 active torsions:
REMARK  status: ('A' for Active; 'I' for Inactive)
ROOT
ATOM      1  C   UNL d   1      -3.045  -1.150  -0.384  0.00  0.00     0.078 C 
ATOM      2  C1  UNL d   1      -1.569  -1.025  -0.154  0.00  0.00    -0.077 A 
ATOM      3  C2  UNL d   1      -0.790  -0.152  -0.923  0.00  0.00    -0.001 A 
ATOM      4  C3  UNL d   1       0.585  -0.054  -0.705  0.00  0.00     0.003 A 
ATOM      5  C4  UNL d   1       1.194  -0.827   0.282  0.00  0.00    -0.005 A 
ATOM      6  C5  UNL d   1       0.427  -1.701   1.051  0.00  0.00     0.003 A 
ATOM      7  C6  UNL d   1      -0.948  -1.800   0.834  0.00  0.00    -0.001 A 
ENDROOT
TORSDOF 0
ENDMDL
