MODEL 1
REMARK minimizedAffinity -3.67827773
REMARK minimizedRMSD -1
REMARK  0 active torsions:
REMARK  status: ('A' for Active; 'I' for Inactive)
ROOT
ATOM      1  C   UNL d   1       0.592   0.297   0.234  0.00  0.00     0.078 C 
ATOM      2  C1  UNL d   1      -0.438  -0.118  -0.774  0.00  0.00    -0.077 A 
ATOM      3  C2  UNL d   1      -1.500  -0.958  -0.415  0.00  0.00    -0.001 A 
ATOM      4  C3  UNL d   1      -2.446  -1.344  -1.366  0.00  0.00     0.003 A 
ATOM      5  C4  UNL d   1      -2.339  -0.896  -2.681  0.00  0.00    -0.005 A 
ATOM      6  C5  UNL d   1      -1.285  -0.062  -3.048  0.00  0.00     0.003 A 
ATOM      7  C6  UNL d   1      -0.337   0.325  -2.098  0.00  0.00    -0.001 A 
ENDROOT
TORSDOF 0
ENDMDL
