MODEL 1
REMARK minimizedAffinity -4.6651783
REMARK minimizedRMSD -1
REMARK  0 active torsions:
REMARK  status: ('A' for Active; 'I' for Inactive)
ROOT
ATOM      1  C   UNL d   1       1.630   0.969   0.033  0.00  0.00     0.078 C 
ATOM      2  C1  UNL d   1       0.314   0.374  -0.370  0.00  0.00    -0.077 A 
ATOM      3  C2  UNL d   1      -0.233   0.623  -1.634  0.00  0.00    -0.001 A 
ATOM      4  C3  UNL d   1      -1.464   0.070  -1.992  0.00  0.00     0.003 A 
ATOM      5  C4  UNL d   1      -2.158  -0.734  -1.091  0.00  0.00    -0.005 A 
ATOM      6  C5  UNL d   1      -1.623  -0.986   0.171  0.00  0.00     0.003 A 
ATOM      7  C6  UNL d   1      -0.393  -0.434   0.530  0.00  0.00    -0.001 A 
ENDROOT
TORSDOF 0
ENDMDL
