MODEL 1
REMARK minimizedAffinity -3.67854786
REMARK minimizedRMSD -1
REMARK  0 active torsions:
REMARK  status: ('A' for Active; 'I' for Inactive)
ROOT
ATOM      1  C   UNL d   1      -2.191  -0.039  -0.766  0.00  0.00     0.078 C 
ATOM      2  C1  UNL d   1      -0.861  -0.325  -0.136  0.00  0.00    -0.077 A 
ATOM      3  C2  UNL d   1       0.291   0.361  -0.541  0.00  0.00    -0.001 A 
ATOM      4  C3  UNL d   1       1.525   0.078   0.047  0.00  0.00     0.003 A 
ATOM      5  C4  UNL d   1       1.619  -0.892   1.043  0.00  0.00    -0.005 A 
ATOM      6  C5  UNL d   1       0.478  -1.581   1.452  0.00  0.00     0.003 A 
ATOM      7  C6  UNL d   1      -0.756  -1.299   0.865  0.00  0.00    -0.001 A 
ENDROOT
TORSDOF 0
ENDMDL
