MODEL 1
REMARK minimizedAffinity -1.67380726
REMARK minimizedRMSD -1
REMARK  0 active torsions:
REMARK  status: ('A' for Active; 'I' for Inactive)
ROOT
ATOM      1  C   UNL d   1       0.232   1.527   0.836  0.00  0.00     0.078 C 
ATOM      2  C1  UNL d   1      -0.230   0.829  -0.408  0.00  0.00    -0.077 A 
ATOM      3  C2  UNL d   1       0.647   0.603  -1.476  0.00  0.00    -0.001 A 
ATOM      4  C3  UNL d   1       0.201  -0.039  -2.632  0.00  0.00     0.003 A 
ATOM      5  C4  UNL d   1      -1.124  -0.459  -2.732  0.00  0.00    -0.005 A 
ATOM      6  C5  UNL d   1      -2.004  -0.237  -1.675  0.00  0.00     0.003 A 
ATOM      7  C6  UNL d   1      -1.560   0.405  -0.518  0.00  0.00    -0.001 A 
ENDROOT
TORSDOF 0
ENDMDL
