MODEL 1
REMARK minimizedAffinity -3.56549001
REMARK minimizedRMSD -1
REMARK  0 active torsions:
REMARK  status: ('A' for Active; 'I' for Inactive)
ROOT
ATOM      1  C   UNL d   1      -0.367  -1.781   1.141  0.00  0.00     0.078 C 
ATOM      2  C1  UNL d   1      -0.986  -0.957   0.051  0.00  0.00    -0.077 A 
ATOM      3  C2  UNL d   1      -2.195  -1.337  -0.543  0.00  0.00    -0.001 A 
ATOM      4  C3  UNL d   1      -2.754  -0.566  -1.563  0.00  0.00     0.003 A 
ATOM      5  C4  UNL d   1      -2.111   0.591  -1.998  0.00  0.00    -0.005 A 
ATOM      6  C5  UNL d   1      -0.906   0.976  -1.415  0.00  0.00     0.003 A 
ATOM      7  C6  UNL d   1      -0.345   0.206  -0.395  0.00  0.00    -0.001 A 
ENDROOT
TORSDOF 0
ENDMDL
