MODEL 1
REMARK minimizedAffinity -2.81370354
REMARK minimizedRMSD -1
REMARK  0 active torsions:
REMARK  status: ('A' for Active; 'I' for Inactive)
ROOT
ATOM      1  C   UNL d   1      -0.652   0.261  -0.356  0.00  0.00     0.078 C 
ATOM      2  C1  UNL d   1       0.604   0.921   0.129  0.00  0.00    -0.077 A 
ATOM      3  C2  UNL d   1       0.552   2.063   0.938  0.00  0.00    -0.001 A 
ATOM      4  C3  UNL d   1       1.729   2.674   1.374  0.00  0.00     0.003 A 
ATOM      5  C4  UNL d   1       2.967   2.150   1.005  0.00  0.00    -0.005 A 
ATOM      6  C5  UNL d   1       3.029   1.016   0.199  0.00  0.00     0.003 A 
ATOM      7  C6  UNL d   1       1.853   0.404  -0.238  0.00  0.00    -0.001 A 
ENDROOT
TORSDOF 0
ENDMDL
