MODEL 1
REMARK minimizedAffinity -3.39992332
REMARK minimizedRMSD -1
REMARK  0 active torsions:
REMARK  status: ('A' for Active; 'I' for Inactive)
ROOT
ATOM      1  C   UNL d   1       0.638  -0.144  -0.721  0.00  0.00     0.078 C 
ATOM      2  C1  UNL d   1       1.198   0.963   0.122  0.00  0.00    -0.077 A 
ATOM      3  C2  UNL d   1       1.523   0.751   1.467  0.00  0.00    -0.001 A 
ATOM      4  C3  UNL d   1       2.034   1.793   2.242  0.00  0.00     0.003 A 
ATOM      5  C4  UNL d   1       2.224   3.055   1.682  0.00  0.00    -0.005 A 
ATOM      6  C5  UNL d   1       1.901   3.276   0.344  0.00  0.00     0.003 A 
ATOM      7  C6  UNL d   1       1.390   2.235  -0.433  0.00  0.00    -0.001 A 
ENDROOT
TORSDOF 0
ENDMDL
