MODEL 1
REMARK minimizedAffinity -5.16240883
REMARK minimizedRMSD -1
REMARK  0 active torsions:
REMARK  status: ('A' for Active; 'I' for Inactive)
ROOT
ATOM      1  C   UNL d   1       0.647   0.233   0.011  0.00  0.00     0.078 C 
ATOM      2  C1  UNL d   1      -0.473  -0.763  -0.041  0.00  0.00    -0.077 A 
ATOM      3  C2  UNL d   1      -1.469  -0.678  -1.022  0.00  0.00    -0.001 A 
ATOM      4  C3  UNL d   1      -2.510  -1.606  -1.053  0.00  0.00     0.003 A 
ATOM      5  C4  UNL d   1      -2.567  -2.627  -0.105  0.00  0.00    -0.005 A 
ATOM      6  C5  UNL d   1      -1.581  -2.719   0.875  0.00  0.00     0.003 A 
ATOM      7  C6  UNL d   1      -0.539  -1.791   0.908  0.00  0.00    -0.001 A 
ENDROOT
TORSDOF 0
ENDMDL
