MODEL 1
REMARK minimizedAffinity -3.2453649
REMARK minimizedRMSD -1
REMARK  0 active torsions:
REMARK  status: ('A' for Active; 'I' for Inactive)
ROOT
ATOM      1  C   UNL d   1       1.737   0.756  -0.139  0.00  0.00     0.078 C 
ATOM      2  C1  UNL d   1       0.359   0.182  -0.283  0.00  0.00    -0.077 A 
ATOM      3  C2  UNL d   1      -0.548   0.709  -1.209  0.00  0.00    -0.001 A 
ATOM      4  C3  UNL d   1      -1.831   0.170  -1.326  0.00  0.00     0.003 A 
ATOM      5  C4  UNL d   1      -2.218  -0.897  -0.518  0.00  0.00    -0.005 A 
ATOM      6  C5  UNL d   1      -1.322  -1.427   0.409  0.00  0.00     0.003 A 
ATOM      7  C6  UNL d   1      -0.039  -0.890   0.527  0.00  0.00    -0.001 A 
ENDROOT
TORSDOF 0
ENDMDL
