MODEL 1
REMARK minimizedAffinity 10.268302
REMARK minimizedRMSD -1
REMARK  1 active torsions:
REMARK  status: ('A' for Active; 'I' for Inactive)
REMARK    1  A    between atoms: C1_2  and  C2_3 
ROOT
ATOM      1  C2  UNL d   1       1.190   0.544   1.808  0.00  0.00    -0.076 A 
ATOM      2  C3  UNL d   1       1.738   1.712   2.365  0.00  0.00     0.004 A 
ATOM      3  C4  UNL d   1       3.094   2.005   2.228  0.00  0.00    -0.003 A 
ATOM      4  C5  UNL d   1       3.924   1.134   1.530  0.00  0.00     0.000 A 
ATOM      5  C6  UNL d   1       3.394  -0.021   0.956  0.00  0.00     0.000 A 
ATOM      6  C7  UNL d   1       2.026  -0.322   1.071  0.00  0.00    -0.073 A 
ATOM      7  C8  UNL d   1       1.509  -1.585   0.437  0.00  0.00     0.078 C 
ENDROOT
BRANCH   1   8
ATOM      8  C1  UNL d   1      -0.282   0.266   2.013  0.00  0.00     0.053 C 
ATOM      9  C   UNL d   1      -0.818   0.878   3.297  0.00  0.00     0.018 C 
ENDBRANCH   1   8
TORSDOF 1
ENDMDL
