MODEL 1
REMARK minimizedAffinity 10.6731834
REMARK minimizedRMSD -1
REMARK  1 active torsions:
REMARK  status: ('A' for Active; 'I' for Inactive)
REMARK    1  A    between atoms: C1_2  and  C2_3 
ROOT
ATOM      1  C2  UNL d   1      -3.879  -3.104  -0.553  0.00  0.00    -0.076 A 
ATOM      2  C3  UNL d   1      -4.180  -2.279  -1.651  0.00  0.00     0.004 A 
ATOM      3  C4  UNL d   1      -3.325  -2.207  -2.749  0.00  0.00    -0.003 A 
ATOM      4  C5  UNL d   1      -2.156  -2.959  -2.769  0.00  0.00     0.000 A 
ATOM      5  C6  UNL d   1      -1.851  -3.797  -1.696  0.00  0.00     0.000 A 
ATOM      6  C7  UNL d   1      -2.710  -3.894  -0.588  0.00  0.00    -0.073 A 
ATOM      7  C8  UNL d   1      -2.328  -4.808   0.543  0.00  0.00     0.078 C 
ENDROOT
BRANCH   1   8
ATOM      8  C1  UNL d   1      -4.830  -3.121   0.622  0.00  0.00     0.053 C 
ATOM      9  C   UNL d   1      -5.926  -4.164   0.470  0.00  0.00     0.018 C 
ENDBRANCH   1   8
TORSDOF 1
ENDMDL
