MODEL 1
REMARK minimizedAffinity 0.411214381
REMARK minimizedRMSD -1
REMARK  1 active torsions:
REMARK  status: ('A' for Active; 'I' for Inactive)
REMARK    1  A    between atoms: C1_2  and  C2_3 
ROOT
ATOM      1  C2  UNL d   1      -1.124  -2.534   0.355  0.00  0.00    -0.076 A 
ATOM      2  C3  UNL d   1      -0.228  -2.581   1.437  0.00  0.00     0.004 A 
ATOM      3  C4  UNL d   1       1.120  -2.874   1.239  0.00  0.00    -0.003 A 
ATOM      4  C5  UNL d   1       1.594  -3.123  -0.044  0.00  0.00     0.000 A 
ATOM      5  C6  UNL d   1       0.723  -3.063  -1.131  0.00  0.00     0.000 A 
ATOM      6  C7  UNL d   1      -0.636  -2.753  -0.951  0.00  0.00    -0.073 A 
ATOM      7  C8  UNL d   1      -1.532  -2.708  -2.158  0.00  0.00     0.078 C 
ENDROOT
BRANCH   1   8
ATOM      8  C1  UNL d   1      -2.581  -2.238   0.634  0.00  0.00     0.053 C 
ATOM      9  C   UNL d   1      -2.779  -0.910   1.348  0.00  0.00     0.018 C 
ENDBRANCH   1   8
TORSDOF 1
ENDMDL
