MODEL 1
REMARK minimizedAffinity 6.21848726
REMARK minimizedRMSD -1
REMARK  1 active torsions:
REMARK  status: ('A' for Active; 'I' for Inactive)
REMARK    1  A    between atoms: C1_2  and  C2_3 
ROOT
ATOM      1  C2  UNL d   1       3.720   5.405   3.496  0.00  0.00    -0.076 A 
ATOM      2  C3  UNL d   1       3.102   5.356   4.758  0.00  0.00     0.004 A 
ATOM      3  C4  UNL d   1       3.824   5.614   5.921  0.00  0.00    -0.003 A 
ATOM      4  C5  UNL d   1       5.177   5.927   5.842  0.00  0.00     0.000 A 
ATOM      5  C6  UNL d   1       5.802   5.998   4.598  0.00  0.00     0.000 A 
ATOM      6  C7  UNL d   1       5.084   5.757   3.414  0.00  0.00    -0.073 A 
ATOM      7  C8  UNL d   1       5.811   5.841   2.099  0.00  0.00     0.078 C 
ENDROOT
BRANCH   1   8
ATOM      8  C1  UNL d   1       2.892   5.089   2.271  0.00  0.00     0.053 C 
ATOM      9  C   UNL d   1       3.362   5.847   1.039  0.00  0.00     0.018 C 
ENDBRANCH   1   8
TORSDOF 1
ENDMDL
