MODEL 1
REMARK minimizedAffinity 6.53542328
REMARK minimizedRMSD -1
REMARK  1 active torsions:
REMARK  status: ('A' for Active; 'I' for Inactive)
REMARK    1  A    between atoms: C1_2  and  C2_3 
ROOT
ATOM      1  C2  UNL d   1      -2.470  -4.738   1.386  0.00  0.00    -0.076 A 
ATOM      2  C3  UNL d   1      -2.129  -5.947   2.018  0.00  0.00     0.004 A 
ATOM      3  C4  UNL d   1      -1.101  -5.999   2.959  0.00  0.00    -0.003 A 
ATOM      4  C5  UNL d   1      -0.400  -4.844   3.284  0.00  0.00     0.000 A 
ATOM      5  C6  UNL d   1      -0.736  -3.633   2.680  0.00  0.00     0.000 A 
ATOM      6  C7  UNL d   1      -1.780  -3.559   1.742  0.00  0.00    -0.073 A 
ATOM      7  C8  UNL d   1      -2.097  -2.228   1.117  0.00  0.00     0.078 C 
ENDROOT
BRANCH   1   8
ATOM      8  C1  UNL d   1      -3.575  -4.747   0.354  0.00  0.00     0.053 C 
ATOM      9  C   UNL d   1      -3.059  -4.488  -1.053  0.00  0.00     0.018 C 
ENDBRANCH   1   8
TORSDOF 1
ENDMDL
