MODEL 1
REMARK minimizedAffinity 14.4568424
REMARK minimizedRMSD -1
REMARK  1 active torsions:
REMARK  status: ('A' for Active; 'I' for Inactive)
REMARK    1  A    between atoms: C1_2  and  C2_3 
ROOT
ATOM      1  C2  UNL d   1       3.629   5.027   3.361  0.00  0.00    -0.076 A 
ATOM      2  C3  UNL d   1       3.691   5.987   4.385  0.00  0.00     0.004 A 
ATOM      3  C4  UNL d   1       3.318   5.670   5.690  0.00  0.00    -0.003 A 
ATOM      4  C5  UNL d   1       2.879   4.386   5.992  0.00  0.00     0.000 A 
ATOM      5  C6  UNL d   1       2.828   3.415   4.992  0.00  0.00     0.000 A 
ATOM      6  C7  UNL d   1       3.215   3.714   3.675  0.00  0.00    -0.073 A 
ATOM      7  C8  UNL d   1       3.134   2.631   2.635  0.00  0.00     0.078 C 
ENDROOT
BRANCH   1   8
ATOM      8  C1  UNL d   1       4.019   5.436   1.959  0.00  0.00     0.053 C 
ATOM      9  C   UNL d   1       2.839   5.959   1.154  0.00  0.00     0.018 C 
ENDBRANCH   1   8
TORSDOF 1
ENDMDL
