MODEL 1
REMARK minimizedAffinity 10.3331804
REMARK minimizedRMSD -1
REMARK  1 active torsions:
REMARK  status: ('A' for Active; 'I' for Inactive)
REMARK    1  A    between atoms: C1_2  and  C2_3 
ROOT
ATOM      1  C2  UNL d   1       2.329  -0.093   0.278  0.00  0.00    -0.076 A 
ATOM      2  C3  UNL d   1       1.702  -1.187   0.899  0.00  0.00     0.004 A 
ATOM      3  C4  UNL d   1       1.890  -2.485   0.426  0.00  0.00    -0.003 A 
ATOM      4  C5  UNL d   1       2.707  -2.709  -0.677  0.00  0.00     0.000 A 
ATOM      5  C6  UNL d   1       3.350  -1.637  -1.294  0.00  0.00     0.000 A 
ATOM      6  C7  UNL d   1       3.185  -0.325  -0.820  0.00  0.00    -0.073 A 
ATOM      7  C8  UNL d   1       3.898   0.794  -1.528  0.00  0.00     0.078 C 
ENDROOT
BRANCH   1   8
ATOM      8  C1  UNL d   1       2.067   1.294   0.819  0.00  0.00     0.053 C 
ATOM      9  C   UNL d   1       2.960   1.637   2.002  0.00  0.00     0.018 C 
ENDBRANCH   1   8
TORSDOF 1
ENDMDL
