MODEL 1
REMARK minimizedAffinity 11.0544062
REMARK minimizedRMSD -1
REMARK  1 active torsions:
REMARK  status: ('A' for Active; 'I' for Inactive)
REMARK    1  A    between atoms: C1_2  and  C2_3 
ROOT
ATOM      1  C2  UNL d   1       1.275  -3.088   1.451  0.00  0.00    -0.076 A 
ATOM      2  C3  UNL d   1       2.006  -3.386   2.614  0.00  0.00     0.004 A 
ATOM      3  C4  UNL d   1       1.492  -4.247   3.583  0.00  0.00    -0.003 A 
ATOM      4  C5  UNL d   1       0.241  -4.825   3.403  0.00  0.00     0.000 A 
ATOM      5  C6  UNL d   1      -0.490  -4.555   2.246  0.00  0.00     0.000 A 
ATOM      6  C7  UNL d   1       0.020  -3.702   1.252  0.00  0.00    -0.073 A 
ATOM      7  C8  UNL d   1      -0.814  -3.441   0.028  0.00  0.00     0.078 C 
ENDROOT
BRANCH   1   8
ATOM      8  C1  UNL d   1       1.871  -2.126   0.448  0.00  0.00     0.053 C 
ATOM      9  C   UNL d   1       1.966  -0.707   0.988  0.00  0.00     0.018 C 
ENDBRANCH   1   8
TORSDOF 1
ENDMDL
