MODEL 1
REMARK minimizedAffinity 7.06939077
REMARK minimizedRMSD -1
REMARK  1 active torsions:
REMARK  status: ('A' for Active; 'I' for Inactive)
REMARK    1  A    between atoms: C1_2  and  C2_3 
ROOT
ATOM      1  C2  UNL d   1       2.271  -0.933   0.555  0.00  0.00    -0.076 A 
ATOM      2  C3  UNL d   1       2.009  -2.019   1.407  0.00  0.00     0.004 A 
ATOM      3  C4  UNL d   1       2.337  -3.321   1.032  0.00  0.00    -0.003 A 
ATOM      4  C5  UNL d   1       2.934  -3.557  -0.201  0.00  0.00     0.000 A 
ATOM      5  C6  UNL d   1       3.218  -2.490  -1.052  0.00  0.00     0.000 A 
ATOM      6  C7  UNL d   1       2.908  -1.169  -0.682  0.00  0.00    -0.073 A 
ATOM      7  C8  UNL d   1       3.231  -0.056  -1.641  0.00  0.00     0.078 C 
ENDROOT
BRANCH   1   8
ATOM      8  C1  UNL d   1       1.869   0.454   1.004  0.00  0.00     0.053 C 
ATOM      9  C   UNL d   1       2.938   1.125   1.852  0.00  0.00     0.018 C 
ENDBRANCH   1   8
TORSDOF 1
ENDMDL
