MODEL 1
REMARK minimizedAffinity 1.58206153
REMARK minimizedRMSD -1
REMARK  1 active torsions:
REMARK  status: ('A' for Active; 'I' for Inactive)
REMARK    1  A    between atoms: C1_2  and  C2_3 
ROOT
ATOM      1  C2  UNL d   1       2.095  -1.691   0.500  0.00  0.00    -0.076 A 
ATOM      2  C3  UNL d   1       0.811  -1.826   1.057  0.00  0.00     0.004 A 
ATOM      3  C4  UNL d   1       0.278  -3.083   1.336  0.00  0.00    -0.003 A 
ATOM      4  C5  UNL d   1       1.021  -4.227   1.062  0.00  0.00     0.000 A 
ATOM      5  C6  UNL d   1       2.303  -4.111   0.526  0.00  0.00     0.000 A 
ATOM      6  C7  UNL d   1       2.861  -2.851   0.254  0.00  0.00    -0.073 A 
ATOM      7  C8  UNL d   1       4.246  -2.785  -0.330  0.00  0.00     0.078 C 
ENDROOT
BRANCH   1   8
ATOM      8  C1  UNL d   1       2.609  -0.303   0.194  0.00  0.00     0.053 C 
ATOM      9  C   UNL d   1       1.997   0.758   1.095  0.00  0.00     0.018 C 
ENDBRANCH   1   8
TORSDOF 1
ENDMDL
