MODEL 1
REMARK minimizedAffinity -2.80716801
REMARK minimizedRMSD -1
REMARK  1 active torsions:
REMARK  status: ('A' for Active; 'I' for Inactive)
REMARK    1  A    between atoms: C1_2  and  C2_3 
ROOT
ATOM      1  C2  UNL d   1      -3.288   1.264   0.670  0.00  0.00    -0.076 A 
ATOM      2  C3  UNL d   1      -3.370   1.926  -0.567  0.00  0.00     0.004 A 
ATOM      3  C4  UNL d   1      -2.225   2.193  -1.315  0.00  0.00    -0.003 A 
ATOM      4  C5  UNL d   1      -0.979   1.801  -0.838  0.00  0.00     0.000 A 
ATOM      5  C6  UNL d   1      -0.881   1.127   0.378  0.00  0.00     0.000 A 
ATOM      6  C7  UNL d   1      -2.027   0.835   1.137  0.00  0.00    -0.073 A 
ATOM      7  C8  UNL d   1      -1.862   0.111   2.445  0.00  0.00     0.078 C 
ENDROOT
BRANCH   1   8
ATOM      8  C1  UNL d   1      -4.562   1.026   1.450  0.00  0.00     0.053 C 
ATOM      9  C   UNL d   1      -5.788   1.593   0.751  0.00  0.00     0.018 C 
ENDBRANCH   1   8
TORSDOF 1
ENDMDL
