MODEL 1
REMARK minimizedAffinity 7.18776798
REMARK minimizedRMSD -1
REMARK  1 active torsions:
REMARK  status: ('A' for Active; 'I' for Inactive)
REMARK    1  A    between atoms: C1_2  and  C2_3 
ROOT
ATOM      1  C2  UNL d   1      -1.450   3.432  -4.891  0.00  0.00    -0.076 A 
ATOM      2  C3  UNL d   1      -0.923   2.722  -5.984  0.00  0.00     0.004 A 
ATOM      3  C4  UNL d   1       0.411   2.318  -6.000  0.00  0.00    -0.003 A 
ATOM      4  C5  UNL d   1       1.239   2.618  -4.924  0.00  0.00     0.000 A 
ATOM      5  C6  UNL d   1       0.728   3.307  -3.824  0.00  0.00     0.000 A 
ATOM      6  C7  UNL d   1      -0.619   3.707  -3.785  0.00  0.00    -0.073 A 
ATOM      7  C8  UNL d   1      -1.115   4.452  -2.576  0.00  0.00     0.078 C 
ENDROOT
BRANCH   1   8
ATOM      8  C1  UNL d   1      -2.898   3.867  -4.942  0.00  0.00     0.053 C 
ATOM      9  C   UNL d   1      -3.149   4.935  -5.995  0.00  0.00     0.018 C 
ENDBRANCH   1   8
TORSDOF 1
ENDMDL
