MODEL 1
REMARK minimizedAffinity -4.16639757
REMARK minimizedRMSD -1
REMARK  1 active torsions:
REMARK  status: ('A' for Active; 'I' for Inactive)
REMARK    1  A    between atoms: C1_2  and  C2_3 
ROOT
ATOM      1  C2  UNL d   1      -0.476  -3.407  -0.967  0.00  0.00    -0.076 A 
ATOM      2  C3  UNL d   1       0.716  -3.946  -1.481  0.00  0.00     0.004 A 
ATOM      3  C4  UNL d   1       1.929  -3.769  -0.817  0.00  0.00    -0.003 A 
ATOM      4  C5  UNL d   1       1.969  -3.052   0.373  0.00  0.00     0.000 A 
ATOM      5  C6  UNL d   1       0.794  -2.526   0.908  0.00  0.00     0.000 A 
ATOM      6  C7  UNL d   1      -0.440  -2.708   0.259  0.00  0.00    -0.073 A 
ATOM      7  C8  UNL d   1      -1.676  -2.114   0.877  0.00  0.00     0.078 C 
ENDROOT
BRANCH   1   8
ATOM      8  C1  UNL d   1      -1.756  -3.608  -1.745  0.00  0.00     0.053 C 
ATOM      9  C   UNL d   1      -2.535  -4.830  -1.282  0.00  0.00     0.018 C 
ENDBRANCH   1   8
TORSDOF 1
ENDMDL
