MODEL 1
REMARK minimizedAffinity 5.0235033
REMARK minimizedRMSD -1
REMARK  1 active torsions:
REMARK  status: ('A' for Active; 'I' for Inactive)
REMARK    1  A    between atoms: C1_2  and  C2_3 
ROOT
ATOM      1  C2  UNL d   1      -3.290   3.407  -5.898  0.00  0.00    -0.076 A 
ATOM      2  C3  UNL d   1      -2.057   2.735  -5.844  0.00  0.00     0.004 A 
ATOM      3  C4  UNL d   1      -0.854   3.439  -5.877  0.00  0.00    -0.003 A 
ATOM      4  C5  UNL d   1      -0.865   4.827  -5.964  0.00  0.00     0.000 A 
ATOM      5  C6  UNL d   1      -2.080   5.511  -6.000  0.00  0.00     0.000 A 
ATOM      6  C7  UNL d   1      -3.301   4.818  -5.951  0.00  0.00    -0.073 A 
ATOM      7  C8  UNL d   1      -4.582   5.606  -6.000  0.00  0.00     0.078 C 
ENDROOT
BRANCH   1   8
ATOM      8  C1  UNL d   1      -4.562   2.590  -5.886  0.00  0.00     0.053 C 
ATOM      9  C   UNL d   1      -5.144   2.437  -4.489  0.00  0.00     0.018 C 
ENDBRANCH   1   8
TORSDOF 1
ENDMDL
