MODEL 1
REMARK minimizedAffinity 5.51200008
REMARK minimizedRMSD -1
REMARK  0 active torsions:
REMARK  status: ('A' for Active; 'I' for Inactive)
ROOT
ATOM      1  C1  BNZ d   1       3.786   3.732   5.308  0.00  0.00     0.000 A 
ATOM      2  C2  BNZ d   1       4.890   3.740   4.498  0.00  0.00     0.000 A 
ATOM      3  C3  BNZ d   1       5.659   4.863   4.374  0.00  0.00     0.000 A 
ATOM      4  C4  BNZ d   1       5.302   5.987   5.028  0.00  0.00     0.000 A 
ATOM      5  C5  BNZ d   1       4.186   5.997   5.842  0.00  0.00     0.000 A 
ATOM      6  C6  BNZ d   1       3.437   4.854   5.995  0.00  0.00     0.000 A 
ENDROOT
TORSDOF 0
ENDMDL
