MODEL 1
REMARK minimizedAffinity 7.63177872
REMARK minimizedRMSD -1
REMARK  0 active torsions:
REMARK  status: ('A' for Active; 'I' for Inactive)
ROOT
ATOM      1  C1  BNZ d   1      -1.819  -1.617  -0.021  0.00  0.00     0.000 A 
ATOM      2  C2  BNZ d   1      -0.666  -2.339   0.137  0.00  0.00     0.000 A 
ATOM      3  C3  BNZ d   1      -0.702  -3.618   0.618  0.00  0.00     0.000 A 
ATOM      4  C4  BNZ d   1      -1.884  -4.160   0.976  0.00  0.00     0.000 A 
ATOM      5  C5  BNZ d   1      -3.054  -3.442   0.830  0.00  0.00     0.000 A 
ATOM      6  C6  BNZ d   1      -3.019  -2.168   0.310  0.00  0.00     0.000 A 
ENDROOT
TORSDOF 0
ENDMDL
