MODEL 1
REMARK minimizedAffinity 2.91292357
REMARK minimizedRMSD -1
REMARK  0 active torsions:
REMARK  status: ('A' for Active; 'I' for Inactive)
ROOT
ATOM      1  C1  BNZ d   1      -1.407  -3.563   1.154  0.00  0.00     0.000 A 
ATOM      2  C2  BNZ d   1      -1.740  -2.234   1.173  0.00  0.00     0.000 A 
ATOM      3  C3  BNZ d   1      -1.895  -1.535   0.009  0.00  0.00     0.000 A 
ATOM      4  C4  BNZ d   1      -1.678  -2.153  -1.170  0.00  0.00     0.000 A 
ATOM      5  C5  BNZ d   1      -1.333  -3.489  -1.206  0.00  0.00     0.000 A 
ATOM      6  C6  BNZ d   1      -1.216  -4.200  -0.033  0.00  0.00     0.000 A 
ENDROOT
TORSDOF 0
ENDMDL
