MODEL 1
REMARK minimizedAffinity 6.59580326
REMARK minimizedRMSD -1
REMARK  0 active torsions:
REMARK  status: ('A' for Active; 'I' for Inactive)
ROOT
ATOM      1  C1  BNZ d   1       4.937  -1.307  -3.329  0.00  0.00     0.000 A 
ATOM      2  C2  BNZ d   1       6.000  -0.679  -3.923  0.00  0.00     0.000 A 
ATOM      3  C3  BNZ d   1       5.998   0.675  -4.109  0.00  0.00     0.000 A 
ATOM      4  C4  BNZ d   1       4.919   1.394  -3.739  0.00  0.00     0.000 A 
ATOM      5  C5  BNZ d   1       3.836   0.774  -3.147  0.00  0.00     0.000 A 
ATOM      6  C6  BNZ d   1       3.857  -0.584  -2.926  0.00  0.00     0.000 A 
ENDROOT
TORSDOF 0
ENDMDL
