MODEL 1
REMARK minimizedAffinity 7.29747009
REMARK minimizedRMSD -1
REMARK  0 active torsions:
REMARK  status: ('A' for Active; 'I' for Inactive)
ROOT
ATOM      1  C1  BNZ d   1       5.009   1.374   1.826  0.00  0.00     0.000 A 
ATOM      2  C2  BNZ d   1       3.697   1.748   1.947  0.00  0.00     0.000 A 
ATOM      3  C3  BNZ d   1       3.108   2.548   1.008  0.00  0.00     0.000 A 
ATOM      4  C4  BNZ d   1       3.840   3.004  -0.028  0.00  0.00     0.000 A 
ATOM      5  C5  BNZ d   1       5.166   2.644  -0.159  0.00  0.00     0.000 A 
ATOM      6  C6  BNZ d   1       5.746   1.807   0.767  0.00  0.00     0.000 A 
ENDROOT
TORSDOF 0
ENDMDL
