MODEL 1
REMARK minimizedAffinity 5.38643312
REMARK minimizedRMSD -1
REMARK  0 active torsions:
REMARK  status: ('A' for Active; 'I' for Inactive)
ROOT
ATOM      1  C1  BNZ d   1      -3.669   2.956   5.986  0.00  0.00     0.000 A 
ATOM      2  C2  BNZ d   1      -3.271   1.645   5.995  0.00  0.00     0.000 A 
ATOM      3  C3  BNZ d   1      -4.191   0.634   5.981  0.00  0.00     0.000 A 
ATOM      4  C4  BNZ d   1      -5.505   0.934   5.999  0.00  0.00     0.000 A 
ATOM      5  C5  BNZ d   1      -5.923   2.250   6.000  0.00  0.00     0.000 A 
ATOM      6  C6  BNZ d   1      -4.994   3.265   5.974  0.00  0.00     0.000 A 
ENDROOT
TORSDOF 0
ENDMDL
