MODEL 1
REMARK minimizedAffinity 3.10451698
REMARK minimizedRMSD -1
REMARK  0 active torsions:
REMARK  status: ('A' for Active; 'I' for Inactive)
ROOT
ATOM      1  C1  BNZ d   1      -0.683  -4.326   1.272  0.00  0.00     0.000 A 
ATOM      2  C2  BNZ d   1      -0.660  -3.609   0.105  0.00  0.00     0.000 A 
ATOM      3  C3  BNZ d   1      -1.459  -2.512  -0.058  0.00  0.00     0.000 A 
ATOM      4  C4  BNZ d   1      -2.308  -2.158   0.928  0.00  0.00     0.000 A 
ATOM      5  C5  BNZ d   1      -2.350  -2.876   2.106  0.00  0.00     0.000 A 
ATOM      6  C6  BNZ d   1      -1.516  -3.956   2.282  0.00  0.00     0.000 A 
ENDROOT
TORSDOF 0
ENDMDL
