MODEL 1
REMARK minimizedAffinity 1.4974066
REMARK minimizedRMSD -1
REMARK  0 active torsions:
REMARK  status: ('A' for Active; 'I' for Inactive)
ROOT
ATOM      1  C1  BNZ d   1      -1.032  -3.622   1.293  0.00  0.00     0.000 A 
ATOM      2  C2  BNZ d   1      -1.938  -2.629   1.555  0.00  0.00     0.000 A 
ATOM      3  C3  BNZ d   1      -2.351  -1.780   0.566  0.00  0.00     0.000 A 
ATOM      4  C4  BNZ d   1      -1.829  -1.900  -0.672  0.00  0.00     0.000 A 
ATOM      5  C5  BNZ d   1      -0.907  -2.890  -0.949  0.00  0.00     0.000 A 
ATOM      6  C6  BNZ d   1      -0.523  -3.767   0.040  0.00  0.00     0.000 A 
ENDROOT
TORSDOF 0
ENDMDL
