MODEL 1
REMARK minimizedAffinity 5.11041975
REMARK minimizedRMSD -1
REMARK  0 active torsions:
REMARK  status: ('A' for Active; 'I' for Inactive)
ROOT
ATOM      1  C1  BNZ d   1      -4.109   6.000  -4.147  0.00  0.00     0.000 A 
ATOM      2  C2  BNZ d   1      -5.221   5.998  -4.946  0.00  0.00     0.000 A 
ATOM      3  C3  BNZ d   1      -5.546   4.898  -5.690  0.00  0.00     0.000 A 
ATOM      4  C4  BNZ d   1      -4.739   3.818  -5.665  0.00  0.00     0.000 A 
ATOM      5  C5  BNZ d   1      -3.609   3.808  -4.871  0.00  0.00     0.000 A 
ATOM      6  C6  BNZ d   1      -3.306   4.902  -4.094  0.00  0.00     0.000 A 
ENDROOT
TORSDOF 0
ENDMDL
