MODEL 1
REMARK minimizedAffinity 5.69594717
REMARK minimizedRMSD -1
REMARK  0 active torsions:
REMARK  status: ('A' for Active; 'I' for Inactive)
ROOT
ATOM      1  C1  BNZ d   1      -3.469   2.434   5.958  0.00  0.00     0.000 A 
ATOM      2  C2  BNZ d   1      -4.789   2.797   5.998  0.00  0.00     0.000 A 
ATOM      3  C3  BNZ d   1      -5.775   1.851   6.000  0.00  0.00     0.000 A 
ATOM      4  C4  BNZ d   1      -5.442   0.546   5.921  0.00  0.00     0.000 A 
ATOM      5  C5  BNZ d   1      -4.116   0.165   5.870  0.00  0.00     0.000 A 
ATOM      6  C6  BNZ d   1      -3.125   1.118   5.909  0.00  0.00     0.000 A 
ENDROOT
TORSDOF 0
ENDMDL
