MODEL 1
REMARK minimizedAffinity 6.08739805
REMARK minimizedRMSD -1
REMARK  0 active torsions:
REMARK  status: ('A' for Active; 'I' for Inactive)
ROOT
ATOM      1  C1  BNZ d   1      -4.108   4.689  -1.721  0.00  0.00     0.000 A 
ATOM      2  C2  BNZ d   1      -4.135   4.099  -0.486  0.00  0.00     0.000 A 
ATOM      3  C3  BNZ d   1      -5.094   4.433   0.429  0.00  0.00     0.000 A 
ATOM      4  C4  BNZ d   1      -6.000   5.384   0.122  0.00  0.00     0.000 A 
ATOM      5  C5  BNZ d   1      -5.980   5.995  -1.117  0.00  0.00     0.000 A 
ATOM      6  C6  BNZ d   1      -5.036   5.628  -2.049  0.00  0.00     0.000 A 
ENDROOT
TORSDOF 0
ENDMDL
