MODEL 1
REMARK minimizedAffinity 5.3833642
REMARK minimizedRMSD -1
REMARK  0 active torsions:
REMARK  status: ('A' for Active; 'I' for Inactive)
ROOT
ATOM      1  C1  BNZ d   1      -3.790   4.422  -5.133  0.00  0.00     0.000 A 
ATOM      2  C2  BNZ d   1      -3.819   5.228  -4.025  0.00  0.00     0.000 A 
ATOM      3  C3  BNZ d   1      -4.915   5.996  -3.747  0.00  0.00     0.000 A 
ATOM      4  C4  BNZ d   1      -5.963   5.989  -4.597  0.00  0.00     0.000 A 
ATOM      5  C5  BNZ d   1      -5.944   5.189  -5.722  0.00  0.00     0.000 A 
ATOM      6  C6  BNZ d   1      -4.856   4.388  -5.978  0.00  0.00     0.000 A 
ENDROOT
TORSDOF 0
ENDMDL
