MODEL 1
REMARK minimizedAffinity 6.55742979
REMARK minimizedRMSD -1
REMARK  0 active torsions:
REMARK  status: ('A' for Active; 'I' for Inactive)
ROOT
ATOM      1  C1  BNZ d   1      -2.676   0.094   5.282  0.00  0.00     0.000 A 
ATOM      2  C2  BNZ d   1      -3.032   1.416   5.278  0.00  0.00     0.000 A 
ATOM      3  C3  BNZ d   1      -4.287   1.804   5.657  0.00  0.00     0.000 A 
ATOM      4  C4  BNZ d   1      -5.195   0.868   6.000  0.00  0.00     0.000 A 
ATOM      5  C5  BNZ d   1      -4.854  -0.469   6.000  0.00  0.00     0.000 A 
ATOM      6  C6  BNZ d   1      -3.579  -0.854   5.656  0.00  0.00     0.000 A 
ENDROOT
TORSDOF 0
ENDMDL
