MODEL 1
REMARK minimizedAffinity 2.23131633
REMARK minimizedRMSD -1
REMARK  0 active torsions:
REMARK  status: ('A' for Active; 'I' for Inactive)
ROOT
ATOM      1  C1  BNZ d   1      -5.250   3.710  -5.909  0.00  0.00     0.000 A 
ATOM      2  C2  BNZ d   1      -5.999   4.855  -5.973  0.00  0.00     0.000 A 
ATOM      3  C3  BNZ d   1      -5.583   6.000  -5.354  0.00  0.00     0.000 A 
ATOM      4  C4  BNZ d   1      -4.440   5.989  -4.639  0.00  0.00     0.000 A 
ATOM      5  C5  BNZ d   1      -3.678   4.841  -4.556  0.00  0.00     0.000 A 
ATOM      6  C6  BNZ d   1      -4.080   3.700  -5.213  0.00  0.00     0.000 A 
ENDROOT
TORSDOF 0
ENDMDL
