MODEL 1
REMARK minimizedAffinity 1.25865602
REMARK minimizedRMSD -1
REMARK  0 active torsions:
REMARK  status: ('A' for Active; 'I' for Inactive)
ROOT
ATOM      1  C1  BNZ d   1      -3.763   5.521  -0.994  0.00  0.00     0.000 A 
ATOM      2  C2  BNZ d   1      -5.055   5.847  -1.310  0.00  0.00     0.000 A 
ATOM      3  C3  BNZ d   1      -6.000   5.991  -0.332  0.00  0.00     0.000 A 
ATOM      4  C4  BNZ d   1      -5.661   5.770   0.954  0.00  0.00     0.000 A 
ATOM      5  C5  BNZ d   1      -4.365   5.431   1.288  0.00  0.00     0.000 A 
ATOM      6  C6  BNZ d   1      -3.408   5.326   0.305  0.00  0.00     0.000 A 
ENDROOT
TORSDOF 0
ENDMDL
