MODEL 1
REMARK minimizedAffinity 12.851613
REMARK minimizedRMSD -1
REMARK  0 active torsions:
REMARK  status: ('A' for Active; 'I' for Inactive)
ROOT
ATOM      1  C1  BNZ d   1       3.778   2.842   1.581  0.00  0.00     0.000 A 
ATOM      2  C2  BNZ d   1       4.470   1.841   2.209  0.00  0.00     0.000 A 
ATOM      3  C3  BNZ d   1       5.592   1.304   1.643  0.00  0.00     0.000 A 
ATOM      4  C4  BNZ d   1       5.997   1.740   0.432  0.00  0.00     0.000 A 
ATOM      5  C5  BNZ d   1       5.304   2.742  -0.218  0.00  0.00     0.000 A 
ATOM      6  C6  BNZ d   1       4.198   3.307   0.373  0.00  0.00     0.000 A 
ENDROOT
TORSDOF 0
ENDMDL
