MODEL 1
REMARK minimizedAffinity -0.604504108
REMARK minimizedRMSD -1
REMARK  1 active torsions:
REMARK  status: ('A' for Active; 'I' for Inactive)
REMARK    1  A    between atoms: C3_4  and  O_7 
ROOT
ATOM      1  C   UNL d   1      -0.864  -1.204  -2.569  0.00  0.00    -0.033 A 
ATOM      2  C1  UNL d   1      -1.084  -0.901  -1.224  0.00  0.00     0.039 A 
ATOM      3  C2  UNL d   1      -0.784   0.372  -0.736  0.00  0.00    -0.080 A 
ATOM      4  C3  UNL d   1      -0.266   1.332  -1.601  0.00  0.00     0.150 A 
ATOM      5  C4  UNL d   1      -0.048   1.038  -2.943  0.00  0.00    -0.007 A 
ATOM      6  C5  UNL d   1      -0.347  -0.234  -3.429  0.00  0.00     0.039 A 
ENDROOT
BRANCH   4   7
ATOM      7  O   UNL d   1       0.047   2.586  -1.169  0.00  0.00    -0.526 OA
ATOM      8  H5  UNL d   1      -0.129   2.636  -0.215  0.00  0.00     0.418 HD
ENDBRANCH   4   7
TORSDOF 1
ENDMDL
