MODEL 1
REMARK minimizedAffinity 5.18294811
REMARK minimizedRMSD -1
REMARK  1 active torsions:
REMARK  status: ('A' for Active; 'I' for Inactive)
REMARK    1  A    between atoms: C3_4  and  O_7 
ROOT
ATOM      1  C   UNL d   1       1.462  -4.569  -0.449  0.00  0.00    -0.033 A 
ATOM      2  C1  UNL d   1       0.721  -5.710  -0.761  0.00  0.00     0.039 A 
ATOM      3  C2  UNL d   1      -0.557  -5.587  -1.308  0.00  0.00    -0.080 A 
ATOM      4  C3  UNL d   1      -1.083  -4.319  -1.538  0.00  0.00     0.150 A 
ATOM      5  C4  UNL d   1      -0.349  -3.177  -1.234  0.00  0.00    -0.007 A 
ATOM      6  C5  UNL d   1       0.928  -3.302  -0.687  0.00  0.00     0.039 A 
ENDROOT
BRANCH   4   7
ATOM      7  O   UNL d   1      -2.328  -4.148  -2.066  0.00  0.00    -0.526 OA
ATOM      8  H5  UNL d   1      -2.728  -5.024  -2.199  0.00  0.00     0.418 HD
ENDBRANCH   4   7
TORSDOF 1
ENDMDL
