MODEL 1
REMARK minimizedAffinity -0.416423589
REMARK minimizedRMSD -1
REMARK  1 active torsions:
REMARK  status: ('A' for Active; 'I' for Inactive)
REMARK    1  A    between atoms: C3_4  and  O_7 
ROOT
ATOM      1  C   UNL d   1      -0.103   3.325  -1.179  0.00  0.00    -0.033 A 
ATOM      2  C1  UNL d   1      -0.116   4.290  -0.169  0.00  0.00     0.039 A 
ATOM      3  C2  UNL d   1       0.019   3.907   1.167  0.00  0.00    -0.080 A 
ATOM      4  C3  UNL d   1       0.167   2.558   1.479  0.00  0.00     0.150 A 
ATOM      5  C4  UNL d   1       0.185   1.592   0.478  0.00  0.00    -0.007 A 
ATOM      6  C5  UNL d   1       0.049   1.977  -0.855  0.00  0.00     0.039 A 
ENDROOT
BRANCH   4   7
ATOM      7  O   UNL d   1       0.298   2.135   2.768  0.00  0.00    -0.526 OA
ATOM      8  H5  UNL d   1       0.239   2.909   3.353  0.00  0.00     0.418 HD
ENDBRANCH   4   7
TORSDOF 1
ENDMDL
