MODEL 1
REMARK minimizedAffinity 3.09285402
REMARK minimizedRMSD -1
REMARK  1 active torsions:
REMARK  status: ('A' for Active; 'I' for Inactive)
REMARK    1  A    between atoms: C3_4  and  O_7 
ROOT
ATOM      1  C   UNL d   1      -0.964   3.328  -0.290  0.00  0.00    -0.033 A 
ATOM      2  C1  UNL d   1      -0.193   4.237  -1.017  0.00  0.00     0.039 A 
ATOM      3  C2  UNL d   1       1.118   4.514  -0.624  0.00  0.00    -0.080 A 
ATOM      4  C3  UNL d   1       1.646   3.876   0.495  0.00  0.00     0.150 A 
ATOM      5  C4  UNL d   1       0.884   2.966   1.221  0.00  0.00    -0.007 A 
ATOM      6  C5  UNL d   1      -0.425   2.691   0.828  0.00  0.00     0.039 A 
ENDROOT
BRANCH   4   7
ATOM      7  O   UNL d   1       2.918   4.117   0.919  0.00  0.00    -0.526 OA
ATOM      8  H5  UNL d   1       3.314   4.788   0.338  0.00  0.00     0.418 HD
ENDBRANCH   4   7
TORSDOF 1
ENDMDL
