MODEL 1
REMARK minimizedAffinity -4.1096344
REMARK minimizedRMSD -1
REMARK  1 active torsions:
REMARK  status: ('A' for Active; 'I' for Inactive)
REMARK    1  A    between atoms: C3_4  and  O_7 
ROOT
ATOM      1  C   UNL d   1      -4.553   0.343  -5.933  0.00  0.00    -0.033 A 
ATOM      2  C1  UNL d   1      -5.771   0.372  -5.250  0.00  0.00     0.039 A 
ATOM      3  C2  UNL d   1      -6.000   1.339  -4.270  0.00  0.00    -0.080 A 
ATOM      4  C3  UNL d   1      -5.006   2.271  -3.983  0.00  0.00     0.150 A 
ATOM      5  C4  UNL d   1      -3.792   2.250  -4.662  0.00  0.00    -0.007 A 
ATOM      6  C5  UNL d   1      -3.565   1.283  -5.640  0.00  0.00     0.039 A 
ENDROOT
BRANCH   4   7
ATOM      7  O   UNL d   1      -5.182   3.231  -3.031  0.00  0.00    -0.526 OA
ATOM      8  H5  UNL d   1      -6.056   3.105  -2.625  0.00  0.00     0.418 HD
ENDBRANCH   4   7
TORSDOF 1
ENDMDL
