MODEL 1
REMARK minimizedAffinity 3.36630964
REMARK minimizedRMSD -1
REMARK  1 active torsions:
REMARK  status: ('A' for Active; 'I' for Inactive)
REMARK    1  A    between atoms: C3_4  and  O_7 
ROOT
ATOM      1  C   UNL d   1      -4.956   2.999  -2.013  0.00  0.00    -0.033 A 
ATOM      2  C1  UNL d   1      -3.867   2.630  -2.806  0.00  0.00     0.039 A 
ATOM      3  C2  UNL d   1      -3.823   3.002  -4.151  0.00  0.00    -0.080 A 
ATOM      4  C3  UNL d   1      -4.872   3.743  -4.689  0.00  0.00     0.150 A 
ATOM      5  C4  UNL d   1      -5.957   4.117  -3.904  0.00  0.00    -0.007 A 
ATOM      6  C5  UNL d   1      -6.000   3.744  -2.561  0.00  0.00     0.039 A 
ENDROOT
BRANCH   4   7
ATOM      7  O   UNL d   1      -4.875   4.125  -5.998  0.00  0.00    -0.526 OA
ATOM      8  H5  UNL d   1      -4.077   3.772  -6.424  0.00  0.00     0.418 HD
ENDBRANCH   4   7
TORSDOF 1
ENDMDL
