MODEL 1
REMARK minimizedAffinity 2.31395769
REMARK minimizedRMSD -1
REMARK  1 active torsions:
REMARK  status: ('A' for Active; 'I' for Inactive)
REMARK    1  A    between atoms: C3_4  and  O_7 
ROOT
ATOM      1  C   UNL d   1      -1.682   4.581  -0.015  0.00  0.00    -0.033 A 
ATOM      2  C1  UNL d   1      -0.411   4.342   0.510  0.00  0.00     0.039 A 
ATOM      3  C2  UNL d   1       0.363   3.290   0.016  0.00  0.00    -0.080 A 
ATOM      4  C3  UNL d   1      -0.144   2.487  -1.002  0.00  0.00     0.150 A 
ATOM      5  C4  UNL d   1      -1.408   2.723  -1.532  0.00  0.00    -0.007 A 
ATOM      6  C5  UNL d   1      -2.180   3.773  -1.038  0.00  0.00     0.039 A 
ENDROOT
BRANCH   4   7
ATOM      7  O   UNL d   1       0.573   1.446  -1.512  0.00  0.00    -0.526 OA
ATOM      8  H5  UNL d   1       1.414   1.386  -1.030  0.00  0.00     0.418 HD
ENDBRANCH   4   7
TORSDOF 1
ENDMDL
