MODEL 1
REMARK minimizedAffinity 8.01349068
REMARK minimizedRMSD -1
REMARK  0 active torsions:
REMARK  status: ('A' for Active; 'I' for Inactive)
ROOT
ATOM      1  C1  DEN d   1       4.879  -1.124   0.099  0.00  0.00     0.130 A 
ATOM      2  C2  DEN d   1       5.020   0.273  -0.305  0.00  0.00    -0.031 A 
ATOM      3  C3  DEN d   1       3.754   0.695  -0.937  0.00  0.00     0.027 A 
ATOM      4  C4  DEN d   1       1.598  -0.668  -1.322  0.00  0.00     0.027 A 
ATOM      5  C5  DEN d   1       1.006  -1.900  -1.160  0.00  0.00    -0.003 A 
ATOM      6  C6  DEN d   1       1.668  -2.962  -0.602  0.00  0.00     0.001 A 
ATOM      7  C7  DEN d   1       2.949  -2.797  -0.145  0.00  0.00     0.017 A 
ATOM      8  C8  DEN d   1       3.556  -1.560  -0.312  0.00  0.00    -0.094 A 
ATOM      9  C9  DEN d   1       2.865  -0.496  -0.867  0.00  0.00    -0.072 A 
ENDROOT
TORSDOF 0
ENDMDL
