MODEL 1
REMARK minimizedAffinity 3.22937441
REMARK minimizedRMSD -1
REMARK  0 active torsions:
REMARK  status: ('A' for Active; 'I' for Inactive)
ROOT
ATOM      1  C1  DEN d   1       4.450   0.760  -1.869  0.00  0.00     0.130 A 
ATOM      2  C2  DEN d   1       4.174  -0.183  -0.789  0.00  0.00    -0.031 A 
ATOM      3  C3  DEN d   1       4.569   0.452   0.484  0.00  0.00     0.027 A 
ATOM      4  C4  DEN d   1       5.571   2.794   0.886  0.00  0.00     0.027 A 
ATOM      5  C5  DEN d   1       5.997   3.953   0.275  0.00  0.00    -0.003 A 
ATOM      6  C6  DEN d   1       5.969   4.115  -1.084  0.00  0.00     0.001 A 
ATOM      7  C7  DEN d   1       5.463   3.117  -1.876  0.00  0.00     0.017 A 
ATOM      8  C8  DEN d   1       5.039   1.943  -1.268  0.00  0.00    -0.094 A 
ATOM      9  C9  DEN d   1       5.064   1.804   0.109  0.00  0.00    -0.072 A 
ENDROOT
TORSDOF 0
ENDMDL
