MODEL 1
REMARK minimizedAffinity 11.8556223
REMARK minimizedRMSD -1
REMARK  0 active torsions:
REMARK  status: ('A' for Active; 'I' for Inactive)
ROOT
ATOM      1  C1  DEN d   1       5.753  -0.174  -0.787  0.00  0.00     0.130 A 
ATOM      2  C2  DEN d   1       6.000   1.264  -0.853  0.00  0.00    -0.031 A 
ATOM      3  C3  DEN d   1       4.695   1.953  -0.825  0.00  0.00     0.027 A 
ATOM      4  C4  DEN d   1       2.327   0.940  -0.682  0.00  0.00     0.027 A 
ATOM      5  C5  DEN d   1       1.611  -0.235  -0.617  0.00  0.00    -0.003 A 
ATOM      6  C6  DEN d   1       2.218  -1.462  -0.638  0.00  0.00     0.001 A 
ATOM      7  C7  DEN d   1       3.585  -1.543  -0.681  0.00  0.00     0.017 A 
ATOM      8  C8  DEN d   1       4.313  -0.363  -0.754  0.00  0.00    -0.094 A 
ATOM      9  C9  DEN d   1       3.682   0.869  -0.719  0.00  0.00    -0.072 A 
ENDROOT
TORSDOF 0
ENDMDL
