MODEL 1
REMARK minimizedAffinity 18.6559906
REMARK minimizedRMSD -1
REMARK  0 active torsions:
REMARK  status: ('A' for Active; 'I' for Inactive)
ROOT
ATOM      1  C1  DEN d   1      -3.397   1.970  -5.636  0.00  0.00     0.130 A 
ATOM      2  C2  DEN d   1      -3.127   0.602  -5.203  0.00  0.00    -0.031 A 
ATOM      3  C3  DEN d   1      -3.871   0.365  -3.950  0.00  0.00     0.027 A 
ATOM      4  C4  DEN d   1      -5.409   1.973  -2.646  0.00  0.00     0.027 A 
ATOM      5  C5  DEN d   1      -5.936   3.245  -2.616  0.00  0.00    -0.003 A 
ATOM      6  C6  DEN d   1      -5.629   4.185  -3.565  0.00  0.00     0.001 A 
ATOM      7  C7  DEN d   1      -4.807   3.852  -4.609  0.00  0.00     0.017 A 
ATOM      8  C8  DEN d   1      -4.266   2.573  -4.642  0.00  0.00    -0.094 A 
ATOM      9  C9  DEN d   1      -4.598   1.634  -3.680  0.00  0.00    -0.072 A 
ENDROOT
TORSDOF 0
ENDMDL
