MODEL 1
REMARK minimizedAffinity 4.64459085
REMARK minimizedRMSD -1
REMARK  0 active torsions:
REMARK  status: ('A' for Active; 'I' for Inactive)
ROOT
ATOM      1  C1  DEN d   1      -0.104  -2.283   3.049  0.00  0.00     0.130 A 
ATOM      2  C2  DEN d   1       0.814  -1.275   3.572  0.00  0.00    -0.031 A 
ATOM      3  C3  DEN d   1       1.397  -1.795   4.825  0.00  0.00     0.027 A 
ATOM      4  C4  DEN d   1       0.974  -4.053   5.997  0.00  0.00     0.027 A 
ATOM      5  C5  DEN d   1       0.268  -5.234   5.937  0.00  0.00    -0.003 A 
ATOM      6  C6  DEN d   1      -0.630  -5.498   4.937  0.00  0.00     0.001 A 
ATOM      7  C7  DEN d   1      -0.811  -4.586   3.930  0.00  0.00     0.017 A 
ATOM      8  C8  DEN d   1      -0.108  -3.390   3.988  0.00  0.00    -0.094 A 
ATOM      9  C9  DEN d   1       0.804  -3.148   5.001  0.00  0.00    -0.072 A 
ENDROOT
TORSDOF 0
ENDMDL
