MODEL 1
REMARK minimizedAffinity 16.6610088
REMARK minimizedRMSD -1
REMARK  0 active torsions:
REMARK  status: ('A' for Active; 'I' for Inactive)
ROOT
ATOM      1  C1  DEN d   1      -3.356  -1.420  -3.003  0.00  0.00     0.130 A 
ATOM      2  C2  DEN d   1      -1.960  -1.772  -2.759  0.00  0.00    -0.031 A 
ATOM      3  C3  DEN d   1      -1.120  -0.968  -3.670  0.00  0.00     0.027 A 
ATOM      4  C4  DEN d   1      -1.842   0.782  -5.421  0.00  0.00     0.027 A 
ATOM      5  C5  DEN d   1      -2.922   1.413  -5.999  0.00  0.00    -0.003 A 
ATOM      6  C6  DEN d   1      -4.213   1.122  -5.645  0.00  0.00     0.001 A 
ATOM      7  C7  DEN d   1      -4.455   0.207  -4.655  0.00  0.00     0.017 A 
ATOM      8  C8  DEN d   1      -3.372  -0.439  -4.074  0.00  0.00    -0.094 A 
ATOM      9  C9  DEN d   1      -2.074  -0.122  -4.436  0.00  0.00    -0.072 A 
ENDROOT
TORSDOF 0
ENDMDL
