MODEL 1
REMARK minimizedAffinity 5.13183641
REMARK minimizedRMSD -1
REMARK  0 active torsions:
REMARK  status: ('A' for Active; 'I' for Inactive)
ROOT
ATOM      1  C1  DEN d   1       5.737   2.984  -0.668  0.00  0.00     0.130 A 
ATOM      2  C2  DEN d   1       5.997   3.474   0.683  0.00  0.00    -0.031 A 
ATOM      3  C3  DEN d   1       5.326   2.565   1.634  0.00  0.00     0.027 A 
ATOM      4  C4  DEN d   1       3.922   0.457   1.150  0.00  0.00     0.027 A 
ATOM      5  C5  DEN d   1       3.414  -0.349   0.155  0.00  0.00    -0.003 A 
ATOM      6  C6  DEN d   1       3.614  -0.084  -1.173  0.00  0.00     0.001 A 
ATOM      7  C7  DEN d   1       4.380   0.990  -1.543  0.00  0.00     0.017 A 
ATOM      8  C8  DEN d   1       4.889   1.812  -0.546  0.00  0.00    -0.094 A 
ATOM      9  C9  DEN d   1       4.686   1.520   0.792  0.00  0.00    -0.072 A 
ENDROOT
TORSDOF 0
ENDMDL
