MODEL 1
REMARK minimizedAffinity 0.108904466
REMARK minimizedRMSD -1
REMARK  0 active torsions:
REMARK  status: ('A' for Active; 'I' for Inactive)
ROOT
ATOM      1  N1  IND d   1       4.733   5.769   4.499  0.00  0.00    -0.196 N 
ATOM      2  C2  IND d   1       4.888   5.621   3.149  0.00  0.00     0.054 A 
ATOM      3  C3  IND d   1       3.683   5.569   2.540  0.00  0.00    -0.031 A 
ATOM      4  C4  IND d   1       1.327   5.811   3.550  0.00  0.00     0.051 A 
ATOM      5  C5  IND d   1       0.675   5.926   4.746  0.00  0.00    -0.031 A 
ATOM      6  C6  IND d   1       1.355   6.000   5.944  0.00  0.00     0.015 A 
ATOM      7  C7  IND d   1       2.720   5.972   5.991  0.00  0.00    -0.016 A 
ATOM      8  C8  IND d   1       3.386   5.847   4.780  0.00  0.00    -0.047 A 
ATOM      9  C9  IND d   1       2.700   5.730   3.564  0.00  0.00    -0.096 A 
ATOM     10  HN1 IND d   1       5.369   5.808   5.077  0.00  0.00     0.298 HD
ENDROOT
TORSDOF 0
ENDMDL
