MODEL 1
REMARK minimizedAffinity 5.07204819
REMARK minimizedRMSD -1
REMARK  0 active torsions:
REMARK  status: ('A' for Active; 'I' for Inactive)
ROOT
ATOM      1  N1  IND d   1       1.647  -2.393   0.266  0.00  0.00    -0.196 N 
ATOM      2  C2  IND d   1       2.004  -3.455   1.049  0.00  0.00     0.054 A 
ATOM      3  C3  IND d   1       1.278  -3.465   2.189  0.00  0.00    -0.031 A 
ATOM      4  C4  IND d   1      -0.622  -1.895   2.931  0.00  0.00     0.051 A 
ATOM      5  C5  IND d   1      -1.281  -0.754   2.567  0.00  0.00    -0.031 A 
ATOM      6  C6  IND d   1      -0.994  -0.089   1.393  0.00  0.00     0.015 A 
ATOM      7  C7  IND d   1      -0.041  -0.549   0.529  0.00  0.00    -0.016 A 
ATOM      8  C8  IND d   1       0.635  -1.703   0.899  0.00  0.00    -0.047 A 
ATOM      9  C9  IND d   1       0.378  -2.358   2.110  0.00  0.00    -0.096 A 
ATOM     10  HN1 IND d   1       1.995  -2.189  -0.493  0.00  0.00     0.298 HD
ENDROOT
TORSDOF 0
ENDMDL
