MODEL 1
REMARK minimizedAffinity 3.08736682
REMARK minimizedRMSD -1
REMARK  0 active torsions:
REMARK  status: ('A' for Active; 'I' for Inactive)
ROOT
ATOM      1  N1  IND d   1      -1.065  -0.315   2.077  0.00  0.00    -0.196 N 
ATOM      2  C2  IND d   1      -1.707  -1.067   3.021  0.00  0.00     0.054 A 
ATOM      3  C3  IND d   1      -1.120  -2.279   3.135  0.00  0.00    -0.031 A 
ATOM      4  C4  IND d   1       0.967  -3.205   1.944  0.00  0.00     0.051 A 
ATOM      5  C5  IND d   1       1.873  -2.901   0.968  0.00  0.00    -0.031 A 
ATOM      6  C6  IND d   1       1.848  -1.694   0.300  0.00  0.00     0.015 A 
ATOM      7  C7  IND d   1       0.918  -0.737   0.592  0.00  0.00    -0.016 A 
ATOM      8  C8  IND d   1      -0.009  -1.045   1.578  0.00  0.00    -0.047 A 
ATOM      9  C9  IND d   1      -0.015  -2.285   2.230  0.00  0.00    -0.096 A 
ATOM     10  HN1 IND d   1      -1.285   0.480   1.835  0.00  0.00     0.298 HD
ENDROOT
TORSDOF 0
ENDMDL
