MODEL 1
REMARK minimizedAffinity 9.62624359
REMARK minimizedRMSD -1
REMARK  0 active torsions:
REMARK  status: ('A' for Active; 'I' for Inactive)
ROOT
ATOM      1  N1  IND d   1       0.793  -2.276   1.273  0.00  0.00    -0.196 N 
ATOM      2  C2  IND d   1       0.801  -2.990   2.438  0.00  0.00     0.054 A 
ATOM      3  C3  IND d   1      -0.041  -2.432   3.337  0.00  0.00    -0.031 A 
ATOM      4  C4  IND d   1      -1.607  -0.406   3.073  0.00  0.00     0.051 A 
ATOM      5  C5  IND d   1      -1.938   0.593   2.201  0.00  0.00    -0.031 A 
ATOM      6  C6  IND d   1      -1.367   0.687   0.949  0.00  0.00     0.015 A 
ATOM      7  C7  IND d   1      -0.446  -0.225   0.516  0.00  0.00    -0.016 A 
ATOM      8  C8  IND d   1      -0.102  -1.237   1.401  0.00  0.00    -0.047 A 
ATOM      9  C9  IND d   1      -0.647  -1.313   2.689  0.00  0.00    -0.096 A 
ATOM     10  HN1 IND d   1       1.268  -2.446   0.576  0.00  0.00     0.298 HD
ENDROOT
TORSDOF 0
ENDMDL
