MODEL 1
REMARK minimizedAffinity -2.3401835
REMARK minimizedRMSD -1
REMARK  0 active torsions:
REMARK  status: ('A' for Active; 'I' for Inactive)
ROOT
ATOM      1  N1  IND d   1       0.783  -0.382  -0.290  0.00  0.00    -0.196 N 
ATOM      2  C2  IND d   1      -0.079   0.596   0.123  0.00  0.00     0.054 A 
ATOM      3  C3  IND d   1      -0.713   0.216   1.255  0.00  0.00    -0.031 A 
ATOM      4  C4  IND d   1      -0.416  -1.922   2.658  0.00  0.00     0.051 A 
ATOM      5  C5  IND d   1       0.231  -3.126   2.663  0.00  0.00    -0.031 A 
ATOM      6  C6  IND d   1       1.114  -3.483   1.665  0.00  0.00     0.015 A 
ATOM      7  C7  IND d   1       1.394  -2.641   0.626  0.00  0.00    -0.016 A 
ATOM      8  C8  IND d   1       0.734  -1.420   0.614  0.00  0.00    -0.047 A 
ATOM      9  C9  IND d   1      -0.196  -1.070   1.602  0.00  0.00    -0.096 A 
ATOM     10  HN1 IND d   1       1.273  -0.353  -0.996  0.00  0.00     0.298 HD
ENDROOT
TORSDOF 0
ENDMDL
