MODEL 1
REMARK minimizedAffinity -1.92656672
REMARK minimizedRMSD -1
REMARK  0 active torsions:
REMARK  status: ('A' for Active; 'I' for Inactive)
ROOT
ATOM      1  N1  IND d   1       1.136  -2.887   0.416  0.00  0.00    -0.196 N 
ATOM      2  C2  IND d   1       1.776  -3.409   1.505  0.00  0.00     0.054 A 
ATOM      3  C3  IND d   1       1.304  -2.850   2.642  0.00  0.00    -0.031 A 
ATOM      4  C4  IND d   1      -0.587  -1.131   2.955  0.00  0.00     0.051 A 
ATOM      5  C5  IND d   1      -1.445  -0.333   2.252  0.00  0.00    -0.031 A 
ATOM      6  C6  IND d   1      -1.489  -0.347   0.873  0.00  0.00     0.015 A 
ATOM      7  C7  IND d   1      -0.681  -1.172   0.143  0.00  0.00    -0.016 A 
ATOM      8  C8  IND d   1       0.196  -1.980   0.854  0.00  0.00    -0.047 A 
ATOM      9  C9  IND d   1       0.275  -1.939   2.252  0.00  0.00    -0.096 A 
ATOM     10  HN1 IND d   1       1.294  -3.091  -0.404  0.00  0.00     0.298 HD
ENDROOT
TORSDOF 0
ENDMDL
