MODEL 1
REMARK minimizedAffinity 3.07289743
REMARK minimizedRMSD -1
REMARK  0 active torsions:
REMARK  status: ('A' for Active; 'I' for Inactive)
ROOT
ATOM      1  N1  IND d   1       0.539   0.703  -0.617  0.00  0.00    -0.196 N 
ATOM      2  C2  IND d   1       1.829   0.665  -0.165  0.00  0.00     0.054 A 
ATOM      3  C3  IND d   1       1.877   0.126   1.074  0.00  0.00    -0.031 A 
ATOM      4  C4  IND d   1      -0.023  -0.855   2.506  0.00  0.00     0.051 A 
ATOM      5  C5  IND d   1      -1.381  -1.012   2.533  0.00  0.00    -0.031 A 
ATOM      6  C6  IND d   1      -2.183  -0.600   1.489  0.00  0.00     0.015 A 
ATOM      7  C7  IND d   1      -1.655  -0.022   0.370  0.00  0.00    -0.016 A 
ATOM      8  C8  IND d   1      -0.278   0.145   0.342  0.00  0.00    -0.047 A 
ATOM      9  C9  IND d   1       0.538  -0.233   1.416  0.00  0.00    -0.096 A 
ATOM     10  HN1 IND d   1       0.282   1.022  -1.372  0.00  0.00     0.298 HD
ENDROOT
TORSDOF 0
ENDMDL
