MODEL 1
REMARK minimizedAffinity -1.03633177
REMARK minimizedRMSD -1
REMARK  0 active torsions:
REMARK  status: ('A' for Active; 'I' for Inactive)
ROOT
ATOM      1  N1  IND d   1       1.449  -3.419   0.686  0.00  0.00    -0.196 N 
ATOM      2  C2  IND d   1       1.779  -4.414   1.564  0.00  0.00     0.054 A 
ATOM      3  C3  IND d   1       1.121  -4.248   2.733  0.00  0.00    -0.031 A 
ATOM      4  C4  IND d   1      -0.624  -2.472   3.389  0.00  0.00     0.051 A 
ATOM      5  C5  IND d   1      -1.224  -1.332   2.933  0.00  0.00    -0.031 A 
ATOM      6  C6  IND d   1      -0.961  -0.821   1.679  0.00  0.00     0.015 A 
ATOM      7  C7  IND d   1      -0.092  -1.440   0.826  0.00  0.00    -0.016 A 
ATOM      8  C8  IND d   1       0.525  -2.593   1.288  0.00  0.00    -0.047 A 
ATOM      9  C9  IND d   1       0.294  -3.094   2.576  0.00  0.00    -0.096 A 
ATOM     10  HN1 IND d   1       1.766  -3.325  -0.107  0.00  0.00     0.298 HD
ENDROOT
TORSDOF 0
ENDMDL
