MODEL 1
REMARK minimizedAffinity 4.44385624
REMARK minimizedRMSD -1
REMARK  0 active torsions:
REMARK  status: ('A' for Active; 'I' for Inactive)
ROOT
ATOM      1  N1  IND d   1      -3.630  -0.505   0.120  0.00  0.00    -0.196 N 
ATOM      2  C2  IND d   1      -4.268  -0.391   1.324  0.00  0.00     0.054 A 
ATOM      3  C3  IND d   1      -3.367  -0.360   2.332  0.00  0.00    -0.031 A 
ATOM      4  C4  IND d   1      -0.795  -0.381   2.230  0.00  0.00     0.051 A 
ATOM      5  C5  IND d   1       0.247  -0.512   1.355  0.00  0.00    -0.031 A 
ATOM      6  C6  IND d   1       0.046  -0.648  -0.003  0.00  0.00     0.015 A 
ATOM      7  C7  IND d   1      -1.210  -0.646  -0.541  0.00  0.00    -0.016 A 
ATOM      8  C8  IND d   1      -2.270  -0.520   0.344  0.00  0.00    -0.047 A 
ATOM      9  C9  IND d   1      -2.075  -0.424   1.728  0.00  0.00    -0.096 A 
ATOM     10  HN1 IND d   1      -4.013  -0.559  -0.647  0.00  0.00     0.298 HD
ENDROOT
TORSDOF 0
ENDMDL
