MODEL 1
REMARK minimizedAffinity 8.09973526
REMARK minimizedRMSD -1
REMARK  3 active torsions:
REMARK  status: ('A' for Active; 'I' for Inactive)
REMARK    1  A    between atoms: C3'_2  and  C2'_3 
REMARK    2  A    between atoms: C2'_3  and  C1'_4 
REMARK    3  A    between atoms: C1'_4  and  C1_5 
ROOT
ATOM      1  C1  N4B d   1       1.409  -4.200   2.712  0.00  0.00    -0.075 A 
ATOM      2  C2  N4B d   1       1.104  -2.821   2.707  0.00  0.00     0.002 A 
ATOM      3  C3  N4B d   1       0.519  -2.243   3.806  0.00  0.00     0.002 A 
ATOM      4  C4  N4B d   1       0.213  -3.024   4.911  0.00  0.00    -0.004 A 
ATOM      5  C5  N4B d   1       0.534  -4.350   4.917  0.00  0.00     0.002 A 
ATOM      6  C6  N4B d   1       1.126  -4.943   3.821  0.00  0.00     0.002 A 
ENDROOT
BRANCH   1   7
ATOM      7  C1' N4B d   1       1.970  -4.894   1.501  0.00  0.00     0.057 C 
BRANCH   7   8
ATOM      8  C2' N4B d   1       0.869  -5.718   0.840  0.00  0.00     0.009 C 
BRANCH   8   9
ATOM      9  C3' N4B d   1       1.159  -5.981  -0.627  0.00  0.00     0.004 C 
ATOM     10  C4' N4B d   1      -0.081  -6.000  -1.470  0.00  0.00     0.003 C 
ENDBRANCH   8   9
ENDBRANCH   7   8
ENDBRANCH   1   7
TORSDOF 3
ENDMDL
