MODEL 1
REMARK minimizedAffinity 14.9176512
REMARK minimizedRMSD -1
REMARK  3 active torsions:
REMARK  status: ('A' for Active; 'I' for Inactive)
REMARK    1  A    between atoms: C3'_2  and  C2'_3 
REMARK    2  A    between atoms: C2'_3  and  C1'_4 
REMARK    3  A    between atoms: C1'_4  and  C1_5 
ROOT
ATOM      1  C1  N4B d   1       4.069   5.457  -3.361  0.00  0.00    -0.075 A 
ATOM      2  C2  N4B d   1       3.260   5.718  -4.488  0.00  0.00     0.002 A 
ATOM      3  C3  N4B d   1       3.840   5.961  -5.709  0.00  0.00     0.002 A 
ATOM      4  C4  N4B d   1       5.222   5.967  -5.822  0.00  0.00    -0.004 A 
ATOM      5  C5  N4B d   1       5.997   5.690  -4.733  0.00  0.00     0.002 A 
ATOM      6  C6  N4B d   1       5.427   5.440  -3.501  0.00  0.00     0.002 A 
ENDROOT
BRANCH   1   7
ATOM      7  C1' N4B d   1       3.483   5.271  -1.988  0.00  0.00     0.057 C 
BRANCH   7   8
ATOM      8  C2' N4B d   1       2.816   3.901  -1.910  0.00  0.00     0.009 C 
BRANCH   8   9
ATOM      9  C3' N4B d   1       1.630   3.899  -0.961  0.00  0.00     0.004 C 
ATOM     10  C4' N4B d   1       0.730   5.083  -1.154  0.00  0.00     0.003 C 
ENDBRANCH   8   9
ENDBRANCH   7   8
ENDBRANCH   1   7
TORSDOF 3
ENDMDL
