MODEL 1
REMARK minimizedAffinity 2.61269855
REMARK minimizedRMSD -1
REMARK  3 active torsions:
REMARK  status: ('A' for Active; 'I' for Inactive)
REMARK    1  A    between atoms: C3'_2  and  C2'_3 
REMARK    2  A    between atoms: C2'_3  and  C1'_4 
REMARK    3  A    between atoms: C1'_4  and  C1_5 
ROOT
ATOM      1  C1  N4B d   1       3.886   5.394  -3.954  0.00  0.00    -0.075 A 
ATOM      2  C2  N4B d   1       4.933   5.993  -3.220  0.00  0.00     0.002 A 
ATOM      3  C3  N4B d   1       4.893   5.997  -1.847  0.00  0.00     0.002 A 
ATOM      4  C4  N4B d   1       3.812   5.429  -1.190  0.00  0.00    -0.004 A 
ATOM      5  C5  N4B d   1       2.817   4.831  -1.907  0.00  0.00     0.002 A 
ATOM      6  C6  N4B d   1       2.846   4.815  -3.287  0.00  0.00     0.002 A 
ENDROOT
BRANCH   1   7
ATOM      7  C1' N4B d   1       3.843   5.440  -5.457  0.00  0.00     0.057 C 
BRANCH   7   8
ATOM      8  C2' N4B d   1       5.268   5.536  -5.996  0.00  0.00     0.009 C 
BRANCH   8   9
ATOM      9  C3' N4B d   1       5.985   4.198  -5.948  0.00  0.00     0.004 C 
ATOM     10  C4' N4B d   1       5.041   3.033  -5.960  0.00  0.00     0.003 C 
ENDBRANCH   8   9
ENDBRANCH   7   8
ENDBRANCH   1   7
TORSDOF 3
ENDMDL
