MODEL 1
REMARK minimizedAffinity 7.92946959
REMARK minimizedRMSD -1
REMARK  3 active torsions:
REMARK  status: ('A' for Active; 'I' for Inactive)
REMARK    1  A    between atoms: C3'_2  and  C2'_3 
REMARK    2  A    between atoms: C2'_3  and  C1'_4 
REMARK    3  A    between atoms: C1'_4  and  C1_5 
ROOT
ATOM      1  C1  N4B d   1       3.044   1.797  -0.290  0.00  0.00    -0.075 A 
ATOM      2  C2  N4B d   1       2.298   1.795   0.909  0.00  0.00     0.002 A 
ATOM      3  C3  N4B d   1       2.250   0.663   1.685  0.00  0.00     0.002 A 
ATOM      4  C4  N4B d   1       2.920  -0.480   1.274  0.00  0.00    -0.004 A 
ATOM      5  C5  N4B d   1       3.659  -0.462   0.127  0.00  0.00     0.002 A 
ATOM      6  C6  N4B d   1       3.720   0.670  -0.660  0.00  0.00     0.002 A 
ENDROOT
BRANCH   1   7
ATOM      7  C1' N4B d   1       3.056   2.983  -1.215  0.00  0.00     0.057 C 
BRANCH   7   8
ATOM      8  C2' N4B d   1       1.776   3.788  -1.015  0.00  0.00     0.009 C 
BRANCH   8   9
ATOM      9  C3' N4B d   1       1.874   5.174  -1.629  0.00  0.00     0.004 C 
ATOM     10  C4' N4B d   1       3.243   5.479  -2.159  0.00  0.00     0.003 C 
ENDBRANCH   8   9
ENDBRANCH   7   8
ENDBRANCH   1   7
TORSDOF 3
ENDMDL
