MODEL 1
REMARK minimizedAffinity -4.04373503
REMARK minimizedRMSD -1
REMARK  1 active torsions:
REMARK  status: ('A' for Active; 'I' for Inactive)
REMARK    1  A    between atoms: C1_2  and  C2_3 
ROOT
ATOM      1  C2  UNL d   1       0.302   0.386   0.290  0.00  0.00    -0.081 A 
ATOM      2  C3  UNL d   1      -0.740   0.123   1.187  0.00  0.00     0.006 A 
ATOM      3  C4  UNL d   1      -1.987  -0.301   0.720  0.00  0.00     0.002 A 
ATOM      4  C5  UNL d   1      -2.209  -0.477  -0.650  0.00  0.00    -0.080 A 
ATOM      5  C6  UNL d   1      -3.532  -0.961  -1.163  0.00  0.00     0.076 C 
ATOM      6  C7  UNL d   1      -1.172  -0.198  -1.548  0.00  0.00     0.002 A 
ATOM      7  C8  UNL d   1       0.074   0.227  -1.081  0.00  0.00     0.006 A 
ENDROOT
BRANCH   1   8
ATOM      8  C1  UNL d   1       1.666   0.781   0.795  0.00  0.00     0.054 C 
ATOM      9  C   UNL d   1       1.586   1.985   1.722  0.00  0.00     0.018 C 
ENDBRANCH   1   8
TORSDOF 1
ENDMDL
