MODEL 1
REMARK minimizedAffinity -3.92479086
REMARK minimizedRMSD -1
REMARK  1 active torsions:
REMARK  status: ('A' for Active; 'I' for Inactive)
REMARK    1  A    between atoms: C1_2  and  C2_3 
ROOT
ATOM      1  C2  UNL d   1      -2.124  -1.215   0.432  0.00  0.00    -0.081 A 
ATOM      2  C3  UNL d   1      -2.514  -1.366  -0.904  0.00  0.00     0.006 A 
ATOM      3  C4  UNL d   1      -1.747  -0.812  -1.932  0.00  0.00     0.002 A 
ATOM      4  C5  UNL d   1      -0.576  -0.105  -1.642  0.00  0.00    -0.080 A 
ATOM      5  C6  UNL d   1       0.272   0.469  -2.738  0.00  0.00     0.076 C 
ATOM      6  C7  UNL d   1      -0.196   0.061  -0.306  0.00  0.00     0.002 A 
ATOM      7  C8  UNL d   1      -0.962  -0.492   0.723  0.00  0.00     0.006 A 
ENDROOT
BRANCH   1   8
ATOM      8  C1  UNL d   1      -2.914  -1.867   1.539  0.00  0.00     0.054 C 
ATOM      9  C   UNL d   1      -2.063  -2.865   2.311  0.00  0.00     0.018 C 
ENDBRANCH   1   8
TORSDOF 1
ENDMDL
