MODEL 1
REMARK minimizedAffinity -4.72365379
REMARK minimizedRMSD -1
REMARK  1 active torsions:
REMARK  status: ('A' for Active; 'I' for Inactive)
REMARK    1  A    between atoms: C1_2  and  C2_3 
ROOT
ATOM      1  C2  UNL d   1      -0.040  -0.614   0.077  0.00  0.00    -0.081 A 
ATOM      2  C3  UNL d   1      -0.438  -1.536   1.053  0.00  0.00     0.006 A 
ATOM      3  C4  UNL d   1      -1.719  -2.092   1.022  0.00  0.00     0.002 A 
ATOM      4  C5  UNL d   1      -2.620  -1.742   0.011  0.00  0.00    -0.080 A 
ATOM      5  C6  UNL d   1      -3.988  -2.354  -0.051  0.00  0.00     0.076 C 
ATOM      6  C7  UNL d   1      -2.229  -0.807  -0.954  0.00  0.00     0.002 A 
ATOM      7  C8  UNL d   1      -0.948  -0.251  -0.923  0.00  0.00     0.006 A 
ENDROOT
BRANCH   1   8
ATOM      8  C1  UNL d   1       1.363  -0.062   0.070  0.00  0.00     0.054 C 
ATOM      9  C   UNL d   1       1.420   1.312   0.723  0.00  0.00     0.018 C 
ENDBRANCH   1   8
TORSDOF 1
ENDMDL
