MODEL 1
REMARK minimizedAffinity -4.25039005
REMARK minimizedRMSD -1
REMARK  1 active torsions:
REMARK  status: ('A' for Active; 'I' for Inactive)
REMARK    1  A    between atoms: C1_2  and  C2_3 
ROOT
ATOM      1  C2  UNL d   1       0.204   0.134   0.202  0.00  0.00    -0.081 A 
ATOM      2  C3  UNL d   1      -0.322  -0.657   1.231  0.00  0.00     0.006 A 
ATOM      3  C4  UNL d   1      -1.589  -1.231   1.105  0.00  0.00     0.002 A 
ATOM      4  C5  UNL d   1      -2.348  -1.030  -0.053  0.00  0.00    -0.080 A 
ATOM      5  C6  UNL d   1      -3.697  -1.665  -0.213  0.00  0.00     0.076 C 
ATOM      6  C7  UNL d   1      -1.830  -0.225  -1.073  0.00  0.00     0.002 A 
ATOM      7  C8  UNL d   1      -0.564   0.350  -0.948  0.00  0.00     0.006 A 
ENDROOT
BRANCH   1   8
ATOM      8  C1  UNL d   1       1.596   0.702   0.307  0.00  0.00     0.054 C 
ATOM      9  C   UNL d   1       1.585   2.082   0.947  0.00  0.00     0.018 C 
ENDBRANCH   1   8
TORSDOF 1
ENDMDL
