MODEL 1
REMARK minimizedAffinity -4.23223972
REMARK minimizedRMSD -1
REMARK  1 active torsions:
REMARK  status: ('A' for Active; 'I' for Inactive)
REMARK    1  A    between atoms: C1_2  and  C2_3 
ROOT
ATOM      1  C2  UNL d   1      -1.138   0.456  -1.689  0.00  0.00    -0.081 A 
ATOM      2  C3  UNL d   1       0.019   0.232  -0.932  0.00  0.00     0.006 A 
ATOM      3  C4  UNL d   1      -0.050  -0.461   0.279  0.00  0.00     0.002 A 
ATOM      4  C5  UNL d   1      -1.274  -0.948   0.748  0.00  0.00    -0.080 A 
ATOM      5  C6  UNL d   1      -1.357  -1.720   2.032  0.00  0.00     0.076 C 
ATOM      6  C7  UNL d   1      -2.432  -0.710   0.001  0.00  0.00     0.002 A 
ATOM      7  C8  UNL d   1      -2.364  -0.017  -1.210  0.00  0.00     0.006 A 
ENDROOT
BRANCH   1   8
ATOM      8  C1  UNL d   1      -1.057   1.146  -3.027  0.00  0.00     0.054 C 
ATOM      9  C   UNL d   1       0.261   0.845  -3.726  0.00  0.00     0.018 C 
ENDBRANCH   1   8
TORSDOF 1
ENDMDL
