MODEL 1
REMARK minimizedAffinity -5.78908873
REMARK minimizedRMSD -1
REMARK  1 active torsions:
REMARK  status: ('A' for Active; 'I' for Inactive)
REMARK    1  A    between atoms: C1_2  and  C2_3 
ROOT
ATOM      1  C2  UNL d   1       0.293  -0.396   0.097  0.00  0.00    -0.081 A 
ATOM      2  C3  UNL d   1      -0.135  -1.395   0.981  0.00  0.00     0.006 A 
ATOM      3  C4  UNL d   1      -1.437  -1.896   0.906  0.00  0.00     0.002 A 
ATOM      4  C5  UNL d   1      -2.329  -1.413  -0.058  0.00  0.00    -0.080 A 
ATOM      5  C6  UNL d   1      -3.719  -1.965  -0.169  0.00  0.00     0.076 C 
ATOM      6  C7  UNL d   1      -1.907  -0.404  -0.929  0.00  0.00     0.002 A 
ATOM      7  C8  UNL d   1      -0.605   0.099  -0.854  0.00  0.00     0.006 A 
ENDROOT
BRANCH   1   8
ATOM      8  C1  UNL d   1       1.716   0.101   0.134  0.00  0.00     0.054 C 
ATOM      9  C   UNL d   1       1.814   1.447   0.837  0.00  0.00     0.018 C 
ENDBRANCH   1   8
TORSDOF 1
ENDMDL
