MODEL 1
REMARK minimizedAffinity -2.35029411
REMARK minimizedRMSD -1
REMARK  1 active torsions:
REMARK  status: ('A' for Active; 'I' for Inactive)
REMARK    1  A    between atoms: C1_2  and  C2_3 
ROOT
ATOM      1  C2  UNL d   1       0.777   0.220  -0.315  0.00  0.00    -0.081 A 
ATOM      2  C3  UNL d   1      -0.028   0.395  -1.447  0.00  0.00     0.006 A 
ATOM      3  C4  UNL d   1      -1.376   0.030  -1.420  0.00  0.00     0.002 A 
ATOM      4  C5  UNL d   1      -1.943  -0.508  -0.260  0.00  0.00    -0.080 A 
ATOM      5  C6  UNL d   1      -3.396  -0.875  -0.208  0.00  0.00     0.076 C 
ATOM      6  C7  UNL d   1      -1.135  -0.699   0.866  0.00  0.00     0.002 A 
ATOM      7  C8  UNL d   1       0.213  -0.335   0.840  0.00  0.00     0.006 A 
ENDROOT
BRANCH   1   8
ATOM      8  C1  UNL d   1       2.215   0.672  -0.320  0.00  0.00     0.054 C 
ATOM      9  C   UNL d   1       2.381   1.997   0.411  0.00  0.00     0.018 C 
ENDBRANCH   1   8
TORSDOF 1
ENDMDL
