MODEL 1
REMARK minimizedAffinity -4.42937994
REMARK minimizedRMSD -1
REMARK  1 active torsions:
REMARK  status: ('A' for Active; 'I' for Inactive)
REMARK    1  A    between atoms: C1_2  and  C2_3 
ROOT
ATOM      1  C2  UNL d   1       1.327   0.807   0.212  0.00  0.00    -0.081 A 
ATOM      2  C3  UNL d   1       0.873   0.972  -1.102  0.00  0.00     0.006 A 
ATOM      3  C4  UNL d   1      -0.319   0.374  -1.519  0.00  0.00     0.002 A 
ATOM      4  C5  UNL d   1      -1.079  -0.392  -0.629  0.00  0.00    -0.080 A 
ATOM      5  C6  UNL d   1      -2.375  -1.014  -1.056  0.00  0.00     0.076 C 
ATOM      6  C7  UNL d   1      -0.616  -0.571   0.679  0.00  0.00     0.002 A 
ATOM      7  C8  UNL d   1       0.575   0.026   1.097  0.00  0.00     0.006 A 
ENDROOT
BRANCH   1   8
ATOM      8  C1  UNL d   1       2.578   1.504   0.684  0.00  0.00     0.054 C 
ATOM      9  C   UNL d   1       2.571   2.976   0.296  0.00  0.00     0.018 C 
ENDBRANCH   1   8
TORSDOF 1
ENDMDL
