MODEL 1
REMARK minimizedAffinity -4.10336828
REMARK minimizedRMSD -1
REMARK  1 active torsions:
REMARK  status: ('A' for Active; 'I' for Inactive)
REMARK    1  A    between atoms: C1_2  and  C2_3 
ROOT
ATOM      1  C2  UNL d   1      -2.000  -0.786  -0.685  0.00  0.00    -0.081 A 
ATOM      2  C3  UNL d   1      -1.483  -1.147   0.565  0.00  0.00     0.006 A 
ATOM      3  C4  UNL d   1      -0.291  -0.586   1.028  0.00  0.00     0.002 A 
ATOM      4  C5  UNL d   1       0.400   0.352   0.253  0.00  0.00    -0.080 A 
ATOM      5  C6  UNL d   1       1.665   0.985   0.751  0.00  0.00     0.076 C 
ATOM      6  C7  UNL d   1      -0.107   0.700  -1.004  0.00  0.00     0.002 A 
ATOM      7  C8  UNL d   1      -1.299   0.138  -1.467  0.00  0.00     0.006 A 
ENDROOT
BRANCH   1   8
ATOM      8  C1  UNL d   1      -3.319  -1.341  -1.159  0.00  0.00     0.054 C 
ATOM      9  C   UNL d   1      -3.883  -2.349  -0.168  0.00  0.00     0.018 C 
ENDBRANCH   1   8
TORSDOF 1
ENDMDL
