MODEL 1
REMARK minimizedAffinity -3.6548543
REMARK minimizedRMSD -1
REMARK  1 active torsions:
REMARK  status: ('A' for Active; 'I' for Inactive)
REMARK    1  A    between atoms: C1_2  and  C2_3 
ROOT
ATOM      1  C2  UNL d   1       1.934   1.530   0.191  0.00  0.00    -0.081 A 
ATOM      2  C3  UNL d   1       1.933   0.148  -0.037  0.00  0.00     0.006 A 
ATOM      3  C4  UNL d   1       0.729  -0.548  -0.163  0.00  0.00     0.002 A 
ATOM      4  C5  UNL d   1      -0.494   0.126  -0.071  0.00  0.00    -0.080 A 
ATOM      5  C6  UNL d   1      -1.794  -0.604  -0.235  0.00  0.00     0.076 C 
ATOM      6  C7  UNL d   1      -0.493   1.504   0.173  0.00  0.00     0.002 A 
ATOM      7  C8  UNL d   1       0.711   2.200   0.300  0.00  0.00     0.006 A 
ENDROOT
BRANCH   1   8
ATOM      8  C1  UNL d   1       3.232   2.294   0.262  0.00  0.00     0.054 C 
ATOM      9  C   UNL d   1       3.156   3.588  -0.534  0.00  0.00     0.018 C 
ENDBRANCH   1   8
TORSDOF 1
ENDMDL
