MODEL 1
REMARK minimizedAffinity -3.93455958
REMARK minimizedRMSD -1
REMARK  1 active torsions:
REMARK  status: ('A' for Active; 'I' for Inactive)
REMARK    1  A    between atoms: C1_2  and  C2_3 
ROOT
ATOM      1  C2  UNL d   1       0.375  -0.025  -0.036  0.00  0.00    -0.081 A 
ATOM      2  C3  UNL d   1      -0.540   0.352  -1.027  0.00  0.00     0.006 A 
ATOM      3  C4  UNL d   1      -1.858  -0.107  -0.985  0.00  0.00     0.002 A 
ATOM      4  C5  UNL d   1      -2.286  -0.943   0.052  0.00  0.00    -0.080 A 
ATOM      5  C6  UNL d   1      -3.707  -1.418   0.125  0.00  0.00     0.076 C 
ATOM      6  C7  UNL d   1      -1.368  -1.334   1.032  0.00  0.00     0.002 A 
ATOM      7  C8  UNL d   1      -0.050  -0.876   0.990  0.00  0.00     0.006 A 
ENDROOT
BRANCH   1   8
ATOM      8  C1  UNL d   1       1.780   0.520  -0.043  0.00  0.00     0.054 C 
ATOM      9  C   UNL d   1       1.843   1.898   0.601  0.00  0.00     0.018 C 
ENDBRANCH   1   8
TORSDOF 1
ENDMDL
