MODEL 1
REMARK minimizedAffinity 12.7613039
REMARK minimizedRMSD -1
REMARK  1 active torsions:
REMARK  status: ('A' for Active; 'I' for Inactive)
REMARK    1  A    between atoms: C1_2  and  C2_3 
ROOT
ATOM      1  C2  UNL d   1       0.761   0.942   4.470  0.00  0.00    -0.076 A 
ATOM      2  C3  UNL d   1      -0.482   0.896   3.816  0.00  0.00     0.004 A 
ATOM      3  C4  UNL d   1      -0.641   0.191   2.625  0.00  0.00    -0.003 A 
ATOM      4  C5  UNL d   1       0.441  -0.482   2.068  0.00  0.00     0.000 A 
ATOM      5  C6  UNL d   1       1.678  -0.462   2.713  0.00  0.00     0.000 A 
ATOM      6  C7  UNL d   1       1.851   0.231   3.923  0.00  0.00    -0.073 A 
ATOM      7  C8  UNL d   1       3.208   0.224   4.572  0.00  0.00     0.078 C 
ENDROOT
BRANCH   1   8
ATOM      8  C1  UNL d   1       0.880   1.746   5.745  0.00  0.00     0.053 C 
ATOM      9  C   UNL d   1      -0.340   2.618   6.000  0.00  0.00     0.018 C 
ENDBRANCH   1   8
TORSDOF 1
ENDMDL
