MODEL 1
REMARK minimizedAffinity 5.63698769
REMARK minimizedRMSD -1
REMARK  1 active torsions:
REMARK  status: ('A' for Active; 'I' for Inactive)
REMARK    1  A    between atoms: C1_2  and  C2_3 
ROOT
ATOM      1  C2  UNL d   1       0.482  -2.887  -5.770  0.00  0.00    -0.076 A 
ATOM      2  C3  UNL d   1       1.861  -3.158  -5.738  0.00  0.00     0.004 A 
ATOM      3  C4  UNL d   1       2.337  -4.465  -5.826  0.00  0.00    -0.003 A 
ATOM      4  C5  UNL d   1       1.442  -5.522  -5.949  0.00  0.00     0.000 A 
ATOM      5  C6  UNL d   1       0.072  -5.270  -6.000  0.00  0.00     0.000 A 
ATOM      6  C7  UNL d   1      -0.424  -3.957  -5.929  0.00  0.00    -0.073 A 
ATOM      7  C8  UNL d   1      -1.912  -3.744  -5.982  0.00  0.00     0.078 C 
ENDROOT
BRANCH   1   8
ATOM      8  C1  UNL d   1       0.023  -1.452  -5.643  0.00  0.00     0.053 C 
ATOM      9  C   UNL d   1       0.766  -0.697  -4.552  0.00  0.00     0.018 C 
ENDBRANCH   1   8
TORSDOF 1
ENDMDL
