MODEL 1
REMARK minimizedAffinity 16.294714
REMARK minimizedRMSD -1
REMARK  1 active torsions:
REMARK  status: ('A' for Active; 'I' for Inactive)
REMARK    1  A    between atoms: C1_2  and  C2_3 
ROOT
ATOM      1  C2  UNL d   1      -0.756  -1.288   2.976  0.00  0.00    -0.076 A 
ATOM      2  C3  UNL d   1      -0.613  -0.198   2.099  0.00  0.00     0.004 A 
ATOM      3  C4  UNL d   1       0.617   0.439   1.942  0.00  0.00    -0.003 A 
ATOM      4  C5  UNL d   1       1.724  -0.004   2.658  0.00  0.00     0.000 A 
ATOM      5  C6  UNL d   1       1.604  -1.095   3.518  0.00  0.00     0.000 A 
ATOM      6  C7  UNL d   1       0.375  -1.758   3.676  0.00  0.00    -0.073 A 
ATOM      7  C8  UNL d   1       0.301  -2.925   4.623  0.00  0.00     0.078 C 
ENDROOT
BRANCH   1   8
ATOM      8  C1  UNL d   1      -2.121  -1.921   3.126  0.00  0.00     0.053 C 
ATOM      9  C   UNL d   1      -3.184  -1.219   2.296  0.00  0.00     0.018 C 
ENDBRANCH   1   8
TORSDOF 1
ENDMDL
