MODEL 1
REMARK minimizedAffinity 13.8198538
REMARK minimizedRMSD -1
REMARK  1 active torsions:
REMARK  status: ('A' for Active; 'I' for Inactive)
REMARK    1  A    between atoms: C1_2  and  C2_3 
ROOT
ATOM      1  C2  UNL d   1       0.433   0.685   3.034  0.00  0.00    -0.076 A 
ATOM      2  C3  UNL d   1       1.726   0.837   3.566  0.00  0.00     0.004 A 
ATOM      3  C4  UNL d   1       2.557  -0.265   3.758  0.00  0.00    -0.003 A 
ATOM      4  C5  UNL d   1       2.109  -1.538   3.420  0.00  0.00     0.000 A 
ATOM      5  C6  UNL d   1       0.837  -1.705   2.875  0.00  0.00     0.000 A 
ATOM      6  C7  UNL d   1      -0.008  -0.602   2.659  0.00  0.00    -0.073 A 
ATOM      7  C8  UNL d   1      -1.372  -0.841   2.074  0.00  0.00     0.078 C 
ENDROOT
BRANCH   1   8
ATOM      8  C1  UNL d   1      -0.433   1.914   2.873  0.00  0.00     0.053 C 
ATOM      9  C   UNL d   1      -0.789   2.554   4.206  0.00  0.00     0.018 C 
ENDBRANCH   1   8
TORSDOF 1
ENDMDL
