MODEL 1
REMARK minimizedAffinity 9.86614895
REMARK minimizedRMSD -1
REMARK  1 active torsions:
REMARK  status: ('A' for Active; 'I' for Inactive)
REMARK    1  A    between atoms: C1_2  and  C2_3 
ROOT
ATOM      1  C2  UNL d   1       2.131  -0.122   3.923  0.00  0.00    -0.076 A 
ATOM      2  C3  UNL d   1       1.763   0.454   2.694  0.00  0.00     0.004 A 
ATOM      3  C4  UNL d   1       0.814  -0.153   1.873  0.00  0.00    -0.003 A 
ATOM      4  C5  UNL d   1       0.217  -1.345   2.268  0.00  0.00     0.000 A 
ATOM      5  C6  UNL d   1       0.557  -1.921   3.491  0.00  0.00     0.000 A 
ATOM      6  C7  UNL d   1       1.500  -1.314   4.338  0.00  0.00    -0.073 A 
ATOM      7  C8  UNL d   1       1.833  -1.982   5.644  0.00  0.00     0.078 C 
ENDROOT
BRANCH   1   8
ATOM      8  C1  UNL d   1       3.186   0.567   4.758  0.00  0.00     0.053 C 
ATOM      9  C   UNL d   1       4.309   1.151   3.914  0.00  0.00     0.018 C 
ENDBRANCH   1   8
TORSDOF 1
ENDMDL
