MODEL 1
REMARK minimizedAffinity 11.071866
REMARK minimizedRMSD -1
REMARK  2 active torsions:
REMARK  status: ('A' for Active; 'I' for Inactive)
REMARK    1  A    between atoms: C2'_3  and  C1'_4 
REMARK    2  A    between atoms: C1'_4  and  C1_5 
ROOT
ATOM      1  C1  I4B d   1       1.580  -1.773  -0.307  0.00  0.00    -0.075 A 
ATOM      2  C2  I4B d   1       0.732  -0.713  -0.105  0.00  0.00     0.003 A 
ATOM      3  C3  I4B d   1      -0.667  -0.884  -0.241  0.00  0.00     0.002 A 
ATOM      4  C4  I4B d   1      -1.168  -2.110  -0.626  0.00  0.00    -0.004 A 
ATOM      5  C5  I4B d   1      -0.309  -3.190  -0.808  0.00  0.00     0.002 A 
ATOM      6  C6  I4B d   1       1.073  -3.024  -0.635  0.00  0.00     0.003 A 
ENDROOT
BRANCH   1   7
ATOM      7  C1' I4B d   1       3.054  -1.550  -0.188  0.00  0.00     0.060 C 
BRANCH   7   8
ATOM      8  C2' I4B d   1       3.466  -0.567  -1.265  0.00  0.00    -0.013 C 
ATOM      9  C4' I4B d   1       4.795   0.066  -0.946  0.00  0.00     0.013 C 
ATOM     10  C3' I4B d   1       3.517  -1.305  -2.570  0.00  0.00     0.013 C 
ENDBRANCH   7   8
ENDBRANCH   1   7
TORSDOF 2
ENDMDL
