MODEL 1
REMARK minimizedAffinity 8.04819679
REMARK minimizedRMSD -1
REMARK  2 active torsions:
REMARK  status: ('A' for Active; 'I' for Inactive)
REMARK    1  A    between atoms: C2'_3  and  C1'_4 
REMARK    2  A    between atoms: C1'_4  and  C1_5 
ROOT
ATOM      1  C1  I4B d   1       3.093   1.616   3.801  0.00  0.00    -0.075 A 
ATOM      2  C2  I4B d   1       3.564   2.440   2.810  0.00  0.00     0.003 A 
ATOM      3  C3  I4B d   1       4.773   3.155   2.992  0.00  0.00     0.002 A 
ATOM      4  C4  I4B d   1       5.448   3.055   4.191  0.00  0.00    -0.004 A 
ATOM      5  C5  I4B d   1       4.981   2.201   5.186  0.00  0.00     0.002 A 
ATOM      6  C6  I4B d   1       3.803   1.467   4.986  0.00  0.00     0.003 A 
ENDROOT
BRANCH   1   7
ATOM      7  C1' I4B d   1       1.796   0.902   3.589  0.00  0.00     0.060 C 
BRANCH   7   8
ATOM      8  C2' I4B d   1       1.098   1.543   2.406  0.00  0.00    -0.013 C 
ATOM      9  C4' I4B d   1       0.814   0.532   1.327  0.00  0.00     0.013 C 
ATOM     10  C3' I4B d   1      -0.168   2.175   2.903  0.00  0.00     0.013 C 
ENDBRANCH   7   8
ENDBRANCH   1   7
TORSDOF 2
ENDMDL
