MODEL 1
REMARK minimizedAffinity -0.265947402
REMARK minimizedRMSD -1
REMARK  2 active torsions:
REMARK  status: ('A' for Active; 'I' for Inactive)
REMARK    1  A    between atoms: C2'_3  and  C1'_4 
REMARK    2  A    between atoms: C1'_4  and  C1_5 
ROOT
ATOM      1  C1  I4B d   1      -0.811   0.596   0.528  0.00  0.00    -0.075 A 
ATOM      2  C2  I4B d   1      -2.088   0.098   0.454  0.00  0.00     0.003 A 
ATOM      3  C3  I4B d   1      -3.076   0.530   1.371  0.00  0.00     0.002 A 
ATOM      4  C4  I4B d   1      -2.734   1.417   2.371  0.00  0.00    -0.004 A 
ATOM      5  C5  I4B d   1      -1.445   1.939   2.431  0.00  0.00     0.002 A 
ATOM      6  C6  I4B d   1      -0.480   1.535   1.496  0.00  0.00     0.003 A 
ENDROOT
BRANCH   1   7
ATOM      7  C1' I4B d   1       0.217   0.093  -0.436  0.00  0.00     0.060 C 
BRANCH   7   8
ATOM      8  C2' I4B d   1      -0.070  -1.371  -0.701  0.00  0.00    -0.013 C 
ATOM      9  C4' I4B d   1      -0.624  -1.576  -2.086  0.00  0.00     0.013 C 
ATOM     10  C3' I4B d   1       1.207  -2.135  -0.511  0.00  0.00     0.013 C 
ENDBRANCH   7   8
ENDBRANCH   1   7
TORSDOF 2
ENDMDL
