MODEL 1
REMARK minimizedAffinity -1.79166842
REMARK minimizedRMSD -1
REMARK  2 active torsions:
REMARK  status: ('A' for Active; 'I' for Inactive)
REMARK    1  A    between atoms: C2'_3  and  C1'_4 
REMARK    2  A    between atoms: C1'_4  and  C1_5 
ROOT
ATOM      1  C1  I4B d   1       3.046  -0.863  -1.159  0.00  0.00    -0.075 A 
ATOM      2  C2  I4B d   1       3.147  -2.061  -1.821  0.00  0.00     0.003 A 
ATOM      3  C3  I4B d   1       4.149  -2.250  -2.804  0.00  0.00     0.002 A 
ATOM      4  C4  I4B d   1       4.990  -1.204  -3.126  0.00  0.00    -0.004 A 
ATOM      5  C5  I4B d   1       4.901   0.002  -2.438  0.00  0.00     0.002 A 
ATOM      6  C6  I4B d   1       3.931   0.170  -1.439  0.00  0.00     0.003 A 
ENDROOT
BRANCH   1   7
ATOM      7  C1' I4B d   1       1.955  -0.687  -0.151  0.00  0.00     0.060 C 
BRANCH   7   8
ATOM      8  C2' I4B d   1       0.793   0.002  -0.836  0.00  0.00    -0.013 C 
ATOM      9  C4' I4B d   1      -0.254  -0.992  -1.265  0.00  0.00     0.013 C 
ATOM     10  C3' I4B d   1       0.224   1.009   0.119  0.00  0.00     0.013 C 
ENDBRANCH   7   8
ENDBRANCH   1   7
TORSDOF 2
ENDMDL
