MODEL 1
REMARK minimizedAffinity 2.30098605
REMARK minimizedRMSD -1
REMARK  3 active torsions:
REMARK  status: ('A' for Active; 'I' for Inactive)
REMARK    1  A    between atoms: C3'_2  and  C2'_3 
REMARK    2  A    between atoms: C2'_3  and  C1'_4 
REMARK    3  A    between atoms: C1'_4  and  C1_5 
ROOT
ATOM      1  C1  N4B d   1       1.357  -0.783  -0.509  0.00  0.00    -0.075 A 
ATOM      2  C2  N4B d   1       2.098  -1.986  -0.487  0.00  0.00     0.002 A 
ATOM      3  C3  N4B d   1       1.447  -3.194  -0.536  0.00  0.00     0.002 A 
ATOM      4  C4  N4B d   1       0.061  -3.225  -0.588  0.00  0.00    -0.004 A 
ATOM      5  C5  N4B d   1      -0.645  -2.059  -0.635  0.00  0.00     0.002 A 
ATOM      6  C6  N4B d   1      -0.004  -0.838  -0.591  0.00  0.00     0.002 A 
ENDROOT
BRANCH   1   7
ATOM      7  C1' N4B d   1       2.019   0.560  -0.371  0.00  0.00     0.057 C 
BRANCH   7   8
ATOM      8  C2' N4B d   1       3.347   0.544  -1.123  0.00  0.00     0.009 C 
BRANCH   8   9
ATOM      9  C3' N4B d   1       4.035   1.897  -1.090  0.00  0.00     0.004 C 
ATOM     10  C4' N4B d   1       5.243   1.913  -0.201  0.00  0.00     0.003 C 
ENDBRANCH   8   9
ENDBRANCH   7   8
ENDBRANCH   1   7
TORSDOF 3
ENDMDL
