MODEL 1
REMARK minimizedAffinity 7.80796528
REMARK minimizedRMSD -1
REMARK  3 active torsions:
REMARK  status: ('A' for Active; 'I' for Inactive)
REMARK    1  A    between atoms: C3'_2  and  C2'_3 
REMARK    2  A    between atoms: C2'_3  and  C1'_4 
REMARK    3  A    between atoms: C1'_4  and  C1_5 
ROOT
ATOM      1  C1  N4B d   1       3.928   1.880   0.735  0.00  0.00    -0.075 A 
ATOM      2  C2  N4B d   1       3.225   0.682   0.992  0.00  0.00     0.002 A 
ATOM      3  C3  N4B d   1       2.765  -0.082  -0.053  0.00  0.00     0.002 A 
ATOM      4  C4  N4B d   1       2.978   0.340  -1.357  0.00  0.00    -0.004 A 
ATOM      5  C5  N4B d   1       3.681   1.485  -1.597  0.00  0.00     0.002 A 
ATOM      6  C6  N4B d   1       4.152   2.260  -0.557  0.00  0.00     0.002 A 
ENDROOT
BRANCH   1   7
ATOM      7  C1' N4B d   1       4.375   2.792   1.844  0.00  0.00     0.057 C 
BRANCH   7   8
ATOM      8  C2' N4B d   1       3.665   2.395   3.136  0.00  0.00     0.009 C 
BRANCH   8   9
ATOM      9  C3' N4B d   1       2.521   3.336   3.468  0.00  0.00     0.004 C 
ATOM     10  C4' N4B d   1       1.829   2.981   4.750  0.00  0.00     0.003 C 
ENDBRANCH   8   9
ENDBRANCH   7   8
ENDBRANCH   1   7
TORSDOF 3
ENDMDL
