MODEL 1
REMARK minimizedAffinity 11.882391
REMARK minimizedRMSD -1
REMARK  3 active torsions:
REMARK  status: ('A' for Active; 'I' for Inactive)
REMARK    1  A    between atoms: C3'_2  and  C2'_3 
REMARK    2  A    between atoms: C2'_3  and  C1'_4 
REMARK    3  A    between atoms: C1'_4  and  C1_5 
ROOT
ATOM      1  C1  N4B d   1       2.204  -3.180  -0.869  0.00  0.00    -0.075 A 
ATOM      2  C2  N4B d   1       2.335  -2.365  -2.015  0.00  0.00     0.002 A 
ATOM      3  C3  N4B d   1       3.004  -1.168  -1.933  0.00  0.00     0.002 A 
ATOM      4  C4  N4B d   1       3.532  -0.759  -0.718  0.00  0.00    -0.004 A 
ATOM      5  C5  N4B d   1       3.424  -1.564   0.378  0.00  0.00     0.002 A 
ATOM      6  C6  N4B d   1       2.757  -2.771   0.310  0.00  0.00     0.002 A 
ENDROOT
BRANCH   1   7
ATOM      7  C1' N4B d   1       1.407  -4.456  -0.889  0.00  0.00     0.057 C 
BRANCH   7   8
ATOM      8  C2' N4B d   1      -0.008  -4.155  -1.372  0.00  0.00     0.009 C 
BRANCH   8   9
ATOM      9  C3' N4B d   1      -0.949  -5.325  -1.140  0.00  0.00     0.004 C 
ATOM     10  C4' N4B d   1      -1.163  -5.618   0.315  0.00  0.00     0.003 C 
ENDBRANCH   8   9
ENDBRANCH   7   8
ENDBRANCH   1   7
TORSDOF 3
ENDMDL
