MODEL 1
REMARK minimizedAffinity 5.55121946
REMARK minimizedRMSD -1
REMARK  3 active torsions:
REMARK  status: ('A' for Active; 'I' for Inactive)
REMARK    1  A    between atoms: C3'_2  and  C2'_3 
REMARK    2  A    between atoms: C2'_3  and  C1'_4 
REMARK    3  A    between atoms: C1'_4  and  C1_5 
ROOT
ATOM      1  C1  N4B d   1       4.136   2.811   0.889  0.00  0.00    -0.075 A 
ATOM      2  C2  N4B d   1       3.438   1.614   1.159  0.00  0.00     0.002 A 
ATOM      3  C3  N4B d   1       3.096   0.772   0.129  0.00  0.00     0.002 A 
ATOM      4  C4  N4B d   1       3.423   1.114  -1.175  0.00  0.00    -0.004 A 
ATOM      5  C5  N4B d   1       4.120   2.260  -1.424  0.00  0.00     0.002 A 
ATOM      6  C6  N4B d   1       4.474   3.114  -0.398  0.00  0.00     0.002 A 
ENDROOT
BRANCH   1   7
ATOM      7  C1' N4B d   1       4.456   3.805   1.972  0.00  0.00     0.057 C 
BRANCH   7   8
ATOM      8  C2' N4B d   1       5.711   4.582   1.585  0.00  0.00     0.009 C 
BRANCH   8   9
ATOM      9  C3' N4B d   1       5.905   5.815   2.449  0.00  0.00     0.004 C 
ATOM     10  C4' N4B d   1       4.808   5.999   3.455  0.00  0.00     0.003 C 
ENDBRANCH   8   9
ENDBRANCH   7   8
ENDBRANCH   1   7
TORSDOF 3
ENDMDL
