MODEL 1
REMARK minimizedAffinity 2.64280725
REMARK minimizedRMSD -1
REMARK  0 active torsions:
REMARK  status: ('A' for Active; 'I' for Inactive)
ROOT
ATOM      1  C   UNL d   1      -1.763   0.035   1.246  0.00  0.00    -0.002 A 
ATOM      2  C1  UNL d   1      -0.770  -0.301   0.337  0.00  0.00     0.010 A 
ATOM      3  C2  UNL d   1       0.491  -0.705   0.780  0.00  0.00     0.041 A 
ATOM      4  C3  UNL d   1       0.739  -0.767   2.165  0.00  0.00    -0.075 A 
ATOM      5  S   UNL d   1       2.207  -1.235   2.938  0.00  0.00     0.015 SA
ATOM      6  C4  UNL d   1       1.551  -1.001   4.493  0.00  0.00     0.022 A 
ATOM      7  C5  UNL d   1       0.244  -0.576   4.443  0.00  0.00     0.026 A 
ATOM      8  C6  UNL d   1      -0.245  -0.435   3.100  0.00  0.00    -0.082 A 
ATOM      9  C7  UNL d   1      -1.513  -0.028   2.619  0.00  0.00     0.045 A 
ENDROOT
TORSDOF 0
ENDMDL
