MODEL 1
REMARK minimizedAffinity 0.820198715
REMARK minimizedRMSD -1
REMARK  0 active torsions:
REMARK  status: ('A' for Active; 'I' for Inactive)
ROOT
ATOM      1  C   UNL d   1      -2.056   0.531   1.179  0.00  0.00    -0.002 A 
ATOM      2  C1  UNL d   1      -1.091   0.426   0.188  0.00  0.00     0.010 A 
ATOM      3  C2  UNL d   1       0.195  -0.026   0.492  0.00  0.00     0.041 A 
ATOM      4  C3  UNL d   1       0.497  -0.375   1.823  0.00  0.00    -0.075 A 
ATOM      5  S   UNL d   1       2.003  -0.954   2.430  0.00  0.00     0.015 SA
ATOM      6  C4  UNL d   1       1.401  -1.076   4.020  0.00  0.00     0.022 A 
ATOM      7  C5  UNL d   1       0.085  -0.688   4.104  0.00  0.00     0.026 A 
ATOM      8  C6  UNL d   1      -0.459  -0.279   2.839  0.00  0.00    -0.082 A 
ATOM      9  C7  UNL d   1      -1.752   0.184   2.498  0.00  0.00     0.045 A 
ENDROOT
TORSDOF 0
ENDMDL
