MODEL 1
REMARK minimizedAffinity 0.472447008
REMARK minimizedRMSD -1
REMARK  0 active torsions:
REMARK  status: ('A' for Active; 'I' for Inactive)
ROOT
ATOM      1  C   UNL d   1       1.068  -1.376   4.173  0.00  0.00    -0.002 A 
ATOM      2  C1  UNL d   1      -0.271  -1.199   4.491  0.00  0.00     0.010 A 
ATOM      3  C2  UNL d   1      -1.201  -0.889   3.497  0.00  0.00     0.041 A 
ATOM      4  C3  UNL d   1      -0.759  -0.760   2.166  0.00  0.00    -0.075 A 
ATOM      5  S   UNL d   1      -1.719  -0.386   0.783  0.00  0.00     0.015 SA
ATOM      6  C4  UNL d   1      -0.374  -0.453  -0.262  0.00  0.00     0.022 A 
ATOM      7  C5  UNL d   1       0.787  -0.752   0.411  0.00  0.00     0.026 A 
ATOM      8  C6  UNL d   1       0.584  -0.934   1.821  0.00  0.00    -0.082 A 
ATOM      9  C7  UNL d   1       1.503  -1.247   2.851  0.00  0.00     0.045 A 
ENDROOT
TORSDOF 0
ENDMDL
