MODEL 1
REMARK minimizedAffinity 1.87885988
REMARK minimizedRMSD -1
REMARK  0 active torsions:
REMARK  status: ('A' for Active; 'I' for Inactive)
ROOT
ATOM      1  C   UNL d   1      -3.012  -0.177   0.510  0.00  0.00    -0.002 A 
ATOM      2  C1  UNL d   1      -2.676   0.509   1.669  0.00  0.00     0.010 A 
ATOM      3  C2  UNL d   1      -1.343   0.621   2.067  0.00  0.00     0.041 A 
ATOM      4  C3  UNL d   1      -0.342   0.028   1.272  0.00  0.00    -0.075 A 
ATOM      5  S   UNL d   1       1.357   0.038   1.562  0.00  0.00     0.015 SA
ATOM      6  C4  UNL d   1       1.678  -0.868   0.155  0.00  0.00     0.022 A 
ATOM      7  C5  UNL d   1       0.529  -1.179  -0.532  0.00  0.00     0.026 A 
ATOM      8  C6  UNL d   1      -0.655  -0.667   0.100  0.00  0.00    -0.082 A 
ATOM      9  C7  UNL d   1      -2.016  -0.764  -0.276  0.00  0.00     0.045 A 
ENDROOT
TORSDOF 0
ENDMDL
