MODEL 1
REMARK minimizedAffinity 1.9884361
REMARK minimizedRMSD -1
REMARK  0 active torsions:
REMARK  status: ('A' for Active; 'I' for Inactive)
ROOT
ATOM      1  C   UNL d   1      -2.993   0.110   1.038  0.00  0.00    -0.002 A 
ATOM      2  C1  UNL d   1      -2.208   0.168  -0.105  0.00  0.00     0.010 A 
ATOM      3  C2  UNL d   1      -0.837  -0.084  -0.038  0.00  0.00     0.041 A 
ATOM      4  C3  UNL d   1      -0.261  -0.399   1.209  0.00  0.00    -0.075 A 
ATOM      5  S   UNL d   1       1.397  -0.745   1.531  0.00  0.00     0.015 SA
ATOM      6  C4  UNL d   1       1.102  -0.978   3.194  0.00  0.00     0.022 A 
ATOM      7  C5  UNL d   1      -0.223  -0.799   3.513  0.00  0.00     0.026 A 
ATOM      8  C6  UNL d   1      -1.031  -0.463   2.374  0.00  0.00    -0.082 A 
ATOM      9  C7  UNL d   1      -2.419  -0.202   2.274  0.00  0.00     0.045 A 
ENDROOT
TORSDOF 0
ENDMDL
