MODEL 1
REMARK minimizedAffinity 6.5042963
REMARK minimizedRMSD -1
REMARK  1 active torsions:
REMARK  status: ('A' for Active; 'I' for Inactive)
REMARK    1  A    between atoms: C1_2  and  C2_3 
ROOT
ATOM      1  C2  UNL d   1       0.106   2.194  -2.742  0.00  0.00    -0.073 A 
ATOM      2  C3  UNL d   1       0.749   1.573  -3.820  0.00  0.00    -0.002 A 
ATOM      3  C4  UNL d   1       1.893   0.803  -3.609  0.00  0.00     0.004 A 
ATOM      4  C5  UNL d   1       2.402   0.639  -2.320  0.00  0.00    -0.004 A 
ATOM      5  C6  UNL d   1       1.767   1.242  -1.229  0.00  0.00    -0.075 A 
ATOM      6  C7  UNL d   1       2.303   1.078   0.162  0.00  0.00     0.076 C 
ATOM      7  C8  UNL d   1       0.620   2.016  -1.450  0.00  0.00     0.001 A 
ENDROOT
BRANCH   1   8
ATOM      8  C1  UNL d   1      -1.134   3.021  -2.964  0.00  0.00     0.053 C 
ATOM      9  C   UNL d   1      -2.397   2.271  -2.573  0.00  0.00     0.018 C 
ENDBRANCH   1   8
TORSDOF 1
ENDMDL
