MODEL 1
REMARK minimizedAffinity 6.43667698
REMARK minimizedRMSD -1
REMARK  1 active torsions:
REMARK  status: ('A' for Active; 'I' for Inactive)
REMARK    1  A    between atoms: C1_2  and  C2_3 
ROOT
ATOM      1  C2  UNL d   1      -1.289   2.408  -2.526  0.00  0.00    -0.073 A 
ATOM      2  C3  UNL d   1      -2.546   2.964  -2.792  0.00  0.00    -0.002 A 
ATOM      3  C4  UNL d   1      -2.660   4.087  -3.613  0.00  0.00     0.004 A 
ATOM      4  C5  UNL d   1      -1.522   4.660  -4.180  0.00  0.00    -0.004 A 
ATOM      5  C6  UNL d   1      -0.259   4.112  -3.935  0.00  0.00    -0.075 A 
ATOM      6  C7  UNL d   1       0.975   4.719  -4.536  0.00  0.00     0.076 C 
ATOM      7  C8  UNL d   1      -0.152   2.986  -3.108  0.00  0.00     0.001 A 
ENDROOT
BRANCH   1   8
ATOM      8  C1  UNL d   1      -1.162   1.192  -1.645  0.00  0.00     0.053 C 
ATOM      9  C   UNL d   1      -2.451   0.387  -1.594  0.00  0.00     0.018 C 
ENDBRANCH   1   8
TORSDOF 1
ENDMDL
