MODEL 1
REMARK minimizedAffinity 2.2810216
REMARK minimizedRMSD -1
REMARK  1 active torsions:
REMARK  status: ('A' for Active; 'I' for Inactive)
REMARK    1  A    between atoms: C1_2  and  C2_3 
ROOT
ATOM      1  C2  UNL d   1      -0.985  -0.983   2.262  0.00  0.00    -0.073 A 
ATOM      2  C3  UNL d   1      -0.419  -1.371   3.482  0.00  0.00    -0.002 A 
ATOM      3  C4  UNL d   1       0.842  -1.968   3.515  0.00  0.00     0.004 A 
ATOM      4  C5  UNL d   1       1.552  -2.176   2.333  0.00  0.00    -0.004 A 
ATOM      5  C6  UNL d   1       1.008  -1.784   1.105  0.00  0.00    -0.075 A 
ATOM      6  C7  UNL d   1       1.758  -2.003  -0.176  0.00  0.00     0.076 C 
ATOM      7  C8  UNL d   1      -0.260  -1.188   1.080  0.00  0.00     0.001 A 
ENDROOT
BRANCH   1   8
ATOM      8  C1  UNL d   1      -2.344  -0.333   2.222  0.00  0.00     0.053 C 
ATOM      9  C   UNL d   1      -2.587   0.555   3.431  0.00  0.00     0.018 C 
ENDBRANCH   1   8
TORSDOF 1
ENDMDL
