MODEL 1
REMARK minimizedAffinity 5.06786442
REMARK minimizedRMSD -1
REMARK  1 active torsions:
REMARK  status: ('A' for Active; 'I' for Inactive)
REMARK    1  A    between atoms: C1_2  and  C2_3 
ROOT
ATOM      1  C2  UNL d   1       2.426  -0.927   0.431  0.00  0.00    -0.073 A 
ATOM      2  C3  UNL d   1       1.270  -1.609   0.828  0.00  0.00    -0.002 A 
ATOM      3  C4  UNL d   1       1.343  -2.939   1.243  0.00  0.00     0.004 A 
ATOM      4  C5  UNL d   1       2.571  -3.599   1.271  0.00  0.00    -0.004 A 
ATOM      5  C6  UNL d   1       3.739  -2.932   0.889  0.00  0.00    -0.075 A 
ATOM      6  C7  UNL d   1       5.068  -3.628   0.911  0.00  0.00     0.076 C 
ATOM      7  C8  UNL d   1       3.657  -1.596   0.471  0.00  0.00     0.001 A 
ENDROOT
BRANCH   1   8
ATOM      8  C1  UNL d   1       2.352   0.511  -0.011  0.00  0.00     0.053 C 
ATOM      9  C   UNL d   1       2.349   1.471   1.169  0.00  0.00     0.018 C 
ENDBRANCH   1   8
TORSDOF 1
ENDMDL
