MODEL 1
REMARK minimizedAffinity -3.41379905
REMARK minimizedRMSD -1
REMARK  0 active torsions:
REMARK  status: ('A' for Active; 'I' for Inactive)
ROOT
ATOM      1  C   UNL d   1       0.110   0.174  -0.436  0.00  0.00     0.172 C 
ATOM      2  N   UNL d   1      -0.442   0.019   0.889  0.00  0.00    -0.070 N 
ATOM      3  C1  UNL d   1       0.275  -0.007   2.055  0.00  0.00    -0.004 A 
ATOM      4  C2  UNL d   1      -0.615  -0.170   3.094  0.00  0.00    -0.047 A 
ATOM      5  C3  UNL d   1      -1.912  -0.245   2.534  0.00  0.00    -0.047 A 
ATOM      6  C4  UNL d   1      -1.776  -0.125   1.167  0.00  0.00    -0.004 A 
ENDROOT
TORSDOF 0
ENDMDL
