MODEL 1
REMARK minimizedAffinity -2.44624829
REMARK minimizedRMSD -1
REMARK  0 active torsions:
REMARK  status: ('A' for Active; 'I' for Inactive)
ROOT
ATOM      1  C   UNL d   1       0.885  -1.668  -2.992  0.00  0.00     0.172 C 
ATOM      2  N   UNL d   1       0.356  -1.152  -1.751  0.00  0.00    -0.070 N 
ATOM      3  C1  UNL d   1      -0.243  -1.894  -0.768  0.00  0.00    -0.004 A 
ATOM      4  C2  UNL d   1      -0.607  -1.036   0.246  0.00  0.00    -0.047 A 
ATOM      5  C3  UNL d   1      -0.213   0.267  -0.140  0.00  0.00    -0.047 A 
ATOM      6  C4  UNL d   1       0.380   0.166  -1.381  0.00  0.00    -0.004 A 
ENDROOT
TORSDOF 0
ENDMDL
