MODEL 1
REMARK minimizedAffinity -3.21568871
REMARK minimizedRMSD -1
REMARK  0 active torsions:
REMARK  status: ('A' for Active; 'I' for Inactive)
ROOT
ATOM      1  C   UNL d   1      -3.315   0.222   1.272  0.00  0.00     0.172 C 
ATOM      2  N   UNL d   1      -1.942   0.038   1.682  0.00  0.00    -0.070 N 
ATOM      3  C1  UNL d   1      -0.883  -0.193   0.845  0.00  0.00    -0.004 A 
ATOM      4  C2  UNL d   1       0.250  -0.310   1.621  0.00  0.00    -0.047 A 
ATOM      5  C3  UNL d   1      -0.142  -0.145   2.970  0.00  0.00    -0.047 A 
ATOM      6  C4  UNL d   1      -1.504   0.069   2.979  0.00  0.00    -0.004 A 
ENDROOT
TORSDOF 0
ENDMDL
