MODEL 1
REMARK minimizedAffinity -2.1067903
REMARK minimizedRMSD -1
REMARK  0 active torsions:
REMARK  status: ('A' for Active; 'I' for Inactive)
ROOT
ATOM      1  C   UNL d   1      -1.242   0.121  -0.500  0.00  0.00     0.172 C 
ATOM      2  N   UNL d   1      -1.381   0.062   0.936  0.00  0.00    -0.070 N 
ATOM      3  C1  UNL d   1      -2.537   0.282   1.636  0.00  0.00    -0.004 A 
ATOM      4  C2  UNL d   1      -2.254   0.133   2.976  0.00  0.00    -0.047 A 
ATOM      5  C3  UNL d   1      -0.880  -0.188   3.086  0.00  0.00    -0.047 A 
ATOM      6  C4  UNL d   1      -0.364  -0.225   1.808  0.00  0.00    -0.004 A 
ENDROOT
TORSDOF 0
ENDMDL
