MODEL 1
REMARK minimizedAffinity -3.71075988
REMARK minimizedRMSD -1
REMARK  0 active torsions:
REMARK  status: ('A' for Active; 'I' for Inactive)
ROOT
ATOM      1  C   UNL d   1      -0.055   0.710  -0.490  0.00  0.00     0.172 C 
ATOM      2  N   UNL d   1      -0.642   0.331   0.774  0.00  0.00    -0.070 N 
ATOM      3  C1  UNL d   1       0.036  -0.183   1.846  0.00  0.00    -0.004 A 
ATOM      4  C2  UNL d   1      -0.877  -0.411   2.853  0.00  0.00    -0.047 A 
ATOM      5  C3  UNL d   1      -2.148  -0.021   2.368  0.00  0.00    -0.047 A 
ATOM      6  C4  UNL d   1      -1.973   0.435   1.079  0.00  0.00    -0.004 A 
ENDROOT
TORSDOF 0
ENDMDL
