MODEL 1
REMARK minimizedAffinity -4.25374746
REMARK minimizedRMSD -1
REMARK  0 active torsions:
REMARK  status: ('A' for Active; 'I' for Inactive)
ROOT
ATOM      1  C   UNL d   1      -0.022  -0.199  -0.068  0.00  0.00     0.172 C 
ATOM      2  N   UNL d   1      -0.939  -0.200   1.048  0.00  0.00    -0.070 N 
ATOM      3  C1  UNL d   1      -2.250   0.192   1.003  0.00  0.00    -0.004 A 
ATOM      4  C2  UNL d   1      -2.779   0.041   2.267  0.00  0.00    -0.047 A 
ATOM      5  C3  UNL d   1      -1.749  -0.458   3.100  0.00  0.00    -0.047 A 
ATOM      6  C4  UNL d   1      -0.621  -0.598   2.319  0.00  0.00    -0.004 A 
ENDROOT
TORSDOF 0
ENDMDL
