MODEL 1
REMARK minimizedAffinity -3.78694463
REMARK minimizedRMSD -1
REMARK  0 active torsions:
REMARK  status: ('A' for Active; 'I' for Inactive)
ROOT
ATOM      1  C   UNL d   1       0.254   0.285  -1.106  0.00  0.00     0.172 C 
ATOM      2  N   UNL d   1       0.055   0.140   0.316  0.00  0.00    -0.070 N 
ATOM      3  C1  UNL d   1       1.045   0.112   1.262  0.00  0.00    -0.004 A 
ATOM      4  C2  UNL d   1       0.447  -0.038   2.495  0.00  0.00    -0.047 A 
ATOM      5  C3  UNL d   1      -0.951  -0.105   2.282  0.00  0.00    -0.047 A 
ATOM      6  C4  UNL d   1      -1.165   0.008   0.925  0.00  0.00    -0.004 A 
ENDROOT
TORSDOF 0
ENDMDL
