MODEL 1
REMARK minimizedAffinity -3.55967999
REMARK minimizedRMSD -1
REMARK  0 active torsions:
REMARK  status: ('A' for Active; 'I' for Inactive)
ROOT
ATOM      1  C   UNL d   1       0.188   0.253   0.012  0.00  0.00     0.172 C 
ATOM      2  N   UNL d   1      -0.611  -0.092   1.164  0.00  0.00    -0.070 N 
ATOM      3  C1  UNL d   1      -1.966   0.070   1.273  0.00  0.00    -0.004 A 
ATOM      4  C2  UNL d   1      -2.346  -0.378   2.520  0.00  0.00    -0.047 A 
ATOM      5  C3  UNL d   1      -1.179  -0.824   3.184  0.00  0.00    -0.047 A 
ATOM      6  C4  UNL d   1      -0.119  -0.635   2.322  0.00  0.00    -0.004 A 
ENDROOT
TORSDOF 0
ENDMDL
