MODEL 1
REMARK minimizedAffinity -2.59570646
REMARK minimizedRMSD -1
REMARK  0 active torsions:
REMARK  status: ('A' for Active; 'I' for Inactive)
ROOT
ATOM      1  C   UNL d   1      -0.650   0.489  -0.902  0.00  0.00     0.172 C 
ATOM      2  N   UNL d   1       0.004  -0.183  -2.001  0.00  0.00    -0.070 N 
ATOM      3  C1  UNL d   1      -0.529  -1.202  -2.743  0.00  0.00    -0.004 A 
ATOM      4  C2  UNL d   1       0.403  -1.566  -3.691  0.00  0.00    -0.047 A 
ATOM      5  C3  UNL d   1       1.536  -0.738  -3.510  0.00  0.00    -0.047 A 
ATOM      6  C4  UNL d   1       1.262   0.109  -2.457  0.00  0.00    -0.004 A 
ENDROOT
TORSDOF 0
ENDMDL
