MODEL 1
REMARK minimizedAffinity -3.93959904
REMARK minimizedRMSD -1
REMARK  0 active torsions:
REMARK  status: ('A' for Active; 'I' for Inactive)
ROOT
ATOM      1  C   UNL d   1      -0.797   0.236  -0.639  0.00  0.00     0.172 C 
ATOM      2  N   UNL d   1      -0.880  -0.048   0.774  0.00  0.00    -0.070 N 
ATOM      3  C1  UNL d   1       0.182  -0.146   1.632  0.00  0.00    -0.004 A 
ATOM      4  C2  UNL d   1      -0.313  -0.426   2.887  0.00  0.00    -0.047 A 
ATOM      5  C3  UNL d   1      -1.722  -0.500   2.779  0.00  0.00    -0.047 A 
ATOM      6  C4  UNL d   1      -2.046  -0.262   1.460  0.00  0.00    -0.004 A 
ENDROOT
TORSDOF 0
ENDMDL
