MODEL 1
REMARK minimizedAffinity -4.15818262
REMARK minimizedRMSD -1
REMARK  0 active torsions:
REMARK  status: ('A' for Active; 'I' for Inactive)
ROOT
ATOM      1  C   UNL d   1       1.008   0.493   0.817  0.00  0.00     0.172 C 
ATOM      2  N   UNL d   1      -0.219   0.271   1.545  0.00  0.00    -0.070 N 
ATOM      3  C1  UNL d   1      -0.338   0.201   2.907  0.00  0.00    -0.004 A 
ATOM      4  C2  UNL d   1      -1.666  -0.019   3.204  0.00  0.00    -0.047 A 
ATOM      5  C3  UNL d   1      -2.369  -0.085   1.978  0.00  0.00    -0.047 A 
ATOM      6  C4  UNL d   1      -1.449   0.098   0.967  0.00  0.00    -0.004 A 
ENDROOT
TORSDOF 0
ENDMDL
