MODEL 1
REMARK minimizedAffinity -3.98952246
REMARK minimizedRMSD -1
REMARK  0 active torsions:
REMARK  status: ('A' for Active; 'I' for Inactive)
ROOT
ATOM      1  C   UNL d   1      -2.394   0.440   2.135  0.00  0.00     0.172 C 
ATOM      2  N   UNL d   1      -1.064   0.430   1.574  0.00  0.00    -0.070 N 
ATOM      3  C1  UNL d   1       0.101   0.579   2.278  0.00  0.00    -0.004 A 
ATOM      4  C2  UNL d   1       1.147   0.510   1.384  0.00  0.00    -0.047 A 
ATOM      5  C3  UNL d   1       0.592   0.313   0.097  0.00  0.00    -0.047 A 
ATOM      6  C4  UNL d   1      -0.779   0.267   0.244  0.00  0.00    -0.004 A 
ENDROOT
TORSDOF 0
ENDMDL
