MODEL 1
REMARK minimizedAffinity -3.53086138
REMARK minimizedRMSD -1
REMARK  0 active torsions:
REMARK  status: ('A' for Active; 'I' for Inactive)
ROOT
ATOM      1  C   UNL d   1      -2.839   2.808   3.196  0.00  0.00     0.172 C 
ATOM      2  N   UNL d   1      -2.390   1.485   2.831  0.00  0.00    -0.070 N 
ATOM      3  C1  UNL d   1      -2.965   0.680   1.884  0.00  0.00    -0.004 A 
ATOM      4  C2  UNL d   1      -2.245  -0.494   1.836  0.00  0.00    -0.047 A 
ATOM      5  C3  UNL d   1      -1.202  -0.391   2.786  0.00  0.00    -0.047 A 
ATOM      6  C4  UNL d   1      -1.315   0.844   3.388  0.00  0.00    -0.004 A 
ENDROOT
TORSDOF 0
ENDMDL
