MODEL 1
REMARK minimizedAffinity -3.77978683
REMARK minimizedRMSD -1
REMARK  0 active torsions:
REMARK  status: ('A' for Active; 'I' for Inactive)
ROOT
ATOM      1  C   UNL d   1      -0.203   0.150  -0.631  0.00  0.00     0.172 C 
ATOM      2  N   UNL d   1      -0.445  -0.130   0.765  0.00  0.00    -0.070 N 
ATOM      3  C1  UNL d   1      -1.673  -0.324   1.339  0.00  0.00    -0.004 A 
ATOM      4  C2  UNL d   1      -1.477  -0.565   2.682  0.00  0.00    -0.047 A 
ATOM      5  C3  UNL d   1      -0.084  -0.513   2.923  0.00  0.00    -0.047 A 
ATOM      6  C4  UNL d   1       0.531  -0.242   1.719  0.00  0.00    -0.004 A 
ENDROOT
TORSDOF 0
ENDMDL
