MODEL 1
REMARK minimizedAffinity -4.70287466
REMARK minimizedRMSD -1
REMARK  0 active torsions:
REMARK  status: ('A' for Active; 'I' for Inactive)
ROOT
ATOM      1  C2' OXE d   1       2.192   0.339   0.499  0.00  0.00     0.078 C 
ATOM      2  C1' OXE d   1       0.044   0.041  -1.283  0.00  0.00     0.078 C 
ATOM      3  C1  OXE d   1      -0.208  -0.244   0.177  0.00  0.00    -0.078 A 
ATOM      4  C2  OXE d   1       0.860  -0.141   1.034  0.00  0.00    -0.078 A 
ATOM      5  C3  OXE d   1       0.671  -0.340   2.399  0.00  0.00     0.003 A 
ATOM      6  C4  OXE d   1      -0.562  -0.794   2.885  0.00  0.00    -0.002 A 
ATOM      7  C5  OXE d   1      -1.653  -0.943   2.022  0.00  0.00    -0.002 A 
ATOM      8  C6  OXE d   1      -1.505  -0.632   0.675  0.00  0.00     0.003 A 
ENDROOT
TORSDOF 0
ENDMDL
