MODEL 1
REMARK minimizedAffinity -2.17051053
REMARK minimizedRMSD -1
REMARK  0 active torsions:
REMARK  status: ('A' for Active; 'I' for Inactive)
ROOT
ATOM      1  C2' OXE d   1       1.945   0.649   1.158  0.00  0.00     0.078 C 
ATOM      2  C1' OXE d   1      -0.161   0.328   2.985  0.00  0.00     0.078 C 
ATOM      3  C1  OXE d   1      -0.515   0.518   1.531  0.00  0.00    -0.078 A 
ATOM      4  C2  OXE d   1       0.521   0.721   0.651  0.00  0.00    -0.078 A 
ATOM      5  C3  OXE d   1       0.254   0.848  -0.710  0.00  0.00     0.003 A 
ATOM      6  C4  OXE d   1      -1.067   0.924  -1.169  0.00  0.00    -0.002 A 
ATOM      7  C5  OXE d   1      -2.137   0.759  -0.283  0.00  0.00    -0.002 A 
ATOM      8  C6  OXE d   1      -1.878   0.514   1.061  0.00  0.00     0.003 A 
ENDROOT
TORSDOF 0
ENDMDL
