MODEL 1
REMARK minimizedAffinity -3.32119083
REMARK minimizedRMSD -1
REMARK  0 active torsions:
REMARK  status: ('A' for Active; 'I' for Inactive)
ROOT
ATOM      1  C2' OXE d   1       2.501  -0.036   1.532  0.00  0.00     0.078 C 
ATOM      2  C1' OXE d   1       0.205  -0.487   3.082  0.00  0.00     0.078 C 
ATOM      3  C1  OXE d   1       0.030  -0.345   1.591  0.00  0.00    -0.078 A 
ATOM      4  C2  OXE d   1       1.153  -0.078   0.845  0.00  0.00    -0.078 A 
ATOM      5  C3  OXE d   1       1.056   0.008  -0.541  0.00  0.00     0.003 A 
ATOM      6  C4  OXE d   1      -0.196  -0.022  -1.167  0.00  0.00    -0.002 A 
ATOM      7  C5  OXE d   1      -1.357  -0.253  -0.421  0.00  0.00    -0.002 A 
ATOM      8  C6  OXE d   1      -1.257  -0.459   0.950  0.00  0.00     0.003 A 
ENDROOT
TORSDOF 0
ENDMDL
