MODEL 1
REMARK minimizedAffinity -3.90569377
REMARK minimizedRMSD -1
REMARK  0 active torsions:
REMARK  status: ('A' for Active; 'I' for Inactive)
ROOT
ATOM      1  C2' OXE d   1       0.954  -0.512  -0.783  0.00  0.00     0.078 C 
ATOM      2  C1' OXE d   1       1.662   1.466   1.079  0.00  0.00     0.078 C 
ATOM      3  C1  OXE d   1       0.822   0.311   1.565  0.00  0.00    -0.078 A 
ATOM      4  C2  OXE d   1       0.441  -0.628   0.637  0.00  0.00    -0.078 A 
ATOM      5  C3  OXE d   1      -0.289  -1.742   1.043  0.00  0.00     0.003 A 
ATOM      6  C4  OXE d   1      -0.768  -1.835   2.355  0.00  0.00    -0.002 A 
ATOM      7  C5  OXE d   1      -0.424  -0.869   3.307  0.00  0.00    -0.002 A 
ATOM      8  C6  OXE d   1       0.403   0.186   2.939  0.00  0.00     0.003 A 
ENDROOT
TORSDOF 0
ENDMDL
