MODEL 1
REMARK minimizedAffinity -2.93160558
REMARK minimizedRMSD -1
REMARK  0 active torsions:
REMARK  status: ('A' for Active; 'I' for Inactive)
ROOT
ATOM      1  C2' OXE d   1      -3.447  -0.075   1.733  0.00  0.00     0.078 C 
ATOM      2  C1' OXE d   1      -1.259  -0.410   3.459  0.00  0.00     0.078 C 
ATOM      3  C1  OXE d   1      -0.974  -0.224   1.990  0.00  0.00    -0.078 A 
ATOM      4  C2  OXE d   1      -2.052  -0.107   1.146  0.00  0.00    -0.078 A 
ATOM      5  C3  OXE d   1      -1.844   0.121  -0.211  0.00  0.00     0.003 A 
ATOM      6  C4  OXE d   1      -0.551   0.080  -0.747  0.00  0.00    -0.002 A 
ATOM      7  C5  OXE d   1       0.559  -0.077   0.090  0.00  0.00    -0.002 A 
ATOM      8  C6  OXE d   1       0.368  -0.188   1.463  0.00  0.00     0.003 A 
ENDROOT
TORSDOF 0
ENDMDL
