MODEL 1
REMARK minimizedAffinity -3.74178386
REMARK minimizedRMSD -1
REMARK  0 active torsions:
REMARK  status: ('A' for Active; 'I' for Inactive)
ROOT
ATOM      1  C2' OXE d   1      -0.891  -1.103   2.277  0.00  0.00     0.078 C 
ATOM      2  C1' OXE d   1      -3.144  -0.149   0.900  0.00  0.00     0.078 C 
ATOM      3  C1  OXE d   1      -1.793   0.043   0.257  0.00  0.00    -0.078 A 
ATOM      4  C2  OXE d   1      -0.692  -0.385   0.959  0.00  0.00    -0.078 A 
ATOM      5  C3  OXE d   1       0.573  -0.283   0.387  0.00  0.00     0.003 A 
ATOM      6  C4  OXE d   1       0.749   0.391  -0.827  0.00  0.00    -0.002 A 
ATOM      7  C5  OXE d   1      -0.355   0.870  -1.540  0.00  0.00    -0.002 A 
ATOM      8  C6  OXE d   1      -1.634   0.667  -1.033  0.00  0.00     0.003 A 
ENDROOT
TORSDOF 0
ENDMDL
