MODEL 1
REMARK minimizedAffinity -4.86453152
REMARK minimizedRMSD -1
REMARK  0 active torsions:
REMARK  status: ('A' for Active; 'I' for Inactive)
ROOT
ATOM      1  C2' OXE d   1      -3.245   0.182   0.739  0.00  0.00     0.078 C 
ATOM      2  C1' OXE d   1      -0.705   0.119  -0.455  0.00  0.00     0.078 C 
ATOM      3  C1  OXE d   1      -0.777   0.051   1.050  0.00  0.00    -0.078 A 
ATOM      4  C2  OXE d   1      -2.022   0.130   1.628  0.00  0.00    -0.078 A 
ATOM      5  C3  OXE d   1      -2.149   0.017   3.009  0.00  0.00     0.003 A 
ATOM      6  C4  OXE d   1      -1.011  -0.022   3.825  0.00  0.00    -0.002 A 
ATOM      7  C5  OXE d   1       0.267  -0.062   3.259  0.00  0.00    -0.002 A 
ATOM      8  C6  OXE d   1       0.400  -0.070   1.875  0.00  0.00     0.003 A 
ENDROOT
TORSDOF 0
ENDMDL
