MODEL 1
REMARK minimizedAffinity -1.09932566
REMARK minimizedRMSD -1
REMARK  0 active torsions:
REMARK  status: ('A' for Active; 'I' for Inactive)
ROOT
ATOM      1  C2' OXE d   1      -0.075  -0.076   2.767  0.00  0.00     0.078 C 
ATOM      2  C1' OXE d   1       2.137   0.832   1.297  0.00  0.00     0.078 C 
ATOM      3  C1  OXE d   1       0.835   0.641   0.561  0.00  0.00    -0.078 A 
ATOM      4  C2  OXE d   1      -0.230   0.151   1.279  0.00  0.00    -0.078 A 
ATOM      5  C3  OXE d   1      -1.470   0.008   0.661  0.00  0.00     0.003 A 
ATOM      6  C4  OXE d   1      -1.603   0.211  -0.718  0.00  0.00    -0.002 A 
ATOM      7  C5  OXE d   1      -0.520   0.671  -1.475  0.00  0.00    -0.002 A 
ATOM      8  C6  OXE d   1       0.691   0.931  -0.844  0.00  0.00     0.003 A 
ENDROOT
TORSDOF 0
ENDMDL
