MODEL 1
REMARK minimizedAffinity -0.129998714
REMARK minimizedRMSD -1
REMARK  0 active torsions:
REMARK  status: ('A' for Active; 'I' for Inactive)
ROOT
ATOM      1  C2' OXE d   1      -0.874  -0.399  -0.175  0.00  0.00     0.078 C 
ATOM      2  C1' OXE d   1       1.374   1.219  -0.637  0.00  0.00     0.078 C 
ATOM      3  C1  OXE d   1       1.021   0.190  -1.681  0.00  0.00    -0.078 A 
ATOM      4  C2  OXE d   1      -0.052  -0.629  -1.425  0.00  0.00    -0.078 A 
ATOM      5  C3  OXE d   1      -0.453  -1.559  -2.380  0.00  0.00     0.003 A 
ATOM      6  C4  OXE d   1       0.317  -1.773  -3.529  0.00  0.00    -0.002 A 
ATOM      7  C5  OXE d   1       1.438  -0.977  -3.790  0.00  0.00    -0.002 A 
ATOM      8  C6  OXE d   1       1.778   0.035  -2.899  0.00  0.00     0.003 A 
ENDROOT
TORSDOF 0
ENDMDL
