MODEL 1
REMARK minimizedAffinity -2.02723289
REMARK minimizedRMSD -1
REMARK  0 active torsions:
REMARK  status: ('A' for Active; 'I' for Inactive)
ROOT
ATOM      1  C2' OXE d   1       2.043   1.354   0.906  0.00  0.00     0.078 C 
ATOM      2  C1' OXE d   1       0.545   0.061  -1.084  0.00  0.00     0.078 C 
ATOM      3  C1  OXE d   1       0.106  -0.109   0.349  0.00  0.00    -0.078 A 
ATOM      4  C2  OXE d   1       0.872   0.489   1.320  0.00  0.00    -0.078 A 
ATOM      5  C3  OXE d   1       0.481   0.410   2.654  0.00  0.00     0.003 A 
ATOM      6  C4  OXE d   1      -0.597  -0.400   3.029  0.00  0.00    -0.002 A 
ATOM      7  C5  OXE d   1      -1.368  -1.051   2.059  0.00  0.00    -0.002 A 
ATOM      8  C6  OXE d   1      -1.056  -0.881   0.715  0.00  0.00     0.003 A 
ENDROOT
TORSDOF 0
ENDMDL
