MODEL 1
REMARK minimizedAffinity -6.46032715
REMARK minimizedRMSD -1
REMARK  0 active torsions:
REMARK  status: ('A' for Active; 'I' for Inactive)
ROOT
ATOM      1  C2' OXE d   1      -0.272   0.207  -1.057  0.00  0.00     0.078 C 
ATOM      2  C1' OXE d   1       1.670   0.383   0.963  0.00  0.00     0.078 C 
ATOM      3  C1  OXE d   1       0.251   0.080   1.376  0.00  0.00    -0.078 A 
ATOM      4  C2  OXE d   1      -0.701   0.042   0.385  0.00  0.00    -0.078 A 
ATOM      5  C3  OXE d   1      -2.015  -0.288   0.705  0.00  0.00     0.003 A 
ATOM      6  C4  OXE d   1      -2.406  -0.429   2.042  0.00  0.00    -0.002 A 
ATOM      7  C5  OXE d   1      -1.459  -0.355   3.069  0.00  0.00    -0.002 A 
ATOM      8  C6  OXE d   1      -0.122  -0.144   2.751  0.00  0.00     0.003 A 
ENDROOT
TORSDOF 0
ENDMDL
