MODEL 1
REMARK minimizedAffinity -4.89759541
REMARK minimizedRMSD -1
REMARK  0 active torsions:
REMARK  status: ('A' for Active; 'I' for Inactive)
ROOT
ATOM      1  C2' OXE d   1       0.481  -0.101  -1.316  0.00  0.00     0.078 C 
ATOM      2  C1' OXE d   1       1.970   1.384   0.543  0.00  0.00     0.078 C 
ATOM      3  C1  OXE d   1       0.767   0.628   1.049  0.00  0.00    -0.078 A 
ATOM      4  C2  OXE d   1       0.017  -0.058   0.124  0.00  0.00    -0.078 A 
ATOM      5  C3  OXE d   1      -1.072  -0.816   0.545  0.00  0.00     0.003 A 
ATOM      6  C4  OXE d   1      -1.500  -0.763   1.877  0.00  0.00    -0.002 A 
ATOM      7  C5  OXE d   1      -0.773  -0.038   2.828  0.00  0.00    -0.002 A 
ATOM      8  C6  OXE d   1       0.384   0.627   2.439  0.00  0.00     0.003 A 
ENDROOT
TORSDOF 0
ENDMDL
