MODEL 1
REMARK minimizedAffinity -2.3132515
REMARK minimizedRMSD -1
REMARK  0 active torsions:
REMARK  status: ('A' for Active; 'I' for Inactive)
ROOT
ATOM      1  C2' OXE d   1      -1.426  -0.965   3.188  0.00  0.00     0.078 C 
ATOM      2  C1' OXE d   1      -2.316  -0.667   0.542  0.00  0.00     0.078 C 
ATOM      3  C1  OXE d   1      -0.881  -0.316   0.845  0.00  0.00    -0.078 A 
ATOM      4  C2  OXE d   1      -0.467  -0.420   2.152  0.00  0.00    -0.078 A 
ATOM      5  C3  OXE d   1       0.862  -0.161   2.476  0.00  0.00     0.003 A 
ATOM      6  C4  OXE d   1       1.740   0.352   1.514  0.00  0.00    -0.002 A 
ATOM      7  C5  OXE d   1       1.327   0.504   0.186  0.00  0.00    -0.002 A 
ATOM      8  C6  OXE d   1       0.036   0.135  -0.173  0.00  0.00     0.003 A 
ENDROOT
TORSDOF 0
ENDMDL
