MODEL 1
REMARK minimizedAffinity -2.61217237
REMARK minimizedRMSD -1
REMARK  0 active torsions:
REMARK  status: ('A' for Active; 'I' for Inactive)
ROOT
ATOM      1  C2' OXE d   1       1.973   0.890   0.432  0.00  0.00     0.078 C 
ATOM      2  C1' OXE d   1       0.326  -0.202  -1.561  0.00  0.00     0.078 C 
ATOM      3  C1  OXE d   1      -0.206  -0.166  -0.151  0.00  0.00    -0.078 A 
ATOM      4  C2  OXE d   1       0.625   0.328   0.826  0.00  0.00    -0.078 A 
ATOM      5  C3  OXE d   1       0.163   0.434   2.135  0.00  0.00     0.003 A 
ATOM      6  C4  OXE d   1      -1.082  -0.098   2.493  0.00  0.00    -0.002 A 
ATOM      7  C5  OXE d   1      -1.928  -0.641   1.520  0.00  0.00    -0.002 A 
ATOM      8  C6  OXE d   1      -1.523  -0.644   0.190  0.00  0.00     0.003 A 
ENDROOT
TORSDOF 0
ENDMDL
