MODEL 1
REMARK minimizedAffinity -3.62074637
REMARK minimizedRMSD -1
REMARK  0 active torsions:
REMARK  status: ('A' for Active; 'I' for Inactive)
ROOT
ATOM      1  C2' OXE d   1      -2.580  -0.626   1.053  0.00  0.00     0.078 C 
ATOM      2  C1' OXE d   1      -0.687  -0.563   3.125  0.00  0.00     0.078 C 
ATOM      3  C1  OXE d   1      -0.227  -0.182   1.740  0.00  0.00    -0.078 A 
ATOM      4  C2  OXE d   1      -1.148  -0.260   0.724  0.00  0.00    -0.078 A 
ATOM      5  C3  OXE d   1      -0.791   0.133  -0.563  0.00  0.00     0.003 A 
ATOM      6  C4  OXE d   1       0.537   0.460  -0.861  0.00  0.00    -0.002 A 
ATOM      7  C5  OXE d   1       1.501   0.508   0.152  0.00  0.00    -0.002 A 
ATOM      8  C6  OXE d   1       1.127   0.232   1.463  0.00  0.00     0.003 A 
ENDROOT
TORSDOF 0
ENDMDL
