MODEL 1
REMARK minimizedAffinity -4.1028018
REMARK minimizedRMSD -1
REMARK  0 active torsions:
REMARK  status: ('A' for Active; 'I' for Inactive)
ROOT
ATOM      1  C2' OXE d   1      -2.832  -0.520   0.207  0.00  0.00     0.078 C 
ATOM      2  C1' OXE d   1      -0.482   0.296  -1.094  0.00  0.00     0.078 C 
ATOM      3  C1  OXE d   1      -0.390  -0.055   0.370  0.00  0.00    -0.078 A 
ATOM      4  C2  OXE d   1      -1.554  -0.408   1.009  0.00  0.00    -0.078 A 
ATOM      5  C3  OXE d   1      -1.516  -0.794   2.346  0.00  0.00     0.003 A 
ATOM      6  C4  OXE d   1      -0.332  -0.677   3.084  0.00  0.00    -0.002 A 
ATOM      7  C5  OXE d   1       0.857  -0.281   2.462  0.00  0.00    -0.002 A 
ATOM      8  C6  OXE d   1       0.853  -0.008   1.098  0.00  0.00     0.003 A 
ENDROOT
TORSDOF 0
ENDMDL
