MODEL 1
REMARK minimizedAffinity -3.23616457
REMARK minimizedRMSD -1
REMARK  0 active torsions:
REMARK  status: ('A' for Active; 'I' for Inactive)
ROOT
ATOM      1  C2' OXE d   1      -1.379  -0.615   2.890  0.00  0.00     0.078 C 
ATOM      2  C1' OXE d   1      -3.085   0.055   0.764  0.00  0.00     0.078 C 
ATOM      3  C1  OXE d   1      -1.599   0.093   0.512  0.00  0.00    -0.078 A 
ATOM      4  C2  OXE d   1      -0.770  -0.191   1.571  0.00  0.00    -0.078 A 
ATOM      5  C3  OXE d   1       0.608  -0.224   1.378  0.00  0.00     0.003 A 
ATOM      6  C4  OXE d   1       1.163   0.179   0.158  0.00  0.00    -0.002 A 
ATOM      7  C5  OXE d   1       0.338   0.511  -0.922  0.00  0.00    -0.002 A 
ATOM      8  C6  OXE d   1      -1.043   0.432  -0.775  0.00  0.00     0.003 A 
ENDROOT
TORSDOF 0
ENDMDL
