MODEL 1
REMARK minimizedAffinity 8.89096546
REMARK minimizedRMSD -1
REMARK  2 active torsions:
REMARK  status: ('A' for Active; 'I' for Inactive)
REMARK    1  A    between atoms: C2'_3  and  C1'_4 
REMARK    2  A    between atoms: C1'_4  and  C1_5 
ROOT
ATOM      1  C1  I4B d   1      -0.208   5.802  -3.828  0.00  0.00    -0.075 A 
ATOM      2  C2  I4B d   1       0.313   5.510  -2.592  0.00  0.00     0.003 A 
ATOM      3  C3  I4B d   1      -0.539   5.400  -1.467  0.00  0.00     0.002 A 
ATOM      4  C4  I4B d   1      -1.890   5.638  -1.611  0.00  0.00    -0.004 A 
ATOM      5  C5  I4B d   1      -2.420   5.912  -2.869  0.00  0.00     0.002 A 
ATOM      6  C6  I4B d   1      -1.576   5.983  -3.987  0.00  0.00     0.003 A 
ENDROOT
BRANCH   1   7
ATOM      7  C1' I4B d   1       0.724   5.944  -4.988  0.00  0.00     0.060 C 
BRANCH   7   8
ATOM      8  C2' I4B d   1       1.518   4.658  -5.109  0.00  0.00    -0.013 C 
ATOM      9  C4' I4B d   1       0.668   3.543  -5.658  0.00  0.00     0.013 C 
ATOM     10  C3' I4B d   1       2.699   4.925  -5.994  0.00  0.00     0.013 C 
ENDBRANCH   7   8
ENDBRANCH   1   7
TORSDOF 2
ENDMDL
