MODEL 1
REMARK minimizedAffinity 0.736692488
REMARK minimizedRMSD -1
REMARK  2 active torsions:
REMARK  status: ('A' for Active; 'I' for Inactive)
REMARK    1  A    between atoms: C2'_3  and  C1'_4 
REMARK    2  A    between atoms: C1'_4  and  C1_5 
ROOT
ATOM      1  C1  I4B d   1       2.332   5.655  -5.298  0.00  0.00    -0.075 A 
ATOM      2  C2  I4B d   1       2.314   5.895  -3.947  0.00  0.00     0.003 A 
ATOM      3  C3  I4B d   1       1.081   6.000  -3.258  0.00  0.00     0.002 A 
ATOM      4  C4  I4B d   1      -0.101   5.909  -3.963  0.00  0.00    -0.004 A 
ATOM      5  C5  I4B d   1      -0.081   5.643  -5.329  0.00  0.00     0.002 A 
ATOM      6  C6  I4B d   1       1.143   5.503  -5.999  0.00  0.00     0.003 A 
ENDROOT
BRANCH   1   7
ATOM      7  C1' I4B d   1       3.651   5.583  -6.000  0.00  0.00     0.060 C 
BRANCH   7   8
ATOM      8  C2' I4B d   1       4.657   4.979  -5.041  0.00  0.00    -0.013 C 
ATOM      9  C4' I4B d   1       5.242   3.706  -5.596  0.00  0.00     0.013 C 
ATOM     10  C3' I4B d   1       5.725   6.000  -4.787  0.00  0.00     0.013 C 
ENDBRANCH   7   8
ENDBRANCH   1   7
TORSDOF 2
ENDMDL
