MODEL 1
REMARK minimizedAffinity 8.25651455
REMARK minimizedRMSD -1
REMARK  2 active torsions:
REMARK  status: ('A' for Active; 'I' for Inactive)
REMARK    1  A    between atoms: C2'_3  and  C1'_4 
REMARK    2  A    between atoms: C1'_4  and  C1_5 
ROOT
ATOM      1  C1  I4B d   1       1.210   1.461  -0.762  0.00  0.00    -0.075 A 
ATOM      2  C2  I4B d   1       0.587   1.381   0.459  0.00  0.00     0.003 A 
ATOM      3  C3  I4B d   1       0.213   0.122   0.987  0.00  0.00     0.002 A 
ATOM      4  C4  I4B d   1       0.432  -1.019   0.243  0.00  0.00    -0.004 A 
ATOM      5  C5  I4B d   1       1.085  -0.939  -0.984  0.00  0.00     0.002 A 
ATOM      6  C6  I4B d   1       1.487   0.308  -1.484  0.00  0.00     0.003 A 
ENDROOT
BRANCH   1   7
ATOM      7  C1' I4B d   1       1.563   2.810  -1.304  0.00  0.00     0.060 C 
BRANCH   7   8
ATOM      8  C2' I4B d   1       0.909   3.854  -0.421  0.00  0.00    -0.013 C 
ATOM      9  C4' I4B d   1       1.800   4.224   0.736  0.00  0.00     0.013 C 
ATOM     10  C3' I4B d   1       0.599   5.050  -1.270  0.00  0.00     0.013 C 
ENDBRANCH   7   8
ENDBRANCH   1   7
TORSDOF 2
ENDMDL
