MODEL 1
REMARK minimizedAffinity -3.21436024
REMARK minimizedRMSD -1
REMARK  2 active torsions:
REMARK  status: ('A' for Active; 'I' for Inactive)
REMARK    1  A    between atoms: C2'_3  and  C1'_4 
REMARK    2  A    between atoms: C1'_4  and  C1_5 
ROOT
ATOM      1  C1  I4B d   1       0.478   5.967  -4.884  0.00  0.00    -0.075 A 
ATOM      2  C2  I4B d   1      -0.820   5.998  -5.328  0.00  0.00     0.003 A 
ATOM      3  C3  I4B d   1      -1.891   5.997  -4.402  0.00  0.00     0.002 A 
ATOM      4  C4  I4B d   1      -1.620   5.915  -3.051  0.00  0.00    -0.004 A 
ATOM      5  C5  I4B d   1      -0.303   5.907  -2.602  0.00  0.00     0.002 A 
ATOM      6  C6  I4B d   1       0.753   5.946  -3.523  0.00  0.00     0.003 A 
ENDROOT
BRANCH   1   7
ATOM      7  C1' I4B d   1       1.584   5.936  -5.891  0.00  0.00     0.060 C 
BRANCH   7   8
ATOM      8  C2' I4B d   1       2.855   5.524  -5.176  0.00  0.00    -0.013 C 
ATOM      9  C4' I4B d   1       2.903   4.034  -4.963  0.00  0.00     0.013 C 
ATOM     10  C3' I4B d   1       4.020   5.992  -5.996  0.00  0.00     0.013 C 
ENDBRANCH   7   8
ENDBRANCH   1   7
TORSDOF 2
ENDMDL
