MODEL 1
REMARK minimizedAffinity -1.05858421
REMARK minimizedRMSD -1
REMARK  2 active torsions:
REMARK  status: ('A' for Active; 'I' for Inactive)
REMARK    1  A    between atoms: C2'_3  and  C1'_4 
REMARK    2  A    between atoms: C1'_4  and  C1_5 
ROOT
ATOM      1  C1  I4B d   1      -1.080   5.958  -3.178  0.00  0.00    -0.075 A 
ATOM      2  C2  I4B d   1      -1.212   5.969  -1.811  0.00  0.00     0.003 A 
ATOM      3  C3  I4B d   1      -2.499   5.964  -1.220  0.00  0.00     0.002 A 
ATOM      4  C4  I4B d   1      -3.618   5.998  -2.026  0.00  0.00    -0.004 A 
ATOM      5  C5  I4B d   1      -3.482   5.964  -3.411  0.00  0.00     0.002 A 
ATOM      6  C6  I4B d   1      -2.206   5.931  -3.991  0.00  0.00     0.003 A 
ENDROOT
BRANCH   1   7
ATOM      7  C1' I4B d   1       0.293   5.997  -3.769  0.00  0.00     0.060 C 
BRANCH   7   8
ATOM      8  C2' I4B d   1       0.176   5.663  -5.243  0.00  0.00    -0.013 C 
ATOM      9  C4' I4B d   1       1.445   5.999  -5.980  0.00  0.00     0.013 C 
ATOM     10  C3' I4B d   1      -0.149   4.204  -5.362  0.00  0.00     0.013 C 
ENDBRANCH   7   8
ENDBRANCH   1   7
TORSDOF 2
ENDMDL
