MODEL 1
REMARK minimizedAffinity -1.36670768
REMARK minimizedRMSD -1
REMARK  2 active torsions:
REMARK  status: ('A' for Active; 'I' for Inactive)
REMARK    1  A    between atoms: C2'_3  and  C1'_4 
REMARK    2  A    between atoms: C1'_4  and  C1_5 
ROOT
ATOM      1  C1  I4B d   1       2.184   5.946  -4.440  0.00  0.00    -0.075 A 
ATOM      2  C2  I4B d   1       1.315   5.980  -3.378  0.00  0.00     0.003 A 
ATOM      3  C3  I4B d   1      -0.083   5.962  -3.600  0.00  0.00     0.002 A 
ATOM      4  C4  I4B d   1      -0.566   5.960  -4.893  0.00  0.00    -0.004 A 
ATOM      5  C5  I4B d   1       0.317   5.901  -5.968  0.00  0.00     0.002 A 
ATOM      6  C6  I4B d   1       1.700   5.882  -5.740  0.00  0.00     0.003 A 
ENDROOT
BRANCH   1   7
ATOM      7  C1' I4B d   1       3.654   6.000  -4.170  0.00  0.00     0.060 C 
BRANCH   7   8
ATOM      8  C2' I4B d   1       4.353   5.157  -5.218  0.00  0.00    -0.013 C 
ATOM      9  C4' I4B d   1       5.437   5.938  -5.911  0.00  0.00     0.013 C 
ATOM     10  C3' I4B d   1       4.910   3.942  -4.538  0.00  0.00     0.013 C 
ENDBRANCH   7   8
ENDBRANCH   1   7
TORSDOF 2
ENDMDL
