MODEL 1
REMARK minimizedAffinity 7.67680073
REMARK minimizedRMSD -1
REMARK  2 active torsions:
REMARK  status: ('A' for Active; 'I' for Inactive)
REMARK    1  A    between atoms: C2'_3  and  C1'_4 
REMARK    2  A    between atoms: C1'_4  and  C1_5 
ROOT
ATOM      1  C1  I4B d   1       1.033   1.036  -0.699  0.00  0.00    -0.075 A 
ATOM      2  C2  I4B d   1       1.485   2.260  -0.271  0.00  0.00     0.003 A 
ATOM      3  C3  I4B d   1       1.303   2.655   1.077  0.00  0.00     0.002 A 
ATOM      4  C4  I4B d   1       0.625   1.822   1.943  0.00  0.00    -0.004 A 
ATOM      5  C5  I4B d   1       0.188   0.572   1.513  0.00  0.00     0.002 A 
ATOM      6  C6  I4B d   1       0.405   0.171   0.187  0.00  0.00     0.003 A 
ENDROOT
BRANCH   1   7
ATOM      7  C1' I4B d   1       1.213   0.665  -2.137  0.00  0.00     0.060 C 
BRANCH   7   8
ATOM      8  C2' I4B d   1       0.599  -0.705  -2.346  0.00  0.00    -0.013 C 
ATOM      9  C4' I4B d   1      -0.587  -0.635  -3.271  0.00  0.00     0.013 C 
ATOM     10  C3' I4B d   1       1.662  -1.610  -2.894  0.00  0.00     0.013 C 
ENDBRANCH   7   8
ENDBRANCH   1   7
TORSDOF 2
ENDMDL
