MODEL 1
REMARK minimizedAffinity 7.00927401
REMARK minimizedRMSD -1
REMARK  2 active torsions:
REMARK  status: ('A' for Active; 'I' for Inactive)
REMARK    1  A    between atoms: C2'_3  and  C1'_4 
REMARK    2  A    between atoms: C1'_4  and  C1_5 
ROOT
ATOM      1  C1  I4B d   1       1.241   0.352  -0.453  0.00  0.00    -0.075 A 
ATOM      2  C2  I4B d   1       0.577   0.424   0.746  0.00  0.00     0.003 A 
ATOM      3  C3  I4B d   1       0.419   1.670   1.400  0.00  0.00     0.002 A 
ATOM      4  C4  I4B d   1       0.981   2.803   0.848  0.00  0.00    -0.004 A 
ATOM      5  C5  I4B d   1       1.634   2.732  -0.379  0.00  0.00     0.002 A 
ATOM      6  C6  I4B d   1       1.754   1.501  -1.041  0.00  0.00     0.003 A 
ENDROOT
BRANCH   1   7
ATOM      7  C1' I4B d   1       1.417  -0.985  -1.100  0.00  0.00     0.060 C 
BRANCH   7   8
ATOM      8  C2' I4B d   1       1.235  -0.809  -2.594  0.00  0.00    -0.013 C 
ATOM      9  C4' I4B d   1       2.209  -1.659  -3.366  0.00  0.00     0.013 C 
ATOM     10  C3' I4B d   1      -0.181  -1.165  -2.933  0.00  0.00     0.013 C 
ENDBRANCH   7   8
ENDBRANCH   1   7
TORSDOF 2
ENDMDL
