MODEL 1
REMARK minimizedAffinity 2.25523162
REMARK minimizedRMSD -1
REMARK  2 active torsions:
REMARK  status: ('A' for Active; 'I' for Inactive)
REMARK    1  A    between atoms: C2'_3  and  C1'_4 
REMARK    2  A    between atoms: C1'_4  and  C1_5 
ROOT
ATOM      1  C1  I4B d   1      -1.114   0.239  -0.667  0.00  0.00    -0.075 A 
ATOM      2  C2  I4B d   1       0.032  -0.107  -1.337  0.00  0.00     0.003 A 
ATOM      3  C3  I4B d   1       1.299   0.127  -0.750  0.00  0.00     0.002 A 
ATOM      4  C4  I4B d   1       1.374   0.750   0.479  0.00  0.00    -0.004 A 
ATOM      5  C5  I4B d   1       0.210   1.078   1.168  0.00  0.00     0.002 A 
ATOM      6  C6  I4B d   1      -1.043   0.810   0.597  0.00  0.00     0.003 A 
ENDROOT
BRANCH   1   7
ATOM      7  C1' I4B d   1      -2.435   0.008  -1.331  0.00  0.00     0.060 C 
BRANCH   7   8
ATOM      8  C2' I4B d   1      -2.309  -1.223  -2.205  0.00  0.00    -0.013 C 
ATOM      9  C4' I4B d   1      -3.424  -2.199  -1.936  0.00  0.00     0.013 C 
ATOM     10  C3' I4B d   1      -2.313  -0.777  -3.637  0.00  0.00     0.013 C 
ENDBRANCH   7   8
ENDBRANCH   1   7
TORSDOF 2
ENDMDL
