MODEL 1
REMARK minimizedAffinity 12.1455898
REMARK minimizedRMSD -1
REMARK  2 active torsions:
REMARK  status: ('A' for Active; 'I' for Inactive)
REMARK    1  A    between atoms: C2'_3  and  C1'_4 
REMARK    2  A    between atoms: C1'_4  and  C1_5 
ROOT
ATOM      1  C1  I4B d   1      -0.711   5.523  -1.905  0.00  0.00    -0.075 A 
ATOM      2  C2  I4B d   1      -0.460   5.701  -3.242  0.00  0.00     0.003 A 
ATOM      3  C3  I4B d   1      -1.523   5.969  -4.138  0.00  0.00     0.002 A 
ATOM      4  C4  I4B d   1      -2.819   5.999  -3.665  0.00  0.00    -0.004 A 
ATOM      5  C5  I4B d   1      -3.070   5.841  -2.305  0.00  0.00     0.002 A 
ATOM      6  C6  I4B d   1      -2.009   5.614  -1.417  0.00  0.00     0.003 A 
ENDROOT
BRANCH   1   7
ATOM      7  C1' I4B d   1       0.431   5.210  -0.992  0.00  0.00     0.060 C 
BRANCH   7   8
ATOM      8  C2' I4B d   1       0.649   3.710  -1.014  0.00  0.00    -0.013 C 
ATOM      9  C4' I4B d   1       1.454   3.294  -2.217  0.00  0.00     0.013 C 
ATOM     10  C3' I4B d   1       1.339   3.324   0.260  0.00  0.00     0.013 C 
ENDBRANCH   7   8
ENDBRANCH   1   7
TORSDOF 2
ENDMDL
