MODEL 1
REMARK minimizedAffinity 9.63646889
REMARK minimizedRMSD -1
REMARK  2 active torsions:
REMARK  status: ('A' for Active; 'I' for Inactive)
REMARK    1  A    between atoms: C2'_3  and  C1'_4 
REMARK    2  A    between atoms: C1'_4  and  C1_5 
ROOT
ATOM      1  C1  I4B d   1      -1.137   0.667  -0.190  0.00  0.00    -0.075 A 
ATOM      2  C2  I4B d   1      -0.189   1.427  -0.827  0.00  0.00     0.003 A 
ATOM      3  C3  I4B d   1       1.038   1.722  -0.184  0.00  0.00     0.002 A 
ATOM      4  C4  I4B d   1       1.252   1.282   1.106  0.00  0.00    -0.004 A 
ATOM      5  C5  I4B d   1       0.299   0.492   1.742  0.00  0.00     0.002 A 
ATOM      6  C6  I4B d   1      -0.899   0.172   1.086  0.00  0.00     0.003 A 
ENDROOT
BRANCH   1   7
ATOM      7  C1' I4B d   1      -2.435   0.402  -0.885  0.00  0.00     0.060 C 
BRANCH   7   8
ATOM      8  C2' I4B d   1      -2.346  -0.964  -1.535  0.00  0.00    -0.013 C 
ATOM      9  C4' I4B d   1      -3.532  -1.819  -1.171  0.00  0.00     0.013 C 
ATOM     10  C3' I4B d   1      -2.256  -0.766  -3.019  0.00  0.00     0.013 C 
ENDBRANCH   7   8
ENDBRANCH   1   7
TORSDOF 2
ENDMDL
