MODEL 1
REMARK minimizedAffinity 7.37853909
REMARK minimizedRMSD -1
REMARK  2 active torsions:
REMARK  status: ('A' for Active; 'I' for Inactive)
REMARK    1  A    between atoms: C2'_3  and  C1'_4 
REMARK    2  A    between atoms: C1'_4  and  C1_5 
ROOT
ATOM      1  C1  I4B d   1       0.691   0.153   0.372  0.00  0.00    -0.075 A 
ATOM      2  C2  I4B d   1       0.813   0.537  -0.940  0.00  0.00     0.003 A 
ATOM      3  C3  I4B d   1       1.064   1.892  -1.266  0.00  0.00     0.002 A 
ATOM      4  C4  I4B d   1       1.135   2.832  -0.258  0.00  0.00    -0.004 A 
ATOM      5  C5  I4B d   1       1.034   2.437   1.073  0.00  0.00     0.002 A 
ATOM      6  C6  I4B d   1       0.823   1.088   1.392  0.00  0.00     0.003 A 
ENDROOT
BRANCH   1   7
ATOM      7  C1' I4B d   1       0.393  -1.280   0.680  0.00  0.00     0.060 C 
BRANCH   7   8
ATOM      8  C2' I4B d   1      -1.009  -1.354   1.247  0.00  0.00    -0.013 C 
ATOM      9  C4' I4B d   1      -2.044  -1.125   0.177  0.00  0.00     0.013 C 
ATOM     10  C3' I4B d   1      -1.180  -2.701   1.885  0.00  0.00     0.013 C 
ENDBRANCH   7   8
ENDBRANCH   1   7
TORSDOF 2
ENDMDL
