MODEL 1
REMARK minimizedAffinity 0.837667346
REMARK minimizedRMSD -1
REMARK  0 active torsions:
REMARK  status: ('A' for Active; 'I' for Inactive)
ROOT
ATOM      1  C   UNL d   1       2.286   1.647   0.493  0.00  0.00    -0.002 A 
ATOM      2  C1  UNL d   1       2.363   0.485   1.247  0.00  0.00     0.010 A 
ATOM      3  C2  UNL d   1       1.275  -0.387   1.321  0.00  0.00     0.041 A 
ATOM      4  C3  UNL d   1       0.097  -0.069   0.617  0.00  0.00    -0.075 A 
ATOM      5  S   UNL d   1      -1.361  -0.987   0.561  0.00  0.00     0.015 SA
ATOM      6  C4  UNL d   1      -2.121   0.142  -0.465  0.00  0.00     0.022 A 
ATOM      7  C5  UNL d   1      -1.297   1.200  -0.767  0.00  0.00     0.026 A 
ATOM      8  C6  UNL d   1      -0.005   1.096  -0.149  0.00  0.00    -0.082 A 
ATOM      9  C7  UNL d   1       1.115   1.960  -0.203  0.00  0.00     0.045 A 
ENDROOT
TORSDOF 0
ENDMDL
