MODEL 1
REMARK minimizedAffinity -1.82457483
REMARK minimizedRMSD -1
REMARK  0 active torsions:
REMARK  status: ('A' for Active; 'I' for Inactive)
ROOT
ATOM      1  C   UNL d   1       2.594   0.565   1.452  0.00  0.00    -0.002 A 
ATOM      2  C1  UNL d   1       2.106   1.536   0.590  0.00  0.00     0.010 A 
ATOM      3  C2  UNL d   1       0.822   1.428   0.051  0.00  0.00     0.041 A 
ATOM      4  C3  UNL d   1       0.029   0.316   0.398  0.00  0.00    -0.075 A 
ATOM      5  S   UNL d   1      -1.573  -0.025  -0.139  0.00  0.00     0.015 SA
ATOM      6  C4  UNL d   1      -1.648  -1.469   0.764  0.00  0.00     0.022 A 
ATOM      7  C5  UNL d   1      -0.487  -1.700   1.464  0.00  0.00     0.026 A 
ATOM      8  C6  UNL d   1       0.498  -0.675   1.265  0.00  0.00    -0.082 A 
ATOM      9  C7  UNL d   1       1.804  -0.536   1.794  0.00  0.00     0.045 A 
ENDROOT
TORSDOF 0
ENDMDL
