MODEL 1
REMARK minimizedAffinity 0.589083731
REMARK minimizedRMSD -1
REMARK  0 active torsions:
REMARK  status: ('A' for Active; 'I' for Inactive)
ROOT
ATOM      1  C   UNL d   1       2.331   1.996   0.059  0.00  0.00    -0.002 A 
ATOM      2  C1  UNL d   1       2.453   1.228   1.209  0.00  0.00     0.010 A 
ATOM      3  C2  UNL d   1       1.486   0.274   1.531  0.00  0.00     0.041 A 
ATOM      4  C3  UNL d   1       0.385   0.101   0.669  0.00  0.00    -0.075 A 
ATOM      5  S   UNL d   1      -0.921  -1.008   0.860  0.00  0.00     0.015 SA
ATOM      6  C4  UNL d   1      -1.671  -0.489  -0.580  0.00  0.00     0.022 A 
ATOM      7  C5  UNL d   1      -0.956   0.505  -1.204  0.00  0.00     0.026 A 
ATOM      8  C6  UNL d   1       0.241   0.862  -0.495  0.00  0.00    -0.082 A 
ATOM      9  C7  UNL d   1       1.238   1.822  -0.793  0.00  0.00     0.045 A 
ENDROOT
TORSDOF 0
ENDMDL
