MODEL 1
REMARK minimizedAffinity 4.33181524
REMARK minimizedRMSD -1
REMARK  1 active torsions:
REMARK  status: ('A' for Active; 'I' for Inactive)
REMARK    1  A    between atoms: C1_2  and  C2_3 
ROOT
ATOM      1  C2  UNL d   1       2.161  -0.270  -0.686  0.00  0.00    -0.081 A 
ATOM      2  C3  UNL d   1       2.603  -0.199  -2.013  0.00  0.00     0.006 A 
ATOM      3  C4  UNL d   1       3.444   0.838  -2.425  0.00  0.00     0.002 A 
ATOM      4  C5  UNL d   1       3.862   1.816  -1.516  0.00  0.00    -0.080 A 
ATOM      5  C6  UNL d   1       4.788   2.917  -1.938  0.00  0.00     0.076 C 
ATOM      6  C7  UNL d   1       3.406   1.755  -0.195  0.00  0.00     0.002 A 
ATOM      7  C8  UNL d   1       2.565   0.719   0.217  0.00  0.00     0.006 A 
ENDROOT
BRANCH   1   8
ATOM      8  C1  UNL d   1       1.307  -1.423  -0.223  0.00  0.00     0.054 C 
ATOM      9  C   UNL d   1       1.263  -1.504   1.296  0.00  0.00     0.018 C 
ENDBRANCH   1   8
TORSDOF 1
ENDMDL
