MODEL 1
REMARK minimizedAffinity 2.15164375
REMARK minimizedRMSD -1
REMARK  1 active torsions:
REMARK  status: ('A' for Active; 'I' for Inactive)
REMARK    1  A    between atoms: C1_2  and  C2_3 
ROOT
ATOM      1  C2  UNL d   1      -3.030   0.745  -3.632  0.00  0.00    -0.081 A 
ATOM      2  C3  UNL d   1      -2.681   2.073  -3.356  0.00  0.00     0.006 A 
ATOM      3  C4  UNL d   1      -3.636   3.089  -3.440  0.00  0.00     0.002 A 
ATOM      4  C5  UNL d   1      -4.957   2.793  -3.793  0.00  0.00    -0.080 A 
ATOM      5  C6  UNL d   1      -5.999   3.870  -3.857  0.00  0.00     0.076 C 
ATOM      6  C7  UNL d   1      -5.302   1.470  -4.085  0.00  0.00     0.002 A 
ATOM      7  C8  UNL d   1      -4.348   0.454  -4.002  0.00  0.00     0.006 A 
ENDROOT
BRANCH   1   8
ATOM      8  C1  UNL d   1      -2.018  -0.361  -3.479  0.00  0.00     0.054 C 
ATOM      9  C   UNL d   1      -1.794  -0.708  -2.014  0.00  0.00     0.018 C 
ENDBRANCH   1   8
TORSDOF 1
ENDMDL
