MODEL 1
REMARK minimizedAffinity 1.856089
REMARK minimizedRMSD -1
REMARK  1 active torsions:
REMARK  status: ('A' for Active; 'I' for Inactive)
REMARK    1  A    between atoms: C1_2  and  C2_3 
ROOT
ATOM      1  C2  UNL d   1      -4.453   0.733  -2.834  0.00  0.00    -0.081 A 
ATOM      2  C3  UNL d   1      -4.862   2.070  -2.747  0.00  0.00     0.006 A 
ATOM      3  C4  UNL d   1      -5.375   2.577  -1.551  0.00  0.00     0.002 A 
ATOM      4  C5  UNL d   1      -5.479   1.760  -0.420  0.00  0.00    -0.080 A 
ATOM      5  C6  UNL d   1      -6.000   2.300   0.879  0.00  0.00     0.076 C 
ATOM      6  C7  UNL d   1      -5.087   0.420  -0.512  0.00  0.00     0.002 A 
ATOM      7  C8  UNL d   1      -4.575  -0.088  -1.708  0.00  0.00     0.006 A 
ENDROOT
BRANCH   1   8
ATOM      8  C1  UNL d   1      -3.840   0.201  -4.104  0.00  0.00     0.054 C 
ATOM      9  C   UNL d   1      -2.325   0.350  -4.092  0.00  0.00     0.018 C 
ENDBRANCH   1   8
TORSDOF 1
ENDMDL
