MODEL 1
REMARK minimizedAffinity 7.43762541
REMARK minimizedRMSD -1
REMARK  1 active torsions:
REMARK  status: ('A' for Active; 'I' for Inactive)
REMARK    1  A    between atoms: C1_2  and  C2_3 
ROOT
ATOM      1  C2  UNL d   1       2.845   0.535  -0.671  0.00  0.00    -0.081 A 
ATOM      2  C3  UNL d   1       3.993   0.616  -1.468  0.00  0.00     0.006 A 
ATOM      3  C4  UNL d   1       5.010   1.521  -1.155  0.00  0.00     0.002 A 
ATOM      4  C5  UNL d   1       4.900   2.353  -0.035  0.00  0.00    -0.080 A 
ATOM      5  C6  UNL d   1       5.998   3.307   0.329  0.00  0.00     0.076 C 
ATOM      6  C7  UNL d   1       3.745   2.284   0.752  0.00  0.00     0.002 A 
ATOM      7  C8  UNL d   1       2.728   1.380   0.438  0.00  0.00     0.006 A 
ENDROOT
BRANCH   1   8
ATOM      8  C1  UNL d   1       1.776  -0.485  -0.969  0.00  0.00     0.054 C 
ATOM      9  C   UNL d   1       2.346  -1.896  -0.986  0.00  0.00     0.018 C 
ENDBRANCH   1   8
TORSDOF 1
ENDMDL
