MODEL 1
REMARK minimizedAffinity 6.08154821
REMARK minimizedRMSD -1
REMARK  1 active torsions:
REMARK  status: ('A' for Active; 'I' for Inactive)
REMARK    1  A    between atoms: C1_2  and  C2_3 
ROOT
ATOM      1  C2  UNL d   1      -4.818   2.191  -3.944  0.00  0.00    -0.081 A 
ATOM      2  C3  UNL d   1      -4.000   1.347  -4.706  0.00  0.00     0.006 A 
ATOM      3  C4  UNL d   1      -2.965   0.629  -4.102  0.00  0.00     0.002 A 
ATOM      4  C5  UNL d   1      -2.735   0.737  -2.726  0.00  0.00    -0.080 A 
ATOM      5  C6  UNL d   1      -1.647  -0.051  -2.060  0.00  0.00     0.076 C 
ATOM      6  C7  UNL d   1      -3.541   1.594  -1.968  0.00  0.00     0.002 A 
ATOM      7  C8  UNL d   1      -4.575   2.312  -2.571  0.00  0.00     0.006 A 
ENDROOT
BRANCH   1   8
ATOM      8  C1  UNL d   1      -5.975   2.917  -4.581  0.00  0.00     0.054 C 
ATOM      9  C   UNL d   1      -6.000   4.383  -4.175  0.00  0.00     0.018 C 
ENDBRANCH   1   8
TORSDOF 1
ENDMDL
