MODEL 1
REMARK minimizedAffinity -1.88326013
REMARK minimizedRMSD -1
REMARK  0 active torsions:
REMARK  status: ('A' for Active; 'I' for Inactive)
ROOT
ATOM      1  N1  IND d   1       0.585  -1.075  -1.150  0.00  0.00    -0.196 N 
ATOM      2  C2  IND d   1       0.770  -2.205  -0.403  0.00  0.00     0.054 A 
ATOM      3  C3  IND d   1       0.024  -2.151   0.723  0.00  0.00    -0.031 A 
ATOM      4  C4  IND d   1      -1.647  -0.352   1.494  0.00  0.00     0.051 A 
ATOM      5  C5  IND d   1      -2.128   0.884   1.163  0.00  0.00    -0.031 A 
ATOM      6  C6  IND d   1      -1.723   1.542   0.020  0.00  0.00     0.015 A 
ATOM      7  C7  IND d   1      -0.826   0.981  -0.845  0.00  0.00    -0.016 A 
ATOM      8  C8  IND d   1      -0.331  -0.270  -0.509  0.00  0.00    -0.047 A 
ATOM      9  C9  IND d   1      -0.706  -0.925   0.672  0.00  0.00    -0.096 A 
ATOM     10  HN1 IND d   1       0.976  -0.897  -1.895  0.00  0.00     0.298 HD
ENDROOT
TORSDOF 0
ENDMDL
