MODEL 1
REMARK minimizedAffinity -2.11637974
REMARK minimizedRMSD -1
REMARK  0 active torsions:
REMARK  status: ('A' for Active; 'I' for Inactive)
ROOT
ATOM      1  N1  IND d   1      -3.743  -0.476   4.993  0.00  0.00    -0.196 N 
ATOM      2  C2  IND d   1      -4.310  -1.534   4.338  0.00  0.00     0.054 A 
ATOM      3  C3  IND d   1      -3.937  -1.538   3.039  0.00  0.00    -0.031 A 
ATOM      4  C4  IND d   1      -2.321   0.034   1.796  0.00  0.00     0.051 A 
ATOM      5  C5  IND d   1      -1.582   1.172   1.964  0.00  0.00    -0.031 A 
ATOM      6  C6  IND d   1      -1.523   1.831   3.176  0.00  0.00     0.015 A 
ATOM      7  C7  IND d   1      -2.194   1.367   4.272  0.00  0.00    -0.016 A 
ATOM      8  C8  IND d   1      -2.950   0.216   4.103  0.00  0.00    -0.047 A 
ATOM      9  C9  IND d   1      -3.048  -0.433   2.865  0.00  0.00    -0.096 A 
ATOM     10  HN1 IND d   1      -3.861  -0.276   5.821  0.00  0.00     0.298 HD
ENDROOT
TORSDOF 0
ENDMDL
