MODEL 1
REMARK minimizedAffinity 0.229471445
REMARK minimizedRMSD -1
REMARK  0 active torsions:
REMARK  status: ('A' for Active; 'I' for Inactive)
ROOT
ATOM      1  N1  IND d   1       0.656   2.117  -1.663  0.00  0.00    -0.196 N 
ATOM      2  C2  IND d   1       1.467   2.403  -2.725  0.00  0.00     0.054 A 
ATOM      3  C3  IND d   1       2.265   1.348  -3.005  0.00  0.00    -0.031 A 
ATOM      4  C4  IND d   1       2.337  -0.982  -1.913  0.00  0.00     0.051 A 
ATOM      5  C5  IND d   1       1.809  -1.705  -0.880  0.00  0.00    -0.031 A 
ATOM      6  C6  IND d   1       0.848  -1.180  -0.040  0.00  0.00     0.015 A 
ATOM      7  C7  IND d   1       0.369   0.088  -0.209  0.00  0.00    -0.016 A 
ATOM      8  C8  IND d   1       0.908   0.827  -1.253  0.00  0.00    -0.047 A 
ATOM      9  C9  IND d   1       1.914   0.315  -2.083  0.00  0.00    -0.096 A 
ATOM     10  HN1 IND d   1       0.083   2.654  -1.311  0.00  0.00     0.298 HD
ENDROOT
TORSDOF 0
ENDMDL
