MODEL 1
REMARK minimizedAffinity -1.89748549
REMARK minimizedRMSD -1
REMARK  0 active torsions:
REMARK  status: ('A' for Active; 'I' for Inactive)
ROOT
ATOM      1  N1  IND d   1      -3.447  -1.386   5.037  0.00  0.00    -0.196 N 
ATOM      2  C2  IND d   1      -4.464  -1.960   4.326  0.00  0.00     0.054 A 
ATOM      3  C3  IND d   1      -4.524  -1.433   3.082  0.00  0.00    -0.031 A 
ATOM      4  C4  IND d   1      -2.990   0.309   1.969  0.00  0.00     0.051 A 
ATOM      5  C5  IND d   1      -1.945   1.149   2.232  0.00  0.00    -0.031 A 
ATOM      6  C6  IND d   1      -1.333   1.185   3.468  0.00  0.00     0.015 A 
ATOM      7  C7  IND d   1      -1.738   0.371   4.488  0.00  0.00    -0.016 A 
ATOM      8  C8  IND d   1      -2.804  -0.478   4.226  0.00  0.00    -0.047 A 
ATOM      9  C9  IND d   1      -3.456  -0.489   2.987  0.00  0.00    -0.096 A 
ATOM     10  HN1 IND d   1      -3.244  -1.563   5.854  0.00  0.00     0.298 HD
ENDROOT
TORSDOF 0
ENDMDL
