MODEL 1
REMARK minimizedAffinity -2.7854774
REMARK minimizedRMSD -1
REMARK  0 active torsions:
REMARK  status: ('A' for Active; 'I' for Inactive)
ROOT
ATOM      1  N1  IND d   1      -0.799   0.560   3.079  0.00  0.00    -0.196 N 
ATOM      2  C2  IND d   1      -2.125   0.894   3.076  0.00  0.00     0.054 A 
ATOM      3  C3  IND d   1      -2.612   0.873   1.815  0.00  0.00    -0.031 A 
ATOM      4  C4  IND d   1      -1.439   0.219  -0.381  0.00  0.00     0.051 A 
ATOM      5  C5  IND d   1      -0.217  -0.124  -0.889  0.00  0.00    -0.031 A 
ATOM      6  C6  IND d   1       0.895  -0.262  -0.083  0.00  0.00     0.015 A 
ATOM      7  C7  IND d   1       0.823  -0.072   1.268  0.00  0.00    -0.016 A 
ATOM      8  C8  IND d   1      -0.414   0.283   1.786  0.00  0.00    -0.047 A 
ATOM      9  C9  IND d   1      -1.536   0.466   0.968  0.00  0.00    -0.096 A 
ATOM     10  HN1 IND d   1      -0.291   0.529   3.773  0.00  0.00     0.298 HD
ENDROOT
TORSDOF 0
ENDMDL
