MODEL 1
REMARK minimizedAffinity -4.64743853
REMARK minimizedRMSD -1
REMARK  0 active torsions:
REMARK  status: ('A' for Active; 'I' for Inactive)
ROOT
ATOM      1  N1  IND d   1       0.650  -2.184   0.261  0.00  0.00    -0.196 N 
ATOM      2  C2  IND d   1       1.903  -2.161  -0.286  0.00  0.00     0.054 A 
ATOM      3  C3  IND d   1       2.150  -0.957  -0.848  0.00  0.00    -0.031 A 
ATOM      4  C4  IND d   1       0.679   1.155  -0.901  0.00  0.00     0.051 A 
ATOM      5  C5  IND d   1      -0.565   1.610  -0.565  0.00  0.00    -0.031 A 
ATOM      6  C6  IND d   1      -1.485   0.809   0.079  0.00  0.00     0.015 A 
ATOM      7  C7  IND d   1      -1.190  -0.480   0.422  0.00  0.00    -0.016 A 
ATOM      8  C8  IND d   1       0.070  -0.948   0.076  0.00  0.00    -0.047 A 
ATOM      9  C9  IND d   1       0.993  -0.152  -0.615  0.00  0.00    -0.096 A 
ATOM     10  HN1 IND d   1       0.286  -2.856   0.653  0.00  0.00     0.298 HD
ENDROOT
TORSDOF 0
ENDMDL
