MODEL 1
REMARK minimizedAffinity -4.35419846
REMARK minimizedRMSD -1
REMARK  0 active torsions:
REMARK  status: ('A' for Active; 'I' for Inactive)
ROOT
ATOM      1  N1  IND d   1       1.675  -1.546  -0.858  0.00  0.00    -0.196 N 
ATOM      2  C2  IND d   1       2.648  -0.687  -1.288  0.00  0.00     0.054 A 
ATOM      3  C3  IND d   1       2.180   0.581  -1.310  0.00  0.00    -0.031 A 
ATOM      4  C4  IND d   1      -0.117   1.490  -0.585  0.00  0.00     0.051 A 
ATOM      5  C5  IND d   1      -1.349   1.084  -0.156  0.00  0.00    -0.031 A 
ATOM      6  C6  IND d   1      -1.642  -0.246   0.068  0.00  0.00     0.015 A 
ATOM      7  C7  IND d   1      -0.705  -1.223  -0.119  0.00  0.00    -0.016 A 
ATOM      8  C8  IND d   1       0.545  -0.815  -0.561  0.00  0.00    -0.047 A 
ATOM      9  C9  IND d   1       0.835   0.529  -0.831  0.00  0.00    -0.096 A 
ATOM     10  HN1 IND d   1       1.755  -2.399  -0.785  0.00  0.00     0.298 HD
ENDROOT
TORSDOF 0
ENDMDL
