MODEL 1
REMARK minimizedAffinity -5.21755123
REMARK minimizedRMSD -1
REMARK  0 active torsions:
REMARK  status: ('A' for Active; 'I' for Inactive)
ROOT
ATOM      1  N1  IND d   1      -0.571   1.470   0.809  0.00  0.00    -0.196 N 
ATOM      2  C2  IND d   1      -1.541   0.716   1.409  0.00  0.00     0.054 A 
ATOM      3  C3  IND d   1      -1.431  -0.578   1.031  0.00  0.00    -0.031 A 
ATOM      4  C4  IND d   1       0.327  -1.696  -0.481  0.00  0.00     0.051 A 
ATOM      5  C5  IND d   1       1.392  -1.410  -1.289  0.00  0.00    -0.031 A 
ATOM      6  C6  IND d   1       1.868  -0.124  -1.440  0.00  0.00     0.015 A 
ATOM      7  C7  IND d   1       1.301   0.927  -0.776  0.00  0.00    -0.016 A 
ATOM      8  C8  IND d   1       0.216   0.642   0.040  0.00  0.00    -0.047 A 
ATOM      9  C9  IND d   1      -0.298  -0.655   0.164  0.00  0.00    -0.096 A 
ATOM     10  HN1 IND d   1      -0.470   2.319   0.898  0.00  0.00     0.298 HD
ENDROOT
TORSDOF 0
ENDMDL
