MODEL 1
REMARK minimizedAffinity -4.06514502
REMARK minimizedRMSD -1
REMARK  0 active torsions:
REMARK  status: ('A' for Active; 'I' for Inactive)
ROOT
ATOM      1  N1  IND d   1      -3.879  -0.248   4.764  0.00  0.00    -0.196 N 
ATOM      2  C2  IND d   1      -4.343  -1.392   4.179  0.00  0.00     0.054 A 
ATOM      3  C3  IND d   1      -3.975  -1.438   2.879  0.00  0.00    -0.031 A 
ATOM      4  C4  IND d   1      -2.524   0.206   1.531  0.00  0.00     0.051 A 
ATOM      5  C5  IND d   1      -1.898   1.417   1.624  0.00  0.00    -0.031 A 
ATOM      6  C6  IND d   1      -1.899   2.150   2.794  0.00  0.00     0.015 A 
ATOM      7  C7  IND d   1      -2.518   1.690   3.922  0.00  0.00    -0.016 A 
ATOM      8  C8  IND d   1      -3.160   0.463   3.828  0.00  0.00    -0.047 A 
ATOM      9  C9  IND d   1      -3.199  -0.265   2.632  0.00  0.00    -0.096 A 
ATOM     10  HN1 IND d   1      -4.013  -0.011   5.580  0.00  0.00     0.298 HD
ENDROOT
TORSDOF 0
ENDMDL
