MODEL 1
REMARK minimizedAffinity -4.44181585
REMARK minimizedRMSD -1
REMARK  0 active torsions:
REMARK  status: ('A' for Active; 'I' for Inactive)
ROOT
ATOM      1  N1  IND d   1      -0.693   0.689   0.600  0.00  0.00    -0.196 N 
ATOM      2  C2  IND d   1      -1.385  -0.474   0.798  0.00  0.00     0.054 A 
ATOM      3  C3  IND d   1      -0.709  -1.519   0.269  0.00  0.00    -0.031 A 
ATOM      4  C4  IND d   1       1.596  -1.565  -0.876  0.00  0.00     0.051 A 
ATOM      5  C5  IND d   1       2.595  -0.745  -1.319  0.00  0.00    -0.031 A 
ATOM      6  C6  IND d   1       2.550   0.622  -1.139  0.00  0.00     0.015 A 
ATOM      7  C7  IND d   1       1.504   1.222  -0.496  0.00  0.00    -0.016 A 
ATOM      8  C8  IND d   1       0.484   0.393  -0.051  0.00  0.00    -0.047 A 
ATOM      9  C9  IND d   1       0.505  -0.991  -0.268  0.00  0.00    -0.096 A 
ATOM     10  HN1 IND d   1      -0.950   1.473   0.842  0.00  0.00     0.298 HD
ENDROOT
TORSDOF 0
ENDMDL
