MODEL 1
REMARK minimizedAffinity -4.06832266
REMARK minimizedRMSD -1
REMARK  0 active torsions:
REMARK  status: ('A' for Active; 'I' for Inactive)
ROOT
ATOM      1  N1  IND d   1       0.105   1.554   0.866  0.00  0.00    -0.196 N 
ATOM      2  C2  IND d   1       0.365   0.458   0.090  0.00  0.00     0.054 A 
ATOM      3  C3  IND d   1      -0.513  -0.532   0.367  0.00  0.00    -0.031 A 
ATOM      4  C4  IND d   1      -2.518  -0.538   1.982  0.00  0.00     0.051 A 
ATOM      5  C5  IND d   1      -3.135   0.222   2.936  0.00  0.00    -0.031 A 
ATOM      6  C6  IND d   1      -2.696   1.492   3.252  0.00  0.00     0.015 A 
ATOM      7  C7  IND d   1      -1.626   2.055   2.616  0.00  0.00    -0.016 A 
ATOM      8  C8  IND d   1      -0.993   1.284   1.652  0.00  0.00    -0.047 A 
ATOM      9  C9  IND d   1      -1.407  -0.021   1.357  0.00  0.00    -0.096 A 
ATOM     10  HN1 IND d   1       0.552   2.288   0.862  0.00  0.00     0.298 HD
ENDROOT
TORSDOF 0
ENDMDL
