MODEL 1
REMARK minimizedAffinity -1.15224266
REMARK minimizedRMSD -1
REMARK  0 active torsions:
REMARK  status: ('A' for Active; 'I' for Inactive)
ROOT
ATOM      1  N1  IND d   1      -0.017   1.282   0.338  0.00  0.00    -0.196 N 
ATOM      2  C2  IND d   1      -1.096   0.836   1.049  0.00  0.00     0.054 A 
ATOM      3  C3  IND d   1      -1.220  -0.505   0.923  0.00  0.00    -0.031 A 
ATOM      4  C4  IND d   1       0.293  -2.179  -0.316  0.00  0.00     0.051 A 
ATOM      5  C5  IND d   1       1.380  -2.241  -1.142  0.00  0.00    -0.031 A 
ATOM      6  C6  IND d   1       2.072  -1.110  -1.522  0.00  0.00     0.015 A 
ATOM      7  C7  IND d   1       1.709   0.130  -1.080  0.00  0.00    -0.016 A 
ATOM      8  C8  IND d   1       0.601   0.198  -0.247  0.00  0.00    -0.047 A 
ATOM      9  C9  IND d   1      -0.131  -0.942   0.109  0.00  0.00    -0.096 A 
ATOM     10  HN1 IND d   1       0.233   2.101   0.267  0.00  0.00     0.298 HD
ENDROOT
TORSDOF 0
ENDMDL
