MODEL 1
REMARK minimizedAffinity -2.25348139
REMARK minimizedRMSD -1
REMARK  0 active torsions:
REMARK  status: ('A' for Active; 'I' for Inactive)
ROOT
ATOM      1  N1  IND d   1      -0.056   0.821   1.045  0.00  0.00    -0.196 N 
ATOM      2  C2  IND d   1      -0.488   0.014   0.029  0.00  0.00     0.054 A 
ATOM      3  C3  IND d   1      -1.720  -0.470   0.305  0.00  0.00    -0.031 A 
ATOM      4  C4  IND d   1      -3.254   0.011   2.315  0.00  0.00     0.051 A 
ATOM      5  C5  IND d   1      -3.281   0.658   3.519  0.00  0.00    -0.031 A 
ATOM      6  C6  IND d   1      -2.214   1.409   3.967  0.00  0.00     0.015 A 
ATOM      7  C7  IND d   1      -1.079   1.552   3.220  0.00  0.00    -0.016 A 
ATOM      8  C8  IND d   1      -1.045   0.891   2.000  0.00  0.00    -0.047 A 
ATOM      9  C9  IND d   1      -2.108   0.092   1.559  0.00  0.00    -0.096 A 
ATOM     10  HN1 IND d   1       0.706   1.217   1.081  0.00  0.00     0.298 HD
ENDROOT
TORSDOF 0
ENDMDL
