MODEL 1
REMARK minimizedAffinity 12.1374769
REMARK minimizedRMSD -1
REMARK  0 active torsions:
REMARK  status: ('A' for Active; 'I' for Inactive)
ROOT
ATOM      1  N1  IND d   1       1.428   1.722  -0.044  0.00  0.00    -0.196 N 
ATOM      2  C2  IND d   1       1.779   1.045  -1.178  0.00  0.00     0.054 A 
ATOM      3  C3  IND d   1       0.776   0.228  -1.568  0.00  0.00    -0.031 A 
ATOM      4  C4  IND d   1      -1.570  -0.082  -0.553  0.00  0.00     0.051 A 
ATOM      5  C5  IND d   1      -2.341   0.293   0.511  0.00  0.00    -0.031 A 
ATOM      6  C6  IND d   1      -1.887   1.185   1.462  0.00  0.00     0.015 A 
ATOM      7  C7  IND d   1      -0.644   1.745   1.378  0.00  0.00    -0.016 A 
ATOM      8  C8  IND d   1       0.145   1.360   0.303  0.00  0.00    -0.047 A 
ATOM      9  C9  IND d   1      -0.294   0.424  -0.642  0.00  0.00    -0.096 A 
ATOM     10  HN1 IND d   1       1.925   2.281   0.381  0.00  0.00     0.298 HD
ENDROOT
TORSDOF 0
ENDMDL
