MODEL 1
REMARK minimizedAffinity -3.68340254
REMARK minimizedRMSD -1
REMARK  0 active torsions:
REMARK  status: ('A' for Active; 'I' for Inactive)
ROOT
ATOM      1  N1  IND d   1       2.360  -2.003  -1.222  0.00  0.00    -0.196 N 
ATOM      2  C2  IND d   1       3.216  -1.063  -1.725  0.00  0.00     0.054 A 
ATOM      3  C3  IND d   1       2.738   0.180  -1.491  0.00  0.00    -0.031 A 
ATOM      4  C4  IND d   1       0.625   0.907  -0.213  0.00  0.00     0.051 A 
ATOM      5  C5  IND d   1      -0.490   0.405   0.398  0.00  0.00    -0.031 A 
ATOM      6  C6  IND d   1      -0.715  -0.952   0.505  0.00  0.00     0.015 A 
ATOM      7  C7  IND d   1       0.176  -1.863   0.012  0.00  0.00    -0.016 A 
ATOM      8  C8  IND d   1       1.306  -1.357  -0.615  0.00  0.00    -0.047 A 
ATOM      9  C9  IND d   1       1.519   0.019  -0.764  0.00  0.00    -0.096 A 
ATOM     10  HN1 IND d   1       2.464  -2.855  -1.276  0.00  0.00     0.298 HD
ENDROOT
TORSDOF 0
ENDMDL
