MODEL 1
REMARK minimizedAffinity -2.52523351
REMARK minimizedRMSD -1
REMARK  0 active torsions:
REMARK  status: ('A' for Active; 'I' for Inactive)
ROOT
ATOM      1  N1  IND d   1       1.044   2.366  -2.145  0.00  0.00    -0.196 N 
ATOM      2  C2  IND d   1       1.964   2.244  -3.149  0.00  0.00     0.054 A 
ATOM      3  C3  IND d   1       2.635   1.076  -3.033  0.00  0.00    -0.031 A 
ATOM      4  C4  IND d   1       2.317  -0.831  -1.333  0.00  0.00     0.051 A 
ATOM      5  C5  IND d   1       1.623  -1.162  -0.204  0.00  0.00    -0.031 A 
ATOM      6  C6  IND d   1       0.678  -0.319   0.346  0.00  0.00     0.015 A 
ATOM      7  C7  IND d   1       0.385   0.888  -0.223  0.00  0.00    -0.016 A 
ATOM      8  C8  IND d   1       1.093   1.231  -1.366  0.00  0.00    -0.047 A 
ATOM      9  C9  IND d   1       2.083   0.398  -1.904  0.00  0.00    -0.096 A 
ATOM     10  HN1 IND d   1       0.522   3.038  -2.022  0.00  0.00     0.298 HD
ENDROOT
TORSDOF 0
ENDMDL
