MODEL 1
REMARK minimizedAffinity -2.95145607
REMARK minimizedRMSD -1
REMARK  0 active torsions:
REMARK  status: ('A' for Active; 'I' for Inactive)
ROOT
ATOM      1  N1  IND d   1       1.567  -1.869  -1.402  0.00  0.00    -0.196 N 
ATOM      2  C2  IND d   1       2.542  -0.930  -1.593  0.00  0.00     0.054 A 
ATOM      3  C3  IND d   1       2.199   0.233  -0.995  0.00  0.00    -0.031 A 
ATOM      4  C4  IND d   1       0.132   0.789   0.435  0.00  0.00     0.051 A 
ATOM      5  C5  IND d   1      -1.056   0.264   0.860  0.00  0.00    -0.031 A 
ATOM      6  C6  IND d   1      -1.437  -1.025   0.550  0.00  0.00     0.015 A 
ATOM      7  C7  IND d   1      -0.635  -1.846  -0.192  0.00  0.00    -0.016 A 
ATOM      8  C8  IND d   1       0.569  -1.314  -0.632  0.00  0.00    -0.047 A 
ATOM      9  C9  IND d   1       0.941   0.008  -0.356  0.00  0.00    -0.096 A 
ATOM     10  HN1 IND d   1       1.576  -2.671  -1.712  0.00  0.00     0.298 HD
ENDROOT
TORSDOF 0
ENDMDL
