MODEL 1
REMARK minimizedAffinity -4.89282751
REMARK minimizedRMSD -1
REMARK  0 active torsions:
REMARK  status: ('A' for Active; 'I' for Inactive)
ROOT
ATOM      1  N1  IND d   1       0.332  -1.014  -0.032  0.00  0.00    -0.196 N 
ATOM      2  C2  IND d   1       1.169  -2.090  -0.144  0.00  0.00     0.054 A 
ATOM      3  C3  IND d   1       2.132  -1.843  -1.060  0.00  0.00    -0.031 A 
ATOM      4  C4  IND d   1       2.588   0.295  -2.419  0.00  0.00     0.051 A 
ATOM      5  C5  IND d   1       2.073   1.533  -2.685  0.00  0.00    -0.031 A 
ATOM      6  C6  IND d   1       0.930   1.995  -2.065  0.00  0.00     0.015 A 
ATOM      7  C7  IND d   1       0.263   1.238  -1.144  0.00  0.00    -0.016 A 
ATOM      8  C8  IND d   1       0.779  -0.022  -0.877  0.00  0.00    -0.047 A 
ATOM      9  C9  IND d   1       1.914  -0.513  -1.534  0.00  0.00    -0.096 A 
ATOM     10  HN1 IND d   1      -0.356  -0.965   0.480  0.00  0.00     0.298 HD
ENDROOT
TORSDOF 0
ENDMDL
