MODEL 1
REMARK minimizedAffinity -3.78972054
REMARK minimizedRMSD -1
REMARK  3 active torsions:
REMARK  status: ('A' for Active; 'I' for Inactive)
REMARK    1  A    between atoms: C3'_2  and  C2'_3 
REMARK    2  A    between atoms: C2'_3  and  C1'_4 
REMARK    3  A    between atoms: C1'_4  and  C1_5 
ROOT
ATOM      1  C1  N4B d   1       0.339   0.062  -0.213  0.00  0.00    -0.075 A 
ATOM      2  C2  N4B d   1      -0.393   1.249  -0.438  0.00  0.00     0.002 A 
ATOM      3  C3  N4B d   1      -1.204   1.754   0.550  0.00  0.00     0.002 A 
ATOM      4  C4  N4B d   1      -1.313   1.081   1.757  0.00  0.00    -0.004 A 
ATOM      5  C5  N4B d   1      -0.583  -0.051   1.976  0.00  0.00     0.002 A 
ATOM      6  C6  N4B d   1       0.239  -0.567   0.994  0.00  0.00     0.002 A 
ENDROOT
BRANCH   1   7
ATOM      7  C1' N4B d   1       1.171  -0.574  -1.292  0.00  0.00     0.057 C 
BRANCH   7   8
ATOM      8  C2' N4B d   1       1.161  -2.088  -1.106  0.00  0.00     0.009 C 
BRANCH   8   9
ATOM      9  C3' N4B d   1       0.811  -2.817  -2.392  0.00  0.00     0.004 C 
ATOM     10  C4' N4B d   1       0.095  -4.112  -2.149  0.00  0.00     0.003 C 
ENDBRANCH   8   9
ENDBRANCH   7   8
ENDBRANCH   1   7
TORSDOF 3
ENDMDL
