MODEL 1
REMARK minimizedAffinity -3.6972425
REMARK minimizedRMSD -1
REMARK  3 active torsions:
REMARK  status: ('A' for Active; 'I' for Inactive)
REMARK    1  A    between atoms: C3'_2  and  C2'_3 
REMARK    2  A    between atoms: C2'_3  and  C1'_4 
REMARK    3  A    between atoms: C1'_4  and  C1_5 
ROOT
ATOM      1  C1  N4B d   1       0.131  -0.139  -0.323  0.00  0.00    -0.075 A 
ATOM      2  C2  N4B d   1      -0.257  -0.612   0.950  0.00  0.00     0.002 A 
ATOM      3  C3  N4B d   1      -1.205   0.067   1.675  0.00  0.00     0.002 A 
ATOM      4  C4  N4B d   1      -1.763   1.227   1.159  0.00  0.00    -0.004 A 
ATOM      5  C5  N4B d   1      -1.401   1.663  -0.082  0.00  0.00     0.002 A 
ATOM      6  C6  N4B d   1      -0.453   0.988  -0.824  0.00  0.00     0.002 A 
ENDROOT
BRANCH   1   7
ATOM      7  C1' N4B d   1       1.225  -0.800  -1.116  0.00  0.00     0.057 C 
BRANCH   7   8
ATOM      8  C2' N4B d   1       0.882  -2.274  -1.311  0.00  0.00     0.009 C 
BRANCH   8   9
ATOM      9  C3' N4B d   1       0.073  -2.507  -2.575  0.00  0.00     0.004 C 
ATOM     10  C4' N4B d   1      -0.364  -3.933  -2.730  0.00  0.00     0.003 C 
ENDBRANCH   8   9
ENDBRANCH   7   8
ENDBRANCH   1   7
TORSDOF 3
ENDMDL
