MODEL 1
REMARK minimizedAffinity -4.34913015
REMARK minimizedRMSD -1
REMARK  3 active torsions:
REMARK  status: ('A' for Active; 'I' for Inactive)
REMARK    1  A    between atoms: C3'_2  and  C2'_3 
REMARK    2  A    between atoms: C2'_3  and  C1'_4 
REMARK    3  A    between atoms: C1'_4  and  C1_5 
ROOT
ATOM      1  C1  N4B d   1      -0.184   0.513  -0.157  0.00  0.00    -0.075 A 
ATOM      2  C2  N4B d   1      -0.277   0.391   1.247  0.00  0.00     0.002 A 
ATOM      3  C3  N4B d   1      -1.314   0.987   1.921  0.00  0.00     0.002 A 
ATOM      4  C4  N4B d   1      -2.256   1.722   1.217  0.00  0.00    -0.004 A 
ATOM      5  C5  N4B d   1      -2.174   1.814  -0.141  0.00  0.00     0.002 A 
ATOM      6  C6  N4B d   1      -1.138   1.217  -0.832  0.00  0.00     0.002 A 
ENDROOT
BRANCH   1   7
ATOM      7  C1' N4B d   1       0.980  -0.049  -0.928  0.00  0.00     0.057 C 
BRANCH   7   8
ATOM      8  C2' N4B d   1       0.872  -1.570  -0.958  0.00  0.00     0.009 C 
BRANCH   8   9
ATOM      9  C3' N4B d   1       0.367  -2.078  -2.298  0.00  0.00     0.004 C 
ATOM     10  C4' N4B d   1       0.141  -3.560  -2.310  0.00  0.00     0.003 C 
ENDBRANCH   8   9
ENDBRANCH   7   8
ENDBRANCH   1   7
TORSDOF 3
ENDMDL
