MODEL 1
REMARK minimizedAffinity -0.246212304
REMARK minimizedRMSD -1
REMARK  3 active torsions:
REMARK  status: ('A' for Active; 'I' for Inactive)
REMARK    1  A    between atoms: C3'_2  and  C2'_3 
REMARK    2  A    between atoms: C2'_3  and  C1'_4 
REMARK    3  A    between atoms: C1'_4  and  C1_5 
ROOT
ATOM      1  C1  N4B d   1       0.411  -0.233  -0.761  0.00  0.00    -0.075 A 
ATOM      2  C2  N4B d   1       1.000   0.855  -1.442  0.00  0.00     0.002 A 
ATOM      3  C3  N4B d   1       0.434   2.104  -1.360  0.00  0.00     0.002 A 
ATOM      4  C4  N4B d   1      -0.725   2.284  -0.621  0.00  0.00    -0.004 A 
ATOM      5  C5  N4B d   1      -1.273   1.234   0.056  0.00  0.00     0.002 A 
ATOM      6  C6  N4B d   1      -0.713  -0.026  -0.015  0.00  0.00     0.002 A 
ENDROOT
BRANCH   1   7
ATOM      7  C1' N4B d   1       0.944  -1.633  -0.890  0.00  0.00     0.057 C 
BRANCH   7   8
ATOM      8  C2' N4B d   1       0.330  -2.291  -2.122  0.00  0.00     0.009 C 
BRANCH   8   9
ATOM      9  C3' N4B d   1       0.872  -3.692  -2.348  0.00  0.00     0.004 C 
ATOM     10  C4' N4B d   1      -0.211  -4.706  -2.566  0.00  0.00     0.003 C 
ENDBRANCH   8   9
ENDBRANCH   7   8
ENDBRANCH   1   7
TORSDOF 3
ENDMDL
