MODEL 1
REMARK minimizedAffinity -4.74555206
REMARK minimizedRMSD -1
REMARK  3 active torsions:
REMARK  status: ('A' for Active; 'I' for Inactive)
REMARK    1  A    between atoms: C3'_2  and  C2'_3 
REMARK    2  A    between atoms: C2'_3  and  C1'_4 
REMARK    3  A    between atoms: C1'_4  and  C1_5 
ROOT
ATOM      1  C1  N4B d   1       1.081  -0.264  -0.829  0.00  0.00    -0.075 A 
ATOM      2  C2  N4B d   1       0.915   1.082  -1.223  0.00  0.00     0.002 A 
ATOM      3  C3  N4B d   1       0.105   1.916  -0.492  0.00  0.00     0.002 A 
ATOM      4  C4  N4B d   1      -0.561   1.425   0.621  0.00  0.00    -0.004 A 
ATOM      5  C5  N4B d   1      -0.375   0.130   1.009  0.00  0.00     0.002 A 
ATOM      6  C6  N4B d   1       0.439  -0.719   0.287  0.00  0.00     0.002 A 
ENDROOT
BRANCH   1   7
ATOM      7  C1' N4B d   1       1.888  -1.237  -1.645  0.00  0.00     0.057 C 
BRANCH   7   8
ATOM      8  C2' N4B d   1       1.429  -2.657  -1.328  0.00  0.00     0.009 C 
BRANCH   8   9
ATOM      9  C3' N4B d   1       0.388  -3.151  -2.318  0.00  0.00     0.004 C 
ATOM     10  C4' N4B d   1       0.518  -2.509  -3.667  0.00  0.00     0.003 C 
ENDBRANCH   8   9
ENDBRANCH   7   8
ENDBRANCH   1   7
TORSDOF 3
ENDMDL
