MODEL 1
REMARK minimizedAffinity -3.62757421
REMARK minimizedRMSD -1
REMARK  3 active torsions:
REMARK  status: ('A' for Active; 'I' for Inactive)
REMARK    1  A    between atoms: C3'_2  and  C2'_3 
REMARK    2  A    between atoms: C2'_3  and  C1'_4 
REMARK    3  A    between atoms: C1'_4  and  C1_5 
ROOT
ATOM      1  C1  N4B d   1       0.752  -1.562  -1.310  0.00  0.00    -0.075 A 
ATOM      2  C2  N4B d   1       0.084  -1.534  -2.554  0.00  0.00     0.002 A 
ATOM      3  C3  N4B d   1      -0.286  -2.709  -3.161  0.00  0.00     0.002 A 
ATOM      4  C4  N4B d   1       0.017  -3.919  -2.555  0.00  0.00    -0.004 A 
ATOM      5  C5  N4B d   1       0.640  -3.936  -1.341  0.00  0.00     0.002 A 
ATOM      6  C6  N4B d   1       1.014  -2.763  -0.717  0.00  0.00     0.002 A 
ENDROOT
BRANCH   1   7
ATOM      7  C1' N4B d   1       1.251  -0.306  -0.649  0.00  0.00     0.057 C 
BRANCH   7   8
ATOM      8  C2' N4B d   1       0.065   0.468  -0.083  0.00  0.00     0.009 C 
BRANCH   8   9
ATOM      9  C3' N4B d   1      -0.109   0.232   1.407  0.00  0.00     0.004 C 
ATOM     10  C4' N4B d   1      -1.179   1.092   2.011  0.00  0.00     0.003 C 
ENDBRANCH   8   9
ENDBRANCH   7   8
ENDBRANCH   1   7
TORSDOF 3
ENDMDL
