MODEL 1
REMARK minimizedAffinity -6.02800131
REMARK minimizedRMSD -1
REMARK  3 active torsions:
REMARK  status: ('A' for Active; 'I' for Inactive)
REMARK    1  A    between atoms: C3'_2  and  C2'_3 
REMARK    2  A    between atoms: C2'_3  and  C1'_4 
REMARK    3  A    between atoms: C1'_4  and  C1_5 
ROOT
ATOM      1  C1  N4B d   1      -0.512  -0.426   0.374  0.00  0.00    -0.075 A 
ATOM      2  C2  N4B d   1      -1.431   0.338  -0.379  0.00  0.00     0.002 A 
ATOM      3  C3  N4B d   1      -2.038   1.434   0.185  0.00  0.00     0.002 A 
ATOM      4  C4  N4B d   1      -1.757   1.772   1.500  0.00  0.00    -0.004 A 
ATOM      5  C5  N4B d   1      -0.849   1.044   2.212  0.00  0.00     0.002 A 
ATOM      6  C6  N4B d   1      -0.229  -0.057   1.657  0.00  0.00     0.002 A 
ENDROOT
BRANCH   1   7
ATOM      7  C1' N4B d   1       0.111  -1.682  -0.171  0.00  0.00     0.057 C 
BRANCH   7   8
ATOM      8  C2' N4B d   1      -0.960  -2.762  -0.288  0.00  0.00     0.009 C 
BRANCH   8   9
ATOM      9  C3' N4B d   1      -1.019  -3.356  -1.685  0.00  0.00     0.004 C 
ATOM     10  C4' N4B d   1       0.043  -2.811  -2.592  0.00  0.00     0.003 C 
ENDBRANCH   8   9
ENDBRANCH   7   8
ENDBRANCH   1   7
TORSDOF 3
ENDMDL
