MODEL 1
REMARK minimizedAffinity -2.47524261
REMARK minimizedRMSD -1
REMARK  0 active torsions:
REMARK  status: ('A' for Active; 'I' for Inactive)
ROOT
ATOM      1  C   UNL d   1       0.220  -0.216  -2.531  0.00  0.00     0.172 C 
ATOM      2  N   UNL d   1      -0.254   1.121  -2.804  0.00  0.00    -0.070 N 
ATOM      3  C1  UNL d   1       0.447   2.099  -3.457  0.00  0.00    -0.004 A 
ATOM      4  C2  UNL d   1      -0.350   3.222  -3.516  0.00  0.00    -0.047 A 
ATOM      5  C3  UNL d   1      -1.572   2.908  -2.876  0.00  0.00    -0.047 A 
ATOM      6  C4  UNL d   1      -1.486   1.601  -2.445  0.00  0.00    -0.004 A 
ENDROOT
TORSDOF 0
ENDMDL
