MODEL 1
REMARK minimizedAffinity -0.418066442
REMARK minimizedRMSD -1
REMARK  0 active torsions:
REMARK  status: ('A' for Active; 'I' for Inactive)
ROOT
ATOM      1  C   UNL d   1       1.364  -0.860  -1.084  0.00  0.00     0.172 C 
ATOM      2  N   UNL d   1       0.439  -0.276  -0.142  0.00  0.00    -0.070 N 
ATOM      3  C1  UNL d   1       0.062  -0.827   1.053  0.00  0.00    -0.004 A 
ATOM      4  C2  UNL d   1      -0.830   0.035   1.653  0.00  0.00    -0.047 A 
ATOM      5  C3  UNL d   1      -0.996   1.143   0.788  0.00  0.00    -0.047 A 
ATOM      6  C4  UNL d   1      -0.199   0.924  -0.316  0.00  0.00    -0.004 A 
ENDROOT
TORSDOF 0
ENDMDL
