MODEL 1
REMARK minimizedAffinity -0.678496838
REMARK minimizedRMSD -1
REMARK  0 active torsions:
REMARK  status: ('A' for Active; 'I' for Inactive)
ROOT
ATOM      1  C   UNL d   1       0.055   3.046  -0.925  0.00  0.00     0.172 C 
ATOM      2  N   UNL d   1       0.515   3.486  -2.220  0.00  0.00    -0.070 N 
ATOM      3  C1  UNL d   1       0.667   2.693  -3.326  0.00  0.00    -0.004 A 
ATOM      4  C2  UNL d   1       1.124   3.487  -4.356  0.00  0.00    -0.047 A 
ATOM      5  C3  UNL d   1       1.252   4.803  -3.851  0.00  0.00    -0.047 A 
ATOM      6  C4  UNL d   1       0.869   4.774  -2.527  0.00  0.00    -0.004 A 
ENDROOT
TORSDOF 0
ENDMDL
