MODEL 1
REMARK minimizedAffinity -3.26764011
REMARK minimizedRMSD -1
REMARK  0 active torsions:
REMARK  status: ('A' for Active; 'I' for Inactive)
ROOT
ATOM      1  C   UNL d   1       1.892  -0.449   2.880  0.00  0.00     0.172 C 
ATOM      2  N   UNL d   1       1.319  -0.297   1.563  0.00  0.00    -0.070 N 
ATOM      3  C1  UNL d   1       0.000  -0.050   1.290  0.00  0.00    -0.004 A 
ATOM      4  C2  UNL d   1      -0.140   0.027  -0.079  0.00  0.00    -0.047 A 
ATOM      5  C3  UNL d   1       1.139  -0.183  -0.648  0.00  0.00    -0.047 A 
ATOM      6  C4  UNL d   1       2.023  -0.380   0.391  0.00  0.00    -0.004 A 
ENDROOT
TORSDOF 0
ENDMDL
