MODEL 1
REMARK minimizedAffinity 1.99145997
REMARK minimizedRMSD -1
REMARK  0 active torsions:
REMARK  status: ('A' for Active; 'I' for Inactive)
ROOT
ATOM      1  C   UNL d   1      -1.127  -0.404  -0.363  0.00  0.00     0.172 C 
ATOM      2  N   UNL d   1       0.315  -0.460  -0.299  0.00  0.00    -0.070 N 
ATOM      3  C1  UNL d   1       1.071  -0.282   0.829  0.00  0.00    -0.004 A 
ATOM      4  C2  UNL d   1       2.396  -0.412   0.473  0.00  0.00    -0.047 A 
ATOM      5  C3  UNL d   1       2.438  -0.676  -0.917  0.00  0.00    -0.047 A 
ATOM      6  C4  UNL d   1       1.136  -0.700  -1.369  0.00  0.00    -0.004 A 
ENDROOT
TORSDOF 0
ENDMDL
