MODEL 1
REMARK minimizedAffinity 3.312958
REMARK minimizedRMSD -1
REMARK  0 active torsions:
REMARK  status: ('A' for Active; 'I' for Inactive)
ROOT
ATOM      1  C   UNL d   1      -4.965  -1.490   3.074  0.00  0.00     0.023 A 
ATOM      2  C1  UNL d   1      -4.299  -0.443   2.436  0.00  0.00     0.003 A 
ATOM      3  C2  UNL d   1      -3.885   0.672   3.168  0.00  0.00     0.048 A 
ATOM      4  C3  UNL d   1      -4.139   0.733   4.538  0.00  0.00     0.023 A 
ATOM      5  C4  UNL d   1      -4.804  -0.312   5.181  0.00  0.00     0.048 A 
ATOM      6  C5  UNL d   1      -5.217  -1.425   4.444  0.00  0.00     0.003 A 
ATOM      7  I   UNL d   1      -3.524   2.391   5.630  0.00  0.00    -0.146 I 
ENDROOT
TORSDOF 0
ENDMDL
