MODEL 1
REMARK minimizedAffinity 7.1008482
REMARK minimizedRMSD -1
REMARK  0 active torsions:
REMARK  status: ('A' for Active; 'I' for Inactive)
ROOT
ATOM      1  C   UNL d   1      -5.079  -2.251   2.715  0.00  0.00     0.023 A 
ATOM      2  C1  UNL d   1      -4.334  -1.220   2.143  0.00  0.00     0.003 A 
ATOM      3  C2  UNL d   1      -3.820  -0.200   2.945  0.00  0.00     0.048 A 
ATOM      4  C3  UNL d   1      -4.054  -0.217   4.320  0.00  0.00     0.023 A 
ATOM      5  C4  UNL d   1      -4.799  -1.247   4.897  0.00  0.00     0.048 A 
ATOM      6  C5  UNL d   1      -5.311  -2.265   4.090  0.00  0.00     0.003 A 
ATOM      7  I   UNL d   1      -3.291   1.301   5.517  0.00  0.00    -0.146 I 
ENDROOT
TORSDOF 0
ENDMDL
