MODEL 1
REMARK minimizedAffinity 12.1334572
REMARK minimizedRMSD -1
REMARK  0 active torsions:
REMARK  status: ('A' for Active; 'I' for Inactive)
ROOT
ATOM      1  C   UNL d   1      -5.666  -1.930   3.001  0.00  0.00     0.023 A 
ATOM      2  C1  UNL d   1      -5.937  -2.001   4.367  0.00  0.00     0.003 A 
ATOM      3  C2  UNL d   1      -5.454  -1.014   5.228  0.00  0.00     0.048 A 
ATOM      4  C3  UNL d   1      -4.701   0.043   4.716  0.00  0.00     0.023 A 
ATOM      5  C4  UNL d   1      -4.429   0.118   3.349  0.00  0.00     0.048 A 
ATOM      6  C5  UNL d   1      -4.913  -0.872   2.492  0.00  0.00     0.003 A 
ATOM      7  I   UNL d   1      -3.982   1.514   5.995  0.00  0.00    -0.146 I 
ENDROOT
TORSDOF 0
ENDMDL
