MODEL 1
REMARK minimizedAffinity 12.5965929
REMARK minimizedRMSD -1
REMARK  0 active torsions:
REMARK  status: ('A' for Active; 'I' for Inactive)
ROOT
ATOM      1  C   UNL d   1      -5.998  -4.846   2.538  0.00  0.00     0.023 A 
ATOM      2  C1  UNL d   1      -5.731  -3.668   3.236  0.00  0.00     0.003 A 
ATOM      3  C2  UNL d   1      -4.593  -2.918   2.932  0.00  0.00     0.048 A 
ATOM      4  C3  UNL d   1      -3.727  -3.350   1.928  0.00  0.00     0.023 A 
ATOM      5  C4  UNL d   1      -3.991  -4.528   1.227  0.00  0.00     0.048 A 
ATOM      6  C5  UNL d   1      -5.129  -5.275   1.535  0.00  0.00     0.003 A 
ATOM      7  I   UNL d   1      -2.033  -2.235   1.474  0.00  0.00    -0.146 I 
ENDROOT
TORSDOF 0
ENDMDL
