MODEL 1
REMARK minimizedAffinity -2.5309453
REMARK minimizedRMSD -1
REMARK  0 active torsions:
REMARK  status: ('A' for Active; 'I' for Inactive)
ROOT
ATOM      1  C   UNL d   1       0.791  -2.409   0.326  0.00  0.00     0.023 A 
ATOM      2  C1  UNL d   1       1.002  -3.734   0.707  0.00  0.00     0.003 A 
ATOM      3  C2  UNL d   1       2.162  -4.400   0.307  0.00  0.00     0.048 A 
ATOM      4  C3  UNL d   1       3.108  -3.735  -0.473  0.00  0.00     0.023 A 
ATOM      5  C4  UNL d   1       2.902  -2.408  -0.855  0.00  0.00     0.048 A 
ATOM      6  C5  UNL d   1       1.740  -1.747  -0.453  0.00  0.00     0.003 A 
ATOM      7  I   UNL d   1       4.836  -4.724  -1.069  0.00  0.00    -0.146 I 
ENDROOT
TORSDOF 0
ENDMDL
