MODEL 1
REMARK minimizedAffinity -1.71266127
REMARK minimizedRMSD -1
REMARK  0 active torsions:
REMARK  status: ('A' for Active; 'I' for Inactive)
ROOT
ATOM      1  C   UNL d   1       1.750  -2.560  -0.296  0.00  0.00     0.023 A 
ATOM      2  C1  UNL d   1       2.835  -2.071  -1.024  0.00  0.00     0.003 A 
ATOM      3  C2  UNL d   1       3.844  -2.941  -1.445  0.00  0.00     0.048 A 
ATOM      4  C3  UNL d   1       3.761  -4.297  -1.135  0.00  0.00     0.023 A 
ATOM      5  C4  UNL d   1       2.677  -4.791  -0.407  0.00  0.00     0.048 A 
ATOM      6  C5  UNL d   1       1.671  -3.918   0.012  0.00  0.00     0.003 A 
ATOM      7  I   UNL d   1       5.260  -5.593  -1.760  0.00  0.00    -0.146 I 
ENDROOT
TORSDOF 0
ENDMDL
