MODEL 1
REMARK minimizedAffinity 9.73662281
REMARK minimizedRMSD -1
REMARK  0 active torsions:
REMARK  status: ('A' for Active; 'I' for Inactive)
ROOT
ATOM      1  C   UNL d   1       0.093  -3.623   0.989  0.00  0.00     0.023 A 
ATOM      2  C1  UNL d   1      -1.269  -3.597   0.686  0.00  0.00     0.003 A 
ATOM      3  C2  UNL d   1      -2.018  -2.444   0.932  0.00  0.00     0.048 A 
ATOM      4  C3  UNL d   1      -1.399  -1.321   1.480  0.00  0.00     0.023 A 
ATOM      5  C4  UNL d   1      -0.037  -1.343   1.785  0.00  0.00     0.048 A 
ATOM      6  C5  UNL d   1       0.708  -2.498   1.538  0.00  0.00     0.003 A 
ATOM      7  I   UNL d   1      -2.512   0.395   1.847  0.00  0.00    -0.146 I 
ENDROOT
TORSDOF 0
ENDMDL
