MODEL 1
REMARK minimizedAffinity -2.4196043
REMARK minimizedRMSD -1
REMARK  0 active torsions:
REMARK  status: ('A' for Active; 'I' for Inactive)
ROOT
ATOM      1  C   UNL d   1       2.714  -2.624  -1.246  0.00  0.00     0.023 A 
ATOM      2  C1  UNL d   1       3.755  -2.937  -2.120  0.00  0.00     0.003 A 
ATOM      3  C2  UNL d   1       4.700  -3.903  -1.765  0.00  0.00     0.048 A 
ATOM      4  C3  UNL d   1       4.596  -4.553  -0.536  0.00  0.00     0.023 A 
ATOM      5  C4  UNL d   1       3.555  -4.244   0.341  0.00  0.00     0.048 A 
ATOM      6  C5  UNL d   1       2.614  -3.277  -0.017  0.00  0.00     0.003 A 
ATOM      7  I   UNL d   1       6.000  -5.991  -0.007  0.00  0.00    -0.146 I 
ENDROOT
TORSDOF 0
ENDMDL
