MODEL 1
REMARK minimizedAffinity -1.36691272
REMARK minimizedRMSD -1
REMARK  0 active torsions:
REMARK  status: ('A' for Active; 'I' for Inactive)
ROOT
ATOM      1  C   UNL d   1       4.074  -2.621  -2.260  0.00  0.00     0.023 A 
ATOM      2  C1  UNL d   1       3.929  -3.821  -1.564  0.00  0.00     0.003 A 
ATOM      3  C2  UNL d   1       2.994  -3.922  -0.532  0.00  0.00     0.048 A 
ATOM      4  C3  UNL d   1       2.207  -2.820  -0.202  0.00  0.00     0.023 A 
ATOM      5  C4  UNL d   1       2.348  -1.617  -0.896  0.00  0.00     0.048 A 
ATOM      6  C5  UNL d   1       3.285  -1.520  -1.926  0.00  0.00     0.003 A 
ATOM      7  I   UNL d   1       0.814  -2.968   1.334  0.00  0.00    -0.146 I 
ENDROOT
TORSDOF 0
ENDMDL
