MODEL 1
REMARK minimizedAffinity -2.09660888
REMARK minimizedRMSD -1
REMARK  0 active torsions:
REMARK  status: ('A' for Active; 'I' for Inactive)
ROOT
ATOM      1  C   UNL d   1       3.046  -2.006  -0.510  0.00  0.00     0.023 A 
ATOM      2  C1  UNL d   1       2.537  -3.255  -0.867  0.00  0.00     0.003 A 
ATOM      3  C2  UNL d   1       3.324  -4.399  -0.719  0.00  0.00     0.048 A 
ATOM      4  C3  UNL d   1       4.618  -4.287  -0.213  0.00  0.00     0.023 A 
ATOM      5  C4  UNL d   1       5.131  -3.040   0.146  0.00  0.00     0.048 A 
ATOM      6  C5  UNL d   1       4.341  -1.899  -0.005  0.00  0.00     0.003 A 
ATOM      7  I   UNL d   1       5.792  -5.989   0.007  0.00  0.00    -0.146 I 
ENDROOT
TORSDOF 0
ENDMDL
