MODEL 1
REMARK minimizedAffinity -2.83538842
REMARK minimizedRMSD -1
REMARK  0 active torsions:
REMARK  status: ('A' for Active; 'I' for Inactive)
ROOT
ATOM      1  C   UNL d   1       3.377  -2.343  -1.858  0.00  0.00     0.023 A 
ATOM      2  C1  UNL d   1       4.644  -2.623  -2.373  0.00  0.00     0.003 A 
ATOM      3  C2  UNL d   1       5.398  -3.671  -1.843  0.00  0.00     0.048 A 
ATOM      4  C3  UNL d   1       4.879  -4.437  -0.799  0.00  0.00     0.023 A 
ATOM      5  C4  UNL d   1       3.613  -4.162  -0.282  0.00  0.00     0.048 A 
ATOM      6  C5  UNL d   1       2.863  -3.111  -0.814  0.00  0.00     0.003 A 
ATOM      7  I   UNL d   1       6.000  -5.999  -0.009  0.00  0.00    -0.146 I 
ENDROOT
TORSDOF 0
ENDMDL
