MODEL 1
REMARK minimizedAffinity -3.30042624
REMARK minimizedRMSD -1
REMARK  0 active torsions:
REMARK  status: ('A' for Active; 'I' for Inactive)
ROOT
ATOM      1  C   UNL d   1       5.579  -4.086  -1.536  0.00  0.00     0.023 A 
ATOM      2  C1  UNL d   1       5.299  -4.463  -0.223  0.00  0.00     0.003 A 
ATOM      3  C2  UNL d   1       4.054  -4.173   0.338  0.00  0.00     0.048 A 
ATOM      4  C3  UNL d   1       3.093  -3.506  -0.420  0.00  0.00     0.023 A 
ATOM      5  C4  UNL d   1       3.368  -3.128  -1.735  0.00  0.00     0.048 A 
ATOM      6  C5  UNL d   1       4.615  -3.419  -2.292  0.00  0.00     0.003 A 
ATOM      7  I   UNL d   1       1.238  -3.073   0.412  0.00  0.00    -0.146 I 
ENDROOT
TORSDOF 0
ENDMDL
