MODEL 1
REMARK minimizedAffinity 2.30472755
REMARK minimizedRMSD -1
REMARK  0 active torsions:
REMARK  status: ('A' for Active; 'I' for Inactive)
ROOT
ATOM      1  C   UNL d   1       5.916  -4.480  -2.127  0.00  0.00     0.023 A 
ATOM      2  C1  UNL d   1       5.956  -5.778  -1.617  0.00  0.00     0.003 A 
ATOM      3  C2  UNL d   1       5.981  -5.987  -0.237  0.00  0.00     0.048 A 
ATOM      4  C3  UNL d   1       5.963  -4.893   0.628  0.00  0.00     0.023 A 
ATOM      5  C4  UNL d   1       5.922  -3.593   0.123  0.00  0.00     0.048 A 
ATOM      6  C5  UNL d   1       5.898  -3.389  -1.258  0.00  0.00     0.003 A 
ATOM      7  I   UNL d   1       5.999  -5.201   2.683  0.00  0.00    -0.146 I 
ENDROOT
TORSDOF 0
ENDMDL
