MODEL 1
REMARK minimizedAffinity 5.07214308
REMARK minimizedRMSD -1
REMARK  0 active torsions:
REMARK  status: ('A' for Active; 'I' for Inactive)
ROOT
ATOM      1  C   UNL d   1       5.997  -5.935  -1.189  0.00  0.00     0.023 A 
ATOM      2  C1  UNL d   1       5.656  -5.936   0.164  0.00  0.00     0.003 A 
ATOM      3  C2  UNL d   1       4.313  -5.954   0.546  0.00  0.00     0.048 A 
ATOM      4  C3  UNL d   1       3.316  -5.972  -0.429  0.00  0.00     0.023 A 
ATOM      5  C4  UNL d   1       3.653  -5.973  -1.783  0.00  0.00     0.048 A 
ATOM      6  C5  UNL d   1       4.996  -5.954  -2.161  0.00  0.00     0.003 A 
ATOM      7  I   UNL d   1       1.317  -5.999   0.139  0.00  0.00    -0.146 I 
ENDROOT
TORSDOF 0
ENDMDL
