MODEL 1
REMARK minimizedAffinity 12.0584259
REMARK minimizedRMSD -1
REMARK  0 active torsions:
REMARK  status: ('A' for Active; 'I' for Inactive)
ROOT
ATOM      1  C   UNL d   1      -2.439   5.272  -0.545  0.00  0.00     0.023 A 
ATOM      2  C1  UNL d   1      -3.625   4.769  -1.081  0.00  0.00     0.003 A 
ATOM      3  C2  UNL d   1      -4.105   3.523  -0.671  0.00  0.00     0.048 A 
ATOM      4  C3  UNL d   1      -3.395   2.786   0.276  0.00  0.00     0.023 A 
ATOM      5  C4  UNL d   1      -2.208   3.286   0.815  0.00  0.00     0.048 A 
ATOM      6  C5  UNL d   1      -1.732   4.531   0.401  0.00  0.00     0.003 A 
ATOM      7  I   UNL d   1      -4.107   0.932   0.888  0.00  0.00    -0.146 I 
ENDROOT
TORSDOF 0
ENDMDL
