MODEL 1
REMARK minimizedAffinity 7.87697697
REMARK minimizedRMSD -1
REMARK  0 active torsions:
REMARK  status: ('A' for Active; 'I' for Inactive)
ROOT
ATOM      1  C   UNL d   1       1.334   3.343  -1.174  0.00  0.00     0.023 A 
ATOM      2  C1  UNL d   1       0.544   4.489  -1.083  0.00  0.00     0.003 A 
ATOM      3  C2  UNL d   1       0.101   5.126  -2.244  0.00  0.00     0.048 A 
ATOM      4  C3  UNL d   1       0.451   4.612  -3.492  0.00  0.00     0.023 A 
ATOM      5  C4  UNL d   1       1.241   3.465  -3.587  0.00  0.00     0.048 A 
ATOM      6  C5  UNL d   1       1.682   2.832  -2.424  0.00  0.00     0.003 A 
ATOM      7  I   UNL d   1      -0.207   5.559  -5.221  0.00  0.00    -0.146 I 
ENDROOT
TORSDOF 0
ENDMDL
