MODEL 1
REMARK minimizedAffinity -1.11354423
REMARK minimizedRMSD -1
REMARK  0 active torsions:
REMARK  status: ('A' for Active; 'I' for Inactive)
ROOT
ATOM      1  C   UNL d   1       1.623  -2.139   0.450  0.00  0.00     0.023 A 
ATOM      2  C1  UNL d   1       1.159  -3.453   0.392  0.00  0.00     0.003 A 
ATOM      3  C2  UNL d   1       2.060  -4.506   0.224  0.00  0.00     0.048 A 
ATOM      4  C3  UNL d   1       3.425  -4.238   0.115  0.00  0.00     0.023 A 
ATOM      5  C4  UNL d   1       3.894  -2.925   0.174  0.00  0.00     0.048 A 
ATOM      6  C5  UNL d   1       2.989  -1.875   0.341  0.00  0.00     0.003 A 
ATOM      7  I   UNL d   1       4.768  -5.804  -0.135  0.00  0.00    -0.146 I 
ENDROOT
TORSDOF 0
ENDMDL
