MODEL 1
REMARK minimizedAffinity 3.79263878
REMARK minimizedRMSD -1
REMARK  0 active torsions:
REMARK  status: ('A' for Active; 'I' for Inactive)
ROOT
ATOM      1  C   UNL d   1       4.974   5.246   0.636  0.00  0.00     0.023 A 
ATOM      2  C1  UNL d   1       4.399   4.303  -0.215  0.00  0.00     0.003 A 
ATOM      3  C2  UNL d   1       3.016   4.111  -0.214  0.00  0.00     0.048 A 
ATOM      4  C3  UNL d   1       2.214   4.866   0.641  0.00  0.00     0.023 A 
ATOM      5  C4  UNL d   1       2.785   5.812   1.494  0.00  0.00     0.048 A 
ATOM      6  C5  UNL d   1       4.168   6.000   1.490  0.00  0.00     0.003 A 
ATOM      7  I   UNL d   1       0.155   4.582   0.644  0.00  0.00    -0.146 I 
ENDROOT
TORSDOF 0
ENDMDL
