MODEL 1
REMARK minimizedAffinity 7.07744741
REMARK minimizedRMSD -1
REMARK  0 active torsions:
REMARK  status: ('A' for Active; 'I' for Inactive)
ROOT
ATOM      1  C   UNL d   1       4.865   6.000   1.500  0.00  0.00     0.023 A 
ATOM      2  C1  UNL d   1       3.866   5.048   1.708  0.00  0.00     0.003 A 
ATOM      3  C2  UNL d   1       3.741   3.964   0.836  0.00  0.00     0.048 A 
ATOM      4  C3  UNL d   1       4.618   3.838  -0.241  0.00  0.00     0.023 A 
ATOM      5  C4  UNL d   1       5.619   4.788  -0.452  0.00  0.00     0.048 A 
ATOM      6  C5  UNL d   1       5.740   5.870   0.421  0.00  0.00     0.003 A 
ATOM      7  I   UNL d   1       4.433   2.226  -1.539  0.00  0.00    -0.146 I 
ENDROOT
TORSDOF 0
ENDMDL
