MODEL 1
REMARK minimizedAffinity -4.30097485
REMARK minimizedRMSD -1
REMARK  0 active torsions:
REMARK  status: ('A' for Active; 'I' for Inactive)
ROOT
ATOM      1  O1  BZF d   1      -0.879  -0.348  -0.902  0.00  0.00    -0.204 OA
ATOM      2  C2  BZF d   1       0.475  -0.528  -1.110  0.00  0.00     0.174 A 
ATOM      3  C3  BZF d   1       1.181  -0.136  -0.030  0.00  0.00    -0.012 A 
ATOM      4  C3A BZF d   1       0.202   0.231   0.946  0.00  0.00    -0.107 A 
ATOM      5  C4  BZF d   1       0.283   0.688   2.231  0.00  0.00     0.055 A 
ATOM      6  C5  BZF d   1      -0.860   1.022   2.886  0.00  0.00    -0.016 A 
ATOM      7  C6  BZF d   1      -2.098   0.917   2.286  0.00  0.00     0.022 A 
ATOM      8  C7  BZF d   1      -2.229   0.465   1.015  0.00  0.00     0.029 A 
ATOM      9  C7A BZF d   1      -1.078   0.095   0.362  0.00  0.00     0.058 A 
ENDROOT
TORSDOF 0
ENDMDL
