MODEL 1
REMARK minimizedAffinity -3.99256063
REMARK minimizedRMSD -1
REMARK  0 active torsions:
REMARK  status: ('A' for Active; 'I' for Inactive)
ROOT
ATOM      1  O1  BZF d   1      -0.727  -0.887  -0.746  0.00  0.00    -0.204 OA
ATOM      2  C2  BZF d   1       0.592  -1.066  -1.117  0.00  0.00     0.174 A 
ATOM      3  C3  BZF d   1       1.417  -0.391  -0.292  0.00  0.00    -0.012 A 
ATOM      4  C3A BZF d   1       0.567   0.175   0.710  0.00  0.00    -0.107 A 
ATOM      5  C4  BZF d   1       0.801   0.942   1.816  0.00  0.00     0.055 A 
ATOM      6  C5  BZF d   1      -0.255   1.390   2.544  0.00  0.00    -0.016 A 
ATOM      7  C6  BZF d   1      -1.556   1.095   2.193  0.00  0.00     0.022 A 
ATOM      8  C7  BZF d   1      -1.838   0.334   1.108  0.00  0.00     0.029 A 
ATOM      9  C7A BZF d   1      -0.771  -0.148   0.389  0.00  0.00     0.058 A 
ENDROOT
TORSDOF 0
ENDMDL
