MODEL 1
REMARK minimizedAffinity -4.85407448
REMARK minimizedRMSD -1
REMARK  0 active torsions:
REMARK  status: ('A' for Active; 'I' for Inactive)
ROOT
ATOM      1  O1  BZF d   1      -0.940  -0.866  -0.408  0.00  0.00    -0.204 OA
ATOM      2  C2  BZF d   1       0.325  -1.205  -0.848  0.00  0.00     0.174 A 
ATOM      3  C3  BZF d   1       1.269  -0.563  -0.131  0.00  0.00    -0.012 A 
ATOM      4  C3A BZF d   1       0.552   0.156   0.877  0.00  0.00    -0.107 A 
ATOM      5  C4  BZF d   1       0.938   0.971   1.903  0.00  0.00     0.055 A 
ATOM      6  C5  BZF d   1      -0.015   1.575   2.660  0.00  0.00    -0.016 A 
ATOM      7  C6  BZF d   1      -1.360   1.392   2.417  0.00  0.00     0.022 A 
ATOM      8  C7  BZF d   1      -1.791   0.589   1.413  0.00  0.00     0.029 A 
ATOM      9  C7A BZF d   1      -0.831  -0.049   0.667  0.00  0.00     0.058 A 
ENDROOT
TORSDOF 0
ENDMDL
