MODEL 1
REMARK minimizedAffinity -4.26518631
REMARK minimizedRMSD -1
REMARK  0 active torsions:
REMARK  status: ('A' for Active; 'I' for Inactive)
ROOT
ATOM      1  O1  BZF d   1      -1.152  -0.982  -0.444  0.00  0.00    -0.204 OA
ATOM      2  C2  BZF d   1       0.058  -1.193  -1.077  0.00  0.00     0.174 A 
ATOM      3  C3  BZF d   1       1.038  -0.481  -0.484  0.00  0.00    -0.012 A 
ATOM      4  C3A BZF d   1       0.420   0.145   0.643  0.00  0.00    -0.107 A 
ATOM      5  C4  BZF d   1       0.881   0.968   1.631  0.00  0.00     0.055 A 
ATOM      6  C5  BZF d   1       0.003   1.464   2.541  0.00  0.00    -0.016 A 
ATOM      7  C6  BZF d   1      -1.342   1.162   2.492  0.00  0.00     0.022 A 
ATOM      8  C7  BZF d   1      -1.846   0.346   1.534  0.00  0.00     0.029 A 
ATOM      9  C7A BZF d   1      -0.956  -0.183   0.632  0.00  0.00     0.058 A 
ENDROOT
TORSDOF 0
ENDMDL
