MODEL 1
REMARK minimizedAffinity -4.52662277
REMARK minimizedRMSD -1
REMARK  0 active torsions:
REMARK  status: ('A' for Active; 'I' for Inactive)
ROOT
ATOM      1  O1  BZF d   1       1.191  -0.001   0.169  0.00  0.00    -0.204 OA
ATOM      2  C2  BZF d   1       0.461  -0.553  -0.865  0.00  0.00     0.174 A 
ATOM      3  C3  BZF d   1      -0.859  -0.521  -0.589  0.00  0.00    -0.012 A 
ATOM      4  C3A BZF d   1      -0.966   0.173   0.658  0.00  0.00    -0.107 A 
ATOM      5  C4  BZF d   1      -2.022   0.534   1.444  0.00  0.00     0.055 A 
ATOM      6  C5  BZF d   1      -1.782   1.139   2.637  0.00  0.00    -0.016 A 
ATOM      7  C6  BZF d   1      -0.499   1.392   3.077  0.00  0.00     0.022 A 
ATOM      8  C7  BZF d   1       0.581   1.056   2.330  0.00  0.00     0.029 A 
ATOM      9  C7A BZF d   1       0.340   0.475   1.109  0.00  0.00     0.058 A 
ENDROOT
TORSDOF 0
ENDMDL
