MODEL 1
REMARK minimizedAffinity -2.40311956
REMARK minimizedRMSD -1
REMARK  0 active torsions:
REMARK  status: ('A' for Active; 'I' for Inactive)
ROOT
ATOM      1  O1  BZF d   1      -0.878  -0.785   0.060  0.00  0.00    -0.204 OA
ATOM      2  C2  BZF d   1       0.417  -0.900  -0.408  0.00  0.00     0.174 A 
ATOM      3  C3  BZF d   1       1.222   0.006   0.183  0.00  0.00    -0.012 A 
ATOM      4  C3A BZF d   1       0.397   0.671   1.145  0.00  0.00    -0.107 A 
ATOM      5  C4  BZF d   1       0.629   1.662   2.056  0.00  0.00     0.055 A 
ATOM      6  C5  BZF d   1      -0.408   2.137   2.794  0.00  0.00    -0.016 A 
ATOM      7  C6  BZF d   1      -1.689   1.648   2.644  0.00  0.00     0.022 A 
ATOM      8  C7  BZF d   1      -1.967   0.661   1.758  0.00  0.00     0.029 A 
ATOM      9  C7A BZF d   1      -0.915   0.157   1.033  0.00  0.00     0.058 A 
ENDROOT
TORSDOF 0
ENDMDL
