MODEL 1
REMARK minimizedAffinity -5.66915894
REMARK minimizedRMSD -1
REMARK  0 active torsions:
REMARK  status: ('A' for Active; 'I' for Inactive)
ROOT
ATOM      1  O1  BZF d   1       1.297   0.803   0.099  0.00  0.00    -0.204 OA
ATOM      2  C2  BZF d   1       0.905   0.171  -1.065  0.00  0.00     0.174 A 
ATOM      3  C3  BZF d   1      -0.355  -0.296  -0.954  0.00  0.00    -0.012 A 
ATOM      4  C3A BZF d   1      -0.810   0.148   0.327  0.00  0.00    -0.107 A 
ATOM      5  C4  BZF d   1      -1.988   0.011   1.005  0.00  0.00     0.055 A 
ATOM      6  C5  BZF d   1      -2.083   0.500   2.269  0.00  0.00    -0.016 A 
ATOM      7  C6  BZF d   1      -1.021   1.126   2.888  0.00  0.00     0.022 A 
ATOM      8  C7  BZF d   1       0.166   1.289   2.254  0.00  0.00     0.029 A 
ATOM      9  C7A BZF d   1       0.255   0.825   0.965  0.00  0.00     0.058 A 
ENDROOT
TORSDOF 0
ENDMDL
