MODEL 1
REMARK minimizedAffinity -2.72414947
REMARK minimizedRMSD -1
REMARK  1 active torsions:
REMARK  status: ('A' for Active; 'I' for Inactive)
REMARK    1  A    between atoms: C3_4  and  O_7 
ROOT
ATOM      1  C   UNL d   1       0.502   5.958   4.109  0.00  0.00    -0.033 A 
ATOM      2  C1  UNL d   1       0.735   5.361   5.349  0.00  0.00     0.039 A 
ATOM      3  C2  UNL d   1      -0.293   4.676   6.000  0.00  0.00    -0.080 A 
ATOM      4  C3  UNL d   1      -1.547   4.595   5.400  0.00  0.00     0.150 A 
ATOM      5  C4  UNL d   1      -1.784   5.184   4.162  0.00  0.00    -0.007 A 
ATOM      6  C5  UNL d   1      -0.757   5.868   3.515  0.00  0.00     0.039 A 
ENDROOT
BRANCH   4   7
ATOM      7  O   UNL d   1      -2.583   3.941   5.999  0.00  0.00    -0.526 OA
ATOM      8  H5  UNL d   1      -2.280   3.609   6.860  0.00  0.00     0.418 HD
ENDBRANCH   4   7
TORSDOF 1
ENDMDL
