MODEL 1
REMARK minimizedAffinity -2.54285669
REMARK minimizedRMSD -1
REMARK  1 active torsions:
REMARK  status: ('A' for Active; 'I' for Inactive)
REMARK    1  A    between atoms: C3_4  and  O_7 
ROOT
ATOM      1  C   UNL d   1       0.593   5.061   4.880  0.00  0.00    -0.033 A 
ATOM      2  C1  UNL d   1       0.019   5.684   3.769  0.00  0.00     0.039 A 
ATOM      3  C2  UNL d   1      -1.341   6.000   3.769  0.00  0.00    -0.080 A 
ATOM      4  C3  UNL d   1      -2.115   5.689   4.884  0.00  0.00     0.150 A 
ATOM      5  C4  UNL d   1      -1.549   5.073   5.995  0.00  0.00    -0.007 A 
ATOM      6  C5  UNL d   1      -0.191   4.757   5.993  0.00  0.00     0.039 A 
ENDROOT
BRANCH   4   7
ATOM      7  O   UNL d   1      -3.447   5.974   4.928  0.00  0.00    -0.526 OA
ATOM      8  H5  UNL d   1      -3.705   6.372   4.080  0.00  0.00     0.418 HD
ENDBRANCH   4   7
TORSDOF 1
ENDMDL
