MODEL 1
REMARK minimizedAffinity -3.58934259
REMARK minimizedRMSD -1
REMARK  1 active torsions:
REMARK  status: ('A' for Active; 'I' for Inactive)
REMARK    1  A    between atoms: C3_4  and  O_7 
ROOT
ATOM      1  C   UNL d   1       5.569  -3.725   1.680  0.00  0.00    -0.033 A 
ATOM      2  C1  UNL d   1       5.095  -2.417   1.566  0.00  0.00     0.039 A 
ATOM      3  C2  UNL d   1       3.724  -2.175   1.467  0.00  0.00    -0.080 A 
ATOM      4  C3  UNL d   1       2.838  -3.249   1.484  0.00  0.00     0.150 A 
ATOM      5  C4  UNL d   1       3.303  -4.555   1.602  0.00  0.00    -0.007 A 
ATOM      6  C5  UNL d   1       4.673  -4.794   1.700  0.00  0.00     0.039 A 
ENDROOT
BRANCH   4   7
ATOM      7  O   UNL d   1       1.491  -3.063   1.385  0.00  0.00    -0.526 OA
ATOM      8  H5  UNL d   1       1.318  -2.113   1.281  0.00  0.00     0.418 HD
ENDBRANCH   4   7
TORSDOF 1
ENDMDL
