MODEL 1
REMARK minimizedAffinity -1.61816299
REMARK minimizedRMSD -1
REMARK  1 active torsions:
REMARK  status: ('A' for Active; 'I' for Inactive)
REMARK    1  A    between atoms: C3_4  and  O_7 
ROOT
ATOM      1  C   UNL d   1       0.011   5.958   4.177  0.00  0.00    -0.033 A 
ATOM      2  C1  UNL d   1       0.017   5.632   5.535  0.00  0.00     0.039 A 
ATOM      3  C2  UNL d   1      -0.741   4.556   6.000  0.00  0.00    -0.080 A 
ATOM      4  C3  UNL d   1      -1.499   3.814   5.098  0.00  0.00     0.150 A 
ATOM      5  C4  UNL d   1      -1.507   4.130   3.744  0.00  0.00    -0.007 A 
ATOM      6  C5  UNL d   1      -0.750   5.206   3.281  0.00  0.00     0.039 A 
ENDROOT
BRANCH   4   7
ATOM      7  O   UNL d   1      -2.259   2.758   5.505  0.00  0.00    -0.526 OA
ATOM      8  H5  UNL d   1      -2.178   2.675   6.470  0.00  0.00     0.418 HD
ENDBRANCH   4   7
TORSDOF 1
ENDMDL
