MODEL 1
REMARK minimizedAffinity 5.66315746
REMARK minimizedRMSD -1
REMARK  1 active torsions:
REMARK  status: ('A' for Active; 'I' for Inactive)
REMARK    1  A    between atoms: C3_4  and  O_7 
ROOT
ATOM      1  C   UNL d   1       1.654   0.092   1.442  0.00  0.00    -0.033 A 
ATOM      2  C1  UNL d   1       1.246  -0.342   2.705  0.00  0.00     0.039 A 
ATOM      3  C2  UNL d   1       1.114  -1.707   2.968  0.00  0.00    -0.080 A 
ATOM      4  C3  UNL d   1       1.393  -2.626   1.961  0.00  0.00     0.150 A 
ATOM      5  C4  UNL d   1       1.804  -2.202   0.701  0.00  0.00    -0.007 A 
ATOM      6  C5  UNL d   1       1.935  -0.838   0.441  0.00  0.00     0.039 A 
ENDROOT
BRANCH   4   7
ATOM      7  O   UNL d   1       1.274  -3.968   2.168  0.00  0.00    -0.526 OA
ATOM      8  H5  UNL d   1       0.954  -4.112   3.074  0.00  0.00     0.418 HD
ENDBRANCH   4   7
TORSDOF 1
ENDMDL
