MODEL 1
REMARK minimizedAffinity 0.386941493
REMARK minimizedRMSD -1
REMARK  1 active torsions:
REMARK  status: ('A' for Active; 'I' for Inactive)
REMARK    1  A    between atoms: C3_4  and  O_7 
ROOT
ATOM      1  C   UNL d   1       2.988  -2.234   1.072  0.00  0.00    -0.033 A 
ATOM      2  C1  UNL d   1       1.610  -2.030   0.976  0.00  0.00     0.039 A 
ATOM      3  C2  UNL d   1       0.724  -2.965   1.516  0.00  0.00    -0.080 A 
ATOM      4  C3  UNL d   1       1.229  -4.098   2.149  0.00  0.00     0.150 A 
ATOM      5  C4  UNL d   1       2.600  -4.306   2.252  0.00  0.00    -0.007 A 
ATOM      6  C5  UNL d   1       3.483  -3.372   1.711  0.00  0.00     0.039 A 
ENDROOT
BRANCH   4   7
ATOM      7  O   UNL d   1       0.404  -5.041   2.686  0.00  0.00    -0.526 OA
ATOM      8  H5  UNL d   1      -0.516  -4.778   2.515  0.00  0.00     0.418 HD
ENDBRANCH   4   7
TORSDOF 1
ENDMDL
