MODEL 1
REMARK minimizedAffinity -2.42654967
REMARK minimizedRMSD -1
REMARK  1 active torsions:
REMARK  status: ('A' for Active; 'I' for Inactive)
REMARK    1  A    between atoms: C3_4  and  O_7 
ROOT
ATOM      1  C   UNL d   1      -2.962   4.182   5.967  0.00  0.00    -0.033 A 
ATOM      2  C1  UNL d   1      -1.708   3.569   6.000  0.00  0.00     0.039 A 
ATOM      3  C2  UNL d   1      -0.619   4.168   5.364  0.00  0.00    -0.080 A 
ATOM      4  C3  UNL d   1      -0.796   5.379   4.702  0.00  0.00     0.150 A 
ATOM      5  C4  UNL d   1      -2.042   5.998   4.668  0.00  0.00    -0.007 A 
ATOM      6  C5  UNL d   1      -3.129   5.398   5.302  0.00  0.00     0.039 A 
ENDROOT
BRANCH   4   7
ATOM      7  O   UNL d   1       0.236   6.000   4.063  0.00  0.00    -0.526 OA
ATOM      8  H5  UNL d   1       1.028   5.443   4.146  0.00  0.00     0.418 HD
ENDBRANCH   4   7
TORSDOF 1
ENDMDL
