MODEL 1
REMARK minimizedAffinity 7.2763238
REMARK minimizedRMSD -1
REMARK  1 active torsions:
REMARK  status: ('A' for Active; 'I' for Inactive)
REMARK    1  A    between atoms: C1_2  and  C2_3 
ROOT
ATOM      1  C2  UNL d   1      -2.141  -2.575  -2.656  0.00  0.00    -0.077 A 
ATOM      2  C3  UNL d   1      -1.583  -3.859  -2.719  0.00  0.00     0.002 A 
ATOM      3  C4  UNL d   1      -0.813  -4.241  -3.819  0.00  0.00     0.002 A 
ATOM      4  C5  UNL d   1      -0.590  -3.344  -4.861  0.00  0.00    -0.004 A 
ATOM      5  C6  UNL d   1      -1.142  -2.065  -4.809  0.00  0.00     0.002 A 
ATOM      6  C7  UNL d   1      -1.914  -1.682  -3.711  0.00  0.00     0.002 A 
ENDROOT
BRANCH   1   7
ATOM      7  C1  UNL d   1      -2.931  -2.144  -1.448  0.00  0.00     0.055 C 
ATOM      8  C   UNL d   1      -2.088  -2.210  -0.183  0.00  0.00     0.019 C 
ENDBRANCH   1   7
TORSDOF 1
ENDMDL
