MODEL 1
REMARK minimizedAffinity 4.8901124
REMARK minimizedRMSD -1
REMARK  1 active torsions:
REMARK  status: ('A' for Active; 'I' for Inactive)
REMARK    1  A    between atoms: C1_2  and  C2_3 
ROOT
ATOM      1  C2  UNL d   1       3.074   3.242  -4.755  0.00  0.00    -0.077 A 
ATOM      2  C3  UNL d   1       3.701   2.138  -5.351  0.00  0.00     0.002 A 
ATOM      3  C4  UNL d   1       4.438   1.241  -4.576  0.00  0.00     0.002 A 
ATOM      4  C5  UNL d   1       4.552   1.435  -3.201  0.00  0.00    -0.004 A 
ATOM      5  C6  UNL d   1       3.935   2.530  -2.599  0.00  0.00     0.002 A 
ATOM      6  C7  UNL d   1       3.198   3.429  -3.372  0.00  0.00     0.002 A 
ENDROOT
BRANCH   1   7
ATOM      7  C1  UNL d   1       2.238   4.183  -5.581  0.00  0.00     0.055 C 
ATOM      8  C   UNL d   1       3.035   5.410  -5.999  0.00  0.00     0.019 C 
ENDBRANCH   1   7
TORSDOF 1
ENDMDL
