MODEL 1
REMARK minimizedAffinity 12.5905972
REMARK minimizedRMSD -1
REMARK  1 active torsions:
REMARK  status: ('A' for Active; 'I' for Inactive)
REMARK    1  A    between atoms: C1_2  and  C2_3 
ROOT
ATOM      1  C2  UNL d   1      -2.759  -4.103  -2.643  0.00  0.00    -0.077 A 
ATOM      2  C3  UNL d   1      -3.412  -5.303  -2.329  0.00  0.00     0.002 A 
ATOM      3  C4  UNL d   1      -4.793  -5.322  -2.121  0.00  0.00     0.002 A 
ATOM      4  C5  UNL d   1      -5.532  -4.146  -2.228  0.00  0.00    -0.004 A 
ATOM      5  C6  UNL d   1      -4.891  -2.947  -2.538  0.00  0.00     0.002 A 
ATOM      6  C7  UNL d   1      -3.511  -2.925  -2.745  0.00  0.00     0.002 A 
ENDROOT
BRANCH   1   7
ATOM      7  C1  UNL d   1      -1.278  -4.089  -2.917  0.00  0.00     0.055 C 
ATOM      8  C   UNL d   1      -0.918  -5.022  -4.063  0.00  0.00     0.019 C 
ENDBRANCH   1   7
TORSDOF 1
ENDMDL
