MODEL 1
REMARK minimizedAffinity 3.42395234
REMARK minimizedRMSD -1
REMARK  1 active torsions:
REMARK  status: ('A' for Active; 'I' for Inactive)
REMARK    1  A    between atoms: C1_2  and  C2_3 
ROOT
ATOM      1  C2  UNL d   1       3.251   4.014  -3.665  0.00  0.00    -0.077 A 
ATOM      2  C3  UNL d   1       3.244   5.409  -3.804  0.00  0.00     0.002 A 
ATOM      3  C4  UNL d   1       2.750   6.000  -4.968  0.00  0.00     0.002 A 
ATOM      4  C5  UNL d   1       2.256   5.204  -6.000  0.00  0.00    -0.004 A 
ATOM      5  C6  UNL d   1       2.260   3.816  -5.872  0.00  0.00     0.002 A 
ATOM      6  C7  UNL d   1       2.755   3.223  -4.709  0.00  0.00     0.002 A 
ENDROOT
BRANCH   1   7
ATOM      7  C1  UNL d   1       3.738   3.376  -2.390  0.00  0.00     0.055 C 
ATOM      8  C   UNL d   1       4.505   2.092  -2.671  0.00  0.00     0.019 C 
ENDBRANCH   1   7
TORSDOF 1
ENDMDL
