MODEL 1
REMARK minimizedAffinity 8.72394562
REMARK minimizedRMSD -1
REMARK  1 active torsions:
REMARK  status: ('A' for Active; 'I' for Inactive)
REMARK    1  A    between atoms: C1_2  and  C2_3 
ROOT
ATOM      1  C2  UNL d   1      -3.647  -3.888  -2.852  0.00  0.00    -0.077 A 
ATOM      2  C3  UNL d   1      -4.847  -3.399  -3.385  0.00  0.00     0.002 A 
ATOM      3  C4  UNL d   1      -5.998  -4.189  -3.375  0.00  0.00     0.002 A 
ATOM      4  C5  UNL d   1      -5.961  -5.471  -2.830  0.00  0.00    -0.004 A 
ATOM      5  C6  UNL d   1      -4.771  -5.967  -2.299  0.00  0.00     0.002 A 
ATOM      6  C7  UNL d   1      -3.619  -5.179  -2.309  0.00  0.00     0.002 A 
ENDROOT
BRANCH   1   7
ATOM      7  C1  UNL d   1      -2.417  -3.019  -2.817  0.00  0.00     0.055 C 
ATOM      8  C   UNL d   1      -2.273  -2.317  -1.475  0.00  0.00     0.019 C 
ENDBRANCH   1   7
TORSDOF 1
ENDMDL
