MODEL 1
REMARK minimizedAffinity 8.97270966
REMARK minimizedRMSD -1
REMARK  1 active torsions:
REMARK  status: ('A' for Active; 'I' for Inactive)
REMARK    1  A    between atoms: C1_2  and  C2_3 
ROOT
ATOM      1  C2  UNL d   1      -3.396  -3.842  -2.604  0.00  0.00    -0.077 A 
ATOM      2  C3  UNL d   1      -4.400  -3.095  -3.235  0.00  0.00     0.002 A 
ATOM      3  C4  UNL d   1      -5.696  -3.604  -3.343  0.00  0.00     0.002 A 
ATOM      4  C5  UNL d   1      -6.000  -4.858  -2.819  0.00  0.00    -0.004 A 
ATOM      5  C6  UNL d   1      -5.008  -5.610  -2.191  0.00  0.00     0.002 A 
ATOM      6  C7  UNL d   1      -3.712  -5.104  -2.083  0.00  0.00     0.002 A 
ENDROOT
BRANCH   1   7
ATOM      7  C1  UNL d   1      -2.010  -3.275  -2.442  0.00  0.00     0.055 C 
ATOM      8  C   UNL d   1      -2.006  -2.083  -1.496  0.00  0.00     0.019 C 
ENDBRANCH   1   7
TORSDOF 1
ENDMDL
