MODEL 1
REMARK minimizedAffinity 9.20948029
REMARK minimizedRMSD -1
REMARK  1 active torsions:
REMARK  status: ('A' for Active; 'I' for Inactive)
REMARK    1  A    between atoms: C1_2  and  C2_3 
ROOT
ATOM      1  C2  UNL d   1      -1.322  -2.621  -0.904  0.00  0.00    -0.077 A 
ATOM      2  C3  UNL d   1      -2.579  -2.519  -1.516  0.00  0.00     0.002 A 
ATOM      3  C4  UNL d   1      -2.742  -2.874  -2.857  0.00  0.00     0.002 A 
ATOM      4  C5  UNL d   1      -1.654  -3.337  -3.594  0.00  0.00    -0.004 A 
ATOM      5  C6  UNL d   1      -0.400  -3.440  -2.994  0.00  0.00     0.002 A 
ATOM      6  C7  UNL d   1      -0.234  -3.085  -1.655  0.00  0.00     0.002 A 
ENDROOT
BRANCH   1   7
ATOM      7  C1  UNL d   1      -1.154  -2.285   0.555  0.00  0.00     0.055 C 
ATOM      8  C   UNL d   1      -1.569  -3.450   1.442  0.00  0.00     0.019 C 
ENDBRANCH   1   7
TORSDOF 1
ENDMDL
