MODEL 1
REMARK minimizedAffinity 10.7717066
REMARK minimizedRMSD -1
REMARK  1 active torsions:
REMARK  status: ('A' for Active; 'I' for Inactive)
REMARK    1  A    between atoms: C1_2  and  C2_3 
ROOT
ATOM      1  C2  UNL d   1      -3.611  -3.762  -2.883  0.00  0.00    -0.077 A 
ATOM      2  C3  UNL d   1      -2.883  -3.820  -4.080  0.00  0.00     0.002 A 
ATOM      3  C4  UNL d   1      -1.685  -3.115  -4.212  0.00  0.00     0.002 A 
ATOM      4  C5  UNL d   1      -1.203  -2.351  -3.151  0.00  0.00    -0.004 A 
ATOM      5  C6  UNL d   1      -1.921  -2.286  -1.958  0.00  0.00     0.002 A 
ATOM      6  C7  UNL d   1      -3.119  -2.988  -1.824  0.00  0.00     0.002 A 
ENDROOT
BRANCH   1   7
ATOM      7  C1  UNL d   1      -4.878  -4.561  -2.721  0.00  0.00     0.055 C 
ATOM      8  C   UNL d   1      -6.000  -4.000  -3.583  0.00  0.00     0.019 C 
ENDBRANCH   1   7
TORSDOF 1
ENDMDL
