MODEL 1
REMARK minimizedAffinity 7.52063274
REMARK minimizedRMSD -1
REMARK  1 active torsions:
REMARK  status: ('A' for Active; 'I' for Inactive)
REMARK    1  A    between atoms: C1_2  and  C2_3 
ROOT
ATOM      1  C2  UNL d   1      -2.931  -4.326  -2.602  0.00  0.00    -0.077 A 
ATOM      2  C3  UNL d   1      -3.204  -5.582  -2.042  0.00  0.00     0.002 A 
ATOM      3  C4  UNL d   1      -4.523  -5.995  -1.844  0.00  0.00     0.002 A 
ATOM      4  C5  UNL d   1      -5.578  -5.161  -2.207  0.00  0.00    -0.004 A 
ATOM      5  C6  UNL d   1      -5.317  -3.910  -2.763  0.00  0.00     0.002 A 
ATOM      6  C7  UNL d   1      -4.000  -3.494  -2.961  0.00  0.00     0.002 A 
ENDROOT
BRANCH   1   7
ATOM      7  C1  UNL d   1      -1.510  -3.899  -2.862  0.00  0.00     0.055 C 
ATOM      8  C   UNL d   1      -0.786  -4.898  -3.752  0.00  0.00     0.019 C 
ENDBRANCH   1   7
TORSDOF 1
ENDMDL
