MODEL 1
REMARK minimizedAffinity 17.2273731
REMARK minimizedRMSD -1
REMARK  1 active torsions:
REMARK  status: ('A' for Active; 'I' for Inactive)
REMARK    1  A    between atoms: C1_2  and  C2_3 
ROOT
ATOM      1  C2  UNL d   1      -2.478   5.269  -2.154  0.00  0.00    -0.077 A 
ATOM      2  C3  UNL d   1      -1.390   5.999  -1.658  0.00  0.00     0.002 A 
ATOM      3  C4  UNL d   1      -0.296   5.340  -1.093  0.00  0.00     0.002 A 
ATOM      4  C5  UNL d   1      -0.278   3.949  -1.023  0.00  0.00    -0.004 A 
ATOM      5  C6  UNL d   1      -1.357   3.214  -1.513  0.00  0.00     0.002 A 
ATOM      6  C7  UNL d   1      -2.451   3.870  -2.077  0.00  0.00     0.002 A 
ENDROOT
BRANCH   1   7
ATOM      7  C1  UNL d   1      -3.637   5.975  -2.808  0.00  0.00     0.055 C 
ATOM      8  C   UNL d   1      -3.487   5.999  -4.323  0.00  0.00     0.019 C 
ENDBRANCH   1   7
TORSDOF 1
ENDMDL
