MODEL 1
REMARK minimizedAffinity 13.8035431
REMARK minimizedRMSD -1
REMARK  1 active torsions:
REMARK  status: ('A' for Active; 'I' for Inactive)
REMARK    1  A    between atoms: C1_2  and  C2_3 
ROOT
ATOM      1  C2  UNL d   1      -1.931  -3.698   1.462  0.00  0.00    -0.077 A 
ATOM      2  C3  UNL d   1      -2.636  -4.853   1.098  0.00  0.00     0.002 A 
ATOM      3  C4  UNL d   1      -2.572  -6.000   1.892  0.00  0.00     0.002 A 
ATOM      4  C5  UNL d   1      -1.809  -6.000   3.058  0.00  0.00    -0.004 A 
ATOM      5  C6  UNL d   1      -1.103  -4.856   3.428  0.00  0.00     0.002 A 
ATOM      6  C7  UNL d   1      -1.164  -3.710   2.634  0.00  0.00     0.002 A 
ENDROOT
BRANCH   1   7
ATOM      7  C1  UNL d   1      -2.038  -2.445   0.632  0.00  0.00     0.055 C 
ATOM      8  C   UNL d   1      -0.780  -2.219  -0.194  0.00  0.00     0.019 C 
ENDBRANCH   1   7
TORSDOF 1
ENDMDL
