MODEL 1
REMARK minimizedAffinity 2.10553694
REMARK minimizedRMSD -1
REMARK  0 active torsions:
REMARK  status: ('A' for Active; 'I' for Inactive)
ROOT
ATOM      1  C   UNL d   1      -6.000   3.060  -6.000  0.00  0.00     0.077 C 
ATOM      2  C1  UNL d   1      -5.725   3.520  -4.599  0.00  0.00    -0.074 A 
ATOM      3  C2  UNL d   1      -5.240   4.808  -4.347  0.00  0.00    -0.005 A 
ATOM      4  C3  UNL d   1      -4.998   5.225  -3.038  0.00  0.00     0.006 A 
ATOM      5  C4  UNL d   1      -5.239   4.360  -1.970  0.00  0.00    -0.005 A 
ATOM      6  C5  UNL d   1      -5.725   3.070  -2.202  0.00  0.00    -0.074 A 
ATOM      7  C6  UNL d   1      -5.998   2.131  -1.064  0.00  0.00     0.077 C 
ATOM      8  C7  UNL d   1      -5.972   2.660  -3.519  0.00  0.00    -0.001 A 
ENDROOT
TORSDOF 0
ENDMDL
