MODEL 1
REMARK minimizedAffinity 7.20743704
REMARK minimizedRMSD -1
REMARK  0 active torsions:
REMARK  status: ('A' for Active; 'I' for Inactive)
ROOT
ATOM      1  C   UNL d   1       0.391   5.271  -1.751  0.00  0.00     0.077 C 
ATOM      2  C1  UNL d   1      -0.024   4.763  -0.402  0.00  0.00    -0.074 A 
ATOM      3  C2  UNL d   1       0.370   3.496   0.041  0.00  0.00    -0.005 A 
ATOM      4  C3  UNL d   1      -0.016   3.040   1.302  0.00  0.00     0.006 A 
ATOM      5  C4  UNL d   1      -0.797   3.846   2.131  0.00  0.00    -0.005 A 
ATOM      6  C5  UNL d   1      -1.199   5.116   1.706  0.00  0.00    -0.074 A 
ATOM      7  C6  UNL d   1      -2.031   5.998   2.589  0.00  0.00     0.077 C 
ATOM      8  C7  UNL d   1      -0.802   5.569   0.440  0.00  0.00    -0.001 A 
ENDROOT
TORSDOF 0
ENDMDL
