MODEL 1
REMARK minimizedAffinity 15.87498
REMARK minimizedRMSD -1
REMARK  0 active torsions:
REMARK  status: ('A' for Active; 'I' for Inactive)
ROOT
ATOM      1  C   UNL d   1      -1.091  -0.962  -3.683  0.00  0.00     0.077 C 
ATOM      2  C1  UNL d   1      -1.009  -0.191  -2.399  0.00  0.00    -0.074 A 
ATOM      3  C2  UNL d   1       0.226   0.193  -1.869  0.00  0.00    -0.005 A 
ATOM      4  C3  UNL d   1       0.286   0.918  -0.679  0.00  0.00     0.006 A 
ATOM      5  C4  UNL d   1      -0.888   1.266  -0.008  0.00  0.00    -0.005 A 
ATOM      6  C5  UNL d   1      -2.133   0.891  -0.524  0.00  0.00    -0.074 A 
ATOM      7  C6  UNL d   1      -3.404   1.265   0.178  0.00  0.00     0.077 C 
ATOM      8  C7  UNL d   1      -2.184   0.169  -1.724  0.00  0.00    -0.001 A 
ENDROOT
TORSDOF 0
ENDMDL
