MODEL 1
REMARK minimizedAffinity 9.66975403
REMARK minimizedRMSD -1
REMARK  0 active torsions:
REMARK  status: ('A' for Active; 'I' for Inactive)
ROOT
ATOM      1  C   UNL d   1      -4.677  -5.987  -5.998  0.00  0.00     0.077 C 
ATOM      2  C1  UNL d   1      -4.297  -5.823  -4.556  0.00  0.00    -0.074 A 
ATOM      3  C2  UNL d   1      -2.981  -5.520  -4.190  0.00  0.00    -0.005 A 
ATOM      4  C3  UNL d   1      -2.645  -5.361  -2.845  0.00  0.00     0.006 A 
ATOM      5  C4  UNL d   1      -3.618  -5.503  -1.856  0.00  0.00    -0.005 A 
ATOM      6  C5  UNL d   1      -4.939  -5.805  -2.203  0.00  0.00    -0.074 A 
ATOM      7  C6  UNL d   1      -5.999  -5.951  -1.153  0.00  0.00     0.077 C 
ATOM      8  C7  UNL d   1      -5.271  -5.956  -3.556  0.00  0.00    -0.001 A 
ENDROOT
TORSDOF 0
ENDMDL
