MODEL 1
REMARK minimizedAffinity 4.70625687
REMARK minimizedRMSD -1
REMARK  0 active torsions:
REMARK  status: ('A' for Active; 'I' for Inactive)
ROOT
ATOM      1  C   UNL d   1      -1.541   5.638  -2.722  0.00  0.00     0.077 C 
ATOM      2  C1  UNL d   1      -0.686   5.296  -1.538  0.00  0.00    -0.074 A 
ATOM      3  C2  UNL d   1       0.499   5.993  -1.281  0.00  0.00    -0.005 A 
ATOM      4  C3  UNL d   1       1.278   5.669  -0.171  0.00  0.00     0.006 A 
ATOM      5  C4  UNL d   1       0.882   4.648   0.693  0.00  0.00    -0.005 A 
ATOM      6  C5  UNL d   1      -0.301   3.940   0.453  0.00  0.00    -0.074 A 
ATOM      7  C6  UNL d   1      -0.746   2.846   1.377  0.00  0.00     0.077 C 
ATOM      8  C7  UNL d   1      -1.082   4.276  -0.661  0.00  0.00    -0.001 A 
ENDROOT
TORSDOF 0
ENDMDL
