MODEL 1
REMARK minimizedAffinity 12.7737732
REMARK minimizedRMSD -1
REMARK  0 active torsions:
REMARK  status: ('A' for Active; 'I' for Inactive)
ROOT
ATOM      1  C   UNL d   1       0.473   3.130   0.676  0.00  0.00     0.077 C 
ATOM      2  C1  UNL d   1       0.029   1.871  -0.007  0.00  0.00    -0.074 A 
ATOM      3  C2  UNL d   1       0.961   0.964  -0.521  0.00  0.00    -0.005 A 
ATOM      4  C3  UNL d   1       0.533  -0.207  -1.145  0.00  0.00     0.006 A 
ATOM      5  C4  UNL d   1      -0.829  -0.484  -1.261  0.00  0.00    -0.005 A 
ATOM      6  C5  UNL d   1      -1.777   0.410  -0.752  0.00  0.00    -0.074 A 
ATOM      7  C6  UNL d   1      -3.245   0.123  -0.860  0.00  0.00     0.077 C 
ATOM      8  C7  UNL d   1      -1.339   1.582  -0.121  0.00  0.00    -0.001 A 
ENDROOT
TORSDOF 0
ENDMDL
