MODEL 1
REMARK minimizedAffinity 6.60543919
REMARK minimizedRMSD -1
REMARK  0 active torsions:
REMARK  status: ('A' for Active; 'I' for Inactive)
ROOT
ATOM      1  C   UNL d   1       3.550   5.977   1.523  0.00  0.00     0.077 C 
ATOM      2  C1  UNL d   1       2.442   4.968   1.571  0.00  0.00    -0.074 A 
ATOM      3  C2  UNL d   1       2.235   4.181   2.709  0.00  0.00    -0.005 A 
ATOM      4  C3  UNL d   1       1.194   3.253   2.742  0.00  0.00     0.006 A 
ATOM      5  C4  UNL d   1       0.352   3.102   1.639  0.00  0.00    -0.005 A 
ATOM      6  C5  UNL d   1       0.544   3.880   0.493  0.00  0.00    -0.074 A 
ATOM      7  C6  UNL d   1      -0.358   3.737  -0.696  0.00  0.00     0.077 C 
ATOM      8  C7  UNL d   1       1.587   4.815   0.470  0.00  0.00    -0.001 A 
ENDROOT
TORSDOF 0
ENDMDL
