MODEL 1
REMARK minimizedAffinity 15.2929573
REMARK minimizedRMSD -1
REMARK  0 active torsions:
REMARK  status: ('A' for Active; 'I' for Inactive)
ROOT
ATOM      1  C   UNL d   1       2.089  -1.965   4.175  0.00  0.00     0.077 C 
ATOM      2  C1  UNL d   1       1.501  -0.637   3.801  0.00  0.00    -0.074 A 
ATOM      3  C2  UNL d   1       0.122  -0.414   3.880  0.00  0.00    -0.005 A 
ATOM      4  C3  UNL d   1      -0.410   0.829   3.538  0.00  0.00     0.006 A 
ATOM      5  C4  UNL d   1       0.430   1.860   3.115  0.00  0.00    -0.005 A 
ATOM      6  C5  UNL d   1       1.811   1.656   3.031  0.00  0.00    -0.074 A 
ATOM      7  C6  UNL d   1       2.728   2.757   2.588  0.00  0.00     0.077 C 
ATOM      8  C7  UNL d   1       2.338   0.406   3.383  0.00  0.00    -0.001 A 
ENDROOT
TORSDOF 0
ENDMDL
