MODEL 1
REMARK minimizedAffinity 10.0285387
REMARK minimizedRMSD -1
REMARK  0 active torsions:
REMARK  status: ('A' for Active; 'I' for Inactive)
ROOT
ATOM      1  C   UNL d   1       0.329   1.920   2.983  0.00  0.00     0.077 C 
ATOM      2  C1  UNL d   1       0.222   2.615   1.658  0.00  0.00    -0.074 A 
ATOM      3  C2  UNL d   1       0.587   1.965   0.474  0.00  0.00    -0.005 A 
ATOM      4  C3  UNL d   1       0.473   2.621  -0.751  0.00  0.00     0.006 A 
ATOM      5  C4  UNL d   1      -0.006   3.930  -0.806  0.00  0.00    -0.005 A 
ATOM      6  C5  UNL d   1      -0.377   4.595   0.367  0.00  0.00    -0.074 A 
ATOM      7  C6  UNL d   1      -0.903   5.999   0.325  0.00  0.00     0.077 C 
ATOM      8  C7  UNL d   1      -0.266   3.927   1.594  0.00  0.00    -0.001 A 
ENDROOT
TORSDOF 0
ENDMDL
