MODEL 1
REMARK minimizedAffinity -3.93907714
REMARK minimizedRMSD -1
REMARK  0 active torsions:
REMARK  status: ('A' for Active; 'I' for Inactive)
ROOT
ATOM      1  C   UNL d   1       2.435  -1.936   2.315  0.00  0.00    -0.002 A 
ATOM      2  C1  UNL d   1       1.188  -2.546   2.295  0.00  0.00     0.010 A 
ATOM      3  C2  UNL d   1       0.116  -1.947   1.631  0.00  0.00     0.041 A 
ATOM      4  C3  UNL d   1       0.319  -0.714   0.981  0.00  0.00    -0.075 A 
ATOM      5  S   UNL d   1      -0.848   0.204   0.105  0.00  0.00     0.015 SA
ATOM      6  C4  UNL d   1       0.281   1.426  -0.264  0.00  0.00     0.022 A 
ATOM      7  C5  UNL d   1       1.522   1.157   0.261  0.00  0.00     0.026 A 
ATOM      8  C6  UNL d   1       1.565  -0.081   0.987  0.00  0.00    -0.082 A 
ATOM      9  C7  UNL d   1       2.633  -0.713   1.669  0.00  0.00     0.045 A 
ENDROOT
TORSDOF 0
ENDMDL
