MODEL 1
REMARK minimizedAffinity -4.80366278
REMARK minimizedRMSD -1
REMARK  0 active torsions:
REMARK  status: ('A' for Active; 'I' for Inactive)
ROOT
ATOM      1  C   UNL d   1       3.207  -0.985   1.587  0.00  0.00    -0.002 A 
ATOM      2  C1  UNL d   1       2.281  -1.967   1.913  0.00  0.00     0.010 A 
ATOM      3  C2  UNL d   1       0.951  -1.851   1.506  0.00  0.00     0.041 A 
ATOM      4  C3  UNL d   1       0.562  -0.722   0.758  0.00  0.00    -0.075 A 
ATOM      5  S   UNL d   1      -1.012  -0.369   0.151  0.00  0.00     0.015 SA
ATOM      6  C4  UNL d   1      -0.493   1.092  -0.556  0.00  0.00     0.022 A 
ATOM      7  C5  UNL d   1       0.846   1.321  -0.344  0.00  0.00     0.026 A 
ATOM      8  C6  UNL d   1       1.476   0.278   0.416  0.00  0.00    -0.082 A 
ATOM      9  C7  UNL d   1       2.818   0.133   0.844  0.00  0.00     0.045 A 
ENDROOT
TORSDOF 0
ENDMDL
