MODEL 1
REMARK minimizedAffinity -4.96723747
REMARK minimizedRMSD -1
REMARK  0 active torsions:
REMARK  status: ('A' for Active; 'I' for Inactive)
ROOT
ATOM      1  C   UNL d   1       3.355  -0.642   1.473  0.00  0.00    -0.002 A 
ATOM      2  C1  UNL d   1       2.473  -1.662   1.800  0.00  0.00     0.010 A 
ATOM      3  C2  UNL d   1       1.115  -1.554   1.494  0.00  0.00     0.041 A 
ATOM      4  C3  UNL d   1       0.654  -0.391   0.846  0.00  0.00    -0.075 A 
ATOM      5  S   UNL d   1      -0.966  -0.039   0.372  0.00  0.00     0.015 SA
ATOM      6  C4  UNL d   1      -0.526   1.474  -0.277  0.00  0.00     0.022 A 
ATOM      7  C5  UNL d   1       0.820   1.721  -0.143  0.00  0.00     0.026 A 
ATOM      8  C6  UNL d   1       1.522   0.650   0.505  0.00  0.00    -0.082 A 
ATOM      9  C7  UNL d   1       2.893   0.510   0.830  0.00  0.00     0.045 A 
ENDROOT
TORSDOF 0
ENDMDL
