MODEL 1
REMARK minimizedAffinity -4.41851759
REMARK minimizedRMSD -1
REMARK  0 active torsions:
REMARK  status: ('A' for Active; 'I' for Inactive)
ROOT
ATOM      1  C   UNL d   1       3.171  -0.016   0.387  0.00  0.00    -0.002 A 
ATOM      2  C1  UNL d   1       2.831  -1.326   0.692  0.00  0.00     0.010 A 
ATOM      3  C2  UNL d   1       1.494  -1.728   0.707  0.00  0.00     0.041 A 
ATOM      4  C3  UNL d   1       0.495  -0.783   0.405  0.00  0.00    -0.075 A 
ATOM      5  S   UNL d   1      -1.208  -1.048   0.361  0.00  0.00     0.015 SA
ATOM      6  C4  UNL d   1      -1.525   0.572  -0.065  0.00  0.00     0.022 A 
ATOM      7  C5  UNL d   1      -0.371   1.311  -0.175  0.00  0.00     0.026 A 
ATOM      8  C6  UNL d   1       0.812   0.543   0.094  0.00  0.00    -0.082 A 
ATOM      9  C7  UNL d   1       2.177   0.919   0.088  0.00  0.00     0.045 A 
ENDROOT
TORSDOF 0
ENDMDL
