MODEL 1
REMARK minimizedAffinity -4.3721714
REMARK minimizedRMSD -1
REMARK  0 active torsions:
REMARK  status: ('A' for Active; 'I' for Inactive)
ROOT
ATOM      1  C   UNL d   1       3.531  -0.432   1.148  0.00  0.00    -0.002 A 
ATOM      2  C1  UNL d   1       2.895  -1.464   1.824  0.00  0.00     0.010 A 
ATOM      3  C2  UNL d   1       1.501  -1.545   1.846  0.00  0.00     0.041 A 
ATOM      4  C3  UNL d   1       0.751  -0.563   1.170  0.00  0.00    -0.075 A 
ATOM      5  S   UNL d   1      -0.967  -0.461   1.060  0.00  0.00     0.015 SA
ATOM      6  C4  UNL d   1      -0.896   0.954   0.113  0.00  0.00     0.022 A 
ATOM      7  C5  UNL d   1       0.398   1.353  -0.123  0.00  0.00     0.026 A 
ATOM      8  C6  UNL d   1       1.369   0.484   0.481  0.00  0.00    -0.082 A 
ATOM      9  C7  UNL d   1       2.783   0.539   0.478  0.00  0.00     0.045 A 
ENDROOT
TORSDOF 0
ENDMDL
