MODEL 1
REMARK minimizedAffinity -1.89037967
REMARK minimizedRMSD -1
REMARK  0 active torsions:
REMARK  status: ('A' for Active; 'I' for Inactive)
ROOT
ATOM      1  C   UNL d   1       3.296  -0.286   0.794  0.00  0.00    -0.002 A 
ATOM      2  C1  UNL d   1       3.111  -1.459   0.075  0.00  0.00     0.010 A 
ATOM      3  C2  UNL d   1       1.863  -1.769  -0.469  0.00  0.00     0.041 A 
ATOM      4  C3  UNL d   1       0.795  -0.871  -0.279  0.00  0.00    -0.075 A 
ATOM      5  S   UNL d   1      -0.822  -1.041  -0.854  0.00  0.00     0.015 SA
ATOM      6  C4  UNL d   1      -1.304   0.439  -0.161  0.00  0.00     0.022 A 
ATOM      7  C5  UNL d   1      -0.270   1.061   0.498  0.00  0.00     0.026 A 
ATOM      8  C6  UNL d   1       0.957   0.317   0.440  0.00  0.00    -0.082 A 
ATOM      9  C7  UNL d   1       2.234   0.602   0.981  0.00  0.00     0.045 A 
ENDROOT
TORSDOF 0
ENDMDL
