MODEL 1
REMARK minimizedAffinity -1.92276669
REMARK minimizedRMSD -1
REMARK  0 active torsions:
REMARK  status: ('A' for Active; 'I' for Inactive)
ROOT
ATOM      1  C   UNL d   1       2.089   1.555   0.152  0.00  0.00    -0.002 A 
ATOM      2  C1  UNL d   1       2.676   0.406   0.661  0.00  0.00     0.010 A 
ATOM      3  C2  UNL d   1       1.919  -0.751   0.859  0.00  0.00     0.041 A 
ATOM      4  C3  UNL d   1       0.549  -0.732   0.533  0.00  0.00    -0.075 A 
ATOM      5  S   UNL d   1      -0.574  -2.031   0.691  0.00  0.00     0.015 SA
ATOM      6  C4  UNL d   1      -1.860  -1.090   0.086  0.00  0.00     0.022 A 
ATOM      7  C5  UNL d   1      -1.460   0.186  -0.233  0.00  0.00     0.026 A 
ATOM      8  C6  UNL d   1      -0.065   0.413   0.018  0.00  0.00    -0.082 A 
ATOM      9  C7  UNL d   1       0.729   1.569  -0.170  0.00  0.00     0.045 A 
ENDROOT
TORSDOF 0
ENDMDL
