MODEL 1
REMARK minimizedAffinity 0.300745428
REMARK minimizedRMSD -1
REMARK  0 active torsions:
REMARK  status: ('A' for Active; 'I' for Inactive)
ROOT
ATOM      1  C   UNL d   1       1.185  -0.977   1.918  0.00  0.00     0.124 A 
ATOM      2  C1  UNL d   1      -0.198  -1.070   1.985  0.00  0.00     0.062 A 
ATOM      3  C2  UNL d   1      -0.980  -0.674   0.904  0.00  0.00     0.162 A 
ATOM      4  C3  UNL d   1      -0.381  -0.182  -0.255  0.00  0.00    -0.034 A 
ATOM      5  C4  UNL d   1       1.011  -0.091  -0.316  0.00  0.00     0.162 A 
ATOM      6  C5  UNL d   1       1.788  -0.487   0.768  0.00  0.00     0.062 A 
ATOM      7  F   UNL d   1       3.124  -0.397   0.700  0.00  0.00    -0.097 F 
ATOM      8  F1  UNL d   1       1.620   0.378  -1.415  0.00  0.00    -0.096 F 
ATOM      9  I   UNL d   1      -1.546   0.411  -1.874  0.00  0.00    -0.060 I 
ATOM     10  F2  UNL d   1      -2.314  -0.775   0.997  0.00  0.00    -0.096 F 
ATOM     11  F3  UNL d   1      -0.783  -1.541   3.096  0.00  0.00    -0.097 F 
ATOM     12  F4  UNL d   1       1.935  -1.357   2.960  0.00  0.00    -0.092 F 
ENDROOT
TORSDOF 0
ENDMDL
