MODEL 1
REMARK minimizedAffinity 2.67328143
REMARK minimizedRMSD -1
REMARK  0 active torsions:
REMARK  status: ('A' for Active; 'I' for Inactive)
ROOT
ATOM      1  C   UNL d   1       2.150  -2.742   0.096  0.00  0.00     0.124 A 
ATOM      2  C1  UNL d   1       2.196  -1.362  -0.048  0.00  0.00     0.062 A 
ATOM      3  C2  UNL d   1       1.279  -0.558   0.622  0.00  0.00     0.162 A 
ATOM      4  C3  UNL d   1       0.308  -1.131   1.443  0.00  0.00    -0.034 A 
ATOM      5  C4  UNL d   1       0.268  -2.519   1.583  0.00  0.00     0.162 A 
ATOM      6  C5  UNL d   1       1.186  -3.319   0.911  0.00  0.00     0.062 A 
ATOM      7  F   UNL d   1       1.140  -4.652   1.051  0.00  0.00    -0.097 F 
ATOM      8  F1  UNL d   1      -0.653  -3.103   2.365  0.00  0.00    -0.096 F 
ATOM      9  I   UNL d   1      -1.065   0.069   2.447  0.00  0.00    -0.060 I 
ATOM     10  F2  UNL d   1       1.347   0.773   0.464  0.00  0.00    -0.096 F 
ATOM     11  F3  UNL d   1       3.125  -0.803  -0.836  0.00  0.00    -0.097 F 
ATOM     12  F4  UNL d   1       3.032  -3.514  -0.551  0.00  0.00    -0.092 F 
ENDROOT
TORSDOF 0
ENDMDL
