MODEL 1
REMARK minimizedAffinity 8.00126934
REMARK minimizedRMSD -1
REMARK  0 active torsions:
REMARK  status: ('A' for Active; 'I' for Inactive)
ROOT
ATOM      1  C   UNL d   1       1.115  -2.039   0.880  0.00  0.00     0.124 A 
ATOM      2  C1  UNL d   1       0.359  -2.551   1.925  0.00  0.00     0.062 A 
ATOM      3  C2  UNL d   1      -0.674  -1.797   2.476  0.00  0.00     0.162 A 
ATOM      4  C3  UNL d   1      -0.958  -0.524   1.981  0.00  0.00    -0.034 A 
ATOM      5  C4  UNL d   1      -0.192  -0.016   0.930  0.00  0.00     0.162 A 
ATOM      6  C5  UNL d   1       0.839  -0.773   0.383  0.00  0.00     0.062 A 
ATOM      7  F   UNL d   1       1.569  -0.277  -0.627  0.00  0.00    -0.097 F 
ATOM      8  F1  UNL d   1      -0.437   1.204   0.431  0.00  0.00    -0.096 F 
ATOM      9  I   UNL d   1      -2.501   0.605   2.802  0.00  0.00    -0.060 I 
ATOM     10  F2  UNL d   1      -1.389  -2.317   3.485  0.00  0.00    -0.096 F 
ATOM     11  F3  UNL d   1       0.624  -3.773   2.407  0.00  0.00    -0.097 F 
ATOM     12  F4  UNL d   1       2.109  -2.766   0.353  0.00  0.00    -0.092 F 
ENDROOT
TORSDOF 0
ENDMDL
