MODEL 1
REMARK minimizedAffinity 3.68808651
REMARK minimizedRMSD -1
REMARK  0 active torsions:
REMARK  status: ('A' for Active; 'I' for Inactive)
ROOT
ATOM      1  C   UNL d   1      -1.384  -0.500   1.461  0.00  0.00     0.124 A 
ATOM      2  C1  UNL d   1      -0.819  -0.789   0.227  0.00  0.00     0.062 A 
ATOM      3  C2  UNL d   1       0.243  -1.683   0.135  0.00  0.00     0.162 A 
ATOM      4  C3  UNL d   1       0.749  -2.296   1.282  0.00  0.00    -0.034 A 
ATOM      5  C4  UNL d   1       0.176  -1.999   2.520  0.00  0.00     0.162 A 
ATOM      6  C5  UNL d   1      -0.886  -1.105   2.607  0.00  0.00     0.062 A 
ATOM      7  F   UNL d   1      -1.430  -0.827   3.800  0.00  0.00    -0.097 F 
ATOM      8  F1  UNL d   1       0.637  -2.571   3.643  0.00  0.00    -0.096 F 
ATOM      9  I   UNL d   1       2.338  -3.633   1.149  0.00  0.00    -0.060 I 
ATOM     10  F2  UNL d   1       0.769  -1.944  -1.071  0.00  0.00    -0.096 F 
ATOM     11  F3  UNL d   1      -1.298  -0.205  -0.881  0.00  0.00    -0.097 F 
ATOM     12  F4  UNL d   1      -2.406   0.362   1.547  0.00  0.00    -0.092 F 
ENDROOT
TORSDOF 0
ENDMDL
