MODEL 1
REMARK minimizedAffinity 0.556561768
REMARK minimizedRMSD -1
REMARK  0 active torsions:
REMARK  status: ('A' for Active; 'I' for Inactive)
ROOT
ATOM      1  C   UNL d   1      -0.464  -0.231   1.843  0.00  0.00     0.124 A 
ATOM      2  C1  UNL d   1      -1.017  -0.780   0.695  0.00  0.00     0.062 A 
ATOM      3  C2  UNL d   1      -0.248  -0.915  -0.457  0.00  0.00     0.162 A 
ATOM      4  C3  UNL d   1       1.084  -0.501  -0.467  0.00  0.00    -0.034 A 
ATOM      5  C4  UNL d   1       1.633   0.051   0.692  0.00  0.00     0.162 A 
ATOM      6  C5  UNL d   1       0.860   0.184   1.841  0.00  0.00     0.062 A 
ATOM      7  F   UNL d   1       1.397   0.714   2.949  0.00  0.00    -0.097 F 
ATOM      8  F1  UNL d   1       2.911   0.459   0.718  0.00  0.00    -0.096 F 
ATOM      9  I   UNL d   1       2.237  -0.702  -2.187  0.00  0.00    -0.060 I 
ATOM     10  F2  UNL d   1      -0.809  -1.449  -1.552  0.00  0.00    -0.096 F 
ATOM     11  F3  UNL d   1      -2.297  -1.181   0.694  0.00  0.00    -0.097 F 
ATOM     12  F4  UNL d   1      -1.207  -0.101   2.950  0.00  0.00    -0.092 F 
ENDROOT
TORSDOF 0
ENDMDL
