MODEL 1
REMARK minimizedAffinity -6.29624557
REMARK minimizedRMSD -1
REMARK  3 active torsions:
REMARK  status: ('A' for Active; 'I' for Inactive)
REMARK    1  A    between atoms: C3'_2  and  C2'_3 
REMARK    2  A    between atoms: C2'_3  and  C1'_4 
REMARK    3  A    between atoms: C1'_4  and  C1_5 
ROOT
ATOM      1  C1  N4B d   1       0.594  -0.028  -0.975  0.00  0.00    -0.075 A 
ATOM      2  C2  N4B d   1       0.054  -0.250   0.311  0.00  0.00     0.002 A 
ATOM      3  C3  N4B d   1      -0.073  -1.531   0.790  0.00  0.00     0.002 A 
ATOM      4  C4  N4B d   1       0.314  -2.601  -0.002  0.00  0.00    -0.004 A 
ATOM      5  C5  N4B d   1       0.858  -2.377  -1.232  0.00  0.00     0.002 A 
ATOM      6  C6  N4B d   1       0.995  -1.095  -1.726  0.00  0.00     0.002 A 
ENDROOT
BRANCH   1   7
ATOM      7  C1' N4B d   1       0.672   1.349  -1.576  0.00  0.00     0.057 C 
BRANCH   7   8
ATOM      8  C2' N4B d   1       1.958   2.026  -1.111  0.00  0.00     0.009 C 
BRANCH   8   9
ATOM      9  C3' N4B d   1       1.694   3.066  -0.035  0.00  0.00     0.004 C 
ATOM     10  C4' N4B d   1       0.251   3.463   0.048  0.00  0.00     0.003 C 
ENDBRANCH   8   9
ENDBRANCH   7   8
ENDBRANCH   1   7
TORSDOF 3
ENDMDL
