MODEL 1
REMARK minimizedAffinity -1.76992321
REMARK minimizedRMSD -1
REMARK  3 active torsions:
REMARK  status: ('A' for Active; 'I' for Inactive)
REMARK    1  A    between atoms: C3'_2  and  C2'_3 
REMARK    2  A    between atoms: C2'_3  and  C1'_4 
REMARK    3  A    between atoms: C1'_4  and  C1_5 
ROOT
ATOM      1  C1  N4B d   1       0.825   1.575  -0.283  0.00  0.00    -0.075 A 
ATOM      2  C2  N4B d   1       0.269   2.603   0.510  0.00  0.00     0.002 A 
ATOM      3  C3  N4B d   1       1.084   3.561   1.061  0.00  0.00     0.002 A 
ATOM      4  C4  N4B d   1       2.453   3.502   0.850  0.00  0.00    -0.004 A 
ATOM      5  C5  N4B d   1       2.979   2.520   0.062  0.00  0.00     0.002 A 
ATOM      6  C6  N4B d   1       2.172   1.553  -0.502  0.00  0.00     0.002 A 
ENDROOT
BRANCH   1   7
ATOM      7  C1' N4B d   1      -0.015   0.457  -0.836  0.00  0.00     0.057 C 
BRANCH   7   8
ATOM      8  C2' N4B d   1      -1.198   0.211   0.096  0.00  0.00     0.009 C 
BRANCH   8   9
ATOM      9  C3' N4B d   1      -0.894  -0.860   1.129  0.00  0.00     0.004 C 
ATOM     10  C4' N4B d   1      -1.434  -2.206   0.747  0.00  0.00     0.003 C 
ENDBRANCH   8   9
ENDBRANCH   7   8
ENDBRANCH   1   7
TORSDOF 3
ENDMDL
