MODEL 1
REMARK minimizedAffinity -6.81873369
REMARK minimizedRMSD -1
REMARK  3 active torsions:
REMARK  status: ('A' for Active; 'I' for Inactive)
REMARK    1  A    between atoms: C3'_2  and  C2'_3 
REMARK    2  A    between atoms: C2'_3  and  C1'_4 
REMARK    3  A    between atoms: C1'_4  and  C1_5 
ROOT
ATOM      1  C1  N4B d   1      -0.021  -1.295   0.099  0.00  0.00    -0.075 A 
ATOM      2  C2  N4B d   1      -0.592  -2.432   0.711  0.00  0.00     0.002 A 
ATOM      3  C3  N4B d   1      -0.471  -3.665   0.118  0.00  0.00     0.002 A 
ATOM      4  C4  N4B d   1       0.198  -3.781  -1.092  0.00  0.00    -0.004 A 
ATOM      5  C5  N4B d   1       0.768  -2.682  -1.664  0.00  0.00     0.002 A 
ATOM      6  C6  N4B d   1       0.658  -1.437  -1.077  0.00  0.00     0.002 A 
ENDROOT
BRANCH   1   7
ATOM      7  C1' N4B d   1      -0.201   0.087   0.666  0.00  0.00     0.057 C 
BRANCH   7   8
ATOM      8  C2' N4B d   1       0.349   1.110  -0.324  0.00  0.00     0.009 C 
BRANCH   8   9
ATOM      9  C3' N4B d   1       0.375   2.511   0.263  0.00  0.00     0.004 C 
ATOM     10  C4' N4B d   1       1.764   2.988   0.564  0.00  0.00     0.003 C 
ENDBRANCH   8   9
ENDBRANCH   7   8
ENDBRANCH   1   7
TORSDOF 3
ENDMDL
