MODEL 1
REMARK minimizedAffinity -5.38334465
REMARK minimizedRMSD -1
REMARK  3 active torsions:
REMARK  status: ('A' for Active; 'I' for Inactive)
REMARK    1  A    between atoms: C3'_2  and  C2'_3 
REMARK    2  A    between atoms: C2'_3  and  C1'_4 
REMARK    3  A    between atoms: C1'_4  and  C1_5 
ROOT
ATOM      1  C1  N4B d   1       0.132  -2.038  -0.163  0.00  0.00    -0.075 A 
ATOM      2  C2  N4B d   1       0.795  -1.206  -1.092  0.00  0.00     0.002 A 
ATOM      3  C3  N4B d   1       0.628   0.156  -1.035  0.00  0.00     0.002 A 
ATOM      4  C4  N4B d   1      -0.207   0.705  -0.074  0.00  0.00    -0.004 A 
ATOM      5  C5  N4B d   1      -0.824  -0.104   0.835  0.00  0.00     0.002 A 
ATOM      6  C6  N4B d   1      -0.662  -1.474   0.792  0.00  0.00     0.002 A 
ENDROOT
BRANCH   1   7
ATOM      7  C1' N4B d   1       0.216  -3.538  -0.240  0.00  0.00     0.057 C 
BRANCH   7   8
ATOM      8  C2' N4B d   1       0.327  -3.959  -1.702  0.00  0.00     0.009 C 
BRANCH   8   9
ATOM      9  C3' N4B d   1      -0.975  -4.543  -2.226  0.00  0.00     0.004 C 
ATOM     10  C4' N4B d   1      -1.524  -3.781  -3.395  0.00  0.00     0.003 C 
ENDBRANCH   8   9
ENDBRANCH   7   8
ENDBRANCH   1   7
TORSDOF 3
ENDMDL
