MODEL 1
REMARK minimizedAffinity -6.24170971
REMARK minimizedRMSD -1
REMARK  3 active torsions:
REMARK  status: ('A' for Active; 'I' for Inactive)
REMARK    1  A    between atoms: C3'_2  and  C2'_3 
REMARK    2  A    between atoms: C2'_3  and  C1'_4 
REMARK    3  A    between atoms: C1'_4  and  C1_5 
ROOT
ATOM      1  C1  N4B d   1      -0.401  -1.738  -0.169  0.00  0.00    -0.075 A 
ATOM      2  C2  N4B d   1       0.201  -1.886  -1.438  0.00  0.00     0.002 A 
ATOM      3  C3  N4B d   1       0.597  -3.129  -1.868  0.00  0.00     0.002 A 
ATOM      4  C4  N4B d   1       0.420  -4.229  -1.043  0.00  0.00    -0.004 A 
ATOM      5  C5  N4B d   1      -0.185  -4.081   0.170  0.00  0.00     0.002 A 
ATOM      6  C6  N4B d   1      -0.592  -2.839   0.614  0.00  0.00     0.002 A 
ENDROOT
BRANCH   1   7
ATOM      7  C1' N4B d   1      -0.772  -0.388   0.381  0.00  0.00     0.057 C 
BRANCH   7   8
ATOM      8  C2' N4B d   1       0.478   0.484   0.456  0.00  0.00     0.009 C 
BRANCH   8   9
ATOM      9  C3' N4B d   1       0.355   1.729  -0.406  0.00  0.00     0.004 C 
ATOM     10  C4' N4B d   1       1.588   2.582  -0.372  0.00  0.00     0.003 C 
ENDBRANCH   8   9
ENDBRANCH   7   8
ENDBRANCH   1   7
TORSDOF 3
ENDMDL
