MODEL 1
REMARK minimizedAffinity -6.60934114
REMARK minimizedRMSD -1
REMARK  3 active torsions:
REMARK  status: ('A' for Active; 'I' for Inactive)
REMARK    1  A    between atoms: C3'_2  and  C2'_3 
REMARK    2  A    between atoms: C2'_3  and  C1'_4 
REMARK    3  A    between atoms: C1'_4  and  C1_5 
ROOT
ATOM      1  C1  N4B d   1       0.303  -1.328  -0.103  0.00  0.00    -0.075 A 
ATOM      2  C2  N4B d   1       0.295  -2.435   0.774  0.00  0.00     0.002 A 
ATOM      3  C3  N4B d   1       0.339  -3.712   0.269  0.00  0.00     0.002 A 
ATOM      4  C4  N4B d   1       0.371  -3.905  -1.104  0.00  0.00    -0.004 A 
ATOM      5  C5  N4B d   1       0.404  -2.830  -1.943  0.00  0.00     0.002 A 
ATOM      6  C6  N4B d   1       0.365  -1.542  -1.450  0.00  0.00     0.002 A 
ENDROOT
BRANCH   1   7
ATOM      7  C1' N4B d   1       0.171   0.083   0.399  0.00  0.00     0.057 C 
BRANCH   7   8
ATOM      8  C2' N4B d   1       0.322   1.048  -0.773  0.00  0.00     0.009 C 
BRANCH   8   9
ATOM      9  C3' N4B d   1       1.418   2.071  -0.530  0.00  0.00     0.004 C 
ATOM     10  C4' N4B d   1       1.005   3.148   0.428  0.00  0.00     0.003 C 
ENDBRANCH   8   9
ENDBRANCH   7   8
ENDBRANCH   1   7
TORSDOF 3
ENDMDL
