MODEL 1
REMARK minimizedAffinity -5.93055582
REMARK minimizedRMSD -1
REMARK  3 active torsions:
REMARK  status: ('A' for Active; 'I' for Inactive)
REMARK    1  A    between atoms: C3'_2  and  C2'_3 
REMARK    2  A    between atoms: C2'_3  and  C1'_4 
REMARK    3  A    between atoms: C1'_4  and  C1_5 
ROOT
ATOM      1  C1  N4B d   1       0.011   0.036  -0.101  0.00  0.00    -0.075 A 
ATOM      2  C2  N4B d   1      -1.020  -0.442   0.737  0.00  0.00     0.002 A 
ATOM      3  C3  N4B d   1      -1.143  -1.789   0.974  0.00  0.00     0.002 A 
ATOM      4  C4  N4B d   1      -0.262  -2.675   0.371  0.00  0.00    -0.004 A 
ATOM      5  C5  N4B d   1       0.747  -2.203  -0.416  0.00  0.00     0.002 A 
ATOM      6  C6  N4B d   1       0.885  -0.851  -0.660  0.00  0.00     0.002 A 
ENDROOT
BRANCH   1   7
ATOM      7  C1' N4B d   1       0.133   1.492  -0.458  0.00  0.00     0.057 C 
BRANCH   7   8
ATOM      8  C2' N4B d   1       1.524   1.987  -0.075  0.00  0.00     0.009 C 
BRANCH   8   9
ATOM      9  C3' N4B d   1       1.466   3.130   0.923  0.00  0.00     0.004 C 
ATOM     10  C4' N4B d   1       0.230   3.967   0.777  0.00  0.00     0.003 C 
ENDBRANCH   8   9
ENDBRANCH   7   8
ENDBRANCH   1   7
TORSDOF 3
ENDMDL
