MODEL 1
REMARK minimizedAffinity -5.70294619
REMARK minimizedRMSD -1
REMARK  3 active torsions:
REMARK  status: ('A' for Active; 'I' for Inactive)
REMARK    1  A    between atoms: C3'_2  and  C2'_3 
REMARK    2  A    between atoms: C2'_3  and  C1'_4 
REMARK    3  A    between atoms: C1'_4  and  C1_5 
ROOT
ATOM      1  C1  N4B d   1       0.098  -1.143  -0.412  0.00  0.00    -0.075 A 
ATOM      2  C2  N4B d   1      -0.326  -2.358   0.169  0.00  0.00     0.002 A 
ATOM      3  C3  N4B d   1      -0.315  -3.514  -0.572  0.00  0.00     0.002 A 
ATOM      4  C4  N4B d   1       0.098  -3.476  -1.896  0.00  0.00    -0.004 A 
ATOM      5  C5  N4B d   1       0.531  -2.303  -2.441  0.00  0.00     0.002 A 
ATOM      6  C6  N4B d   1       0.528  -1.135  -1.707  0.00  0.00     0.002 A 
ENDROOT
BRANCH   1   7
ATOM      7  C1' N4B d   1       0.022   0.162   0.333  0.00  0.00     0.057 C 
BRANCH   7   8
ATOM      8  C2' N4B d   1       0.136   1.313  -0.662  0.00  0.00     0.009 C 
BRANCH   8   9
ATOM      9  C3' N4B d   1       0.409   2.638   0.030  0.00  0.00     0.004 C 
ATOM     10  C4' N4B d   1       1.772   3.182  -0.274  0.00  0.00     0.003 C 
ENDBRANCH   8   9
ENDBRANCH   7   8
ENDBRANCH   1   7
TORSDOF 3
ENDMDL
