MODEL 1
REMARK minimizedAffinity -5.30605078
REMARK minimizedRMSD -1
REMARK  3 active torsions:
REMARK  status: ('A' for Active; 'I' for Inactive)
REMARK    1  A    between atoms: C3'_2  and  C2'_3 
REMARK    2  A    between atoms: C2'_3  and  C1'_4 
REMARK    3  A    between atoms: C1'_4  and  C1_5 
ROOT
ATOM      1  C1  N4B d   1       0.016  -1.323  -0.563  0.00  0.00    -0.075 A 
ATOM      2  C2  N4B d   1      -0.436  -2.529   0.016  0.00  0.00     0.002 A 
ATOM      3  C3  N4B d   1      -0.477  -3.678  -0.734  0.00  0.00     0.002 A 
ATOM      4  C4  N4B d   1      -0.091  -3.642  -2.066  0.00  0.00    -0.004 A 
ATOM      5  C5  N4B d   1       0.368  -2.479  -2.611  0.00  0.00     0.002 A 
ATOM      6  C6  N4B d   1       0.419  -1.317  -1.867  0.00  0.00     0.002 A 
ENDROOT
BRANCH   1   7
ATOM      7  C1' N4B d   1      -0.003  -0.022   0.193  0.00  0.00     0.057 C 
BRANCH   7   8
ATOM      8  C2' N4B d   1       0.150   1.132  -0.793  0.00  0.00     0.009 C 
BRANCH   8   9
ATOM      9  C3' N4B d   1       1.233   2.107  -0.362  0.00  0.00     0.004 C 
ATOM     10  C4' N4B d   1       0.742   3.119   0.630  0.00  0.00     0.003 C 
ENDBRANCH   8   9
ENDBRANCH   7   8
ENDBRANCH   1   7
TORSDOF 3
ENDMDL
