MODEL 1
REMARK minimizedAffinity -0.628391206
REMARK minimizedRMSD -1
REMARK  0 active torsions:
REMARK  status: ('A' for Active; 'I' for Inactive)
ROOT
ATOM      1  C   UNL d   1       1.859  -0.867   2.468  0.00  0.00     0.172 C 
ATOM      2  N   UNL d   1       1.882  -1.991   3.374  0.00  0.00    -0.070 N 
ATOM      3  C1  UNL d   1       2.751  -2.156   4.420  0.00  0.00    -0.004 A 
ATOM      4  C2  UNL d   1       2.447  -3.351   5.037  0.00  0.00    -0.047 A 
ATOM      5  C3  UNL d   1       1.359  -3.924   4.337  0.00  0.00    -0.047 A 
ATOM      6  C4  UNL d   1       1.030  -3.062   3.312  0.00  0.00    -0.004 A 
ENDROOT
TORSDOF 0
ENDMDL
