MODEL 1
REMARK minimizedAffinity -2.62452626
REMARK minimizedRMSD -1
REMARK  0 active torsions:
REMARK  status: ('A' for Active; 'I' for Inactive)
ROOT
ATOM      1  C   UNL d   1       1.699  -5.989  -5.281  0.00  0.00     0.172 C 
ATOM      2  N   UNL d   1       2.272  -5.992  -3.955  0.00  0.00    -0.070 N 
ATOM      3  C1  UNL d   1       3.610  -5.997  -3.663  0.00  0.00    -0.004 A 
ATOM      4  C2  UNL d   1       3.743  -5.998  -2.292  0.00  0.00    -0.047 A 
ATOM      5  C3  UNL d   1       2.439  -5.994  -1.740  0.00  0.00    -0.047 A 
ATOM      6  C4  UNL d   1       1.548  -5.990  -2.792  0.00  0.00    -0.004 A 
ENDROOT
TORSDOF 0
ENDMDL
