MODEL 1
REMARK minimizedAffinity 4.07013321
REMARK minimizedRMSD -1
REMARK  0 active torsions:
REMARK  status: ('A' for Active; 'I' for Inactive)
ROOT
ATOM      1  C   UNL d   1      -3.689  -0.429  -2.994  0.00  0.00     0.172 C 
ATOM      2  N   UNL d   1      -4.342  -1.591  -2.439  0.00  0.00    -0.070 N 
ATOM      3  C1  UNL d   1      -5.665  -1.677  -2.099  0.00  0.00    -0.004 A 
ATOM      4  C2  UNL d   1      -5.894  -2.944  -1.609  0.00  0.00    -0.047 A 
ATOM      5  C3  UNL d   1      -4.665  -3.644  -1.655  0.00  0.00    -0.047 A 
ATOM      6  C4  UNL d   1      -3.721  -2.783  -2.173  0.00  0.00    -0.004 A 
ENDROOT
TORSDOF 0
ENDMDL
