MODEL 1
REMARK minimizedAffinity 5.95271492
REMARK minimizedRMSD -1
REMARK  0 active torsions:
REMARK  status: ('A' for Active; 'I' for Inactive)
ROOT
ATOM      1  C   UNL d   1       1.859  -4.321   3.073  0.00  0.00     0.172 C 
ATOM      2  N   UNL d   1       1.962  -2.885   2.956  0.00  0.00    -0.070 N 
ATOM      3  C1  UNL d   1       1.413  -2.124   1.959  0.00  0.00    -0.004 A 
ATOM      4  C2  UNL d   1       1.737  -0.807   2.206  0.00  0.00    -0.047 A 
ATOM      5  C3  UNL d   1       2.508  -0.776   3.392  0.00  0.00    -0.047 A 
ATOM      6  C4  UNL d   1       2.632  -2.076   3.835  0.00  0.00    -0.004 A 
ENDROOT
TORSDOF 0
ENDMDL
