MODEL 1
REMARK minimizedAffinity -0.695127428
REMARK minimizedRMSD -1
REMARK  0 active torsions:
REMARK  status: ('A' for Active; 'I' for Inactive)
ROOT
ATOM      1  C   UNL d   1       1.637  -1.868   2.649  0.00  0.00     0.172 C 
ATOM      2  N   UNL d   1       2.537  -2.647   3.466  0.00  0.00    -0.070 N 
ATOM      3  C1  UNL d   1       3.809  -2.284   3.821  0.00  0.00    -0.004 A 
ATOM      4  C2  UNL d   1       4.334  -3.293   4.600  0.00  0.00    -0.047 A 
ATOM      5  C3  UNL d   1       3.344  -4.297   4.715  0.00  0.00    -0.047 A 
ATOM      6  C4  UNL d   1       2.242  -3.872   4.004  0.00  0.00    -0.004 A 
ENDROOT
TORSDOF 0
ENDMDL
