MODEL 1
REMARK minimizedAffinity 6.15191841
REMARK minimizedRMSD -1
REMARK  0 active torsions:
REMARK  status: ('A' for Active; 'I' for Inactive)
ROOT
ATOM      1  C   UNL d   1      -2.811   2.587   0.376  0.00  0.00     0.172 C 
ATOM      2  N   UNL d   1      -4.104   3.216   0.513  0.00  0.00    -0.070 N 
ATOM      3  C1  UNL d   1      -4.796   3.370   1.685  0.00  0.00    -0.004 A 
ATOM      4  C2  UNL d   1      -5.979   4.015   1.395  0.00  0.00    -0.047 A 
ATOM      5  C3  UNL d   1      -5.999   4.257   0.001  0.00  0.00    -0.047 A 
ATOM      6  C4  UNL d   1      -4.826   3.752  -0.520  0.00  0.00    -0.004 A 
ENDROOT
TORSDOF 0
ENDMDL
