MODEL 1
REMARK minimizedAffinity 6.01669836
REMARK minimizedRMSD -1
REMARK  0 active torsions:
REMARK  status: ('A' for Active; 'I' for Inactive)
ROOT
ATOM      1  C   UNL d   1       4.504  -0.323  -2.902  0.00  0.00     0.172 C 
ATOM      2  N   UNL d   1       4.936   0.360  -4.098  0.00  0.00    -0.070 N 
ATOM      3  C1  UNL d   1       4.508   1.593  -4.513  0.00  0.00    -0.004 A 
ATOM      4  C2  UNL d   1       5.153   1.889  -5.694  0.00  0.00    -0.047 A 
ATOM      5  C3  UNL d   1       5.999   0.797  -6.000  0.00  0.00    -0.047 A 
ATOM      6  C4  UNL d   1       5.845  -0.136  -4.996  0.00  0.00    -0.004 A 
ENDROOT
TORSDOF 0
ENDMDL
