MODEL 1
REMARK minimizedAffinity -2.03152156
REMARK minimizedRMSD -1
REMARK  0 active torsions:
REMARK  status: ('A' for Active; 'I' for Inactive)
ROOT
ATOM      1  O1  BZF d   1      -1.869   0.272   1.229  0.00  0.00    -0.204 OA
ATOM      2  C2  BZF d   1      -2.407  -0.440   2.284  0.00  0.00     0.174 A 
ATOM      3  C3  BZF d   1      -1.835  -1.658   2.379  0.00  0.00    -0.012 A 
ATOM      4  C3A BZF d   1      -0.816  -1.675   1.376  0.00  0.00    -0.107 A 
ATOM      5  C4  BZF d   1       0.106  -2.606   0.990  0.00  0.00     0.055 A 
ATOM      6  C5  BZF d   1       0.909  -2.338  -0.074  0.00  0.00    -0.016 A 
ATOM      7  C6  BZF d   1       0.814  -1.155  -0.776  0.00  0.00     0.022 A 
ATOM      8  C7  BZF d   1      -0.081  -0.199  -0.427  0.00  0.00     0.029 A 
ATOM      9  C7A BZF d   1      -0.872  -0.452   0.667  0.00  0.00     0.058 A 
ENDROOT
TORSDOF 0
ENDMDL
