MODEL 1
REMARK minimizedAffinity -5.85631609
REMARK minimizedRMSD -1
REMARK  0 active torsions:
REMARK  status: ('A' for Active; 'I' for Inactive)
ROOT
ATOM      1  O1  BZF d   1      -0.254   1.288   0.818  0.00  0.00    -0.204 OA
ATOM      2  C2  BZF d   1       0.842   0.756   0.166  0.00  0.00     0.174 A 
ATOM      3  C3  BZF d   1       0.723  -0.581   0.043  0.00  0.00    -0.012 A 
ATOM      4  C3A BZF d   1      -0.569  -0.894   0.574  0.00  0.00    -0.107 A 
ATOM      5  C4  BZF d   1      -1.269  -2.058   0.715  0.00  0.00     0.055 A 
ATOM      6  C5  BZF d   1      -2.475  -2.032   1.340  0.00  0.00    -0.016 A 
ATOM      7  C6  BZF d   1      -3.008  -0.862   1.841  0.00  0.00     0.022 A 
ATOM      8  C7  BZF d   1      -2.353   0.318   1.720  0.00  0.00     0.029 A 
ATOM      9  C7A BZF d   1      -1.149   0.300   1.060  0.00  0.00     0.058 A 
ENDROOT
TORSDOF 0
ENDMDL
