MODEL 1
REMARK minimizedAffinity -4.69745874
REMARK minimizedRMSD -1
REMARK  0 active torsions:
REMARK  status: ('A' for Active; 'I' for Inactive)
ROOT
ATOM      1  O1  BZF d   1      -2.591  -1.898   1.912  0.00  0.00    -0.204 OA
ATOM      2  C2  BZF d   1      -2.328  -3.237   1.696  0.00  0.00     0.174 A 
ATOM      3  C3  BZF d   1      -1.267  -3.390   0.878  0.00  0.00    -0.012 A 
ATOM      4  C3A BZF d   1      -0.783  -2.065   0.638  0.00  0.00    -0.107 A 
ATOM      5  C4  BZF d   1       0.261  -1.564  -0.085  0.00  0.00     0.055 A 
ATOM      6  C5  BZF d   1       0.417  -0.217  -0.175  0.00  0.00    -0.016 A 
ATOM      7  C6  BZF d   1      -0.455   0.657   0.441  0.00  0.00     0.022 A 
ATOM      8  C7  BZF d   1      -1.503   0.207   1.174  0.00  0.00     0.029 A 
ATOM      9  C7A BZF d   1      -1.643  -1.154   1.294  0.00  0.00     0.058 A 
ENDROOT
TORSDOF 0
ENDMDL
