MODEL 1
REMARK minimizedAffinity -4.67400599
REMARK minimizedRMSD -1
REMARK  0 active torsions:
REMARK  status: ('A' for Active; 'I' for Inactive)
ROOT
ATOM      1  O1  BZF d   1      -1.054  -2.757   1.108  0.00  0.00    -0.204 OA
ATOM      2  C2  BZF d   1       0.258  -2.346   1.248  0.00  0.00     0.174 A 
ATOM      3  C3  BZF d   1       0.337  -1.001   1.285  0.00  0.00    -0.012 A 
ATOM      4  C3A BZF d   1      -1.018  -0.543   1.254  0.00  0.00    -0.107 A 
ATOM      5  C4  BZF d   1      -1.592   0.696   1.283  0.00  0.00     0.055 A 
ATOM      6  C5  BZF d   1      -2.942   0.801   1.163  0.00  0.00    -0.016 A 
ATOM      7  C6  BZF d   1      -3.746  -0.309   1.008  0.00  0.00     0.022 A 
ATOM      8  C7  BZF d   1      -3.223  -1.559   0.979  0.00  0.00     0.029 A 
ATOM      9  C7A BZF d   1      -1.863  -1.671   1.133  0.00  0.00     0.058 A 
ENDROOT
TORSDOF 0
ENDMDL
