MODEL 1
REMARK minimizedAffinity -4.34561539
REMARK minimizedRMSD -1
REMARK  0 active torsions:
REMARK  status: ('A' for Active; 'I' for Inactive)
ROOT
ATOM      1  O1  BZF d   1       1.727   0.239   0.411  0.00  0.00    -0.204 OA
ATOM      2  C2  BZF d   1       1.288   1.512   0.103  0.00  0.00     0.174 A 
ATOM      3  C3  BZF d   1      -0.032   1.509  -0.171  0.00  0.00    -0.012 A 
ATOM      4  C3A BZF d   1      -0.463   0.165   0.065  0.00  0.00    -0.107 A 
ATOM      5  C4  BZF d   1      -1.674  -0.461  -0.019  0.00  0.00     0.055 A 
ATOM      6  C5  BZF d   1      -1.742  -1.799   0.208  0.00  0.00    -0.016 A 
ATOM      7  C6  BZF d   1      -0.621  -2.542   0.516  0.00  0.00     0.022 A 
ATOM      8  C7  BZF d   1       0.601  -1.963   0.616  0.00  0.00     0.029 A 
ATOM      9  C7A BZF d   1       0.668  -0.606   0.419  0.00  0.00     0.058 A 
ENDROOT
TORSDOF 0
ENDMDL
