MODEL 1
REMARK minimizedAffinity -3.24236202
REMARK minimizedRMSD -1
REMARK  0 active torsions:
REMARK  status: ('A' for Active; 'I' for Inactive)
ROOT
ATOM      1  O1  BZF d   1      -0.320   1.341  -0.981  0.00  0.00    -0.204 OA
ATOM      2  C2  BZF d   1       1.024   1.441  -1.285  0.00  0.00     0.174 A 
ATOM      3  C3  BZF d   1       1.716   0.424  -0.732  0.00  0.00    -0.012 A 
ATOM      4  C3A BZF d   1       0.731  -0.412  -0.117  0.00  0.00    -0.107 A 
ATOM      5  C4  BZF d   1       0.797  -1.584   0.580  0.00  0.00     0.055 A 
ATOM      6  C5  BZF d   1      -0.342  -2.102   1.110  0.00  0.00    -0.016 A 
ATOM      7  C6  BZF d   1      -1.561  -1.472   0.968  0.00  0.00     0.022 A 
ATOM      8  C7  BZF d   1      -1.677  -0.310   0.282  0.00  0.00     0.029 A 
ATOM      9  C7A BZF d   1      -0.533   0.199  -0.283  0.00  0.00     0.058 A 
ENDROOT
TORSDOF 0
ENDMDL
