MODEL 1
REMARK minimizedAffinity -4.74660301
REMARK minimizedRMSD -1
REMARK  0 active torsions:
REMARK  status: ('A' for Active; 'I' for Inactive)
ROOT
ATOM      1  O1  BZF d   1      -0.478  -3.037   1.374  0.00  0.00    -0.204 OA
ATOM      2  C2  BZF d   1      -1.855  -2.947   1.448  0.00  0.00     0.174 A 
ATOM      3  C3  BZF d   1      -2.272  -1.708   1.118  0.00  0.00    -0.012 A 
ATOM      4  C3A BZF d   1      -1.089  -1.003   0.730  0.00  0.00    -0.107 A 
ATOM      5  C4  BZF d   1      -0.857   0.266   0.283  0.00  0.00     0.055 A 
ATOM      6  C5  BZF d   1       0.424   0.664   0.061  0.00  0.00    -0.016 A 
ATOM      7  C6  BZF d   1       1.494  -0.178   0.281  0.00  0.00     0.022 A 
ATOM      8  C7  BZF d   1       1.313  -1.448   0.719  0.00  0.00     0.029 A 
ATOM      9  C7A BZF d   1       0.018  -1.864   0.912  0.00  0.00     0.058 A 
ENDROOT
TORSDOF 0
ENDMDL
