MODEL 1
REMARK minimizedAffinity -2.12867999
REMARK minimizedRMSD -1
REMARK  0 active torsions:
REMARK  status: ('A' for Active; 'I' for Inactive)
ROOT
ATOM      1  O1  BZF d   1       4.068   1.891  -4.246  0.00  0.00    -0.204 OA
ATOM      2  C2  BZF d   1       5.017   1.938  -3.243  0.00  0.00     0.174 A 
ATOM      3  C3  BZF d   1       4.431   2.080  -2.036  0.00  0.00    -0.012 A 
ATOM      4  C3A BZF d   1       3.025   2.031  -2.293  0.00  0.00    -0.107 A 
ATOM      5  C4  BZF d   1       1.921   2.102  -1.491  0.00  0.00     0.055 A 
ATOM      6  C5  BZF d   1       0.688   2.097  -2.063  0.00  0.00    -0.016 A 
ATOM      7  C6  BZF d   1       0.522   2.028  -3.431  0.00  0.00     0.022 A 
ATOM      8  C7  BZF d   1       1.587   1.951  -4.266  0.00  0.00     0.029 A 
ATOM      9  C7A BZF d   1       2.833   1.923  -3.690  0.00  0.00     0.058 A 
ENDROOT
TORSDOF 0
ENDMDL
