MODEL 1
REMARK minimizedAffinity -2.40090251
REMARK minimizedRMSD -1
REMARK  0 active torsions:
REMARK  status: ('A' for Active; 'I' for Inactive)
ROOT
ATOM      1  O1  BZF d   1       4.019   3.428  -4.434  0.00  0.00    -0.204 OA
ATOM      2  C2  BZF d   1       4.948   3.136  -3.454  0.00  0.00     0.174 A 
ATOM      3  C3  BZF d   1       4.361   2.530  -2.402  0.00  0.00    -0.012 A 
ATOM      4  C3A BZF d   1       2.993   2.355  -2.785  0.00  0.00    -0.107 A 
ATOM      5  C4  BZF d   1       1.910   1.798  -2.167  0.00  0.00     0.055 A 
ATOM      6  C5  BZF d   1       0.699   1.853  -2.782  0.00  0.00    -0.016 A 
ATOM      7  C6  BZF d   1       0.535   2.460  -4.010  0.00  0.00     0.022 A 
ATOM      8  C7  BZF d   1       1.581   3.021  -4.664  0.00  0.00     0.029 A 
ATOM      9  C7A BZF d   1       2.812   2.938  -4.060  0.00  0.00     0.058 A 
ENDROOT
TORSDOF 0
ENDMDL
