MODEL 1
REMARK minimizedAffinity -4.22622108
REMARK minimizedRMSD -1
REMARK  0 active torsions:
REMARK  status: ('A' for Active; 'I' for Inactive)
ROOT
ATOM      1  O1  BZF d   1      -0.101   0.652  -0.217  0.00  0.00    -0.204 OA
ATOM      2  C2  BZF d   1       1.174   0.208  -0.513  0.00  0.00     0.174 A 
ATOM      3  C3  BZF d   1       1.353  -1.056  -0.076  0.00  0.00    -0.012 A 
ATOM      4  C3A BZF d   1       0.084  -1.457   0.448  0.00  0.00    -0.107 A 
ATOM      5  C4  BZF d   1      -0.376  -2.612   1.012  0.00  0.00     0.055 A 
ATOM      6  C5  BZF d   1      -1.649  -2.654   1.487  0.00  0.00    -0.016 A 
ATOM      7  C6  BZF d   1      -2.486  -1.560   1.418  0.00  0.00     0.022 A 
ATOM      8  C7  BZF d   1      -2.076  -0.393   0.863  0.00  0.00     0.029 A 
ATOM      9  C7A BZF d   1      -0.801  -0.358   0.353  0.00  0.00     0.058 A 
ENDROOT
TORSDOF 0
ENDMDL
