MODEL 1
REMARK minimizedAffinity -5.25699329
REMARK minimizedRMSD -1
REMARK  0 active torsions:
REMARK  status: ('A' for Active; 'I' for Inactive)
ROOT
ATOM      1  O1  BZF d   1      -0.410  -2.656   1.173  0.00  0.00    -0.204 OA
ATOM      2  C2  BZF d   1      -1.743  -2.789   1.514  0.00  0.00     0.174 A 
ATOM      3  C3  BZF d   1      -2.378  -1.602   1.430  0.00  0.00    -0.012 A 
ATOM      4  C3A BZF d   1      -1.402  -0.688   0.922  0.00  0.00    -0.107 A 
ATOM      5  C4  BZF d   1      -1.434   0.641   0.606  0.00  0.00     0.055 A 
ATOM      6  C5  BZF d   1      -0.289   1.252   0.203  0.00  0.00    -0.016 A 
ATOM      7  C6  BZF d   1       0.905   0.567   0.108  0.00  0.00     0.022 A 
ATOM      8  C7  BZF d   1       0.985  -0.753   0.406  0.00  0.00     0.029 A 
ATOM      9  C7A BZF d   1      -0.177  -1.381   0.782  0.00  0.00     0.058 A 
ENDROOT
TORSDOF 0
ENDMDL
