MODEL 1
REMARK minimizedAffinity -2.51977324
REMARK minimizedRMSD -1
REMARK  0 active torsions:
REMARK  status: ('A' for Active; 'I' for Inactive)
ROOT
ATOM      1  O1  BZF d   1       1.251   0.646  -3.765  0.00  0.00    -0.204 OA
ATOM      2  C2  BZF d   1       1.621   1.976  -3.808  0.00  0.00     0.174 A 
ATOM      3  C3  BZF d   1       1.461   2.557  -2.602  0.00  0.00    -0.012 A 
ATOM      4  C3A BZF d   1       1.046   1.502  -1.728  0.00  0.00    -0.107 A 
ATOM      5  C4  BZF d   1       0.744   1.449  -0.398  0.00  0.00     0.055 A 
ATOM      6  C5  BZF d   1       0.301   0.279   0.133  0.00  0.00    -0.016 A 
ATOM      7  C6  BZF d   1       0.144  -0.854  -0.637  0.00  0.00     0.022 A 
ATOM      8  C7  BZF d   1       0.436  -0.852  -1.961  0.00  0.00     0.029 A 
ATOM      9  C7A BZF d   1       0.915   0.320  -2.493  0.00  0.00     0.058 A 
ENDROOT
TORSDOF 0
ENDMDL
