MODEL 1
REMARK minimizedAffinity -4.06541252
REMARK minimizedRMSD -1
REMARK  0 active torsions:
REMARK  status: ('A' for Active; 'I' for Inactive)
ROOT
ATOM      1  O1  BZF d   1       4.496   1.883  -4.113  0.00  0.00    -0.204 OA
ATOM      2  C2  BZF d   1       5.450   1.949  -3.115  0.00  0.00     0.174 A 
ATOM      3  C3  BZF d   1       4.871   2.126  -1.910  0.00  0.00    -0.012 A 
ATOM      4  C3A BZF d   1       3.462   2.081  -2.160  0.00  0.00    -0.107 A 
ATOM      5  C4  BZF d   1       2.363   2.180  -1.355  0.00  0.00     0.055 A 
ATOM      6  C5  BZF d   1       1.128   2.169  -1.921  0.00  0.00    -0.016 A 
ATOM      7  C6  BZF d   1       0.955   2.065  -3.286  0.00  0.00     0.022 A 
ATOM      8  C7  BZF d   1       2.015   1.959  -4.124  0.00  0.00     0.029 A 
ATOM      9  C7A BZF d   1       3.264   1.937  -3.552  0.00  0.00     0.058 A 
ENDROOT
TORSDOF 0
ENDMDL
