MODEL 1
REMARK minimizedAffinity -3.76413107
REMARK minimizedRMSD -1
REMARK  0 active torsions:
REMARK  status: ('A' for Active; 'I' for Inactive)
ROOT
ATOM      1  O1  BZF d   1      -2.100  -1.390   2.442  0.00  0.00    -0.204 OA
ATOM      2  C2  BZF d   1      -2.671  -0.137   2.554  0.00  0.00     0.174 A 
ATOM      3  C3  BZF d   1      -1.985   0.768   1.826  0.00  0.00    -0.012 A 
ATOM      4  C3A BZF d   1      -0.974   0.017   1.147  0.00  0.00    -0.107 A 
ATOM      5  C4  BZF d   1       0.012   0.353   0.264  0.00  0.00     0.055 A 
ATOM      6  C5  BZF d   1       0.879  -0.606  -0.154  0.00  0.00    -0.016 A 
ATOM      7  C6  BZF d   1       0.793  -1.908   0.294  0.00  0.00     0.022 A 
ATOM      8  C7  BZF d   1      -0.171  -2.290   1.166  0.00  0.00     0.029 A 
ATOM      9  C7A BZF d   1      -1.069  -1.331   1.565  0.00  0.00     0.058 A 
ENDROOT
TORSDOF 0
ENDMDL
