MODEL 1
REMARK minimizedAffinity -6.31940508
REMARK minimizedRMSD -1
REMARK  0 active torsions:
REMARK  status: ('A' for Active; 'I' for Inactive)
ROOT
ATOM      1  O1  BZF d   1      -0.420   0.841   0.399  0.00  0.00    -0.204 OA
ATOM      2  C2  BZF d   1       0.837   0.425   0.007  0.00  0.00     0.174 A 
ATOM      3  C3  BZF d   1       1.031  -0.873   0.320  0.00  0.00    -0.012 A 
ATOM      4  C3A BZF d   1      -0.215  -1.319   0.863  0.00  0.00    -0.107 A 
ATOM      5  C4  BZF d   1      -0.654  -2.521   1.341  0.00  0.00     0.055 A 
ATOM      6  C5  BZF d   1      -1.904  -2.605   1.867  0.00  0.00    -0.016 A 
ATOM      7  C6  BZF d   1      -2.738  -1.509   1.935  0.00  0.00     0.022 A 
ATOM      8  C7  BZF d   1      -2.349  -0.297   1.469  0.00  0.00     0.029 A 
ATOM      9  C7A BZF d   1      -1.099  -0.216   0.907  0.00  0.00     0.058 A 
ENDROOT
TORSDOF 0
ENDMDL
