MODEL 1
REMARK minimizedAffinity -5.80925226
REMARK minimizedRMSD -1
REMARK  0 active torsions:
REMARK  status: ('A' for Active; 'I' for Inactive)
ROOT
ATOM      1  O1  BZF d   1      -0.758   0.980   0.392  0.00  0.00    -0.204 OA
ATOM      2  C2  BZF d   1       0.503   0.610  -0.036  0.00  0.00     0.174 A 
ATOM      3  C3  BZF d   1       0.738  -0.690   0.235  0.00  0.00    -0.012 A 
ATOM      4  C3A BZF d   1      -0.484  -1.186   0.789  0.00  0.00    -0.107 A 
ATOM      5  C4  BZF d   1      -0.881  -2.412   1.241  0.00  0.00     0.055 A 
ATOM      6  C5  BZF d   1      -2.117  -2.546   1.789  0.00  0.00    -0.016 A 
ATOM      7  C6  BZF d   1      -2.979  -1.475   1.906  0.00  0.00     0.022 A 
ATOM      8  C7  BZF d   1      -2.632  -0.241   1.467  0.00  0.00     0.029 A 
ATOM      9  C7A BZF d   1      -1.396  -0.110   0.883  0.00  0.00     0.058 A 
ENDROOT
TORSDOF 0
ENDMDL
