MODEL 1
REMARK minimizedAffinity -4.8346386
REMARK minimizedRMSD -1
REMARK  0 active torsions:
REMARK  status: ('A' for Active; 'I' for Inactive)
ROOT
ATOM      1  O1  BZF d   1      -0.090   0.913  -0.030  0.00  0.00    -0.204 OA
ATOM      2  C2  BZF d   1       1.182   0.485  -0.360  0.00  0.00     0.174 A 
ATOM      3  C3  BZF d   1       1.340  -0.820  -0.060  0.00  0.00    -0.012 A 
ATOM      4  C3A BZF d   1       0.060  -1.257   0.406  0.00  0.00    -0.107 A 
ATOM      5  C4  BZF d   1      -0.422  -2.460   0.838  0.00  0.00     0.055 A 
ATOM      6  C5  BZF d   1      -1.700  -2.534   1.293  0.00  0.00    -0.016 A 
ATOM      7  C6  BZF d   1      -2.522  -1.427   1.335  0.00  0.00     0.022 A 
ATOM      8  C7  BZF d   1      -2.090  -0.214   0.912  0.00  0.00     0.029 A 
ATOM      9  C7A BZF d   1      -0.810  -0.142   0.421  0.00  0.00     0.058 A 
ENDROOT
TORSDOF 0
ENDMDL
