MODEL 1
REMARK minimizedAffinity -3.78826499
REMARK minimizedRMSD -1
REMARK  0 active torsions:
REMARK  status: ('A' for Active; 'I' for Inactive)
ROOT
ATOM      1  O1  BZF d   1      -0.756   1.038  -0.408  0.00  0.00    -0.204 OA
ATOM      2  C2  BZF d   1       0.609   1.186  -0.567  0.00  0.00     0.174 A 
ATOM      3  C3  BZF d   1       1.259   0.068  -0.182  0.00  0.00    -0.012 A 
ATOM      4  C3A BZF d   1       0.230  -0.867   0.157  0.00  0.00    -0.107 A 
ATOM      5  C4  BZF d   1       0.245  -2.160   0.595  0.00  0.00     0.055 A 
ATOM      6  C5  BZF d   1      -0.932  -2.766   0.904  0.00  0.00    -0.016 A 
ATOM      7  C6  BZF d   1      -2.139  -2.108   0.793  0.00  0.00     0.022 A 
ATOM      8  C7  BZF d   1      -2.204  -0.826   0.358  0.00  0.00     0.029 A 
ATOM      9  C7A BZF d   1      -1.020  -0.222   0.013  0.00  0.00     0.058 A 
ENDROOT
TORSDOF 0
ENDMDL
