MODEL 1
REMARK minimizedAffinity -2.76096034
REMARK minimizedRMSD -1
REMARK  0 active torsions:
REMARK  status: ('A' for Active; 'I' for Inactive)
ROOT
ATOM      1  O1  BZF d   1       0.929  -0.802   0.822  0.00  0.00    -0.204 OA
ATOM      2  C2  BZF d   1      -0.245  -1.432   0.457  0.00  0.00     0.174 A 
ATOM      3  C3  BZF d   1      -0.871  -0.748  -0.523  0.00  0.00    -0.012 A 
ATOM      4  C3A BZF d   1       0.011   0.330  -0.851  0.00  0.00    -0.107 A 
ATOM      5  C4  BZF d   1      -0.047   1.346  -1.761  0.00  0.00     0.055 A 
ATOM      6  C5  BZF d   1       0.945   2.276  -1.777  0.00  0.00    -0.016 A 
ATOM      7  C6  BZF d   1       2.004   2.222  -0.896  0.00  0.00     0.022 A 
ATOM      8  C7  BZF d   1       2.108   1.230   0.022  0.00  0.00     0.029 A 
ATOM      9  C7A BZF d   1       1.125   0.271   0.019  0.00  0.00     0.058 A 
ENDROOT
TORSDOF 0
ENDMDL
