MODEL 1
REMARK minimizedAffinity -2.29414606
REMARK minimizedRMSD -1
REMARK  0 active torsions:
REMARK  status: ('A' for Active; 'I' for Inactive)
ROOT
ATOM      1  C1  BNZ d   1       2.558  -1.860   5.623  0.00  0.00     0.000 A 
ATOM      2  C2  BNZ d   1       1.460  -2.216   4.886  0.00  0.00     0.000 A 
ATOM      3  C3  BNZ d   1       0.536  -1.281   4.510  0.00  0.00     0.000 A 
ATOM      4  C4  BNZ d   1       0.690  -0.001   4.904  0.00  0.00     0.000 A 
ATOM      5  C5  BNZ d   1       1.787   0.372   5.656  0.00  0.00     0.000 A 
ATOM      6  C6  BNZ d   1       2.735  -0.564   6.000  0.00  0.00     0.000 A 
ENDROOT
TORSDOF 0
ENDMDL
