MODEL 1
REMARK minimizedAffinity 2.62088323
REMARK minimizedRMSD -1
REMARK  0 active torsions:
REMARK  status: ('A' for Active; 'I' for Inactive)
ROOT
ATOM      1  C1  BNZ d   1      -2.493   5.952   0.298  0.00  0.00     0.000 A 
ATOM      2  C2  BNZ d   1      -1.664   5.933   1.387  0.00  0.00     0.000 A 
ATOM      3  C3  BNZ d   1      -0.307   5.972   1.235  0.00  0.00     0.000 A 
ATOM      4  C4  BNZ d   1       0.221   5.990  -0.006  0.00  0.00     0.000 A 
ATOM      5  C5  BNZ d   1      -0.602   6.000  -1.115  0.00  0.00     0.000 A 
ATOM      6  C6  BNZ d   1      -1.969   6.000  -0.957  0.00  0.00     0.000 A 
ENDROOT
TORSDOF 0
ENDMDL
