MODEL 1
REMARK minimizedAffinity -1.35053277
REMARK minimizedRMSD -1
REMARK  0 active torsions:
REMARK  status: ('A' for Active; 'I' for Inactive)
ROOT
ATOM      1  C1  BNZ d   1       1.229   0.392   1.198  0.00  0.00     0.000 A 
ATOM      2  C2  BNZ d   1       0.037   1.010   1.466  0.00  0.00     0.000 A 
ATOM      3  C3  BNZ d   1      -1.131   0.538   0.935  0.00  0.00     0.000 A 
ATOM      4  C4  BNZ d   1      -1.101  -0.525   0.107  0.00  0.00     0.000 A 
ATOM      5  C5  BNZ d   1       0.094  -1.153  -0.181  0.00  0.00     0.000 A 
ATOM      6  C6  BNZ d   1       1.263  -0.699   0.386  0.00  0.00     0.000 A 
ENDROOT
TORSDOF 0
ENDMDL
