MODEL 1
REMARK minimizedAffinity -5.25660658
REMARK minimizedRMSD -1
REMARK  0 active torsions:
REMARK  status: ('A' for Active; 'I' for Inactive)
ROOT
ATOM      1  C   UNL d   1       2.352  -1.893   2.670  0.00  0.00     0.077 C 
ATOM      2  C1  UNL d   1       1.627  -1.214   1.547  0.00  0.00    -0.074 A 
ATOM      3  C2  UNL d   1       2.199  -1.123   0.273  0.00  0.00    -0.005 A 
ATOM      4  C3  UNL d   1       1.508  -0.496  -0.764  0.00  0.00     0.006 A 
ATOM      5  C4  UNL d   1       0.242   0.046  -0.539  0.00  0.00    -0.005 A 
ATOM      6  C5  UNL d   1      -0.345  -0.036   0.728  0.00  0.00    -0.074 A 
ATOM      7  C6  UNL d   1      -1.709   0.532   0.984  0.00  0.00     0.077 C 
ATOM      8  C7  UNL d   1       0.352  -0.674   1.763  0.00  0.00    -0.001 A 
ENDROOT
TORSDOF 0
ENDMDL
