MODEL 1
REMARK minimizedAffinity -3.94914985
REMARK minimizedRMSD -1
REMARK  0 active torsions:
REMARK  status: ('A' for Active; 'I' for Inactive)
ROOT
ATOM      1  C   UNL d   1       2.480  -1.818   2.283  0.00  0.00     0.077 C 
ATOM      2  C1  UNL d   1       1.228  -1.236   1.696  0.00  0.00    -0.074 A 
ATOM      3  C2  UNL d   1       0.079  -1.071   2.475  0.00  0.00    -0.005 A 
ATOM      4  C3  UNL d   1      -1.075  -0.519   1.918  0.00  0.00     0.006 A 
ATOM      5  C4  UNL d   1      -1.091  -0.128   0.578  0.00  0.00    -0.005 A 
ATOM      6  C5  UNL d   1       0.050  -0.285  -0.216  0.00  0.00    -0.074 A 
ATOM      7  C6  UNL d   1       0.053   0.139  -1.654  0.00  0.00     0.077 C 
ATOM      8  C7  UNL d   1       1.207  -0.834   0.353  0.00  0.00    -0.001 A 
ENDROOT
TORSDOF 0
ENDMDL
