MODEL 1
REMARK minimizedAffinity -6.70127392
REMARK minimizedRMSD -1
REMARK  0 active torsions:
REMARK  status: ('A' for Active; 'I' for Inactive)
ROOT
ATOM      1  C   UNL d   1       2.869  -1.872  -0.215  0.00  0.00     0.077 C 
ATOM      2  C1  UNL d   1       1.889  -1.472   0.848  0.00  0.00    -0.074 A 
ATOM      3  C2  UNL d   1       2.181  -1.661   2.203  0.00  0.00    -0.005 A 
ATOM      4  C3  UNL d   1       1.264  -1.275   3.180  0.00  0.00     0.006 A 
ATOM      5  C4  UNL d   1       0.047  -0.698   2.814  0.00  0.00    -0.005 A 
ATOM      6  C5  UNL d   1      -0.262  -0.500   1.464  0.00  0.00    -0.074 A 
ATOM      7  C6  UNL d   1      -1.560   0.128   1.054  0.00  0.00     0.077 C 
ATOM      8  C7  UNL d   1       0.668  -0.884   0.488  0.00  0.00    -0.001 A 
ENDROOT
TORSDOF 0
ENDMDL
