MODEL 1
REMARK minimizedAffinity -5.61708879
REMARK minimizedRMSD -1
REMARK  0 active torsions:
REMARK  status: ('A' for Active; 'I' for Inactive)
ROOT
ATOM      1  C   UNL d   1       3.378  -2.342  -0.407  0.00  0.00     0.077 C 
ATOM      2  C1  UNL d   1       2.429  -1.748   0.592  0.00  0.00    -0.074 A 
ATOM      3  C2  UNL d   1       2.601  -1.965   1.963  0.00  0.00    -0.005 A 
ATOM      4  C3  UNL d   1       1.716  -1.399   2.880  0.00  0.00     0.006 A 
ATOM      5  C4  UNL d   1       0.653  -0.611   2.437  0.00  0.00    -0.005 A 
ATOM      6  C5  UNL d   1       0.466  -0.382   1.070  0.00  0.00    -0.074 A 
ATOM      7  C6  UNL d   1      -0.665   0.470   0.578  0.00  0.00     0.077 C 
ATOM      8  C7  UNL d   1       1.364  -0.949   0.155  0.00  0.00    -0.001 A 
ENDROOT
TORSDOF 0
ENDMDL
