MODEL 1
REMARK minimizedAffinity -4.91142607
REMARK minimizedRMSD -1
REMARK  0 active torsions:
REMARK  status: ('A' for Active; 'I' for Inactive)
ROOT
ATOM      1  C   UNL d   1       0.372   1.012  -1.839  0.00  0.00     0.077 C 
ATOM      2  C1  UNL d   1       0.079   0.386  -0.508  0.00  0.00    -0.074 A 
ATOM      3  C2  UNL d   1      -1.221  -0.004  -0.168  0.00  0.00    -0.005 A 
ATOM      4  C3  UNL d   1      -1.477  -0.594   1.070  0.00  0.00     0.006 A 
ATOM      5  C4  UNL d   1      -0.438  -0.800   1.979  0.00  0.00    -0.005 A 
ATOM      6  C5  UNL d   1       0.868  -0.417   1.656  0.00  0.00    -0.074 A 
ATOM      7  C6  UNL d   1       1.997  -0.640   2.617  0.00  0.00     0.077 C 
ATOM      8  C7  UNL d   1       1.118   0.168   0.407  0.00  0.00    -0.001 A 
ENDROOT
TORSDOF 0
ENDMDL
