MODEL 1
REMARK minimizedAffinity -0.44002533
REMARK minimizedRMSD -1
REMARK  0 active torsions:
REMARK  status: ('A' for Active; 'I' for Inactive)
ROOT
ATOM      1  C1  DEN d   1       0.901  -1.041  -1.916  0.00  0.00     0.130 A 
ATOM      2  C2  DEN d   1       0.411   0.207  -2.493  0.00  0.00    -0.031 A 
ATOM      3  C3  DEN d   1      -0.534   0.814  -1.534  0.00  0.00     0.027 A 
ATOM      4  C4  DEN d   1      -1.279  -0.052   0.778  0.00  0.00     0.027 A 
ATOM      5  C5  DEN d   1      -1.143  -1.075   1.691  0.00  0.00    -0.003 A 
ATOM      6  C6  DEN d   1      -0.350  -2.166   1.453  0.00  0.00     0.001 A 
ATOM      7  C7  DEN d   1       0.375  -2.238   0.292  0.00  0.00     0.017 A 
ATOM      8  C8  DEN d   1       0.237  -1.214  -0.636  0.00  0.00    -0.094 A 
ATOM      9  C9  DEN d   1      -0.561  -0.114  -0.372  0.00  0.00    -0.072 A 
ENDROOT
TORSDOF 0
ENDMDL
