MODEL 1
REMARK minimizedAffinity -0.562738299
REMARK minimizedRMSD -1
REMARK  0 active torsions:
REMARK  status: ('A' for Active; 'I' for Inactive)
ROOT
ATOM      1  C1  DEN d   1      -0.432   0.786   1.235  0.00  0.00     0.130 A 
ATOM      2  C2  DEN d   1       0.167   1.804   0.376  0.00  0.00    -0.031 A 
ATOM      3  C3  DEN d   1       0.395   1.204  -0.953  0.00  0.00     0.027 A 
ATOM      4  C4  DEN d   1      -0.125  -1.189  -1.764  0.00  0.00     0.027 A 
ATOM      5  C5  DEN d   1      -0.626  -2.416  -1.390  0.00  0.00    -0.003 A 
ATOM      6  C6  DEN d   1      -1.063  -2.670  -0.117  0.00  0.00     0.001 A 
ATOM      7  C7  DEN d   1      -1.049  -1.669   0.817  0.00  0.00     0.017 A 
ATOM      8  C8  DEN d   1      -0.538  -0.431   0.451  0.00  0.00    -0.094 A 
ATOM      9  C9  DEN d   1      -0.113  -0.191  -0.845  0.00  0.00    -0.072 A 
ENDROOT
TORSDOF 0
ENDMDL
