MODEL 1
REMARK minimizedAffinity -0.871504903
REMARK minimizedRMSD -1
REMARK  0 active torsions:
REMARK  status: ('A' for Active; 'I' for Inactive)
ROOT
ATOM      1  C1  DEN d   1       0.854  -0.575   0.041  0.00  0.00     0.130 A 
ATOM      2  C2  DEN d   1      -0.577  -0.823   0.190  0.00  0.00    -0.031 A 
ATOM      3  C3  DEN d   1      -1.252   0.480   0.352  0.00  0.00     0.027 A 
ATOM      4  C4  DEN d   1      -0.227   2.846   0.383  0.00  0.00     0.027 A 
ATOM      5  C5  DEN d   1       0.947   3.562   0.305  0.00  0.00    -0.003 A 
ATOM      6  C6  DEN d   1       2.166   2.952   0.169  0.00  0.00     0.001 A 
ATOM      7  C7  DEN d   1       2.235   1.588   0.062  0.00  0.00     0.017 A 
ATOM      8  C8  DEN d   1       1.056   0.859   0.146  0.00  0.00    -0.094 A 
ATOM      9  C9  DEN d   1      -0.168   1.495   0.271  0.00  0.00    -0.072 A 
ENDROOT
TORSDOF 0
ENDMDL
