MODEL 1
REMARK minimizedAffinity -4.53574228
REMARK minimizedRMSD -1
REMARK  0 active torsions:
REMARK  status: ('A' for Active; 'I' for Inactive)
ROOT
ATOM      1  C1  DEN d   1      -0.243   0.984  -0.819  0.00  0.00     0.130 A 
ATOM      2  C2  DEN d   1       0.303   0.201  -1.923  0.00  0.00    -0.031 A 
ATOM      3  C3  DEN d   1       0.319  -1.218  -1.513  0.00  0.00     0.027 A 
ATOM      4  C4  DEN d   1      -0.450  -2.272   0.711  0.00  0.00     0.027 A 
ATOM      5  C5  DEN d   1      -0.976  -2.007   1.957  0.00  0.00    -0.003 A 
ATOM      6  C6  DEN d   1      -1.260  -0.734   2.374  0.00  0.00     0.001 A 
ATOM      7  C7  DEN d   1      -1.062   0.319   1.521  0.00  0.00     0.017 A 
ATOM      8  C8  DEN d   1      -0.526   0.061   0.266  0.00  0.00    -0.094 A 
ATOM      9  C9  DEN d   1      -0.256  -1.234  -0.141  0.00  0.00    -0.072 A 
ENDROOT
TORSDOF 0
ENDMDL
