MODEL 1
REMARK minimizedAffinity -1.44117987
REMARK minimizedRMSD -1
REMARK  0 active torsions:
REMARK  status: ('A' for Active; 'I' for Inactive)
ROOT
ATOM      1  C1  DEN d   1       1.166   0.623  -0.568  0.00  0.00     0.130 A 
ATOM      2  C2  DEN d   1       1.152   2.030  -0.177  0.00  0.00    -0.031 A 
ATOM      3  C3  DEN d   1       0.153   2.195   0.898  0.00  0.00     0.027 A 
ATOM      4  C4  DEN d   1      -1.363   0.418   1.991  0.00  0.00     0.027 A 
ATOM      5  C5  DEN d   1      -1.717  -0.913   1.984  0.00  0.00    -0.003 A 
ATOM      6  C6  DEN d   1      -1.165  -1.811   1.109  0.00  0.00     0.001 A 
ATOM      7  C7  DEN d   1      -0.194  -1.398   0.235  0.00  0.00     0.017 A 
ATOM      8  C8  DEN d   1       0.163  -0.056   0.232  0.00  0.00    -0.094 A 
ATOM      9  C9  DEN d   1      -0.398   0.833   1.132  0.00  0.00    -0.072 A 
ENDROOT
TORSDOF 0
ENDMDL
