MODEL 1
REMARK minimizedAffinity 1.42411864
REMARK minimizedRMSD -1
REMARK  0 active torsions:
REMARK  status: ('A' for Active; 'I' for Inactive)
ROOT
ATOM      1  C1  DEN d   1      -1.709  -2.228   1.334  0.00  0.00     0.130 A 
ATOM      2  C2  DEN d   1      -1.245  -3.074   0.238  0.00  0.00    -0.031 A 
ATOM      3  C3  DEN d   1      -0.392  -2.252  -0.643  0.00  0.00     0.027 A 
ATOM      4  C4  DEN d   1       0.256   0.234  -0.417  0.00  0.00     0.027 A 
ATOM      5  C5  DEN d   1       0.095   1.371   0.344  0.00  0.00    -0.003 A 
ATOM      6  C6  DEN d   1      -0.699   1.397   1.460  0.00  0.00     0.001 A 
ATOM      7  C7  DEN d   1      -1.327   0.252   1.873  0.00  0.00     0.017 A 
ATOM      8  C8  DEN d   1      -1.176  -0.897   1.107  0.00  0.00    -0.094 A 
ATOM      9  C9  DEN d   1      -0.359  -0.906  -0.011  0.00  0.00    -0.072 A 
ENDROOT
TORSDOF 0
ENDMDL
