MODEL 1
REMARK minimizedAffinity 3.01617002
REMARK minimizedRMSD -1
REMARK  0 active torsions:
REMARK  status: ('A' for Active; 'I' for Inactive)
ROOT
ATOM      1  C1  DEN d   1       0.673   0.664  -2.174  0.00  0.00     0.130 A 
ATOM      2  C2  DEN d   1       1.040  -0.467  -3.022  0.00  0.00    -0.031 A 
ATOM      3  C3  DEN d   1       0.498  -1.694  -2.405  0.00  0.00     0.027 A 
ATOM      4  C4  DEN d   1      -0.871  -1.951  -0.234  0.00  0.00     0.027 A 
ATOM      5  C5  DEN d   1      -1.420  -1.276   0.833  0.00  0.00    -0.003 A 
ATOM      6  C6  DEN d   1      -1.283   0.078   0.989  0.00  0.00     0.001 A 
ATOM      7  C7  DEN d   1      -0.617   0.807   0.039  0.00  0.00     0.017 A 
ATOM      8  C8  DEN d   1      -0.054   0.132  -1.036  0.00  0.00    -0.094 A 
ATOM      9  C9  DEN d   1      -0.214  -1.236  -1.182  0.00  0.00    -0.072 A 
ENDROOT
TORSDOF 0
ENDMDL
