MODEL 1
REMARK minimizedAffinity -2.10943937
REMARK minimizedRMSD -1
REMARK  0 active torsions:
REMARK  status: ('A' for Active; 'I' for Inactive)
ROOT
ATOM      1  C1  DEN d   1       0.449  -1.510  -2.725  0.00  0.00     0.130 A 
ATOM      2  C2  DEN d   1       0.784  -0.277  -3.433  0.00  0.00    -0.031 A 
ATOM      3  C3  DEN d   1       0.553   0.855  -2.513  0.00  0.00     0.027 A 
ATOM      4  C4  DEN d   1      -0.283   0.819  -0.073  0.00  0.00     0.027 A 
ATOM      5  C5  DEN d   1      -0.709   0.008   0.955  0.00  0.00    -0.003 A 
ATOM      6  C6  DEN d   1      -0.810  -1.351   0.820  0.00  0.00     0.001 A 
ATOM      7  C7  DEN d   1      -0.438  -1.946  -0.357  0.00  0.00     0.017 A 
ATOM      8  C8  DEN d   1      -0.015  -1.134  -1.401  0.00  0.00    -0.094 A 
ATOM      9  C9  DEN d   1       0.092   0.237  -1.241  0.00  0.00    -0.072 A 
ENDROOT
TORSDOF 0
ENDMDL
