MODEL 1
REMARK minimizedAffinity -6.21375418
REMARK minimizedRMSD -1
REMARK  0 active torsions:
REMARK  status: ('A' for Active; 'I' for Inactive)
ROOT
ATOM      1  C1  DEN d   1       0.964  -2.802  -0.982  0.00  0.00     0.130 A 
ATOM      2  C2  DEN d   1       0.672  -3.306   0.357  0.00  0.00    -0.031 A 
ATOM      3  C3  DEN d   1      -0.063  -2.256   1.089  0.00  0.00     0.027 A 
ATOM      4  C4  DEN d   1      -0.778   0.087   0.283  0.00  0.00     0.027 A 
ATOM      5  C5  DEN d   1      -0.745   0.969  -0.775  0.00  0.00    -0.003 A 
ATOM      6  C6  DEN d   1      -0.115   0.671  -1.954  0.00  0.00     0.001 A 
ATOM      7  C7  DEN d   1       0.469  -0.557  -2.121  0.00  0.00     0.017 A 
ATOM      8  C8  DEN d   1       0.445  -1.448  -1.056  0.00  0.00    -0.094 A 
ATOM      9  C9  DEN d   1      -0.207  -1.133   0.124  0.00  0.00    -0.072 A 
ENDROOT
TORSDOF 0
ENDMDL
