MODEL 1
REMARK minimizedAffinity -4.62199211
REMARK minimizedRMSD -1
REMARK  0 active torsions:
REMARK  status: ('A' for Active; 'I' for Inactive)
ROOT
ATOM      1  C1  DEN d   1      -0.076  -3.543  -0.181  0.00  0.00     0.130 A 
ATOM      2  C2  DEN d   1       0.532  -3.567  -1.508  0.00  0.00    -0.031 A 
ATOM      3  C3  DEN d   1       0.593  -2.179  -2.008  0.00  0.00     0.027 A 
ATOM      4  C4  DEN d   1      -0.188  -0.005  -0.860  0.00  0.00     0.027 A 
ATOM      5  C5  DEN d   1      -0.779   0.518   0.269  0.00  0.00    -0.003 A 
ATOM      6  C6  DEN d   1      -1.204  -0.272   1.304  0.00  0.00     0.001 A 
ATOM      7  C7  DEN d   1      -1.003  -1.626   1.251  0.00  0.00     0.017 A 
ATOM      8  C8  DEN d   1      -0.415  -2.162   0.112  0.00  0.00    -0.094 A 
ATOM      9  C9  DEN d   1       0.019  -1.345  -0.918  0.00  0.00    -0.072 A 
ENDROOT
TORSDOF 0
ENDMDL
