MODEL 1
REMARK minimizedAffinity -1.5172683
REMARK minimizedRMSD -1
REMARK  0 active torsions:
REMARK  status: ('A' for Active; 'I' for Inactive)
ROOT
ATOM      1  C1  DEN d   1      -0.737  -2.394   0.701  0.00  0.00     0.130 A 
ATOM      2  C2  DEN d   1      -1.256  -1.901   1.974  0.00  0.00    -0.031 A 
ATOM      3  C3  DEN d   1      -1.317  -0.427   1.901  0.00  0.00     0.027 A 
ATOM      4  C4  DEN d   1      -0.669   1.130  -0.051  0.00  0.00     0.027 A 
ATOM      5  C5  DEN d   1      -0.168   1.173  -1.333  0.00  0.00    -0.003 A 
ATOM      6  C6  DEN d   1       0.207   0.042  -2.009  0.00  0.00     0.001 A 
ATOM      7  C7  DEN d   1       0.044  -1.185  -1.423  0.00  0.00     0.017 A 
ATOM      8  C8  DEN d   1      -0.453  -1.236  -0.127  0.00  0.00    -0.094 A 
ATOM      9  C9  DEN d   1      -0.838  -0.083   0.535  0.00  0.00    -0.072 A 
ENDROOT
TORSDOF 0
ENDMDL
