MODEL 1
REMARK minimizedAffinity -5.87568808
REMARK minimizedRMSD -1
REMARK  0 active torsions:
REMARK  status: ('A' for Active; 'I' for Inactive)
ROOT
ATOM      1  C1  DEN d   1      -1.050  -0.610   1.400  0.00  0.00     0.130 A 
ATOM      2  C2  DEN d   1      -0.883  -2.031   1.109  0.00  0.00    -0.031 A 
ATOM      3  C3  DEN d   1      -0.052  -2.154  -0.106  0.00  0.00     0.027 A 
ATOM      4  C4  DEN d   1       0.989  -0.292  -1.555  0.00  0.00     0.027 A 
ATOM      5  C5  DEN d   1       1.114   1.070  -1.712  0.00  0.00    -0.003 A 
ATOM      6  C6  DEN d   1       0.503   1.962  -0.870  0.00  0.00     0.001 A 
ATOM      7  C7  DEN d   1      -0.224   1.500   0.195  0.00  0.00     0.017 A 
ATOM      8  C8  DEN d   1      -0.360   0.127   0.356  0.00  0.00    -0.094 A 
ATOM      9  C9  DEN d   1       0.275  -0.757  -0.499  0.00  0.00    -0.072 A 
ENDROOT
TORSDOF 0
ENDMDL
