MODEL 1
REMARK minimizedAffinity -5.12098217
REMARK minimizedRMSD -1
REMARK  0 active torsions:
REMARK  status: ('A' for Active; 'I' for Inactive)
ROOT
ATOM      1  C1  DEN d   1      -0.295   1.116   0.191  0.00  0.00     0.130 A 
ATOM      2  C2  DEN d   1      -0.065   1.218  -1.248  0.00  0.00    -0.031 A 
ATOM      3  C3  DEN d   1      -0.168  -0.137  -1.824  0.00  0.00     0.027 A 
ATOM      4  C4  DEN d   1      -0.663  -2.372  -0.635  0.00  0.00     0.027 A 
ATOM      5  C5  DEN d   1      -0.917  -2.964   0.583  0.00  0.00    -0.003 A 
ATOM      6  C6  DEN d   1      -0.947  -2.248   1.750  0.00  0.00     0.001 A 
ATOM      7  C7  DEN d   1      -0.765  -0.891   1.719  0.00  0.00     0.017 A 
ATOM      8  C8  DEN d   1      -0.501  -0.288   0.496  0.00  0.00    -0.094 A 
ATOM      9  C9  DEN d   1      -0.486  -1.027  -0.675  0.00  0.00    -0.072 A 
ENDROOT
TORSDOF 0
ENDMDL
