MODEL 1
REMARK minimizedAffinity -2.85801387
REMARK minimizedRMSD -1
REMARK  0 active torsions:
REMARK  status: ('A' for Active; 'I' for Inactive)
ROOT
ATOM      1  C1  DEN d   1      -0.680  -2.655  -0.218  0.00  0.00     0.130 A 
ATOM      2  C2  DEN d   1      -1.167  -2.327   1.119  0.00  0.00    -0.031 A 
ATOM      3  C3  DEN d   1      -1.086  -0.862   1.288  0.00  0.00     0.027 A 
ATOM      4  C4  DEN d   1      -0.263   0.921  -0.384  0.00  0.00     0.027 A 
ATOM      5  C5  DEN d   1       0.259   1.124  -1.643  0.00  0.00    -0.003 A 
ATOM      6  C6  DEN d   1       0.534   0.087  -2.495  0.00  0.00     0.001 A 
ATOM      7  C7  DEN d   1       0.246  -1.198  -2.116  0.00  0.00     0.017 A 
ATOM      8  C8  DEN d   1      -0.273  -1.411  -0.846  0.00  0.00    -0.094 A 
ATOM      9  C9  DEN d   1      -0.555  -0.349  -0.004  0.00  0.00    -0.072 A 
ENDROOT
TORSDOF 0
ENDMDL
