MODEL 1
REMARK minimizedAffinity -1.87860262
REMARK minimizedRMSD -1
REMARK  0 active torsions:
REMARK  status: ('A' for Active; 'I' for Inactive)
ROOT
ATOM      1  C1  DEN d   1      -0.695  -0.039   2.001  0.00  0.00     0.130 A 
ATOM      2  C2  DEN d   1      -0.488   1.405   1.951  0.00  0.00    -0.031 A 
ATOM      3  C3  DEN d   1      -0.019   1.753   0.595  0.00  0.00     0.027 A 
ATOM      4  C4  DEN d   1       0.399   0.204  -1.424  0.00  0.00     0.027 A 
ATOM      5  C5  DEN d   1       0.372  -1.102  -1.861  0.00  0.00    -0.003 A 
ATOM      6  C6  DEN d   1       0.024  -2.141  -1.039  0.00  0.00     0.001 A 
ATOM      7  C7  DEN d   1      -0.356  -1.886   0.252  0.00  0.00     0.017 A 
ATOM      8  C8  DEN d   1      -0.325  -0.573   0.702  0.00  0.00    -0.094 A 
ATOM      9  C9  DEN d   1       0.018   0.465  -0.148  0.00  0.00    -0.072 A 
ENDROOT
TORSDOF 0
ENDMDL
