MODEL 1
REMARK minimizedAffinity -3.49041319
REMARK minimizedRMSD -1
REMARK  0 active torsions:
REMARK  status: ('A' for Active; 'I' for Inactive)
ROOT
ATOM      1  C1  DEN d   1       0.177   1.816   0.565  0.00  0.00     0.130 A 
ATOM      2  C2  DEN d   1       0.029   2.505  -0.714  0.00  0.00    -0.031 A 
ATOM      3  C3  DEN d   1      -0.216   1.487  -1.756  0.00  0.00     0.027 A 
ATOM      4  C4  DEN d   1      -0.383  -1.075  -1.513  0.00  0.00     0.027 A 
ATOM      5  C5  DEN d   1      -0.313  -2.125  -0.625  0.00  0.00    -0.003 A 
ATOM      6  C6  DEN d   1      -0.044  -1.940   0.705  0.00  0.00     0.001 A 
ATOM      7  C7  DEN d   1       0.121  -0.671   1.194  0.00  0.00     0.017 A 
ATOM      8  C8  DEN d   1       0.060   0.392   0.303  0.00  0.00    -0.094 A 
ATOM      9  C9  DEN d   1      -0.225   0.185  -1.036  0.00  0.00    -0.072 A 
ENDROOT
TORSDOF 0
ENDMDL
