MODEL 1
REMARK minimizedAffinity 5.04830456
REMARK minimizedRMSD -1
REMARK  0 active torsions:
REMARK  status: ('A' for Active; 'I' for Inactive)
ROOT
ATOM      1  C   UNL d   1       0.259   2.227   0.168  0.00  0.00     0.172 C 
ATOM      2  N   UNL d   1      -1.167   2.146  -0.043  0.00  0.00    -0.070 N 
ATOM      3  C1  UNL d   1      -1.958   3.144  -0.546  0.00  0.00    -0.004 A 
ATOM      4  C2  UNL d   1      -3.252   2.675  -0.592  0.00  0.00    -0.047 A 
ATOM      5  C3  UNL d   1      -3.240   1.349  -0.099  0.00  0.00    -0.047 A 
ATOM      6  C4  UNL d   1      -1.936   1.047   0.234  0.00  0.00    -0.004 A 
ENDROOT
TORSDOF 0
ENDMDL
