MODEL 1
REMARK minimizedAffinity -3.86602783
REMARK minimizedRMSD -1
REMARK  0 active torsions:
REMARK  status: ('A' for Active; 'I' for Inactive)
ROOT
ATOM      1  C   UNL d   1       0.983   1.439   0.754  0.00  0.00     0.172 C 
ATOM      2  N   UNL d   1      -0.429   1.140   0.792  0.00  0.00    -0.070 N 
ATOM      3  C1  UNL d   1      -0.989  -0.003   1.296  0.00  0.00    -0.004 A 
ATOM      4  C2  UNL d   1      -2.356   0.096   1.148  0.00  0.00    -0.047 A 
ATOM      5  C3  UNL d   1      -2.626   1.342   0.534  0.00  0.00    -0.047 A 
ATOM      6  C4  UNL d   1      -1.415   1.968   0.325  0.00  0.00    -0.004 A 
ENDROOT
TORSDOF 0
ENDMDL
