MODEL 1
REMARK minimizedAffinity -0.925683916
REMARK minimizedRMSD -1
REMARK  0 active torsions:
REMARK  status: ('A' for Active; 'I' for Inactive)
ROOT
ATOM      1  C   UNL d   1       0.611   1.244   0.883  0.00  0.00     0.172 C 
ATOM      2  N   UNL d   1      -0.752   1.388   0.429  0.00  0.00    -0.070 N 
ATOM      3  C1  UNL d   1      -1.343   2.560   0.038  0.00  0.00    -0.004 A 
ATOM      4  C2  UNL d   1      -2.643   2.277  -0.323  0.00  0.00    -0.047 A 
ATOM      5  C3  UNL d   1      -2.840   0.887  -0.141  0.00  0.00    -0.047 A 
ATOM      6  C4  UNL d   1      -1.653   0.362   0.325  0.00  0.00    -0.004 A 
ENDROOT
TORSDOF 0
ENDMDL
