MODEL 1
REMARK minimizedAffinity -1.40115035
REMARK minimizedRMSD -1
REMARK  0 active torsions:
REMARK  status: ('A' for Active; 'I' for Inactive)
ROOT
ATOM      1  C   UNL d   1      -4.013  -0.107   1.431  0.00  0.00     0.172 C 
ATOM      2  N   UNL d   1      -2.797   0.500   0.943  0.00  0.00    -0.070 N 
ATOM      3  C1  UNL d   1      -2.689   1.758   0.415  0.00  0.00    -0.004 A 
ATOM      4  C2  UNL d   1      -1.369   1.960   0.071  0.00  0.00    -0.047 A 
ATOM      5  C3  UNL d   1      -0.661   0.781   0.402  0.00  0.00    -0.047 A 
ATOM      6  C4  UNL d   1      -1.568  -0.107   0.940  0.00  0.00    -0.004 A 
ENDROOT
TORSDOF 0
ENDMDL
