MODEL 1
REMARK minimizedAffinity 1.91598487
REMARK minimizedRMSD -1
REMARK  0 active torsions:
REMARK  status: ('A' for Active; 'I' for Inactive)
ROOT
ATOM      1  C   UNL d   1       4.658   2.664   3.764  0.00  0.00     0.172 C 
ATOM      2  N   UNL d   1       4.985   3.911   4.415  0.00  0.00    -0.070 N 
ATOM      3  C1  UNL d   1       5.476   5.030   3.796  0.00  0.00    -0.004 A 
ATOM      4  C2  UNL d   1       5.655   6.000   4.759  0.00  0.00    -0.047 A 
ATOM      5  C3  UNL d   1       5.259   5.444   5.999  0.00  0.00    -0.047 A 
ATOM      6  C4  UNL d   1       4.849   4.150   5.757  0.00  0.00    -0.004 A 
ENDROOT
TORSDOF 0
ENDMDL
