MODEL 1
REMARK minimizedAffinity -1.96440744
REMARK minimizedRMSD -1
REMARK  0 active torsions:
REMARK  status: ('A' for Active; 'I' for Inactive)
ROOT
ATOM      1  C   UNL d   1      -2.689   2.622  -0.444  0.00  0.00     0.172 C 
ATOM      2  N   UNL d   1      -1.667   1.750   0.085  0.00  0.00    -0.070 N 
ATOM      3  C1  UNL d   1      -1.881   0.521   0.649  0.00  0.00    -0.004 A 
ATOM      4  C2  UNL d   1      -0.657   0.011   1.026  0.00  0.00    -0.047 A 
ATOM      5  C3  UNL d   1       0.326   0.967   0.678  0.00  0.00    -0.047 A 
ATOM      6  C4  UNL d   1      -0.327   2.034   0.097  0.00  0.00    -0.004 A 
ENDROOT
TORSDOF 0
ENDMDL
