MODEL 1
REMARK minimizedAffinity 4.56934595
REMARK minimizedRMSD -1
REMARK  0 active torsions:
REMARK  status: ('A' for Active; 'I' for Inactive)
ROOT
ATOM      1  C   UNL d   1       0.464   1.884   0.643  0.00  0.00     0.172 C 
ATOM      2  N   UNL d   1      -0.927   1.642   0.340  0.00  0.00    -0.070 N 
ATOM      3  C1  UNL d   1      -1.745   2.473  -0.378  0.00  0.00    -0.004 A 
ATOM      4  C2  UNL d   1      -2.990   1.886  -0.444  0.00  0.00    -0.047 A 
ATOM      5  C3  UNL d   1      -2.918   0.660   0.260  0.00  0.00    -0.047 A 
ATOM      6  C4  UNL d   1      -1.630   0.534   0.735  0.00  0.00    -0.004 A 
ENDROOT
TORSDOF 0
ENDMDL
