MODEL 1
REMARK minimizedAffinity -1.4913491
REMARK minimizedRMSD -1
REMARK  0 active torsions:
REMARK  status: ('A' for Active; 'I' for Inactive)
ROOT
ATOM      1  C   UNL d   1      -3.418   0.022   0.989  0.00  0.00     0.172 C 
ATOM      2  N   UNL d   1      -2.194   0.729   0.693  0.00  0.00    -0.070 N 
ATOM      3  C1  UNL d   1      -2.108   1.989   0.164  0.00  0.00    -0.004 A 
ATOM      4  C2  UNL d   1      -0.772   2.301   0.035  0.00  0.00    -0.047 A 
ATOM      5  C3  UNL d   1      -0.029   1.190   0.501  0.00  0.00    -0.047 A 
ATOM      6  C4  UNL d   1      -0.935   0.231   0.902  0.00  0.00    -0.004 A 
ENDROOT
TORSDOF 0
ENDMDL
