MODEL 1
REMARK minimizedAffinity -2.00539827
REMARK minimizedRMSD -1
REMARK  0 active torsions:
REMARK  status: ('A' for Active; 'I' for Inactive)
ROOT
ATOM      1  C   UNL d   1       0.556   0.722   0.780  0.00  0.00     0.172 C 
ATOM      2  N   UNL d   1      -0.803   1.159   0.563  0.00  0.00    -0.070 N 
ATOM      3  C1  UNL d   1      -1.897   0.343   0.456  0.00  0.00    -0.004 A 
ATOM      4  C2  UNL d   1      -3.002   1.142   0.253  0.00  0.00    -0.047 A 
ATOM      5  C3  UNL d   1      -2.556   2.485   0.237  0.00  0.00    -0.047 A 
ATOM      6  C4  UNL d   1      -1.191   2.467   0.431  0.00  0.00    -0.004 A 
ENDROOT
TORSDOF 0
ENDMDL
