MODEL 1
REMARK minimizedAffinity -2.3727417
REMARK minimizedRMSD -1
REMARK  0 active torsions:
REMARK  status: ('A' for Active; 'I' for Inactive)
ROOT
ATOM      1  C   UNL d   1       0.589   1.175   0.761  0.00  0.00     0.172 C 
ATOM      2  N   UNL d   1      -0.836   1.281   0.558  0.00  0.00    -0.070 N 
ATOM      3  C1  UNL d   1      -1.485   2.346  -0.009  0.00  0.00    -0.004 A 
ATOM      4  C2  UNL d   1      -2.833   2.061  -0.022  0.00  0.00    -0.047 A 
ATOM      5  C3  UNL d   1      -3.001   0.781   0.559  0.00  0.00    -0.047 A 
ATOM      6  C4  UNL d   1      -1.749   0.322   0.909  0.00  0.00    -0.004 A 
ENDROOT
TORSDOF 0
ENDMDL
