MODEL 1
REMARK minimizedAffinity 0.309907526
REMARK minimizedRMSD -1
REMARK  0 active torsions:
REMARK  status: ('A' for Active; 'I' for Inactive)
ROOT
ATOM      1  C   UNL d   1       0.396   2.428   0.421  0.00  0.00     0.172 C 
ATOM      2  N   UNL d   1      -1.004   2.078   0.366  0.00  0.00    -0.070 N 
ATOM      3  C1  UNL d   1      -1.970   2.756  -0.327  0.00  0.00    -0.004 A 
ATOM      4  C2  UNL d   1      -3.169   2.107  -0.126  0.00  0.00    -0.047 A 
ATOM      5  C3  UNL d   1      -2.915   1.001   0.719  0.00  0.00    -0.047 A 
ATOM      6  C4  UNL d   1      -1.567   1.006   1.008  0.00  0.00    -0.004 A 
ENDROOT
TORSDOF 0
ENDMDL
