MODEL 1
REMARK minimizedAffinity -0.0830404386
REMARK minimizedRMSD -1
REMARK  0 active torsions:
REMARK  status: ('A' for Active; 'I' for Inactive)
ROOT
ATOM      1  C   UNL d   1       3.824   1.811   1.440  0.00  0.00     0.172 C 
ATOM      2  N   UNL d   1       2.384   1.755   1.353  0.00  0.00    -0.070 N 
ATOM      3  C1  UNL d   1       1.510   2.510   2.089  0.00  0.00    -0.004 A 
ATOM      4  C2  UNL d   1       0.230   2.162   1.712  0.00  0.00    -0.047 A 
ATOM      5  C3  UNL d   1       0.339   1.163   0.716  0.00  0.00    -0.047 A 
ATOM      6  C4  UNL d   1       1.683   0.930   0.513  0.00  0.00    -0.004 A 
ENDROOT
TORSDOF 0
ENDMDL
