MODEL 1
REMARK minimizedAffinity -0.737007082
REMARK minimizedRMSD -1
REMARK  0 active torsions:
REMARK  status: ('A' for Active; 'I' for Inactive)
ROOT
ATOM      1  C   UNL d   1       2.190   2.203   2.242  0.00  0.00     0.172 C 
ATOM      2  N   UNL d   1       1.115   1.769   1.380  0.00  0.00    -0.070 N 
ATOM      3  C1  UNL d   1       1.256   1.004   0.253  0.00  0.00    -0.004 A 
ATOM      4  C2  UNL d   1       0.001   0.808  -0.283  0.00  0.00    -0.047 A 
ATOM      5  C3  UNL d   1      -0.925   1.479   0.550  0.00  0.00    -0.047 A 
ATOM      6  C4  UNL d   1      -0.208   2.065   1.572  0.00  0.00    -0.004 A 
ENDROOT
TORSDOF 0
ENDMDL
