MODEL 1
REMARK minimizedAffinity 4.30495024
REMARK minimizedRMSD -1
REMARK  0 active torsions:
REMARK  status: ('A' for Active; 'I' for Inactive)
ROOT
ATOM      1  C   UNL d   1       0.036  -1.164   0.851  0.00  0.00     0.172 C 
ATOM      2  N   UNL d   1       0.575   0.110   0.436  0.00  0.00    -0.070 N 
ATOM      3  C1  UNL d   1       0.900   0.459  -0.848  0.00  0.00    -0.004 A 
ATOM      4  C2  UNL d   1       1.379   1.751  -0.825  0.00  0.00    -0.047 A 
ATOM      5  C3  UNL d   1       1.340   2.193   0.518  0.00  0.00    -0.047 A 
ATOM      6  C4  UNL d   1       0.839   1.158   1.278  0.00  0.00    -0.004 A 
ENDROOT
TORSDOF 0
ENDMDL
