MODEL 1
REMARK minimizedAffinity 11.6079416
REMARK minimizedRMSD -1
REMARK  0 active torsions:
REMARK  status: ('A' for Active; 'I' for Inactive)
ROOT
ATOM      1  C2' OXE d   1      -3.193   4.134   2.660  0.00  0.00     0.078 C 
ATOM      2  C1' OXE d   1      -6.000   4.168   2.660  0.00  0.00     0.078 C 
ATOM      3  C1  OXE d   1      -5.289   4.797   3.832  0.00  0.00    -0.078 A 
ATOM      4  C2  OXE d   1      -3.916   4.734   3.847  0.00  0.00    -0.078 A 
ATOM      5  C3  OXE d   1      -3.209   5.347   4.877  0.00  0.00     0.003 A 
ATOM      6  C4  OXE d   1      -3.885   5.892   5.975  0.00  0.00    -0.002 A 
ATOM      7  C5  OXE d   1      -5.283   5.930   6.000  0.00  0.00    -0.002 A 
ATOM      8  C6  OXE d   1      -5.998   5.426   4.919  0.00  0.00     0.003 A 
ENDROOT
TORSDOF 0
ENDMDL
