MODEL 1
REMARK minimizedAffinity 11.4210405
REMARK minimizedRMSD -1
REMARK  0 active torsions:
REMARK  status: ('A' for Active; 'I' for Inactive)
ROOT
ATOM      1  C2' OXE d   1      -5.998   3.911   1.831  0.00  0.00     0.078 C 
ATOM      2  C1' OXE d   1      -5.238   1.845   3.573  0.00  0.00     0.078 C 
ATOM      3  C1  OXE d   1      -5.385   3.232   4.148  0.00  0.00    -0.078 A 
ATOM      4  C2  OXE d   1      -5.712   4.245   3.279  0.00  0.00    -0.078 A 
ATOM      5  C3  OXE d   1      -5.914   5.533   3.766  0.00  0.00     0.003 A 
ATOM      6  C4  OXE d   1      -5.637   5.836   5.105  0.00  0.00    -0.002 A 
ATOM      7  C5  OXE d   1      -5.264   4.826   5.999  0.00  0.00    -0.002 A 
ATOM      8  C6  OXE d   1      -5.175   3.514   5.547  0.00  0.00     0.003 A 
ENDROOT
TORSDOF 0
ENDMDL
