MODEL 1
REMARK minimizedAffinity 17.0611992
REMARK minimizedRMSD -1
REMARK  0 active torsions:
REMARK  status: ('A' for Active; 'I' for Inactive)
ROOT
ATOM      1  C2' OXE d   1      -3.041   4.330   2.684  0.00  0.00     0.078 C 
ATOM      2  C1' OXE d   1      -5.131   3.364   1.078  0.00  0.00     0.078 C 
ATOM      3  C1  OXE d   1      -3.850   2.569   1.119  0.00  0.00    -0.078 A 
ATOM      4  C2  OXE d   1      -2.816   3.073   1.870  0.00  0.00    -0.078 A 
ATOM      5  C3  OXE d   1      -1.632   2.352   1.986  0.00  0.00     0.003 A 
ATOM      6  C4  OXE d   1      -1.429   1.196   1.222  0.00  0.00    -0.002 A 
ATOM      7  C5  OXE d   1      -2.455   0.686   0.419  0.00  0.00    -0.002 A 
ATOM      8  C6  OXE d   1      -3.684   1.336   0.389  0.00  0.00     0.003 A 
ENDROOT
TORSDOF 0
ENDMDL
