MODEL 1
REMARK minimizedAffinity 15.6577053
REMARK minimizedRMSD -1
REMARK  0 active torsions:
REMARK  status: ('A' for Active; 'I' for Inactive)
ROOT
ATOM      1  C2' OXE d   1       4.093  -0.209  -5.799  0.00  0.00     0.078 C 
ATOM      2  C1' OXE d   1       1.758   1.347  -5.728  0.00  0.00     0.078 C 
ATOM      3  C1  OXE d   1       3.079   2.066  -5.841  0.00  0.00    -0.078 A 
ATOM      4  C2  OXE d   1       4.219   1.298  -5.828  0.00  0.00    -0.078 A 
ATOM      5  C3  OXE d   1       5.461   1.907  -5.984  0.00  0.00     0.003 A 
ATOM      6  C4  OXE d   1       5.570   3.303  -6.000  0.00  0.00    -0.002 A 
ATOM      7  C5  OXE d   1       4.423   4.104  -5.974  0.00  0.00    -0.002 A 
ATOM      8  C6  OXE d   1       3.171   3.501  -5.938  0.00  0.00     0.003 A 
ENDROOT
TORSDOF 0
ENDMDL
