MODEL 1
REMARK minimizedAffinity 13.5536613
REMARK minimizedRMSD -1
REMARK  0 active torsions:
REMARK  status: ('A' for Active; 'I' for Inactive)
ROOT
ATOM      1  C2' OXE d   1       5.988   3.723  -4.666  0.00  0.00     0.078 C 
ATOM      2  C1' OXE d   1       4.512   1.742  -6.000  0.00  0.00     0.078 C 
ATOM      3  C1  OXE d   1       3.807   3.029  -5.650  0.00  0.00    -0.078 A 
ATOM      4  C2  OXE d   1       4.524   3.974  -4.957  0.00  0.00    -0.078 A 
ATOM      5  C3  OXE d   1       3.938   5.201  -4.657  0.00  0.00     0.003 A 
ATOM      6  C4  OXE d   1       2.580   5.421  -4.921  0.00  0.00    -0.002 A 
ATOM      7  C5  OXE d   1       1.822   4.456  -5.591  0.00  0.00    -0.002 A 
ATOM      8  C6  OXE d   1       2.430   3.274  -6.000  0.00  0.00     0.003 A 
ENDROOT
TORSDOF 0
ENDMDL
