MODEL 1
REMARK minimizedAffinity 14.0578833
REMARK minimizedRMSD -1
REMARK  0 active torsions:
REMARK  status: ('A' for Active; 'I' for Inactive)
ROOT
ATOM      1  C2' OXE d   1      -5.741   2.279   1.982  0.00  0.00     0.078 C 
ATOM      2  C1' OXE d   1      -3.620   3.604   3.256  0.00  0.00     0.078 C 
ATOM      3  C1  OXE d   1      -3.330   2.274   2.607  0.00  0.00    -0.078 A 
ATOM      4  C2  OXE d   1      -4.384   1.611   2.026  0.00  0.00    -0.078 A 
ATOM      5  C3  OXE d   1      -4.161   0.406   1.366  0.00  0.00     0.003 A 
ATOM      6  C4  OXE d   1      -2.905  -0.210   1.421  0.00  0.00    -0.002 A 
ATOM      7  C5  OXE d   1      -1.827   0.429   2.042  0.00  0.00    -0.002 A 
ATOM      8  C6  OXE d   1      -2.012   1.688   2.601  0.00  0.00     0.003 A 
ENDROOT
TORSDOF 0
ENDMDL
