MODEL 1
REMARK minimizedAffinity 4.27433395
REMARK minimizedRMSD -1
REMARK  0 active torsions:
REMARK  status: ('A' for Active; 'I' for Inactive)
ROOT
ATOM      1  C2' OXE d   1       4.495   0.630   0.148  0.00  0.00     0.078 C 
ATOM      2  C1' OXE d   1       2.432   2.316  -0.739  0.00  0.00     0.078 C 
ATOM      3  C1  OXE d   1       2.221   1.564   0.551  0.00  0.00    -0.078 A 
ATOM      4  C2  OXE d   1       3.216   0.706   0.954  0.00  0.00    -0.078 A 
ATOM      5  C3  OXE d   1       3.095   0.030   2.164  0.00  0.00     0.003 A 
ATOM      6  C4  OXE d   1       1.905   0.098   2.899  0.00  0.00    -0.002 A 
ATOM      7  C5  OXE d   1       0.863   0.936   2.486  0.00  0.00    -0.002 A 
ATOM      8  C6  OXE d   1       1.022   1.706   1.340  0.00  0.00     0.003 A 
ENDROOT
TORSDOF 0
ENDMDL
