MODEL 1
REMARK minimizedAffinity 4.75889826
REMARK minimizedRMSD -1
REMARK  0 active torsions:
REMARK  status: ('A' for Active; 'I' for Inactive)
ROOT
ATOM      1  C2' OXE d   1       1.531   0.348   3.087  0.00  0.00     0.078 C 
ATOM      2  C1' OXE d   1      -0.647  -1.329   3.658  0.00  0.00     0.078 C 
ATOM      3  C1  OXE d   1      -0.937   0.012   3.030  0.00  0.00    -0.078 A 
ATOM      4  C2  OXE d   1       0.131   0.845   2.797  0.00  0.00    -0.078 A 
ATOM      5  C3  OXE d   1      -0.075   2.070   2.169  0.00  0.00     0.003 A 
ATOM      6  C4  OXE d   1      -1.374   2.526   1.913  0.00  0.00    -0.002 A 
ATOM      7  C5  OXE d   1      -2.478   1.710   2.179  0.00  0.00    -0.002 A 
ATOM      8  C6  OXE d   1      -2.275   0.436   2.697  0.00  0.00     0.003 A 
ENDROOT
TORSDOF 0
ENDMDL
