MODEL 1
REMARK minimizedAffinity 6.54797935
REMARK minimizedRMSD -1
REMARK  0 active torsions:
REMARK  status: ('A' for Active; 'I' for Inactive)
ROOT
ATOM      1  C2' OXE d   1      -0.624  -2.624  -5.994  0.00  0.00     0.078 C 
ATOM      2  C1' OXE d   1      -1.709  -0.504  -4.508  0.00  0.00     0.078 C 
ATOM      3  C1  OXE d   1      -2.628  -1.635  -4.895  0.00  0.00    -0.078 A 
ATOM      4  C2  OXE d   1      -2.100  -2.645  -5.662  0.00  0.00    -0.078 A 
ATOM      5  C3  OXE d   1      -2.891  -3.740  -6.000  0.00  0.00     0.003 A 
ATOM      6  C4  OXE d   1      -4.258  -3.747  -5.697  0.00  0.00    -0.002 A 
ATOM      7  C5  OXE d   1      -4.825  -2.708  -4.950  0.00  0.00    -0.002 A 
ATOM      8  C6  OXE d   1      -4.017  -1.668  -4.506  0.00  0.00     0.003 A 
ENDROOT
TORSDOF 0
ENDMDL
