MODEL 1
REMARK minimizedAffinity 9.5551157
REMARK minimizedRMSD -1
REMARK  0 active torsions:
REMARK  status: ('A' for Active; 'I' for Inactive)
ROOT
ATOM      1  C2' OXE d   1      -3.542  -3.080  -5.978  0.00  0.00     0.078 C 
ATOM      2  C1' OXE d   1      -0.747  -3.340  -5.999  0.00  0.00     0.078 C 
ATOM      3  C1  OXE d   1      -1.324  -1.946  -5.963  0.00  0.00    -0.078 A 
ATOM      4  C2  OXE d   1      -2.692  -1.828  -6.000  0.00  0.00    -0.078 A 
ATOM      5  C3  OXE d   1      -3.277  -0.568  -5.913  0.00  0.00     0.003 A 
ATOM      6  C4  OXE d   1      -2.484   0.586  -5.944  0.00  0.00    -0.002 A 
ATOM      7  C5  OXE d   1      -1.089   0.488  -5.946  0.00  0.00    -0.002 A 
ATOM      8  C6  OXE d   1      -0.494  -0.768  -5.913  0.00  0.00     0.003 A 
ENDROOT
TORSDOF 0
ENDMDL
