MODEL 1
REMARK minimizedAffinity 12.0720186
REMARK minimizedRMSD -1
REMARK  0 active torsions:
REMARK  status: ('A' for Active; 'I' for Inactive)
ROOT
ATOM      1  C2' OXE d   1       0.738  -0.533   3.182  0.00  0.00     0.078 C 
ATOM      2  C1' OXE d   1       1.064   1.950   1.913  0.00  0.00     0.078 C 
ATOM      3  C1  OXE d   1      -0.333   1.390   2.015  0.00  0.00    -0.078 A 
ATOM      4  C2  OXE d   1      -0.477   0.153   2.596  0.00  0.00    -0.078 A 
ATOM      5  C3  OXE d   1      -1.750  -0.386   2.764  0.00  0.00     0.003 A 
ATOM      6  C4  OXE d   1      -2.867   0.250   2.210  0.00  0.00    -0.002 A 
ATOM      7  C5  OXE d   1      -2.737   1.492   1.579  0.00  0.00    -0.002 A 
ATOM      8  C6  OXE d   1      -1.486   2.094   1.511  0.00  0.00     0.003 A 
ENDROOT
TORSDOF 0
ENDMDL
