MODEL 1
REMARK minimizedAffinity 5.79599905
REMARK minimizedRMSD -1
REMARK  0 active torsions:
REMARK  status: ('A' for Active; 'I' for Inactive)
ROOT
ATOM      1  C2' OXE d   1      -4.999  -0.101   1.755  0.00  0.00     0.078 C 
ATOM      2  C1' OXE d   1      -4.265   2.568   1.290  0.00  0.00     0.078 C 
ATOM      3  C1  OXE d   1      -3.166   1.577   1.582  0.00  0.00    -0.078 A 
ATOM      4  C2  OXE d   1      -3.538   0.283   1.854  0.00  0.00    -0.078 A 
ATOM      5  C3  OXE d   1      -2.561  -0.683   2.076  0.00  0.00     0.003 A 
ATOM      6  C4  OXE d   1      -1.213  -0.318   2.176  0.00  0.00    -0.002 A 
ATOM      7  C5  OXE d   1      -0.816   1.003   1.941  0.00  0.00    -0.002 A 
ATOM      8  C6  OXE d   1      -1.774   1.952   1.601  0.00  0.00     0.003 A 
ENDROOT
TORSDOF 0
ENDMDL
