MODEL 1
REMARK minimizedAffinity 10.729003
REMARK minimizedRMSD -1
REMARK  0 active torsions:
REMARK  status: ('A' for Active; 'I' for Inactive)
ROOT
ATOM      1  C2' OXE d   1      -4.864   1.903   1.216  0.00  0.00     0.078 C 
ATOM      2  C1' OXE d   1      -4.868  -0.903   1.308  0.00  0.00     0.078 C 
ATOM      3  C1  OXE d   1      -3.574  -0.191   1.614  0.00  0.00    -0.078 A 
ATOM      4  C2  OXE d   1      -3.569   1.180   1.520  0.00  0.00    -0.078 A 
ATOM      5  C3  OXE d   1      -2.416   1.889   1.845  0.00  0.00     0.003 A 
ATOM      6  C4  OXE d   1      -1.221   1.213   2.115  0.00  0.00    -0.002 A 
ATOM      7  C5  OXE d   1      -1.194  -0.185   2.176  0.00  0.00    -0.002 A 
ATOM      8  C6  OXE d   1      -2.369  -0.898   1.970  0.00  0.00     0.003 A 
ENDROOT
TORSDOF 0
ENDMDL
