MODEL 1
REMARK minimizedAffinity 14.7380743
REMARK minimizedRMSD -1
REMARK  0 active torsions:
REMARK  status: ('A' for Active; 'I' for Inactive)
ROOT
ATOM      1  C2' OXE d   1      -5.573  -1.533   2.129  0.00  0.00     0.078 C 
ATOM      2  C1' OXE d   1      -4.225  -2.887   0.072  0.00  0.00     0.078 C 
ATOM      3  C1  OXE d   1      -3.431  -1.924   0.918  0.00  0.00    -0.078 A 
ATOM      4  C2  OXE d   1      -4.109  -1.231   1.892  0.00  0.00    -0.078 A 
ATOM      5  C3  OXE d   1      -3.413  -0.370   2.736  0.00  0.00     0.003 A 
ATOM      6  C4  OXE d   1      -2.062  -0.088   2.504  0.00  0.00    -0.002 A 
ATOM      7  C5  OXE d   1      -1.361  -0.753   1.492  0.00  0.00    -0.002 A 
ATOM      8  C6  OXE d   1      -2.020  -1.703   0.719  0.00  0.00     0.003 A 
ENDROOT
TORSDOF 0
ENDMDL
