MODEL 1
REMARK minimizedAffinity 16.5043297
REMARK minimizedRMSD -1
REMARK  0 active torsions:
REMARK  status: ('A' for Active; 'I' for Inactive)
ROOT
ATOM      1  C2' OXE d   1      -5.937  -3.388   3.398  0.00  0.00     0.078 C 
ATOM      2  C1' OXE d   1      -5.598  -0.883   2.177  0.00  0.00     0.078 C 
ATOM      3  C1  OXE d   1      -4.933  -1.110   3.512  0.00  0.00    -0.078 A 
ATOM      4  C2  OXE d   1      -5.143  -2.323   4.124  0.00  0.00    -0.078 A 
ATOM      5  C3  OXE d   1      -4.509  -2.605   5.330  0.00  0.00     0.003 A 
ATOM      6  C4  OXE d   1      -3.785  -1.611   6.000  0.00  0.00    -0.002 A 
ATOM      7  C5  OXE d   1      -3.592  -0.356   5.413  0.00  0.00    -0.002 A 
ATOM      8  C6  OXE d   1      -4.123  -0.104   4.152  0.00  0.00     0.003 A 
ENDROOT
TORSDOF 0
ENDMDL
