MODEL 1
REMARK minimizedAffinity 19.7680664
REMARK minimizedRMSD -1
REMARK  0 active torsions:
REMARK  status: ('A' for Active; 'I' for Inactive)
ROOT
ATOM      1  C2' OXE d   1       1.403   0.216   3.487  0.00  0.00     0.078 C 
ATOM      2  C1' OXE d   1       0.652   2.919   3.569  0.00  0.00     0.078 C 
ATOM      3  C1  OXE d   1      -0.377   1.917   3.109  0.00  0.00    -0.078 A 
ATOM      4  C2  OXE d   1       0.014   0.602   3.027  0.00  0.00    -0.078 A 
ATOM      5  C3  OXE d   1      -0.912  -0.370   2.661  0.00  0.00     0.003 A 
ATOM      6  C4  OXE d   1      -2.192  -0.003   2.227  0.00  0.00    -0.002 A 
ATOM      7  C5  OXE d   1      -2.597   1.335   2.264  0.00  0.00    -0.002 A 
ATOM      8  C6  OXE d   1      -1.717   2.301   2.742  0.00  0.00     0.003 A 
ENDROOT
TORSDOF 0
ENDMDL
