MODEL 1
REMARK minimizedAffinity 18.2938366
REMARK minimizedRMSD -1
REMARK  0 active torsions:
REMARK  status: ('A' for Active; 'I' for Inactive)
ROOT
ATOM      1  C2' OXE d   1      -3.602   0.425   2.786  0.00  0.00     0.078 C 
ATOM      2  C1' OXE d   1      -5.529  -1.528   2.189  0.00  0.00     0.078 C 
ATOM      3  C1  OXE d   1      -4.866  -1.584   3.543  0.00  0.00    -0.078 A 
ATOM      4  C2  OXE d   1      -3.891  -0.653   3.808  0.00  0.00    -0.078 A 
ATOM      5  C3  OXE d   1      -3.286  -0.626   5.062  0.00  0.00     0.003 A 
ATOM      6  C4  OXE d   1      -3.552  -1.632   5.999  0.00  0.00    -0.002 A 
ATOM      7  C5  OXE d   1      -4.512  -2.613   5.733  0.00  0.00    -0.002 A 
ATOM      8  C6  OXE d   1      -5.208  -2.579   4.529  0.00  0.00     0.003 A 
ENDROOT
TORSDOF 0
ENDMDL
