MODEL 1
REMARK minimizedAffinity 12.8476391
REMARK minimizedRMSD -1
REMARK  0 active torsions:
REMARK  status: ('A' for Active; 'I' for Inactive)
ROOT
ATOM      1  C2' OXE d   1      -6.000  -1.866   1.517  0.00  0.00     0.078 C 
ATOM      2  C1' OXE d   1      -3.716  -2.751   0.146  0.00  0.00     0.078 C 
ATOM      3  C1  OXE d   1      -3.639  -1.423   0.858  0.00  0.00    -0.078 A 
ATOM      4  C2  OXE d   1      -4.776  -0.976   1.487  0.00  0.00    -0.078 A 
ATOM      5  C3  OXE d   1      -4.743   0.216   2.204  0.00  0.00     0.003 A 
ATOM      6  C4  OXE d   1      -3.610   1.038   2.163  0.00  0.00    -0.002 A 
ATOM      7  C5  OXE d   1      -2.454   0.619   1.495  0.00  0.00    -0.002 A 
ATOM      8  C6  OXE d   1      -2.438  -0.625   0.874  0.00  0.00     0.003 A 
ENDROOT
TORSDOF 0
ENDMDL
