MODEL 1
REMARK minimizedAffinity -0.665519118
REMARK minimizedRMSD -1
REMARK  0 active torsions:
REMARK  status: ('A' for Active; 'I' for Inactive)
ROOT
ATOM      1  C2' OXE d   1       5.662  -2.312   4.752  0.00  0.00     0.078 C 
ATOM      2  C1' OXE d   1       5.995  -4.806   5.997  0.00  0.00     0.078 C 
ATOM      3  C1  OXE d   1       5.705  -4.791   4.517  0.00  0.00    -0.078 A 
ATOM      4  C2  OXE d   1       5.497  -3.569   3.926  0.00  0.00    -0.078 A 
ATOM      5  C3  OXE d   1       5.280  -3.495   2.553  0.00  0.00     0.003 A 
ATOM      6  C4  OXE d   1       5.119  -4.663   1.797  0.00  0.00    -0.002 A 
ATOM      7  C5  OXE d   1       5.287  -5.920   2.388  0.00  0.00    -0.002 A 
ATOM      8  C6  OXE d   1       5.622  -6.000   3.735  0.00  0.00     0.003 A 
ENDROOT
TORSDOF 0
ENDMDL
