MODEL 1
REMARK minimizedAffinity -1.24372041
REMARK minimizedRMSD -1
REMARK  0 active torsions:
REMARK  status: ('A' for Active; 'I' for Inactive)
ROOT
ATOM      1  C   UNL d   1      -0.521  -0.284   2.599  0.00  0.00    -0.002 A 
ATOM      2  C1  UNL d   1       0.478  -1.245   2.553  0.00  0.00     0.010 A 
ATOM      3  C2  UNL d   1       1.132  -1.533   1.354  0.00  0.00     0.041 A 
ATOM      4  C3  UNL d   1       0.762  -0.831   0.190  0.00  0.00    -0.075 A 
ATOM      5  S   UNL d   1       1.426  -1.015  -1.390  0.00  0.00     0.015 SA
ATOM      6  C4  UNL d   1       0.398   0.179  -2.042  0.00  0.00     0.022 A 
ATOM      7  C5  UNL d   1      -0.437   0.715  -1.091  0.00  0.00     0.026 A 
ATOM      8  C6  UNL d   1      -0.241   0.142   0.211  0.00  0.00    -0.082 A 
ATOM      9  C7  UNL d   1      -0.886   0.411   1.443  0.00  0.00     0.045 A 
ENDROOT
TORSDOF 0
ENDMDL
