MODEL 1
REMARK minimizedAffinity -2.58354783
REMARK minimizedRMSD -1
REMARK  0 active torsions:
REMARK  status: ('A' for Active; 'I' for Inactive)
ROOT
ATOM      1  C   UNL d   1      -0.022  -0.438   3.089  0.00  0.00    -0.002 A 
ATOM      2  C1  UNL d   1       1.277  -0.884   2.893  0.00  0.00     0.010 A 
ATOM      3  C2  UNL d   1       1.813  -0.966   1.606  0.00  0.00     0.041 A 
ATOM      4  C3  UNL d   1       1.013  -0.586   0.510  0.00  0.00    -0.075 A 
ATOM      5  S   UNL d   1       1.458  -0.601  -1.156  0.00  0.00     0.015 SA
ATOM      6  C4  UNL d   1      -0.065  -0.015  -1.645  0.00  0.00     0.022 A 
ATOM      7  C5  UNL d   1      -0.905   0.193  -0.577  0.00  0.00     0.026 A 
ATOM      8  C6  UNL d   1      -0.297  -0.132   0.683  0.00  0.00    -0.082 A 
ATOM      9  C7  UNL d   1      -0.812  -0.062   2.000  0.00  0.00     0.045 A 
ENDROOT
TORSDOF 0
ENDMDL
