MODEL 1
REMARK minimizedAffinity 2.07709169
REMARK minimizedRMSD -1
REMARK  0 active torsions:
REMARK  status: ('A' for Active; 'I' for Inactive)
ROOT
ATOM      1  C   UNL d   1       2.596  -0.607   2.718  0.00  0.00    -0.002 A 
ATOM      2  C1  UNL d   1       2.735  -0.919   1.373  0.00  0.00     0.010 A 
ATOM      3  C2  UNL d   1       1.613  -1.021   0.548  0.00  0.00     0.041 A 
ATOM      4  C3  UNL d   1       0.337  -0.799   1.102  0.00  0.00    -0.075 A 
ATOM      5  S   UNL d   1      -1.179  -0.869   0.283  0.00  0.00     0.015 SA
ATOM      6  C4  UNL d   1      -2.046  -0.485   1.699  0.00  0.00     0.022 A 
ATOM      7  C5  UNL d   1      -1.215  -0.305   2.780  0.00  0.00     0.026 A 
ATOM      8  C6  UNL d   1       0.172  -0.483   2.454  0.00  0.00    -0.082 A 
ATOM      9  C7  UNL d   1       1.329  -0.388   3.264  0.00  0.00     0.045 A 
ENDROOT
TORSDOF 0
ENDMDL
