MODEL 1
REMARK minimizedAffinity 6.11215782
REMARK minimizedRMSD -1
REMARK  0 active torsions:
REMARK  status: ('A' for Active; 'I' for Inactive)
ROOT
ATOM      1  C   UNL d   1      -3.116   0.650   1.948  0.00  0.00    -0.002 A 
ATOM      2  C1  UNL d   1      -2.937  -0.050   0.763  0.00  0.00     0.010 A 
ATOM      3  C2  UNL d   1      -1.782  -0.805   0.551  0.00  0.00     0.041 A 
ATOM      4  C3  UNL d   1      -0.801  -0.848   1.562  0.00  0.00    -0.075 A 
ATOM      5  S   UNL d   1       0.693  -1.707   1.524  0.00  0.00     0.015 SA
ATOM      6  C4  UNL d   1       1.128  -1.167   3.081  0.00  0.00     0.022 A 
ATOM      7  C5  UNL d   1       0.169  -0.350   3.630  0.00  0.00     0.026 A 
ATOM      8  C6  UNL d   1      -0.959  -0.153   2.764  0.00  0.00    -0.082 A 
ATOM      9  C7  UNL d   1      -2.141   0.605   2.948  0.00  0.00     0.045 A 
ENDROOT
TORSDOF 0
ENDMDL
