MODEL 1
REMARK minimizedAffinity -3.97105861
REMARK minimizedRMSD -1
REMARK  0 active torsions:
REMARK  status: ('A' for Active; 'I' for Inactive)
ROOT
ATOM      1  C   UNL d   1       2.130   1.262  -0.504  0.00  0.00    -0.002 A 
ATOM      2  C1  UNL d   1       0.879   1.648  -0.042  0.00  0.00     0.010 A 
ATOM      3  C2  UNL d   1      -0.051   0.692   0.371  0.00  0.00     0.041 A 
ATOM      4  C3  UNL d   1       0.301  -0.671   0.313  0.00  0.00    -0.075 A 
ATOM      5  S   UNL d   1      -0.677  -2.017   0.768  0.00  0.00     0.015 SA
ATOM      6  C4  UNL d   1       0.543  -3.135   0.361  0.00  0.00     0.022 A 
ATOM      7  C5  UNL d   1       1.675  -2.515  -0.112  0.00  0.00     0.026 A 
ATOM      8  C6  UNL d   1       1.554  -1.084  -0.147  0.00  0.00    -0.082 A 
ATOM      9  C7  UNL d   1       2.475  -0.091  -0.560  0.00  0.00     0.045 A 
ENDROOT
TORSDOF 0
ENDMDL
