MODEL 1
REMARK minimizedAffinity -4.38573313
REMARK minimizedRMSD -1
REMARK  0 active torsions:
REMARK  status: ('A' for Active; 'I' for Inactive)
ROOT
ATOM      1  C   UNL d   1       1.506  -2.060  -0.075  0.00  0.00    -0.002 A 
ATOM      2  C1  UNL d   1       1.345  -1.593   1.222  0.00  0.00     0.010 A 
ATOM      3  C2  UNL d   1       0.548  -0.477   1.483  0.00  0.00     0.041 A 
ATOM      4  C3  UNL d   1      -0.094   0.167   0.407  0.00  0.00    -0.075 A 
ATOM      5  S   UNL d   1      -1.121   1.550   0.487  0.00  0.00     0.015 SA
ATOM      6  C4  UNL d   1      -1.371   1.554  -1.199  0.00  0.00     0.022 A 
ATOM      7  C5  UNL d   1      -0.696   0.532  -1.823  0.00  0.00     0.026 A 
ATOM      8  C6  UNL d   1       0.051  -0.284  -0.908  0.00  0.00    -0.082 A 
ATOM      9  C7  UNL d   1       0.867  -1.418  -1.139  0.00  0.00     0.045 A 
ENDROOT
TORSDOF 0
ENDMDL
