MODEL 1
REMARK minimizedAffinity -1.49534464
REMARK minimizedRMSD -1
REMARK  0 active torsions:
REMARK  status: ('A' for Active; 'I' for Inactive)
ROOT
ATOM      1  C   UNL d   1      -1.714   0.043   1.780  0.00  0.00    -0.002 A 
ATOM      2  C1  UNL d   1      -1.490   0.961   0.764  0.00  0.00     0.010 A 
ATOM      3  C2  UNL d   1      -0.316   0.912   0.009  0.00  0.00     0.041 A 
ATOM      4  C3  UNL d   1       0.637  -0.086   0.294  0.00  0.00    -0.075 A 
ATOM      5  S   UNL d   1       2.146  -0.339  -0.500  0.00  0.00     0.015 SA
ATOM      6  C4  UNL d   1       2.528  -1.673   0.490  0.00  0.00     0.022 A 
ATOM      7  C5  UNL d   1       1.539  -1.932   1.410  0.00  0.00     0.026 A 
ATOM      8  C6  UNL d   1       0.432  -1.022   1.312  0.00  0.00    -0.082 A 
ATOM      9  C7  UNL d   1      -0.767  -0.946   2.060  0.00  0.00     0.045 A 
ENDROOT
TORSDOF 0
ENDMDL
