MODEL 1
REMARK minimizedAffinity -3.45962238
REMARK minimizedRMSD -1
REMARK  0 active torsions:
REMARK  status: ('A' for Active; 'I' for Inactive)
ROOT
ATOM      1  C   UNL d   1      -0.134   0.585   0.651  0.00  0.00    -0.002 A 
ATOM      2  C1  UNL d   1      -0.083  -0.702   0.136  0.00  0.00     0.010 A 
ATOM      3  C2  UNL d   1      -0.595  -0.980  -1.133  0.00  0.00     0.041 A 
ATOM      4  C3  UNL d   1      -1.163   0.068  -1.884  0.00  0.00    -0.075 A 
ATOM      5  S   UNL d   1      -1.852  -0.038  -3.461  0.00  0.00     0.015 SA
ATOM      6  C4  UNL d   1      -2.229   1.624  -3.488  0.00  0.00     0.022 A 
ATOM      7  C5  UNL d   1      -1.847   2.259  -2.330  0.00  0.00     0.026 A 
ATOM      8  C6  UNL d   1      -1.226   1.373  -1.387  0.00  0.00    -0.082 A 
ATOM      9  C7  UNL d   1      -0.699   1.622  -0.097  0.00  0.00     0.045 A 
ENDROOT
TORSDOF 0
ENDMDL
