MODEL 1
REMARK minimizedAffinity -0.306910992
REMARK minimizedRMSD -1
REMARK  0 active torsions:
REMARK  status: ('A' for Active; 'I' for Inactive)
ROOT
ATOM      1  C   UNL d   1       1.705  -1.981   0.810  0.00  0.00    -0.002 A 
ATOM      2  C1  UNL d   1       0.477  -2.525   1.160  0.00  0.00     0.010 A 
ATOM      3  C2  UNL d   1      -0.708  -1.844   0.880  0.00  0.00     0.041 A 
ATOM      4  C3  UNL d   1      -0.640  -0.594   0.233  0.00  0.00    -0.075 A 
ATOM      5  S   UNL d   1      -1.961   0.420  -0.212  0.00  0.00     0.015 SA
ATOM      6  C4  UNL d   1      -0.927   1.600  -0.880  0.00  0.00     0.022 A 
ATOM      7  C5  UNL d   1       0.397   1.245  -0.774  0.00  0.00     0.026 A 
ATOM      8  C6  UNL d   1       0.584  -0.026  -0.131  0.00  0.00    -0.082 A 
ATOM      9  C7  UNL d   1       1.769  -0.741   0.168  0.00  0.00     0.045 A 
ENDROOT
TORSDOF 0
ENDMDL
