MODEL 1
REMARK minimizedAffinity -0.966772616
REMARK minimizedRMSD -1
REMARK  0 active torsions:
REMARK  status: ('A' for Active; 'I' for Inactive)
ROOT
ATOM      1  C   UNL d   1       1.461  -2.128   0.677  0.00  0.00    -0.002 A 
ATOM      2  C1  UNL d   1       0.257  -2.429   1.299  0.00  0.00     0.010 A 
ATOM      3  C2  UNL d   1      -0.816  -1.538   1.238  0.00  0.00     0.041 A 
ATOM      4  C3  UNL d   1      -0.659  -0.329   0.532  0.00  0.00    -0.075 A 
ATOM      5  S   UNL d   1      -1.836   0.913   0.322  0.00  0.00     0.015 SA
ATOM      6  C4  UNL d   1      -0.769   1.872  -0.599  0.00  0.00     0.022 A 
ATOM      7  C5  UNL d   1       0.460   1.274  -0.753  0.00  0.00     0.026 A 
ATOM      8  C6  UNL d   1       0.543  -0.004  -0.104  0.00  0.00    -0.082 A 
ATOM      9  C7  UNL d   1       1.613  -0.928  -0.022  0.00  0.00     0.045 A 
ENDROOT
TORSDOF 0
ENDMDL
