MODEL 1
REMARK minimizedAffinity -2.50043368
REMARK minimizedRMSD -1
REMARK  0 active torsions:
REMARK  status: ('A' for Active; 'I' for Inactive)
ROOT
ATOM      1  C   UNL d   1       1.230  -0.158   0.369  0.00  0.00    -0.002 A 
ATOM      2  C1  UNL d   1       0.180  -1.066   0.368  0.00  0.00     0.010 A 
ATOM      3  C2  UNL d   1      -1.049  -0.729  -0.203  0.00  0.00     0.041 A 
ATOM      4  C3  UNL d   1      -1.206   0.547  -0.779  0.00  0.00    -0.075 A 
ATOM      5  S   UNL d   1      -2.620   1.179  -1.536  0.00  0.00     0.015 SA
ATOM      6  C4  UNL d   1      -1.864   2.668  -1.876  0.00  0.00     0.022 A 
ATOM      7  C5  UNL d   1      -0.564   2.699  -1.429  0.00  0.00     0.026 A 
ATOM      8  C6  UNL d   1      -0.163   1.478  -0.790  0.00  0.00    -0.082 A 
ATOM      9  C7  UNL d   1       1.071   1.106  -0.203  0.00  0.00     0.045 A 
ENDROOT
TORSDOF 0
ENDMDL
