MODEL 1
REMARK minimizedAffinity -3.34538579
REMARK minimizedRMSD -1
REMARK  0 active torsions:
REMARK  status: ('A' for Active; 'I' for Inactive)
ROOT
ATOM      1  C   UNL d   1       1.954  -1.923   0.347  0.00  0.00    -0.002 A 
ATOM      2  C1  UNL d   1       0.742  -2.577   0.513  0.00  0.00     0.010 A 
ATOM      3  C2  UNL d   1      -0.460  -1.935   0.208  0.00  0.00     0.041 A 
ATOM      4  C3  UNL d   1      -0.421  -0.611  -0.274  0.00  0.00    -0.075 A 
ATOM      5  S   UNL d   1      -1.766   0.374  -0.714  0.00  0.00     0.015 SA
ATOM      6  C4  UNL d   1      -0.762   1.686  -1.133  0.00  0.00     0.022 A 
ATOM      7  C5  UNL d   1       0.569   1.397  -0.948  0.00  0.00     0.026 A 
ATOM      8  C6  UNL d   1       0.788   0.068  -0.450  0.00  0.00    -0.082 A 
ATOM      9  C7  UNL d   1       1.988  -0.610  -0.131  0.00  0.00     0.045 A 
ENDROOT
TORSDOF 0
ENDMDL
