MODEL 1
REMARK minimizedAffinity -0.80676049
REMARK minimizedRMSD -1
REMARK  0 active torsions:
REMARK  status: ('A' for Active; 'I' for Inactive)
ROOT
ATOM      1  C   UNL d   1       1.370  -0.966   0.351  0.00  0.00    -0.002 A 
ATOM      2  C1  UNL d   1       0.903  -1.753  -0.692  0.00  0.00     0.010 A 
ATOM      3  C2  UNL d   1      -0.004  -1.238  -1.620  0.00  0.00     0.041 A 
ATOM      4  C3  UNL d   1      -0.437   0.096  -1.482  0.00  0.00    -0.075 A 
ATOM      5  S   UNL d   1      -1.543   0.941  -2.500  0.00  0.00     0.015 SA
ATOM      6  C4  UNL d   1      -1.420   2.367  -1.575  0.00  0.00     0.022 A 
ATOM      7  C5  UNL d   1      -0.561   2.220  -0.511  0.00  0.00     0.026 A 
ATOM      8  C6  UNL d   1       0.020   0.909  -0.441  0.00  0.00    -0.082 A 
ATOM      9  C7  UNL d   1       0.939   0.357   0.484  0.00  0.00     0.045 A 
ENDROOT
TORSDOF 0
ENDMDL
