MODEL 1
REMARK minimizedAffinity -3.90411854
REMARK minimizedRMSD -1
REMARK  0 active torsions:
REMARK  status: ('A' for Active; 'I' for Inactive)
ROOT
ATOM      1  C   UNL d   1       1.922  -2.603   0.816  0.00  0.00    -0.002 A 
ATOM      2  C1  UNL d   1       0.677  -2.730   1.416  0.00  0.00     0.010 A 
ATOM      3  C2  UNL d   1      -0.302  -1.751   1.235  0.00  0.00     0.041 A 
ATOM      4  C3  UNL d   1      -0.006  -0.632   0.431  0.00  0.00    -0.075 A 
ATOM      5  S   UNL d   1      -1.050   0.691   0.066  0.00  0.00     0.015 SA
ATOM      6  C4  UNL d   1       0.132   1.455  -0.895  0.00  0.00     0.022 A 
ATOM      7  C5  UNL d   1       1.300   0.733  -0.948  0.00  0.00     0.026 A 
ATOM      8  C6  UNL d   1       1.240  -0.483  -0.185  0.00  0.00    -0.082 A 
ATOM      9  C7  UNL d   1       2.211  -1.492   0.019  0.00  0.00     0.045 A 
ENDROOT
TORSDOF 0
ENDMDL
