MODEL 1
REMARK minimizedAffinity -1.11924517
REMARK minimizedRMSD -1
REMARK  0 active torsions:
REMARK  status: ('A' for Active; 'I' for Inactive)
ROOT
ATOM      1  C   UNL d   1       2.366  -1.418   0.176  0.00  0.00    -0.002 A 
ATOM      2  C1  UNL d   1       1.398  -2.238   0.738  0.00  0.00     0.010 A 
ATOM      3  C2  UNL d   1       0.046  -1.895   0.663  0.00  0.00     0.041 A 
ATOM      4  C3  UNL d   1      -0.319  -0.704   0.006  0.00  0.00    -0.075 A 
ATOM      5  S   UNL d   1      -1.912  -0.082  -0.210  0.00  0.00     0.015 SA
ATOM      6  C4  UNL d   1      -1.345   1.286  -1.053  0.00  0.00     0.022 A 
ATOM      7  C5  UNL d   1       0.024   1.285  -1.176  0.00  0.00     0.026 A 
ATOM      8  C6  UNL d   1       0.638   0.138  -0.568  0.00  0.00    -0.082 A 
ATOM      9  C7  UNL d   1       2.000  -0.237  -0.475  0.00  0.00     0.045 A 
ENDROOT
TORSDOF 0
ENDMDL
