MODEL 1
REMARK minimizedAffinity -3.20758033
REMARK minimizedRMSD -1
REMARK  0 active torsions:
REMARK  status: ('A' for Active; 'I' for Inactive)
ROOT
ATOM      1  C   UNL d   1      -1.370   0.940   0.409  0.00  0.00    -0.002 A 
ATOM      2  C1  UNL d   1      -1.689   0.088   1.456  0.00  0.00     0.010 A 
ATOM      3  C2  UNL d   1      -0.839  -0.965   1.800  0.00  0.00     0.041 A 
ATOM      4  C3  UNL d   1       0.351  -1.147   1.068  0.00  0.00    -0.075 A 
ATOM      5  S   UNL d   1       1.545  -2.367   1.311  0.00  0.00     0.015 SA
ATOM      6  C4  UNL d   1       2.507  -1.785   0.031  0.00  0.00     0.022 A 
ATOM      7  C5  UNL d   1       1.947  -0.687  -0.578  0.00  0.00     0.026 A 
ATOM      8  C6  UNL d   1       0.695  -0.301   0.010  0.00  0.00    -0.082 A 
ATOM      9  C7  UNL d   1      -0.189   0.756  -0.315  0.00  0.00     0.045 A 
ENDROOT
TORSDOF 0
ENDMDL
