MODEL 1
REMARK minimizedAffinity -2.5034318
REMARK minimizedRMSD -1
REMARK  0 active torsions:
REMARK  status: ('A' for Active; 'I' for Inactive)
ROOT
ATOM      1  C   UNL d   1       2.297  -1.254   0.525  0.00  0.00    -0.002 A 
ATOM      2  C1  UNL d   1       1.279  -2.144   0.837  0.00  0.00     0.010 A 
ATOM      3  C2  UNL d   1      -0.046  -1.851   0.508  0.00  0.00     0.041 A 
ATOM      4  C3  UNL d   1      -0.333  -0.639  -0.150  0.00  0.00    -0.075 A 
ATOM      5  S   UNL d   1      -1.881  -0.071  -0.652  0.00  0.00     0.015 SA
ATOM      6  C4  UNL d   1      -1.228   1.367  -1.295  0.00  0.00     0.022 A 
ATOM      7  C5  UNL d   1       0.136   1.428  -1.138  0.00  0.00     0.026 A 
ATOM      8  C6  UNL d   1       0.675   0.273  -0.476  0.00  0.00    -0.082 A 
ATOM      9  C7  UNL d   1       2.008  -0.052  -0.127  0.00  0.00     0.045 A 
ENDROOT
TORSDOF 0
ENDMDL
