MODEL 1
REMARK minimizedAffinity -3.18934083
REMARK minimizedRMSD -1
REMARK  0 active torsions:
REMARK  status: ('A' for Active; 'I' for Inactive)
ROOT
ATOM      1  C   UNL d   1       0.280  -2.827   1.712  0.00  0.00    -0.002 A 
ATOM      2  C1  UNL d   1       1.486  -2.892   1.028  0.00  0.00     0.010 A 
ATOM      3  C2  UNL d   1       1.874  -1.858   0.174  0.00  0.00     0.041 A 
ATOM      4  C3  UNL d   1       1.023  -0.745   0.019  0.00  0.00    -0.075 A 
ATOM      5  S   UNL d   1       1.292   0.639  -0.972  0.00  0.00     0.015 SA
ATOM      6  C4  UNL d   1      -0.186   1.350  -0.509  0.00  0.00     0.022 A 
ATOM      7  C5  UNL d   1      -0.881   0.563   0.379  0.00  0.00     0.026 A 
ATOM      8  C6  UNL d   1      -0.195  -0.657   0.698  0.00  0.00    -0.082 A 
ATOM      9  C7  UNL d   1      -0.561  -1.722   1.556  0.00  0.00     0.045 A 
ENDROOT
TORSDOF 0
ENDMDL
