MODEL 1
REMARK minimizedAffinity -3.53138351
REMARK minimizedRMSD -1
REMARK  0 active torsions:
REMARK  status: ('A' for Active; 'I' for Inactive)
ROOT
ATOM      1  C   UNL d   1       2.525   1.949   0.678  0.00  0.00     0.077 C 
ATOM      2  C1  UNL d   1       1.716   0.729   0.353  0.00  0.00    -0.074 A 
ATOM      3  C2  UNL d   1       2.272  -0.550   0.452  0.00  0.00    -0.005 A 
ATOM      4  C3  UNL d   1       1.504  -1.676   0.156  0.00  0.00     0.006 A 
ATOM      5  C4  UNL d   1       0.174  -1.535  -0.242  0.00  0.00    -0.005 A 
ATOM      6  C5  UNL d   1      -0.400  -0.264  -0.346  0.00  0.00    -0.074 A 
ATOM      7  C6  UNL d   1      -1.831  -0.095  -0.762  0.00  0.00     0.077 C 
ATOM      8  C7  UNL d   1       0.376   0.862  -0.040  0.00  0.00    -0.001 A 
ENDROOT
TORSDOF 0
ENDMDL
