MODEL 1
REMARK minimizedAffinity -2.19838643
REMARK minimizedRMSD -1
REMARK  0 active torsions:
REMARK  status: ('A' for Active; 'I' for Inactive)
ROOT
ATOM      1  C   UNL d   1       3.544   1.252  -0.495  0.00  0.00     0.077 C 
ATOM      2  C1  UNL d   1       2.373   0.315  -0.483  0.00  0.00    -0.074 A 
ATOM      3  C2  UNL d   1       2.554  -1.064  -0.631  0.00  0.00    -0.005 A 
ATOM      4  C3  UNL d   1       1.457  -1.924  -0.608  0.00  0.00     0.006 A 
ATOM      5  C4  UNL d   1       0.169  -1.416  -0.437  0.00  0.00    -0.005 A 
ATOM      6  C5  UNL d   1      -0.032  -0.040  -0.286  0.00  0.00    -0.074 A 
ATOM      7  C6  UNL d   1      -1.409   0.523  -0.091  0.00  0.00     0.077 C 
ATOM      8  C7  UNL d   1       1.076   0.817  -0.303  0.00  0.00    -0.001 A 
ENDROOT
TORSDOF 0
ENDMDL
