MODEL 1
REMARK minimizedAffinity -4.85876131
REMARK minimizedRMSD -1
REMARK  0 active torsions:
REMARK  status: ('A' for Active; 'I' for Inactive)
ROOT
ATOM      1  C   UNL d   1      -1.198   0.044  -0.552  0.00  0.00     0.077 C 
ATOM      2  C1  UNL d   1       0.243   0.369  -0.296  0.00  0.00    -0.074 A 
ATOM      3  C2  UNL d   1       0.687   1.695  -0.259  0.00  0.00    -0.005 A 
ATOM      4  C3  UNL d   1       2.029   1.981  -0.010  0.00  0.00     0.006 A 
ATOM      5  C4  UNL d   1       2.940   0.946   0.205  0.00  0.00    -0.005 A 
ATOM      6  C5  UNL d   1       2.515  -0.386   0.174  0.00  0.00    -0.074 A 
ATOM      7  C6  UNL d   1       3.479  -1.510   0.413  0.00  0.00     0.077 C 
ATOM      8  C7  UNL d   1       1.163  -0.665  -0.071  0.00  0.00    -0.001 A 
ENDROOT
TORSDOF 0
ENDMDL
