MODEL 1
REMARK minimizedAffinity -4.13753748
REMARK minimizedRMSD -1
REMARK  0 active torsions:
REMARK  status: ('A' for Active; 'I' for Inactive)
ROOT
ATOM      1  C   UNL d   1      -2.211   0.010  -0.770  0.00  0.00     0.077 C 
ATOM      2  C1  UNL d   1      -0.789   0.275  -0.371  0.00  0.00    -0.074 A 
ATOM      3  C2  UNL d   1      -0.232   1.551  -0.502  0.00  0.00    -0.005 A 
ATOM      4  C3  UNL d   1       1.089   1.785  -0.118  0.00  0.00     0.006 A 
ATOM      5  C4  UNL d   1       1.863   0.747   0.401  0.00  0.00    -0.005 A 
ATOM      6  C5  UNL d   1       1.323  -0.535   0.541  0.00  0.00    -0.074 A 
ATOM      7  C6  UNL d   1       2.139  -1.660   1.105  0.00  0.00     0.077 C 
ATOM      8  C7  UNL d   1      -0.007  -0.760   0.159  0.00  0.00    -0.001 A 
ENDROOT
TORSDOF 0
ENDMDL
