MODEL 1
REMARK minimizedAffinity -3.72962809
REMARK minimizedRMSD -1
REMARK  0 active torsions:
REMARK  status: ('A' for Active; 'I' for Inactive)
ROOT
ATOM      1  C   UNL d   1      -2.015   0.715  -0.587  0.00  0.00     0.077 C 
ATOM      2  C1  UNL d   1      -0.577   0.935  -0.224  0.00  0.00    -0.074 A 
ATOM      3  C2  UNL d   1       0.046   2.164  -0.467  0.00  0.00    -0.005 A 
ATOM      4  C3  UNL d   1       1.382   2.357  -0.116  0.00  0.00     0.006 A 
ATOM      5  C4  UNL d   1       2.107   1.325   0.482  0.00  0.00    -0.005 A 
ATOM      6  C5  UNL d   1       1.501   0.090   0.733  0.00  0.00    -0.074 A 
ATOM      7  C6  UNL d   1       2.264  -1.026   1.383  0.00  0.00     0.077 C 
ATOM      8  C7  UNL d   1       0.156  -0.094   0.383  0.00  0.00    -0.001 A 
ENDROOT
TORSDOF 0
ENDMDL
