MODEL 1
REMARK minimizedAffinity -1.46024299
REMARK minimizedRMSD -1
REMARK  0 active torsions:
REMARK  status: ('A' for Active; 'I' for Inactive)
ROOT
ATOM      1  C   UNL d   1      -2.144   0.364  -0.801  0.00  0.00     0.077 C 
ATOM      2  C1  UNL d   1      -0.752   0.696  -0.352  0.00  0.00    -0.074 A 
ATOM      3  C2  UNL d   1      -0.245   1.993  -0.481  0.00  0.00    -0.005 A 
ATOM      4  C3  UNL d   1       1.048   2.289  -0.050  0.00  0.00     0.006 A 
ATOM      5  C4  UNL d   1       1.846   1.292   0.513  0.00  0.00    -0.005 A 
ATOM      6  C5  UNL d   1       1.357  -0.010   0.650  0.00  0.00    -0.074 A 
ATOM      7  C6  UNL d   1       2.198  -1.091   1.262  0.00  0.00     0.077 C 
ATOM      8  C7  UNL d   1       0.054  -0.298   0.221  0.00  0.00    -0.001 A 
ENDROOT
TORSDOF 0
ENDMDL
