MODEL 1
REMARK minimizedAffinity -3.06702328
REMARK minimizedRMSD -1
REMARK  0 active torsions:
REMARK  status: ('A' for Active; 'I' for Inactive)
ROOT
ATOM      1  C   UNL d   1       3.333   1.516   1.183  0.00  0.00     0.077 C 
ATOM      2  C1  UNL d   1       2.364   0.526   0.607  0.00  0.00    -0.074 A 
ATOM      3  C2  UNL d   1       2.798  -0.725   0.156  0.00  0.00    -0.005 A 
ATOM      4  C3  UNL d   1       1.884  -1.639  -0.367  0.00  0.00     0.006 A 
ATOM      5  C4  UNL d   1       0.529  -1.312  -0.446  0.00  0.00    -0.005 A 
ATOM      6  C5  UNL d   1       0.077  -0.066   0.001  0.00  0.00    -0.074 A 
ATOM      7  C6  UNL d   1      -1.376   0.297  -0.066  0.00  0.00     0.077 C 
ATOM      8  C7  UNL d   1       1.001   0.844   0.533  0.00  0.00    -0.001 A 
ENDROOT
TORSDOF 0
ENDMDL
