MODEL 1
REMARK minimizedAffinity -3.25608659
REMARK minimizedRMSD -1
REMARK  2 active torsions:
REMARK  status: ('A' for Active; 'I' for Inactive)
REMARK    1  A    between atoms: C2'_3  and  C1'_4 
REMARK    2  A    between atoms: C1'_4  and  C1_5 
ROOT
ATOM      1  C1  I4B d   1      -0.774   0.230   0.458  0.00  0.00    -0.075 A 
ATOM      2  C2  I4B d   1      -0.313   1.399  -0.093  0.00  0.00     0.003 A 
ATOM      3  C3  I4B d   1       0.868   1.401  -0.875  0.00  0.00     0.002 A 
ATOM      4  C4  I4B d   1       1.578   0.229  -1.037  0.00  0.00    -0.004 A 
ATOM      5  C5  I4B d   1       1.096  -0.960  -0.497  0.00  0.00     0.002 A 
ATOM      6  C6  I4B d   1      -0.094  -0.962   0.245  0.00  0.00     0.003 A 
ENDROOT
BRANCH   1   7
ATOM      7  C1' I4B d   1      -2.006   0.269   1.305  0.00  0.00     0.060 C 
BRANCH   7   8
ATOM      8  C2' I4B d   1      -1.575   0.434   2.748  0.00  0.00    -0.013 C 
ATOM      9  C4' I4B d   1      -1.657   1.875   3.180  0.00  0.00     0.013 C 
ATOM     10  C3' I4B d   1      -2.454  -0.437   3.596  0.00  0.00     0.013 C 
ENDBRANCH   7   8
ENDBRANCH   1   7
TORSDOF 2
ENDMDL
