MODEL 1
REMARK minimizedAffinity -2.50234008
REMARK minimizedRMSD -1
REMARK  2 active torsions:
REMARK  status: ('A' for Active; 'I' for Inactive)
REMARK    1  A    between atoms: C2'_3  and  C1'_4 
REMARK    2  A    between atoms: C1'_4  and  C1_5 
ROOT
ATOM      1  C1  I4B d   1      -0.791   0.091   0.032  0.00  0.00    -0.075 A 
ATOM      2  C2  I4B d   1      -0.609  -1.267  -0.049  0.00  0.00     0.003 A 
ATOM      3  C3  I4B d   1       0.487  -1.798  -0.771  0.00  0.00     0.002 A 
ATOM      4  C4  I4B d   1       1.342  -0.943  -1.435  0.00  0.00    -0.004 A 
ATOM      5  C5  I4B d   1       1.170   0.435  -1.333  0.00  0.00     0.002 A 
ATOM      6  C6  I4B d   1       0.104   0.956  -0.585  0.00  0.00     0.003 A 
ENDROOT
BRANCH   1   7
ATOM      7  C1' I4B d   1      -1.977   0.617   0.775  0.00  0.00     0.060 C 
BRANCH   7   8
ATOM      8  C2' I4B d   1      -1.625   0.656   2.248  0.00  0.00    -0.013 C 
ATOM      9  C4' I4B d   1      -1.645   2.067   2.776  0.00  0.00     0.013 C 
ATOM     10  C3' I4B d   1      -2.606  -0.210   2.982  0.00  0.00     0.013 C 
ENDBRANCH   7   8
ENDBRANCH   1   7
TORSDOF 2
ENDMDL
