MODEL 1
REMARK minimizedAffinity 1.38529897
REMARK minimizedRMSD -1
REMARK  2 active torsions:
REMARK  status: ('A' for Active; 'I' for Inactive)
REMARK    1  A    between atoms: C2'_3  and  C1'_4 
REMARK    2  A    between atoms: C1'_4  and  C1_5 
ROOT
ATOM      1  C1  I4B d   1       0.174  -0.102   0.282  0.00  0.00    -0.075 A 
ATOM      2  C2  I4B d   1       1.204   0.790   0.110  0.00  0.00     0.003 A 
ATOM      3  C3  I4B d   1       2.430   0.363  -0.455  0.00  0.00     0.002 A 
ATOM      4  C4  I4B d   1       2.600  -0.967  -0.783  0.00  0.00    -0.004 A 
ATOM      5  C5  I4B d   1       1.548  -1.865  -0.629  0.00  0.00     0.002 A 
ATOM      6  C6  I4B d   1       0.323  -1.428  -0.104  0.00  0.00     0.003 A 
ENDROOT
BRANCH   1   7
ATOM      7  C1' I4B d   1      -1.096   0.376   0.912  0.00  0.00     0.060 C 
BRANCH   7   8
ATOM      8  C2' I4B d   1      -0.799   0.722   2.357  0.00  0.00    -0.013 C 
ATOM      9  C4' I4B d   1      -0.684   2.211   2.549  0.00  0.00     0.013 C 
ATOM     10  C3' I4B d   1      -1.897   0.150   3.204  0.00  0.00     0.013 C 
ENDBRANCH   7   8
ENDBRANCH   1   7
TORSDOF 2
ENDMDL
