MODEL 1
REMARK minimizedAffinity -5.18562412
REMARK minimizedRMSD -1
REMARK  2 active torsions:
REMARK  status: ('A' for Active; 'I' for Inactive)
REMARK    1  A    between atoms: C2'_3  and  C1'_4 
REMARK    2  A    between atoms: C1'_4  and  C1_5 
ROOT
ATOM      1  C1  I4B d   1       0.486  -0.182  -0.671  0.00  0.00    -0.075 A 
ATOM      2  C2  I4B d   1       1.015   0.927  -1.284  0.00  0.00     0.003 A 
ATOM      3  C3  I4B d   1       2.242   0.837  -1.985  0.00  0.00     0.002 A 
ATOM      4  C4  I4B d   1       2.926  -0.361  -2.006  0.00  0.00    -0.004 A 
ATOM      5  C5  I4B d   1       2.377  -1.490  -1.404  0.00  0.00     0.002 A 
ATOM      6  C6  I4B d   1       1.143  -1.403  -0.743  0.00  0.00     0.003 A 
ENDROOT
BRANCH   1   7
ATOM      7  C1' I4B d   1      -0.795  -0.043   0.088  0.00  0.00     0.060 C 
BRANCH   7   8
ATOM      8  C2' I4B d   1      -0.469   0.525   1.454  0.00  0.00    -0.013 C 
ATOM      9  C4' I4B d   1      -1.722   0.877   2.212  0.00  0.00     0.013 C 
ATOM     10  C3' I4B d   1       0.345  -0.493   2.197  0.00  0.00     0.013 C 
ENDBRANCH   7   8
ENDBRANCH   1   7
TORSDOF 2
ENDMDL
