MODEL 1
REMARK minimizedAffinity -3.35711622
REMARK minimizedRMSD -1
REMARK  2 active torsions:
REMARK  status: ('A' for Active; 'I' for Inactive)
REMARK    1  A    between atoms: C2'_3  and  C1'_4 
REMARK    2  A    between atoms: C1'_4  and  C1_5 
ROOT
ATOM      1  C1  I4B d   1       0.054   0.016  -1.159  0.00  0.00    -0.075 A 
ATOM      2  C2  I4B d   1       1.075  -0.882  -1.348  0.00  0.00     0.003 A 
ATOM      3  C3  I4B d   1       2.140  -0.575  -2.229  0.00  0.00     0.002 A 
ATOM      4  C4  I4B d   1       2.118   0.610  -2.935  0.00  0.00    -0.004 A 
ATOM      5  C5  I4B d   1       1.094   1.529  -2.725  0.00  0.00     0.002 A 
ATOM      6  C6  I4B d   1       0.061   1.236  -1.822  0.00  0.00     0.003 A 
ENDROOT
BRANCH   1   7
ATOM      7  C1' I4B d   1      -1.072  -0.355  -0.246  0.00  0.00     0.060 C 
BRANCH   7   8
ATOM      8  C2' I4B d   1      -0.883   0.396   1.056  0.00  0.00    -0.013 C 
ATOM      9  C4' I4B d   1      -2.023   0.137   2.005  0.00  0.00     0.013 C 
ATOM     10  C3' I4B d   1       0.425  -0.033   1.651  0.00  0.00     0.013 C 
ENDBRANCH   7   8
ENDBRANCH   1   7
TORSDOF 2
ENDMDL
