MODEL 1
REMARK minimizedAffinity -5.4322772
REMARK minimizedRMSD -1
REMARK  2 active torsions:
REMARK  status: ('A' for Active; 'I' for Inactive)
REMARK    1  A    between atoms: C2'_3  and  C1'_4 
REMARK    2  A    between atoms: C1'_4  and  C1_5 
ROOT
ATOM      1  C1  I4B d   1       0.041   0.023   0.055  0.00  0.00    -0.075 A 
ATOM      2  C2  I4B d   1       0.349  -1.288   0.322  0.00  0.00     0.003 A 
ATOM      3  C3  I4B d   1       1.593  -1.825  -0.089  0.00  0.00     0.002 A 
ATOM      4  C4  I4B d   1       2.472  -1.037  -0.804  0.00  0.00    -0.004 A 
ATOM      5  C5  I4B d   1       2.167   0.298  -1.054  0.00  0.00     0.002 A 
ATOM      6  C6  I4B d   1       0.950   0.835  -0.611  0.00  0.00     0.003 A 
ENDROOT
BRANCH   1   7
ATOM      7  C1' I4B d   1      -1.295   0.549   0.474  0.00  0.00     0.060 C 
BRANCH   7   8
ATOM      8  C2' I4B d   1      -1.447   0.304   1.961  0.00  0.00    -0.013 C 
ATOM      9  C4' I4B d   1      -1.191   1.561   2.750  0.00  0.00     0.013 C 
ATOM     10  C3' I4B d   1      -2.833  -0.216   2.206  0.00  0.00     0.013 C 
ENDBRANCH   7   8
ENDBRANCH   1   7
TORSDOF 2
ENDMDL
