MODEL 1
REMARK minimizedAffinity -1.26830196
REMARK minimizedRMSD -1
REMARK  2 active torsions:
REMARK  status: ('A' for Active; 'I' for Inactive)
REMARK    1  A    between atoms: C2'_3  and  C1'_4 
REMARK    2  A    between atoms: C1'_4  and  C1_5 
ROOT
ATOM      1  C1  I4B d   1      -1.235   0.435   0.369  0.00  0.00    -0.075 A 
ATOM      2  C2  I4B d   1      -1.036   1.399  -0.586  0.00  0.00     0.003 A 
ATOM      3  C3  I4B d   1      -0.002   1.252  -1.543  0.00  0.00     0.002 A 
ATOM      4  C4  I4B d   1       0.834   0.156  -1.477  0.00  0.00    -0.004 A 
ATOM      5  C5  I4B d   1       0.616  -0.832  -0.522  0.00  0.00     0.002 A 
ATOM      6  C6  I4B d   1      -0.433  -0.699   0.400  0.00  0.00     0.003 A 
ENDROOT
BRANCH   1   7
ATOM      7  C1' I4B d   1      -2.315   0.638   1.385  0.00  0.00     0.060 C 
BRANCH   7   8
ATOM      8  C2' I4B d   1      -1.655   0.820   2.737  0.00  0.00    -0.013 C 
ATOM      9  C4' I4B d   1      -1.908   2.199   3.286  0.00  0.00     0.013 C 
ATOM     10  C3' I4B d   1      -2.190  -0.236   3.658  0.00  0.00     0.013 C 
ENDBRANCH   7   8
ENDBRANCH   1   7
TORSDOF 2
ENDMDL
