MODEL 1
REMARK minimizedAffinity 0.961029112
REMARK minimizedRMSD -1
REMARK  0 active torsions:
REMARK  status: ('A' for Active; 'I' for Inactive)
ROOT
ATOM      1  O1  BZF d   1       5.512  -5.819   3.803  0.00  0.00    -0.204 OA
ATOM      2  C2  BZF d   1       6.000  -5.961   5.088  0.00  0.00     0.174 A 
ATOM      3  C3  BZF d   1       4.990  -6.000   5.981  0.00  0.00    -0.012 A 
ATOM      4  C3A BZF d   1       3.793  -5.968   5.198  0.00  0.00    -0.107 A 
ATOM      5  C4  BZF d   1       2.464  -5.998   5.512  0.00  0.00     0.055 A 
ATOM      6  C5  BZF d   1       1.547  -5.877   4.517  0.00  0.00    -0.016 A 
ATOM      7  C6  BZF d   1       1.923  -5.719   3.199  0.00  0.00     0.022 A 
ATOM      8  C7  BZF d   1       3.229  -5.689   2.837  0.00  0.00     0.029 A 
ATOM      9  C7A BZF d   1       4.158  -5.844   3.837  0.00  0.00     0.058 A 
ENDROOT
TORSDOF 0
ENDMDL
