MODEL 1
REMARK minimizedAffinity 13.0847349
REMARK minimizedRMSD -1
REMARK  0 active torsions:
REMARK  status: ('A' for Active; 'I' for Inactive)
ROOT
ATOM      1  O1  BZF d   1       2.246   0.724  -2.678  0.00  0.00    -0.204 OA
ATOM      2  C2  BZF d   1       2.058  -0.385  -3.480  0.00  0.00     0.174 A 
ATOM      3  C3  BZF d   1       2.514  -0.155  -4.728  0.00  0.00    -0.012 A 
ATOM      4  C3A BZF d   1       3.103   1.148  -4.680  0.00  0.00    -0.107 A 
ATOM      5  C4  BZF d   1       3.739   1.925  -5.605  0.00  0.00     0.055 A 
ATOM      6  C5  BZF d   1       4.131   3.179  -5.257  0.00  0.00    -0.016 A 
ATOM      7  C6  BZF d   1       3.898   3.689  -3.996  0.00  0.00     0.022 A 
ATOM      8  C7  BZF d   1       3.275   2.953  -3.043  0.00  0.00     0.029 A 
ATOM      9  C7A BZF d   1       2.908   1.674  -3.382  0.00  0.00     0.058 A 
ENDROOT
TORSDOF 0
ENDMDL
