MODEL 1
REMARK minimizedAffinity 13.1361113
REMARK minimizedRMSD -1
REMARK  0 active torsions:
REMARK  status: ('A' for Active; 'I' for Inactive)
ROOT
ATOM      1  O1  BZF d   1       2.516  -0.883  -3.425  0.00  0.00    -0.204 OA
ATOM      2  C2  BZF d   1       1.402  -1.632  -3.750  0.00  0.00     0.174 A 
ATOM      3  C3  BZF d   1       0.317  -1.189  -3.082  0.00  0.00    -0.012 A 
ATOM      4  C3A BZF d   1       0.763  -0.036  -2.361  0.00  0.00    -0.107 A 
ATOM      5  C4  BZF d   1       0.142   0.849  -1.527  0.00  0.00     0.055 A 
ATOM      6  C5  BZF d   1       0.878   1.821  -0.928  0.00  0.00    -0.016 A 
ATOM      7  C6  BZF d   1       2.237   1.934  -1.136  0.00  0.00     0.022 A 
ATOM      8  C7  BZF d   1       2.897   1.083  -1.959  0.00  0.00     0.029 A 
ATOM      9  C7A BZF d   1       2.150   0.120  -2.591  0.00  0.00     0.058 A 
ENDROOT
TORSDOF 0
ENDMDL
