MODEL 1
REMARK minimizedAffinity 13.4895658
REMARK minimizedRMSD -1
REMARK  0 active torsions:
REMARK  status: ('A' for Active; 'I' for Inactive)
ROOT
ATOM      1  O1  BZF d   1       1.595   3.710  -1.829  0.00  0.00    -0.204 OA
ATOM      2  C2  BZF d   1       1.778   2.414  -1.387  0.00  0.00     0.174 A 
ATOM      3  C3  BZF d   1       2.778   1.814  -2.066  0.00  0.00    -0.012 A 
ATOM      4  C3A BZF d   1       3.309   2.827  -2.926  0.00  0.00    -0.107 A 
ATOM      5  C4  BZF d   1       4.329   2.847  -3.834  0.00  0.00     0.055 A 
ATOM      6  C5  BZF d   1       4.543   3.975  -4.562  0.00  0.00    -0.016 A 
ATOM      7  C6  BZF d   1       3.755   5.097  -4.411  0.00  0.00     0.022 A 
ATOM      8  C7  BZF d   1       2.735   5.126  -3.518  0.00  0.00     0.029 A 
ATOM      9  C7A BZF d   1       2.537   3.999  -2.758  0.00  0.00     0.058 A 
ENDROOT
TORSDOF 0
ENDMDL
