MODEL 1
REMARK minimizedAffinity 12.2337828
REMARK minimizedRMSD -1
REMARK  0 active torsions:
REMARK  status: ('A' for Active; 'I' for Inactive)
ROOT
ATOM      1  O1  BZF d   1       0.948  -0.425  -2.965  0.00  0.00    -0.204 OA
ATOM      2  C2  BZF d   1       1.862  -0.997  -3.829  0.00  0.00     0.174 A 
ATOM      3  C3  BZF d   1       2.853  -0.130  -4.119  0.00  0.00    -0.012 A 
ATOM      4  C3A BZF d   1       2.589   1.026  -3.318  0.00  0.00    -0.107 A 
ATOM      5  C4  BZF d   1       3.229   2.221  -3.154  0.00  0.00     0.055 A 
ATOM      6  C5  BZF d   1       2.670   3.165  -2.351  0.00  0.00    -0.016 A 
ATOM      7  C6  BZF d   1       1.471   2.949  -1.703  0.00  0.00     0.022 A 
ATOM      8  C7  BZF d   1       0.802   1.778  -1.831  0.00  0.00     0.029 A 
ATOM      9  C7A BZF d   1       1.381   0.810  -2.615  0.00  0.00     0.058 A 
ENDROOT
TORSDOF 0
ENDMDL
