MODEL 1
REMARK minimizedAffinity 7.44724894
REMARK minimizedRMSD -1
REMARK  0 active torsions:
REMARK  status: ('A' for Active; 'I' for Inactive)
ROOT
ATOM      1  O1  BZF d   1      -4.125  -5.181   0.048  0.00  0.00    -0.204 OA
ATOM      2  C2  BZF d   1      -4.545  -6.000  -0.983  0.00  0.00     0.174 A 
ATOM      3  C3  BZF d   1      -5.291  -5.309  -1.869  0.00  0.00    -0.012 A 
ATOM      4  C3A BZF d   1      -5.263  -3.954  -1.409  0.00  0.00    -0.107 A 
ATOM      5  C4  BZF d   1      -5.805  -2.792  -1.878  0.00  0.00     0.055 A 
ATOM      6  C5  BZF d   1      -5.651  -1.652  -1.155  0.00  0.00    -0.016 A 
ATOM      7  C6  BZF d   1      -4.966  -1.639   0.042  0.00  0.00     0.022 A 
ATOM      8  C7  BZF d   1      -4.406  -2.766   0.545  0.00  0.00     0.029 A 
ATOM      9  C7A BZF d   1      -4.531  -3.913  -0.200  0.00  0.00     0.058 A 
ENDROOT
TORSDOF 0
ENDMDL
