MODEL 1
REMARK minimizedAffinity 16.1861248
REMARK minimizedRMSD -1
REMARK  0 active torsions:
REMARK  status: ('A' for Active; 'I' for Inactive)
ROOT
ATOM      1  O1  BZF d   1       3.464   5.985  -4.014  0.00  0.00    -0.204 OA
ATOM      2  C2  BZF d   1       2.141   6.000  -4.410  0.00  0.00     0.174 A 
ATOM      3  C3  BZF d   1       1.883   4.983  -5.257  0.00  0.00    -0.012 A 
ATOM      4  C3A BZF d   1       3.100   4.233  -5.327  0.00  0.00    -0.107 A 
ATOM      5  C4  BZF d   1       3.468   3.100  -5.993  0.00  0.00     0.055 A 
ATOM      6  C5  BZF d   1       4.754   2.670  -5.905  0.00  0.00    -0.016 A 
ATOM      7  C6  BZF d   1       5.699   3.351  -5.165  0.00  0.00     0.022 A 
ATOM      8  C7  BZF d   1       5.380   4.478  -4.483  0.00  0.00     0.029 A 
ATOM      9  C7A BZF d   1       4.073   4.896  -4.543  0.00  0.00     0.058 A 
ENDROOT
TORSDOF 0
ENDMDL
