MODEL 1
REMARK minimizedAffinity 14.3411808
REMARK minimizedRMSD -1
REMARK  0 active torsions:
REMARK  status: ('A' for Active; 'I' for Inactive)
ROOT
ATOM      1  O1  BZF d   1       1.278   2.749  -2.644  0.00  0.00    -0.204 OA
ATOM      2  C2  BZF d   1       1.974   2.595  -1.461  0.00  0.00     0.174 A 
ATOM      3  C3  BZF d   1       3.253   3.000  -1.602  0.00  0.00    -0.012 A 
ATOM      4  C3A BZF d   1       3.338   3.522  -2.932  0.00  0.00    -0.107 A 
ATOM      5  C4  BZF d   1       4.348   4.088  -3.656  0.00  0.00     0.055 A 
ATOM      6  C5  BZF d   1       4.123   4.423  -4.953  0.00  0.00    -0.016 A 
ATOM      7  C6  BZF d   1       2.903   4.203  -5.559  0.00  0.00     0.022 A 
ATOM      8  C7  BZF d   1       1.869   3.649  -4.880  0.00  0.00     0.029 A 
ATOM      9  C7A BZF d   1       2.084   3.339  -3.559  0.00  0.00     0.058 A 
ENDROOT
TORSDOF 0
ENDMDL
