MODEL 1
REMARK minimizedAffinity 7.49648523
REMARK minimizedRMSD -1
REMARK  0 active torsions:
REMARK  status: ('A' for Active; 'I' for Inactive)
ROOT
ATOM      1  O1  BZF d   1       0.870  -0.786  -3.369  0.00  0.00    -0.204 OA
ATOM      2  C2  BZF d   1       1.813  -0.990  -4.358  0.00  0.00     0.174 A 
ATOM      3  C3  BZF d   1       2.755  -0.026  -4.326  0.00  0.00    -0.012 A 
ATOM      4  C3A BZF d   1       2.428   0.783  -3.192  0.00  0.00    -0.107 A 
ATOM      5  C4  BZF d   1       3.001   1.888  -2.630  0.00  0.00     0.055 A 
ATOM      6  C5  BZF d   1       2.392   2.481  -1.570  0.00  0.00    -0.016 A 
ATOM      7  C6  BZF d   1       1.208   2.000  -1.050  0.00  0.00     0.022 A 
ATOM      8  C7  BZF d   1       0.604   0.904  -1.571  0.00  0.00     0.029 A 
ATOM      9  C7A BZF d   1       1.234   0.283  -2.622  0.00  0.00     0.058 A 
ENDROOT
TORSDOF 0
ENDMDL
