MODEL 1
REMARK minimizedAffinity 15.0580492
REMARK minimizedRMSD -1
REMARK  0 active torsions:
REMARK  status: ('A' for Active; 'I' for Inactive)
ROOT
ATOM      1  O1  BZF d   1       5.999  -3.291   5.998  0.00  0.00    -0.204 OA
ATOM      2  C2  BZF d   1       5.963  -4.264   5.018  0.00  0.00     0.174 A 
ATOM      3  C3  BZF d   1       5.780  -3.712   3.801  0.00  0.00    -0.012 A 
ATOM      4  C3A BZF d   1       5.789  -2.299   4.025  0.00  0.00    -0.107 A 
ATOM      5  C4  BZF d   1       5.668  -1.217   3.200  0.00  0.00     0.055 A 
ATOM      6  C5  BZF d   1       5.646   0.029   3.743  0.00  0.00    -0.016 A 
ATOM      7  C6  BZF d   1       5.736   0.229   5.105  0.00  0.00     0.022 A 
ATOM      8  C7  BZF d   1       5.862  -0.813   5.963  0.00  0.00     0.029 A 
ATOM      9  C7A BZF d   1       5.918  -2.071   5.414  0.00  0.00     0.058 A 
ENDROOT
TORSDOF 0
ENDMDL
