MODEL 1
REMARK minimizedAffinity 6.70347166
REMARK minimizedRMSD -1
REMARK  0 active torsions:
REMARK  status: ('A' for Active; 'I' for Inactive)
ROOT
ATOM      1  O1  BZF d   1       1.800   3.917  -1.203  0.00  0.00    -0.204 OA
ATOM      2  C2  BZF d   1       1.771   2.548  -1.020  0.00  0.00     0.174 A 
ATOM      3  C3  BZF d   1       2.441   1.919  -2.008  0.00  0.00    -0.012 A 
ATOM      4  C3A BZF d   1       2.996   2.965  -2.811  0.00  0.00    -0.107 A 
ATOM      5  C4  BZF d   1       3.777   2.975  -3.931  0.00  0.00     0.055 A 
ATOM      6  C5  BZF d   1       4.085   4.165  -4.511  0.00  0.00    -0.016 A 
ATOM      7  C6  BZF d   1       3.625   5.362  -4.002  0.00  0.00     0.022 A 
ATOM      8  C7  BZF d   1       2.851   5.403  -2.890  0.00  0.00     0.029 A 
ATOM      9  C7A BZF d   1       2.565   4.204  -2.283  0.00  0.00     0.058 A 
ENDROOT
TORSDOF 0
ENDMDL
