MODEL 1
REMARK minimizedAffinity 15.6365528
REMARK minimizedRMSD -1
REMARK  0 active torsions:
REMARK  status: ('A' for Active; 'I' for Inactive)
ROOT
ATOM      1  O1  BZF d   1       1.797   1.997  -5.299  0.00  0.00    -0.204 OA
ATOM      2  C2  BZF d   1       2.963   2.241  -6.000  0.00  0.00     0.174 A 
ATOM      3  C3  BZF d   1       3.758   1.153  -6.000  0.00  0.00    -0.012 A 
ATOM      4  C3A BZF d   1       3.005   0.136  -5.331  0.00  0.00    -0.107 A 
ATOM      5  C4  BZF d   1       3.254  -1.173  -5.032  0.00  0.00     0.055 A 
ATOM      6  C5  BZF d   1       2.340  -1.869  -4.306  0.00  0.00    -0.016 A 
ATOM      7  C6  BZF d   1       1.172  -1.288  -3.859  0.00  0.00     0.022 A 
ATOM      8  C7  BZF d   1       0.879   0.006  -4.135  0.00  0.00     0.029 A 
ATOM      9  C7A BZF d   1       1.785   0.703  -4.897  0.00  0.00     0.058 A 
ENDROOT
TORSDOF 0
ENDMDL
