MODEL 1
REMARK minimizedAffinity 14.457531
REMARK minimizedRMSD -1
REMARK  0 active torsions:
REMARK  status: ('A' for Active; 'I' for Inactive)
ROOT
ATOM      1  O1  BZF d   1      -5.740  -3.147  -3.115  0.00  0.00    -0.204 OA
ATOM      2  C2  BZF d   1      -5.551  -1.859  -2.652  0.00  0.00     0.174 A 
ATOM      3  C3  BZF d   1      -5.034  -1.869  -1.407  0.00  0.00    -0.012 A 
ATOM      4  C3A BZF d   1      -4.805  -3.249  -1.106  0.00  0.00    -0.107 A 
ATOM      5  C4  BZF d   1      -4.290  -3.901  -0.022  0.00  0.00     0.055 A 
ATOM      6  C5  BZF d   1      -4.271  -5.260  -0.016  0.00  0.00    -0.016 A 
ATOM      7  C6  BZF d   1      -4.762  -5.998  -1.073  0.00  0.00     0.022 A 
ATOM      8  C7  BZF d   1      -5.278  -5.396  -2.172  0.00  0.00     0.029 A 
ATOM      9  C7A BZF d   1      -5.269  -4.023  -2.195  0.00  0.00     0.058 A 
ENDROOT
TORSDOF 0
ENDMDL
