MODEL 1
REMARK minimizedAffinity 3.78382301
REMARK minimizedRMSD -1
REMARK  0 active torsions:
REMARK  status: ('A' for Active; 'I' for Inactive)
ROOT
ATOM      1  O1  BZF d   1       1.602  -1.500  -3.121  0.00  0.00    -0.204 OA
ATOM      2  C2  BZF d   1       1.676  -0.150  -2.840  0.00  0.00     0.174 A 
ATOM      3  C3  BZF d   1       0.690   0.524  -3.469  0.00  0.00    -0.012 A 
ATOM      4  C3A BZF d   1      -0.100  -0.480  -4.113  0.00  0.00    -0.107 A 
ATOM      5  C4  BZF d   1      -1.228  -0.437  -4.881  0.00  0.00     0.055 A 
ATOM      6  C5  BZF d   1      -1.706  -1.590  -5.418  0.00  0.00    -0.016 A 
ATOM      7  C6  BZF d   1      -1.079  -2.802  -5.212  0.00  0.00     0.022 A 
ATOM      8  C7  BZF d   1       0.040  -2.895  -4.453  0.00  0.00     0.029 A 
ATOM      9  C7A BZF d   1       0.507  -1.736  -3.882  0.00  0.00     0.058 A 
ENDROOT
TORSDOF 0
ENDMDL
