MODEL 1
REMARK minimizedAffinity 15.1161156
REMARK minimizedRMSD -1
REMARK  0 active torsions:
REMARK  status: ('A' for Active; 'I' for Inactive)
ROOT
ATOM      1  O1  BZF d   1      -0.370  -3.937  -5.514  0.00  0.00    -0.204 OA
ATOM      2  C2  BZF d   1      -1.668  -3.941  -5.986  0.00  0.00     0.174 A 
ATOM      3  C3  BZF d   1      -2.181  -2.694  -5.987  0.00  0.00    -0.012 A 
ATOM      4  C3A BZF d   1      -1.107  -1.845  -5.570  0.00  0.00    -0.107 A 
ATOM      5  C4  BZF d   1      -0.992  -0.497  -5.390  0.00  0.00     0.055 A 
ATOM      6  C5  BZF d   1       0.173   0.008  -4.905  0.00  0.00    -0.016 A 
ATOM      7  C6  BZF d   1       1.239  -0.806  -4.585  0.00  0.00     0.022 A 
ATOM      8  C7  BZF d   1       1.174  -2.150  -4.751  0.00  0.00     0.029 A 
ATOM      9  C7A BZF d   1       0.010  -2.659  -5.272  0.00  0.00     0.058 A 
ENDROOT
TORSDOF 0
ENDMDL
