MODEL 1
REMARK minimizedAffinity 17.7563095
REMARK minimizedRMSD -1
REMARK  0 active torsions:
REMARK  status: ('A' for Active; 'I' for Inactive)
ROOT
ATOM      1  O1  BZF d   1       1.021  -2.318  -3.236  0.00  0.00    -0.204 OA
ATOM      2  C2  BZF d   1       1.729  -2.127  -4.407  0.00  0.00     0.174 A 
ATOM      3  C3  BZF d   1       2.095  -0.836  -4.539  0.00  0.00    -0.012 A 
ATOM      4  C3A BZF d   1       1.664  -0.197  -3.333  0.00  0.00    -0.107 A 
ATOM      5  C4  BZF d   1       1.755   1.082  -2.864  0.00  0.00     0.055 A 
ATOM      6  C5  BZF d   1       1.167   1.395  -1.680  0.00  0.00    -0.016 A 
ATOM      7  C6  BZF d   1       0.477   0.456  -0.941  0.00  0.00     0.022 A 
ATOM      8  C7  BZF d   1       0.365  -0.827  -1.363  0.00  0.00     0.029 A 
ATOM      9  C7A BZF d   1       0.986  -1.154  -2.544  0.00  0.00     0.058 A 
ENDROOT
TORSDOF 0
ENDMDL
