MODEL 1
REMARK minimizedAffinity 13.922224
REMARK minimizedRMSD -1
REMARK  0 active torsions:
REMARK  status: ('A' for Active; 'I' for Inactive)
ROOT
ATOM      1  O1  BZF d   1      -0.521  -3.802  -4.861  0.00  0.00    -0.204 OA
ATOM      2  C2  BZF d   1      -1.507  -3.688  -5.822  0.00  0.00     0.174 A 
ATOM      3  C3  BZF d   1      -1.859  -2.398  -5.997  0.00  0.00    -0.012 A 
ATOM      4  C3A BZF d   1      -0.977  -1.650  -5.154  0.00  0.00    -0.107 A 
ATOM      5  C4  BZF d   1      -0.823  -0.317  -4.904  0.00  0.00     0.055 A 
ATOM      6  C5  BZF d   1       0.082   0.081  -3.971  0.00  0.00    -0.016 A 
ATOM      7  C6  BZF d   1       0.845  -0.828  -3.267  0.00  0.00     0.022 A 
ATOM      8  C7  BZF d   1       0.732  -2.161  -3.484  0.00  0.00     0.029 A 
ATOM      9  C7A BZF d   1      -0.158  -2.563  -4.449  0.00  0.00     0.058 A 
ENDROOT
TORSDOF 0
ENDMDL
