MODEL 1
REMARK minimizedAffinity 7.47455454
REMARK minimizedRMSD -1
REMARK  0 active torsions:
REMARK  status: ('A' for Active; 'I' for Inactive)
ROOT
ATOM      1  C4' PXY d   1       1.084  -0.007   3.030  0.00  0.00     0.077 C 
ATOM      2  C1' PXY d   1       3.577   1.600  -1.931  0.00  0.00     0.077 C 
ATOM      3  C1  PXY d   1       2.921   1.191  -0.627  0.00  0.00    -0.082 A 
ATOM      4  C2  PXY d   1       3.241   0.035  -0.068  0.00  0.00     0.003 A 
ATOM      5  C3  PXY d   1       2.634  -0.364   1.094  0.00  0.00     0.003 A 
ATOM      6  C4  PXY d   1       1.729   0.451   1.719  0.00  0.00    -0.082 A 
ATOM      7  C5  PXY d   1       1.405   1.636   1.160  0.00  0.00     0.003 A 
ATOM      8  C6  PXY d   1       2.002   2.005  -0.042  0.00  0.00     0.003 A 
ENDROOT
TORSDOF 0
ENDMDL
