MODEL 1
REMARK minimizedAffinity 12.5339766
REMARK minimizedRMSD -1
REMARK  0 active torsions:
REMARK  status: ('A' for Active; 'I' for Inactive)
ROOT
ATOM      1  C4' PXY d   1       0.789   0.590   2.362  0.00  0.00     0.077 C 
ATOM      2  C1' PXY d   1       5.994  -0.724   0.218  0.00  0.00     0.077 C 
ATOM      3  C1  PXY d   1       4.626  -0.374   0.769  0.00  0.00    -0.082 A 
ATOM      4  C2  PXY d   1       4.455  -0.267   2.076  0.00  0.00     0.003 A 
ATOM      5  C3  PXY d   1       3.218   0.018   2.593  0.00  0.00     0.003 A 
ATOM      6  C4  PXY d   1       2.155   0.248   1.761  0.00  0.00    -0.082 A 
ATOM      7  C5  PXY d   1       2.324   0.151   0.425  0.00  0.00     0.003 A 
ATOM      8  C6  PXY d   1       3.579  -0.180  -0.078  0.00  0.00     0.003 A 
ENDROOT
TORSDOF 0
ENDMDL
