MODEL 1
REMARK minimizedAffinity 8.46753883
REMARK minimizedRMSD -1
REMARK  0 active torsions:
REMARK  status: ('A' for Active; 'I' for Inactive)
ROOT
ATOM      1  C4' PXY d   1      -2.977  -3.006  -2.470  0.00  0.00     0.077 C 
ATOM      2  C1' PXY d   1      -1.132  -1.929   2.901  0.00  0.00     0.077 C 
ATOM      3  C1  PXY d   1      -1.627  -2.215   1.497  0.00  0.00    -0.082 A 
ATOM      4  C2  PXY d   1      -0.755  -2.463   0.534  0.00  0.00     0.003 A 
ATOM      5  C3  PXY d   1      -1.184  -2.692  -0.748  0.00  0.00     0.003 A 
ATOM      6  C4  PXY d   1      -2.522  -2.721  -1.036  0.00  0.00    -0.082 A 
ATOM      7  C5  PXY d   1      -3.419  -2.480  -0.056  0.00  0.00     0.003 A 
ATOM      8  C6  PXY d   1      -2.961  -2.209   1.230  0.00  0.00     0.003 A 
ENDROOT
TORSDOF 0
ENDMDL
