MODEL 1
REMARK minimizedAffinity 19.2693176
REMARK minimizedRMSD -1
REMARK  0 active torsions:
REMARK  status: ('A' for Active; 'I' for Inactive)
ROOT
ATOM      1  C4' PXY d   1      -6.000  -0.374   6.000  0.00  0.00     0.077 C 
ATOM      2  C1' PXY d   1      -2.743   2.745   2.383  0.00  0.00     0.077 C 
ATOM      3  C1  PXY d   1      -3.588   1.929   3.341  0.00  0.00    -0.082 A 
ATOM      4  C2  PXY d   1      -4.452   1.047   2.863  0.00  0.00     0.003 A 
ATOM      5  C3  PXY d   1      -5.247   0.324   3.714  0.00  0.00     0.003 A 
ATOM      6  C4  PXY d   1      -5.119   0.465   5.070  0.00  0.00    -0.082 A 
ATOM      7  C5  PXY d   1      -4.232   1.355   5.566  0.00  0.00     0.003 A 
ATOM      8  C6  PXY d   1      -3.464   2.109   4.684  0.00  0.00     0.003 A 
ENDROOT
TORSDOF 0
ENDMDL
