MODEL 1
REMARK minimizedAffinity 12.3308449
REMARK minimizedRMSD -1
REMARK  0 active torsions:
REMARK  status: ('A' for Active; 'I' for Inactive)
ROOT
ATOM      1  C4' PXY d   1       1.127   0.720   3.945  0.00  0.00     0.077 C 
ATOM      2  C1' PXY d   1       3.187   1.297  -1.425  0.00  0.00     0.077 C 
ATOM      3  C1  PXY d   1       2.640   1.157  -0.018  0.00  0.00    -0.082 A 
ATOM      4  C2  PXY d   1       3.276   0.395   0.858  0.00  0.00     0.003 A 
ATOM      5  C3  PXY d   1       2.778   0.232   2.125  0.00  0.00     0.003 A 
ATOM      6  C4  PXY d   1       1.648   0.898   2.516  0.00  0.00    -0.082 A 
ATOM      7  C5  PXY d   1       1.000   1.686   1.632  0.00  0.00     0.003 A 
ATOM      8  C6  PXY d   1       1.498   1.805   0.338  0.00  0.00     0.003 A 
ENDROOT
TORSDOF 0
ENDMDL
