MODEL 1
REMARK minimizedAffinity 13.7939301
REMARK minimizedRMSD -1
REMARK  0 active torsions:
REMARK  status: ('A' for Active; 'I' for Inactive)
ROOT
ATOM      1  C4' PXY d   1      -0.259  -1.955   3.313  0.00  0.00     0.077 C 
ATOM      2  C1' PXY d   1      -3.632  -6.000   0.930  0.00  0.00     0.077 C 
ATOM      3  C1  PXY d   1      -2.743  -4.948   1.564  0.00  0.00    -0.082 A 
ATOM      4  C2  PXY d   1      -3.002  -3.666   1.363  0.00  0.00     0.003 A 
ATOM      5  C3  PXY d   1      -2.190  -2.702   1.902  0.00  0.00     0.003 A 
ATOM      6  C4  PXY d   1      -1.134  -3.052   2.700  0.00  0.00    -0.082 A 
ATOM      7  C5  PXY d   1      -0.870  -4.358   2.919  0.00  0.00     0.003 A 
ATOM      8  C6  PXY d   1      -1.682  -5.322   2.329  0.00  0.00     0.003 A 
ENDROOT
TORSDOF 0
ENDMDL
