MODEL 1
REMARK minimizedAffinity 17.0258331
REMARK minimizedRMSD -1
REMARK  0 active torsions:
REMARK  status: ('A' for Active; 'I' for Inactive)
ROOT
ATOM      1  C4' PXY d   1      -3.514  -5.999  -1.155  0.00  0.00     0.077 C 
ATOM      2  C1' PXY d   1      -2.345  -2.226  -5.376  0.00  0.00     0.077 C 
ATOM      3  C1  PXY d   1      -2.655  -3.206  -4.261  0.00  0.00    -0.082 A 
ATOM      4  C2  PXY d   1      -2.057  -4.386  -4.242  0.00  0.00     0.003 A 
ATOM      5  C3  PXY d   1      -2.350  -5.296  -3.260  0.00  0.00     0.003 A 
ATOM      6  C4  PXY d   1      -3.224  -4.975  -2.256  0.00  0.00    -0.082 A 
ATOM      7  C5  PXY d   1      -3.830  -3.769  -2.262  0.00  0.00     0.003 A 
ATOM      8  C6  PXY d   1      -3.550  -2.875  -3.292  0.00  0.00     0.003 A 
ENDROOT
TORSDOF 0
ENDMDL
