MODEL 1
REMARK minimizedAffinity 12.0654793
REMARK minimizedRMSD -1
REMARK  0 active torsions:
REMARK  status: ('A' for Active; 'I' for Inactive)
ROOT
ATOM      1  C4' PXY d   1       3.827   1.476  -2.164  0.00  0.00     0.077 C 
ATOM      2  C1' PXY d   1       0.975   0.320   2.729  0.00  0.00     0.077 C 
ATOM      3  C1  PXY d   1       1.734   0.619   1.451  0.00  0.00    -0.082 A 
ATOM      4  C2  PXY d   1       1.253   1.508   0.597  0.00  0.00     0.003 A 
ATOM      5  C3  PXY d   1       1.909   1.767  -0.578  0.00  0.00     0.003 A 
ATOM      6  C4  PXY d   1       3.099   1.149  -0.858  0.00  0.00    -0.082 A 
ATOM      7  C5  PXY d   1       3.602   0.249   0.014  0.00  0.00     0.003 A 
ATOM      8  C6  PXY d   1       2.899  -0.030   1.182  0.00  0.00     0.003 A 
ENDROOT
TORSDOF 0
ENDMDL
