MODEL 1
REMARK minimizedAffinity 10.5010309
REMARK minimizedRMSD -1
REMARK  0 active torsions:
REMARK  status: ('A' for Active; 'I' for Inactive)
ROOT
ATOM      1  C4' PXY d   1      -4.026  -5.999   1.877  0.00  0.00     0.077 C 
ATOM      2  C1' PXY d   1      -0.333  -1.596   2.506  0.00  0.00     0.077 C 
ATOM      3  C1  PXY d   1      -1.292  -2.759   2.342  0.00  0.00    -0.082 A 
ATOM      4  C2  PXY d   1      -2.461  -2.565   1.754  0.00  0.00     0.003 A 
ATOM      5  C3  PXY d   1      -3.353  -3.599   1.626  0.00  0.00     0.003 A 
ATOM      6  C4  PXY d   1      -3.023  -4.856   2.056  0.00  0.00    -0.082 A 
ATOM      7  C5  PXY d   1      -1.828  -5.064   2.648  0.00  0.00     0.003 A 
ATOM      8  C6  PXY d   1      -0.953  -3.993   2.805  0.00  0.00     0.003 A 
ENDROOT
TORSDOF 0
ENDMDL
