MODEL 1
REMARK minimizedAffinity 20.2208748
REMARK minimizedRMSD -1
REMARK  0 active torsions:
REMARK  status: ('A' for Active; 'I' for Inactive)
ROOT
ATOM      1  C4' PXY d   1       2.339  -1.064  -0.773  0.00  0.00     0.077 C 
ATOM      2  C1' PXY d   1      -0.858   1.658   3.201  0.00  0.00     0.077 C 
ATOM      3  C1  PXY d   1      -0.023   0.933   2.163  0.00  0.00    -0.082 A 
ATOM      4  C2  PXY d   1       1.020   1.540   1.622  0.00  0.00     0.003 A 
ATOM      5  C3  PXY d   1       1.766   0.911   0.659  0.00  0.00     0.003 A 
ATOM      6  C4  PXY d   1       1.474  -0.374   0.285  0.00  0.00    -0.082 A 
ATOM      7  C5  PXY d   1       0.417  -1.004   0.841  0.00  0.00     0.003 A 
ATOM      8  C6  PXY d   1      -0.352  -0.333   1.787  0.00  0.00     0.003 A 
ENDROOT
TORSDOF 0
ENDMDL
