MODEL 1
REMARK minimizedAffinity 18.9259453
REMARK minimizedRMSD -1
REMARK  0 active torsions:
REMARK  status: ('A' for Active; 'I' for Inactive)
ROOT
ATOM      1  C4' PXY d   1       3.340   2.629  -4.491  0.00  0.00     0.077 C 
ATOM      2  C1' PXY d   1       5.996  -0.526  -0.441  0.00  0.00     0.077 C 
ATOM      3  C1  PXY d   1       5.289   0.293  -1.503  0.00  0.00    -0.082 A 
ATOM      4  C2  PXY d   1       5.998   1.047  -2.327  0.00  0.00     0.003 A 
ATOM      5  C3  PXY d   1       5.373   1.819  -3.272  0.00  0.00     0.003 A 
ATOM      6  C4  PXY d   1       4.012   1.778  -3.410  0.00  0.00    -0.082 A 
ATOM      7  C5  PXY d   1       3.282   1.003  -2.580  0.00  0.00     0.003 A 
ATOM      8  C6  PXY d   1       3.932   0.258  -1.600  0.00  0.00     0.003 A 
ENDROOT
TORSDOF 0
ENDMDL
