MODEL 1
REMARK minimizedAffinity 6.57538652
REMARK minimizedRMSD -1
REMARK  0 active torsions:
REMARK  status: ('A' for Active; 'I' for Inactive)
ROOT
ATOM      1  C4' PXY d   1       3.869   1.565  -2.516  0.00  0.00     0.077 C 
ATOM      2  C1' PXY d   1       0.782   0.740   2.301  0.00  0.00     0.077 C 
ATOM      3  C1  PXY d   1       1.600   0.947   1.042  0.00  0.00    -0.082 A 
ATOM      4  C2  PXY d   1       1.532   2.102   0.400  0.00  0.00     0.003 A 
ATOM      5  C3  PXY d   1       2.241   2.295  -0.758  0.00  0.00     0.003 A 
ATOM      6  C4  PXY d   1       3.068   1.315  -1.235  0.00  0.00    -0.082 A 
ATOM      7  C5  PXY d   1       3.152   0.137  -0.581  0.00  0.00     0.003 A 
ATOM      8  C6  PXY d   1       2.393  -0.054   0.570  0.00  0.00     0.003 A 
ENDROOT
TORSDOF 0
ENDMDL
