MODEL 1
REMARK minimizedAffinity 19.4842491
REMARK minimizedRMSD -1
REMARK  0 active torsions:
REMARK  status: ('A' for Active; 'I' for Inactive)
ROOT
ATOM      1  C4' PXY d   1       3.376   1.506  -3.496  0.00  0.00     0.077 C 
ATOM      2  C1' PXY d   1       0.990   0.236   1.614  0.00  0.00     0.077 C 
ATOM      3  C1  PXY d   1       1.625   0.561   0.276  0.00  0.00    -0.082 A 
ATOM      4  C2  PXY d   1       1.343   1.707  -0.321  0.00  0.00     0.003 A 
ATOM      5  C3  PXY d   1       1.885   2.003  -1.545  0.00  0.00     0.003 A 
ATOM      6  C4  PXY d   1       2.765   1.140  -2.141  0.00  0.00    -0.082 A 
ATOM      7  C5  PXY d   1       3.066  -0.027  -1.533  0.00  0.00     0.003 A 
ATOM      8  C6  PXY d   1       2.474  -0.327  -0.309  0.00  0.00     0.003 A 
ENDROOT
TORSDOF 0
ENDMDL
