MODEL 1
REMARK minimizedAffinity 11.916523
REMARK minimizedRMSD -1
REMARK  0 active torsions:
REMARK  status: ('A' for Active; 'I' for Inactive)
ROOT
ATOM      1  C4' PXY d   1       4.729   1.249  -2.490  0.00  0.00     0.077 C 
ATOM      2  C1' PXY d   1       0.900   0.224   1.717  0.00  0.00     0.077 C 
ATOM      3  C1  PXY d   1       1.914   0.488   0.621  0.00  0.00    -0.082 A 
ATOM      4  C2  PXY d   1       1.698   1.461  -0.249  0.00  0.00     0.003 A 
ATOM      5  C3  PXY d   1       2.588   1.691  -1.266  0.00  0.00     0.003 A 
ATOM      6  C4  PXY d   1       3.738   0.953  -1.362  0.00  0.00    -0.082 A 
ATOM      7  C5  PXY d   1       3.970  -0.034  -0.471  0.00  0.00     0.003 A 
ATOM      8  C6  PXY d   1       3.034  -0.279   0.529  0.00  0.00     0.003 A 
ENDROOT
TORSDOF 0
ENDMDL
