MODEL 1
REMARK minimizedAffinity 14.0800829
REMARK minimizedRMSD -1
REMARK  0 active torsions:
REMARK  status: ('A' for Active; 'I' for Inactive)
ROOT
ATOM      1  C4' PXY d   1      -3.019   1.603   3.703  0.00  0.00     0.077 C 
ATOM      2  C1' PXY d   1      -5.995   5.995   5.997  0.00  0.00     0.077 C 
ATOM      3  C1  PXY d   1      -5.204   4.848   5.401  0.00  0.00    -0.082 A 
ATOM      4  C2  PXY d   1      -5.655   4.234   4.319  0.00  0.00     0.003 A 
ATOM      5  C3  PXY d   1      -4.969   3.174   3.785  0.00  0.00     0.003 A 
ATOM      6  C4  PXY d   1      -3.780   2.772   4.333  0.00  0.00    -0.082 A 
ATOM      7  C5  PXY d   1      -3.307   3.400   5.431  0.00  0.00     0.003 A 
ATOM      8  C6  PXY d   1      -4.040   4.447   5.982  0.00  0.00     0.003 A 
ENDROOT
TORSDOF 0
ENDMDL
