MODEL 1
REMARK minimizedAffinity 14.2369452
REMARK minimizedRMSD -1
REMARK  0 active torsions:
REMARK  status: ('A' for Active; 'I' for Inactive)
ROOT
ATOM      1  C4' PXY d   1       2.830   1.794  -2.067  0.00  0.00     0.077 C 
ATOM      2  C1' PXY d   1       0.563   0.209   3.009  0.00  0.00     0.077 C 
ATOM      3  C1  PXY d   1       1.148   0.633   1.676  0.00  0.00    -0.082 A 
ATOM      4  C2  PXY d   1       1.915  -0.207   1.001  0.00  0.00     0.003 A 
ATOM      5  C3  PXY d   1       2.478   0.172  -0.191  0.00  0.00     0.003 A 
ATOM      6  C4  PXY d   1       2.210   1.405  -0.722  0.00  0.00    -0.082 A 
ATOM      7  C5  PXY d   1       1.420   2.264  -0.044  0.00  0.00     0.003 A 
ATOM      8  C6  PXY d   1       0.892   1.876   1.184  0.00  0.00     0.003 A 
ENDROOT
TORSDOF 0
ENDMDL
