MODEL 1
REMARK minimizedAffinity 9.39534378
REMARK minimizedRMSD -1
REMARK  0 active torsions:
REMARK  status: ('A' for Active; 'I' for Inactive)
ROOT
ATOM      1  C4' PXY d   1      -2.133   2.219   3.752  0.00  0.00     0.077 C 
ATOM      2  C1' PXY d   1      -6.000   6.000   5.796  0.00  0.00     0.077 C 
ATOM      3  C1  PXY d   1      -4.995   5.004   5.252  0.00  0.00    -0.082 A 
ATOM      4  C2  PXY d   1      -3.967   4.636   6.000  0.00  0.00     0.003 A 
ATOM      5  C3  PXY d   1      -3.032   3.761   5.511  0.00  0.00     0.003 A 
ATOM      6  C4  PXY d   1      -3.178   3.215   4.264  0.00  0.00    -0.082 A 
ATOM      7  C5  PXY d   1      -4.229   3.577   3.499  0.00  0.00     0.003 A 
ATOM      8  C6  PXY d   1      -5.146   4.498   3.997  0.00  0.00     0.003 A 
ENDROOT
TORSDOF 0
ENDMDL
