MODEL 1
REMARK minimizedAffinity 16.0492001
REMARK minimizedRMSD -1
REMARK  0 active torsions:
REMARK  status: ('A' for Active; 'I' for Inactive)
ROOT
ATOM      1  C4' PXY d   1       1.103   1.055   0.867  0.00  0.00     0.077 C 
ATOM      2  C1' PXY d   1      -2.157  -3.699   1.303  0.00  0.00     0.077 C 
ATOM      3  C1  PXY d   1      -1.306  -2.449   1.200  0.00  0.00    -0.082 A 
ATOM      4  C2  PXY d   1      -0.992  -1.967   0.009  0.00  0.00     0.003 A 
ATOM      5  C3  PXY d   1      -0.196  -0.856  -0.102  0.00  0.00     0.003 A 
ATOM      6  C4  PXY d   1       0.238  -0.200   1.018  0.00  0.00    -0.082 A 
ATOM      7  C5  PXY d   1      -0.087  -0.679   2.238  0.00  0.00     0.003 A 
ATOM      8  C6  PXY d   1      -0.861  -1.832   2.329  0.00  0.00     0.003 A 
ENDROOT
TORSDOF 0
ENDMDL
