MODEL 1
REMARK minimizedAffinity 14.8486366
REMARK minimizedRMSD -1
REMARK  0 active torsions:
REMARK  status: ('A' for Active; 'I' for Inactive)
ROOT
ATOM      1  C4' PXY d   1      -5.998   5.877   5.997  0.00  0.00     0.077 C 
ATOM      2  C1' PXY d   1      -1.848   2.739   3.479  0.00  0.00     0.077 C 
ATOM      3  C1  PXY d   1      -2.940   3.566   4.128  0.00  0.00    -0.082 A 
ATOM      4  C2  PXY d   1      -2.810   3.947   5.388  0.00  0.00     0.003 A 
ATOM      5  C3  PXY d   1      -3.803   4.669   6.000  0.00  0.00     0.003 A 
ATOM      6  C4  PXY d   1      -4.916   5.049   5.299  0.00  0.00    -0.082 A 
ATOM      7  C5  PXY d   1      -5.051   4.673   4.009  0.00  0.00     0.003 A 
ATOM      8  C6  PXY d   1      -4.051   3.906   3.419  0.00  0.00     0.003 A 
ENDROOT
TORSDOF 0
ENDMDL
