MODEL 1
REMARK minimizedAffinity -1.87609899
REMARK minimizedRMSD -1
REMARK  0 active torsions:
REMARK  status: ('A' for Active; 'I' for Inactive)
ROOT
ATOM      1  C2' OXE d   1      -3.186  -1.955  -2.869  0.00  0.00     0.078 C 
ATOM      2  C1' OXE d   1      -1.457  -0.091  -4.060  0.00  0.00     0.078 C 
ATOM      3  C1  OXE d   1      -1.135  -0.556  -2.662  0.00  0.00    -0.078 A 
ATOM      4  C2  OXE d   1      -2.011  -1.433  -2.069  0.00  0.00    -0.078 A 
ATOM      5  C3  OXE d   1      -1.732  -1.935  -0.802  0.00  0.00     0.003 A 
ATOM      6  C4  OXE d   1      -0.650  -1.440  -0.065  0.00  0.00    -0.002 A 
ATOM      7  C5  OXE d   1       0.233  -0.517  -0.635  0.00  0.00    -0.002 A 
ATOM      8  C6  OXE d   1       0.030  -0.098  -1.945  0.00  0.00     0.003 A 
ENDROOT
TORSDOF 0
ENDMDL
