MODEL 1
REMARK minimizedAffinity -5.5386672
REMARK minimizedRMSD -1
REMARK  0 active torsions:
REMARK  status: ('A' for Active; 'I' for Inactive)
ROOT
ATOM      1  C2' OXE d   1      -0.981   0.620   1.405  0.00  0.00     0.078 C 
ATOM      2  C1' OXE d   1       0.297  -1.185  -0.323  0.00  0.00     0.078 C 
ATOM      3  C1  OXE d   1       1.127  -0.079   0.278  0.00  0.00    -0.078 A 
ATOM      4  C2  OXE d   1       0.483   0.827   1.085  0.00  0.00    -0.078 A 
ATOM      5  C3  OXE d   1       1.213   1.835   1.709  0.00  0.00     0.003 A 
ATOM      6  C4  OXE d   1       2.565   2.026   1.400  0.00  0.00    -0.002 A 
ATOM      7  C5  OXE d   1       3.231   1.138   0.549  0.00  0.00    -0.002 A 
ATOM      8  C6  OXE d   1       2.538   0.058   0.014  0.00  0.00     0.003 A 
ENDROOT
TORSDOF 0
ENDMDL
