MODEL 1
REMARK minimizedAffinity -4.17312431
REMARK minimizedRMSD -1
REMARK  0 active torsions:
REMARK  status: ('A' for Active; 'I' for Inactive)
ROOT
ATOM      1  C2' OXE d   1      -1.139   0.704   1.158  0.00  0.00     0.078 C 
ATOM      2  C1' OXE d   1       0.420  -0.981  -0.457  0.00  0.00     0.078 C 
ATOM      3  C1  OXE d   1       1.070   0.262   0.096  0.00  0.00    -0.078 A 
ATOM      4  C2  OXE d   1       0.286   1.105   0.847  0.00  0.00    -0.078 A 
ATOM      5  C3  OXE d   1       0.851   2.238   1.426  0.00  0.00     0.003 A 
ATOM      6  C4  OXE d   1       2.168   2.607   1.125  0.00  0.00    -0.002 A 
ATOM      7  C5  OXE d   1       2.972   1.783   0.330  0.00  0.00    -0.002 A 
ATOM      8  C6  OXE d   1       2.452   0.588  -0.156  0.00  0.00     0.003 A 
ENDROOT
TORSDOF 0
ENDMDL
