MODEL 1
REMARK minimizedAffinity -4.67866564
REMARK minimizedRMSD -1
REMARK  0 active torsions:
REMARK  status: ('A' for Active; 'I' for Inactive)
ROOT
ATOM      1  C2' OXE d   1       0.206  -1.190  -0.567  0.00  0.00     0.078 C 
ATOM      2  C1' OXE d   1      -1.123   0.678   1.054  0.00  0.00     0.078 C 
ATOM      3  C1  OXE d   1       0.347   0.894   0.790  0.00  0.00    -0.078 A 
ATOM      4  C2  OXE d   1       0.999  -0.050   0.034  0.00  0.00    -0.078 A 
ATOM      5  C3  OXE d   1       2.342   0.130  -0.285  0.00  0.00     0.003 A 
ATOM      6  C4  OXE d   1       3.071   1.182   0.284  0.00  0.00    -0.002 A 
ATOM      7  C5  OXE d   1       2.434   2.133   1.089  0.00  0.00    -0.002 A 
ATOM      8  C6  OXE d   1       1.067   2.027   1.316  0.00  0.00     0.003 A 
ENDROOT
TORSDOF 0
ENDMDL
