MODEL 1
REMARK minimizedAffinity -3.78525209
REMARK minimizedRMSD -1
REMARK  0 active torsions:
REMARK  status: ('A' for Active; 'I' for Inactive)
ROOT
ATOM      1  C2' OXE d   1       4.069   0.348  -0.244  0.00  0.00     0.078 C 
ATOM      2  C1' OXE d   1       4.565   0.247   2.517  0.00  0.00     0.078 C 
ATOM      3  C1  OXE d   1       3.335   0.985   2.050  0.00  0.00    -0.078 A 
ATOM      4  C2  OXE d   1       3.126   1.069   0.694  0.00  0.00    -0.078 A 
ATOM      5  C3  OXE d   1       1.978   1.692   0.211  0.00  0.00     0.003 A 
ATOM      6  C4  OXE d   1       1.116   2.365   1.085  0.00  0.00    -0.002 A 
ATOM      7  C5  OXE d   1       1.332   2.325   2.467  0.00  0.00    -0.002 A 
ATOM      8  C6  OXE d   1       2.412   1.605   2.967  0.00  0.00     0.003 A 
ENDROOT
TORSDOF 0
ENDMDL
