MODEL 1
REMARK minimizedAffinity -4.26096535
REMARK minimizedRMSD -1
REMARK  0 active torsions:
REMARK  status: ('A' for Active; 'I' for Inactive)
ROOT
ATOM      1  C2' OXE d   1      -1.400   0.336   1.740  0.00  0.00     0.078 C 
ATOM      2  C1' OXE d   1      -0.546  -0.853  -0.655  0.00  0.00     0.078 C 
ATOM      3  C1  OXE d   1       0.369   0.153  -0.004  0.00  0.00    -0.078 A 
ATOM      4  C2  OXE d   1      -0.077   0.765   1.143  0.00  0.00    -0.078 A 
ATOM      5  C3  OXE d   1       0.751   1.660   1.814  0.00  0.00     0.003 A 
ATOM      6  C4  OXE d   1       1.969   2.058   1.250  0.00  0.00    -0.002 A 
ATOM      7  C5  OXE d   1       2.425   1.477   0.062  0.00  0.00    -0.002 A 
ATOM      8  C6  OXE d   1       1.658   0.494  -0.554  0.00  0.00     0.003 A 
ENDROOT
TORSDOF 0
ENDMDL
