MODEL 1
REMARK minimizedAffinity -0.73206389
REMARK minimizedRMSD -1
REMARK  0 active torsions:
REMARK  status: ('A' for Active; 'I' for Inactive)
ROOT
ATOM      1  C2' OXE d   1      -1.162  -1.251  -2.333  0.00  0.00     0.078 C 
ATOM      2  C1' OXE d   1       1.028  -1.868  -0.689  0.00  0.00     0.078 C 
ATOM      3  C1  OXE d   1       0.155  -0.704  -0.291  0.00  0.00    -0.078 A 
ATOM      4  C2  OXE d   1      -0.887  -0.380  -1.126  0.00  0.00    -0.078 A 
ATOM      5  C3  OXE d   1      -1.755   0.650  -0.777  0.00  0.00     0.003 A 
ATOM      6  C4  OXE d   1      -1.488   1.457   0.335  0.00  0.00    -0.002 A 
ATOM      7  C5  OXE d   1      -0.409   1.169   1.178  0.00  0.00    -0.002 A 
ATOM      8  C6  OXE d   1       0.395   0.069   0.903  0.00  0.00     0.003 A 
ENDROOT
TORSDOF 0
ENDMDL
