MODEL 1
REMARK minimizedAffinity 0.282049894
REMARK minimizedRMSD -1
REMARK  0 active torsions:
REMARK  status: ('A' for Active; 'I' for Inactive)
ROOT
ATOM      1  C2' OXE d   1      -1.807  -1.692  -1.393  0.00  0.00     0.078 C 
ATOM      2  C1' OXE d   1       0.788  -2.201  -0.453  0.00  0.00     0.078 C 
ATOM      3  C1  OXE d   1       0.137  -0.902  -0.051  0.00  0.00    -0.078 A 
ATOM      4  C2  OXE d   1      -1.115  -0.640  -0.553  0.00  0.00    -0.078 A 
ATOM      5  C3  OXE d   1      -1.783   0.519  -0.170  0.00  0.00     0.003 A 
ATOM      6  C4  OXE d   1      -1.132   1.491   0.599  0.00  0.00    -0.002 A 
ATOM      7  C5  OXE d   1       0.158   1.262   1.089  0.00  0.00    -0.002 A 
ATOM      8  C6  OXE d   1       0.788   0.055   0.809  0.00  0.00     0.003 A 
ENDROOT
TORSDOF 0
ENDMDL
