MODEL 1
REMARK minimizedAffinity 1.9640708
REMARK minimizedRMSD -1
REMARK  0 active torsions:
REMARK  status: ('A' for Active; 'I' for Inactive)
ROOT
ATOM      1  C2' OXE d   1      -2.530   0.266  -0.691  0.00  0.00     0.078 C 
ATOM      2  C1' OXE d   1      -1.136  -0.281   1.684  0.00  0.00     0.078 C 
ATOM      3  C1  OXE d   1      -0.336  -0.153   0.411  0.00  0.00    -0.078 A 
ATOM      4  C2  OXE d   1      -1.031   0.068  -0.753  0.00  0.00    -0.078 A 
ATOM      5  C3  OXE d   1      -0.337   0.248  -1.946  0.00  0.00     0.003 A 
ATOM      6  C4  OXE d   1       1.048   0.054  -1.997  0.00  0.00    -0.002 A 
ATOM      7  C5  OXE d   1       1.771  -0.212  -0.829  0.00  0.00    -0.002 A 
ATOM      8  C6  OXE d   1       1.101  -0.276   0.387  0.00  0.00     0.003 A 
ENDROOT
TORSDOF 0
ENDMDL
