MODEL 1
REMARK minimizedAffinity -6.6024828
REMARK minimizedRMSD -1
REMARK  0 active torsions:
REMARK  status: ('A' for Active; 'I' for Inactive)
ROOT
ATOM      1  C2' OXE d   1      -1.281   0.016   1.587  0.00  0.00     0.078 C 
ATOM      2  C1' OXE d   1       0.117  -1.218  -0.512  0.00  0.00     0.078 C 
ATOM      3  C1  OXE d   1       0.677   0.067   0.047  0.00  0.00    -0.078 A 
ATOM      4  C2  OXE d   1      -0.039   0.688   1.043  0.00  0.00    -0.078 A 
ATOM      5  C3  OXE d   1       0.462   1.846   1.631  0.00  0.00     0.003 A 
ATOM      6  C4  OXE d   1       1.606   2.466   1.114  0.00  0.00    -0.002 A 
ATOM      7  C5  OXE d   1       2.327   1.871   0.074  0.00  0.00    -0.002 A 
ATOM      8  C6  OXE d   1       1.901   0.652  -0.441  0.00  0.00     0.003 A 
ENDROOT
TORSDOF 0
ENDMDL
