MODEL 1
REMARK minimizedAffinity -2.05585694
REMARK minimizedRMSD -1
REMARK  0 active torsions:
REMARK  status: ('A' for Active; 'I' for Inactive)
ROOT
ATOM      1  C2' OXE d   1      -0.027  -1.169  -0.607  0.00  0.00     0.078 C 
ATOM      2  C1' OXE d   1      -1.312  -0.212   1.697  0.00  0.00     0.078 C 
ATOM      3  C1  OXE d   1      -0.186   0.613   1.126  0.00  0.00    -0.078 A 
ATOM      4  C2  OXE d   1       0.468   0.113   0.026  0.00  0.00    -0.078 A 
ATOM      5  C3  OXE d   1       1.479   0.860  -0.574  0.00  0.00     0.003 A 
ATOM      6  C4  OXE d   1       1.938   2.040   0.024  0.00  0.00    -0.002 A 
ATOM      7  C5  OXE d   1       1.311   2.546   1.168  0.00  0.00    -0.002 A 
ATOM      8  C6  OXE d   1       0.223   1.868   1.706  0.00  0.00     0.003 A 
ENDROOT
TORSDOF 0
ENDMDL
