MODEL 1
REMARK minimizedAffinity 2.85191894
REMARK minimizedRMSD -1
REMARK  0 active torsions:
REMARK  status: ('A' for Active; 'I' for Inactive)
ROOT
ATOM      1  C2' OXE d   1      -1.273  -0.949  -0.858  0.00  0.00     0.078 C 
ATOM      2  C1' OXE d   1       1.504  -0.669  -0.554  0.00  0.00     0.078 C 
ATOM      3  C1  OXE d   1       0.619  -0.144   0.549  0.00  0.00    -0.078 A 
ATOM      4  C2  OXE d   1      -0.740  -0.243   0.370  0.00  0.00    -0.078 A 
ATOM      5  C3  OXE d   1      -1.601   0.176   1.380  0.00  0.00     0.003 A 
ATOM      6  C4  OXE d   1      -1.101   0.837   2.509  0.00  0.00    -0.002 A 
ATOM      7  C5  OXE d   1       0.278   0.985   2.692  0.00  0.00    -0.002 A 
ATOM      8  C6  OXE d   1       1.151   0.463   1.743  0.00  0.00     0.003 A 
ENDROOT
TORSDOF 0
ENDMDL
