MODEL 1
REMARK minimizedAffinity -5.69753551
REMARK minimizedRMSD -1
REMARK  0 active torsions:
REMARK  status: ('A' for Active; 'I' for Inactive)
ROOT
ATOM      1  C2' OXE d   1      -0.521  -1.177  -0.468  0.00  0.00     0.078 C 
ATOM      2  C1' OXE d   1      -1.422   0.496   1.598  0.00  0.00     0.078 C 
ATOM      3  C1  OXE d   1      -0.001   0.668   1.123  0.00  0.00    -0.078 A 
ATOM      4  C2  OXE d   1       0.446  -0.187   0.144  0.00  0.00    -0.078 A 
ATOM      5  C3  OXE d   1       1.731  -0.036  -0.368  0.00  0.00     0.003 A 
ATOM      6  C4  OXE d   1       2.623   0.876   0.211  0.00  0.00    -0.002 A 
ATOM      7  C5  OXE d   1       2.200   1.729   1.236  0.00  0.00    -0.002 A 
ATOM      8  C6  OXE d   1       0.881   1.667   1.674  0.00  0.00     0.003 A 
ENDROOT
TORSDOF 0
ENDMDL
