MODEL 1
REMARK minimizedAffinity -2.07695746
REMARK minimizedRMSD -1
REMARK  0 active torsions:
REMARK  status: ('A' for Active; 'I' for Inactive)
ROOT
ATOM      1  C2' OXE d   1       1.757  -1.135  -1.207  0.00  0.00     0.078 C 
ATOM      2  C1' OXE d   1      -0.940  -0.386  -1.429  0.00  0.00     0.078 C 
ATOM      3  C1  OXE d   1      -0.175   0.087  -0.218  0.00  0.00    -0.078 A 
ATOM      4  C2  OXE d   1       1.130  -0.323  -0.094  0.00  0.00    -0.078 A 
ATOM      5  C3  OXE d   1       1.897   0.130   0.976  0.00  0.00     0.003 A 
ATOM      6  C4  OXE d   1       1.307   0.873   2.006  0.00  0.00    -0.002 A 
ATOM      7  C5  OXE d   1      -0.032   1.268   1.919  0.00  0.00    -0.002 A 
ATOM      8  C6  OXE d   1      -0.774   0.920   0.796  0.00  0.00     0.003 A 
ENDROOT
TORSDOF 0
ENDMDL
