MODEL 1
REMARK minimizedAffinity -2.14791536
REMARK minimizedRMSD -1
REMARK  0 active torsions:
REMARK  status: ('A' for Active; 'I' for Inactive)
ROOT
ATOM      1  C2' OXE d   1       0.685  -2.114  -0.821  0.00  0.00     0.078 C 
ATOM      2  C1' OXE d   1      -1.813  -1.547  -1.970  0.00  0.00     0.078 C 
ATOM      3  C1  OXE d   1      -1.263  -0.568  -0.964  0.00  0.00    -0.078 A 
ATOM      4  C2  OXE d   1      -0.062  -0.877  -0.372  0.00  0.00    -0.078 A 
ATOM      5  C3  OXE d   1       0.516   0.020   0.523  0.00  0.00     0.003 A 
ATOM      6  C4  OXE d   1      -0.186   1.157   0.940  0.00  0.00    -0.002 A 
ATOM      7  C5  OXE d   1      -1.429   1.469   0.380  0.00  0.00    -0.002 A 
ATOM      8  C6  OXE d   1      -1.961   0.642  -0.603  0.00  0.00     0.003 A 
ENDROOT
TORSDOF 0
ENDMDL
