MODEL 1
REMARK minimizedAffinity -4.87148809
REMARK minimizedRMSD -1
REMARK  0 active torsions:
REMARK  status: ('A' for Active; 'I' for Inactive)
ROOT
ATOM      1  C2' OXE d   1       3.080   0.329  -0.426  0.00  0.00     0.078 C 
ATOM      2  C1' OXE d   1       2.538   2.491   1.280  0.00  0.00     0.078 C 
ATOM      3  C1  OXE d   1       1.365   1.724   0.722  0.00  0.00    -0.078 A 
ATOM      4  C2  OXE d   1       1.639   0.697  -0.148  0.00  0.00    -0.078 A 
ATOM      5  C3  OXE d   1       0.596  -0.078  -0.649  0.00  0.00     0.003 A 
ATOM      6  C4  OXE d   1      -0.735   0.275  -0.396  0.00  0.00    -0.002 A 
ATOM      7  C5  OXE d   1      -1.036   1.342   0.457  0.00  0.00    -0.002 A 
ATOM      8  C6  OXE d   1       0.001   2.049   1.057  0.00  0.00     0.003 A 
ENDROOT
TORSDOF 0
ENDMDL
