MODEL 1
REMARK minimizedAffinity -1.85493481
REMARK minimizedRMSD -1
REMARK  0 active torsions:
REMARK  status: ('A' for Active; 'I' for Inactive)
ROOT
ATOM      1  C2' OXE d   1      -0.280  -0.412  -0.408  0.00  0.00     0.078 C 
ATOM      2  C1' OXE d   1       2.466  -0.514  -0.983  0.00  0.00     0.078 C 
ATOM      3  C1  OXE d   1       2.013   0.396   0.131  0.00  0.00    -0.078 A 
ATOM      4  C2  OXE d   1       0.663   0.475   0.375  0.00  0.00    -0.078 A 
ATOM      5  C3  OXE d   1       0.197   1.257   1.428  0.00  0.00     0.003 A 
ATOM      6  C4  OXE d   1       1.075   2.082   2.141  0.00  0.00    -0.002 A 
ATOM      7  C5  OXE d   1       2.450   2.047   1.882  0.00  0.00    -0.002 A 
ATOM      8  C6  OXE d   1       2.939   1.180   0.912  0.00  0.00     0.003 A 
ENDROOT
TORSDOF 0
ENDMDL
