MODEL 1
REMARK minimizedAffinity -1.98489773
REMARK minimizedRMSD -1
REMARK  1 active torsions:
REMARK  status: ('A' for Active; 'I' for Inactive)
REMARK    1  A    between atoms: N_2  and  C1_3 
ROOT
ATOM      1  C1  UNL d   1      -0.213   0.547   0.344  0.00  0.00     0.143 A 
ATOM      2  C2  UNL d   1       0.321  -0.745   0.282  0.00  0.00    -0.057 A 
ATOM      3  C3  UNL d   1       1.332  -1.070  -0.630  0.00  0.00     0.033 A 
ATOM      4  C4  UNL d   1       1.809  -0.112  -1.519  0.00  0.00    -0.042 A 
ATOM      5  C5  UNL d   1       1.276   1.172  -1.493  0.00  0.00     0.033 A 
ATOM      6  C6  UNL d   1       0.271   1.492  -0.575  0.00  0.00    -0.057 A 
ENDROOT
BRANCH   1   7
ATOM      7  N   UNL d   1      -1.288   0.906   1.160  0.00  0.00    -0.732 N 
ATOM      8  C   UNL d   1      -1.887  -0.059   2.057  0.00  0.00     0.284 C 
ATOM      9  H3  UNL d   1      -1.178   1.835   1.561  0.00  0.00     0.395 HD
ENDBRANCH   1   7
TORSDOF 1
ENDMDL
