MODEL 1
REMARK minimizedAffinity -2.82333159
REMARK minimizedRMSD -1
REMARK  1 active torsions:
REMARK  status: ('A' for Active; 'I' for Inactive)
REMARK    1  A    between atoms: N_2  and  C1_3 
ROOT
ATOM      1  C1  UNL d   1      -0.960   0.732   0.226  0.00  0.00     0.143 A 
ATOM      2  C2  UNL d   1      -0.684   1.731  -0.714  0.00  0.00    -0.057 A 
ATOM      3  C3  UNL d   1       0.543   1.775  -1.387  0.00  0.00     0.033 A 
ATOM      4  C4  UNL d   1       1.529   0.834  -1.111  0.00  0.00    -0.042 A 
ATOM      5  C5  UNL d   1       1.285  -0.154  -0.163  0.00  0.00     0.033 A 
ATOM      6  C6  UNL d   1       0.056  -0.196   0.501  0.00  0.00    -0.057 A 
ENDROOT
BRANCH   1   7
ATOM      7  N   UNL d   1      -2.123   0.692   1.000  0.00  0.00    -0.732 N 
ATOM      8  C   UNL d   1      -2.077   0.245   2.375  0.00  0.00     0.284 C 
ATOM      9  H3  UNL d   1      -2.720   1.501   0.845  0.00  0.00     0.395 HD
ENDBRANCH   1   7
TORSDOF 1
ENDMDL
