MODEL 1
REMARK minimizedAffinity -2.21617484
REMARK minimizedRMSD -1
REMARK  1 active torsions:
REMARK  status: ('A' for Active; 'I' for Inactive)
REMARK    1  A    between atoms: N_2  and  C1_3 
ROOT
ATOM      1  C1  UNL d   1      -1.148   0.116   0.675  0.00  0.00     0.143 A 
ATOM      2  C2  UNL d   1      -1.106   0.806  -0.541  0.00  0.00    -0.057 A 
ATOM      3  C3  UNL d   1       0.102   1.284  -1.063  0.00  0.00     0.033 A 
ATOM      4  C4  UNL d   1       1.290   1.104  -0.361  0.00  0.00    -0.042 A 
ATOM      5  C5  UNL d   1       1.268   0.444   0.862  0.00  0.00     0.033 A 
ATOM      6  C6  UNL d   1       0.059  -0.037   1.375  0.00  0.00    -0.057 A 
ENDROOT
BRANCH   1   7
ATOM      7  N   UNL d   1      -2.330  -0.297   1.294  0.00  0.00    -0.732 N 
ATOM      8  C   UNL d   1      -3.236   0.671   1.875  0.00  0.00     0.284 C 
ATOM      9  H3  UNL d   1      -2.794  -1.047   0.786  0.00  0.00     0.395 HD
ENDBRANCH   1   7
TORSDOF 1
ENDMDL
