MODEL 1
REMARK minimizedAffinity -2.24216962
REMARK minimizedRMSD -1
REMARK  1 active torsions:
REMARK  status: ('A' for Active; 'I' for Inactive)
REMARK    1  A    between atoms: N_2  and  C1_3 
ROOT
ATOM      1  C1  UNL d   1      -1.062   0.480   1.040  0.00  0.00     0.143 A 
ATOM      2  C2  UNL d   1      -1.563   0.569   2.342  0.00  0.00    -0.057 A 
ATOM      3  C3  UNL d   1      -2.919   0.824   2.583  0.00  0.00     0.033 A 
ATOM      4  C4  UNL d   1      -3.794   1.024   1.520  0.00  0.00    -0.042 A 
ATOM      5  C5  UNL d   1      -3.313   0.965   0.217  0.00  0.00     0.033 A 
ATOM      6  C6  UNL d   1      -1.959   0.704  -0.016  0.00  0.00    -0.057 A 
ENDROOT
BRANCH   1   7
ATOM      7  N   UNL d   1       0.294   0.327   0.737  0.00  0.00    -0.732 N 
ATOM      8  C   UNL d   1       0.815   0.750  -0.545  0.00  0.00     0.284 C 
ATOM      9  H3  UNL d   1       0.896   0.553   1.525  0.00  0.00     0.395 HD
ENDBRANCH   1   7
TORSDOF 1
ENDMDL
