MODEL 1
REMARK minimizedAffinity -3.63217044
REMARK minimizedRMSD -1
REMARK  1 active torsions:
REMARK  status: ('A' for Active; 'I' for Inactive)
REMARK    1  A    between atoms: N_2  and  C1_3 
ROOT
ATOM      1  C1  UNL d   1       1.781  -0.368  -1.516  0.00  0.00     0.143 A 
ATOM      2  C2  UNL d   1       1.730   0.999  -1.811  0.00  0.00    -0.057 A 
ATOM      3  C3  UNL d   1       0.852   1.855  -1.135  0.00  0.00     0.033 A 
ATOM      4  C4  UNL d   1      -0.015   1.351  -0.170  0.00  0.00    -0.042 A 
ATOM      5  C5  UNL d   1       0.001  -0.008   0.121  0.00  0.00     0.033 A 
ATOM      6  C6  UNL d   1       0.886  -0.856  -0.552  0.00  0.00    -0.057 A 
ENDROOT
BRANCH   1   7
ATOM      7  N   UNL d   1       2.563  -1.287  -2.222  0.00  0.00    -0.732 N 
ATOM      8  C   UNL d   1       2.587  -2.682  -1.838  0.00  0.00     0.284 C 
ATOM      9  H3  UNL d   1       2.531  -1.133  -3.227  0.00  0.00     0.395 HD
ENDBRANCH   1   7
TORSDOF 1
ENDMDL
