MODEL 1
REMARK minimizedAffinity -1.97077262
REMARK minimizedRMSD -1
REMARK  1 active torsions:
REMARK  status: ('A' for Active; 'I' for Inactive)
REMARK    1  A    between atoms: N_2  and  C1_3 
ROOT
ATOM      1  C1  UNL d   1      -1.917   0.659   1.051  0.00  0.00     0.143 A 
ATOM      2  C2  UNL d   1      -1.387   1.568   0.128  0.00  0.00    -0.057 A 
ATOM      3  C3  UNL d   1      -0.169   1.320  -0.516  0.00  0.00     0.033 A 
ATOM      4  C4  UNL d   1       0.557   0.170  -0.226  0.00  0.00    -0.042 A 
ATOM      5  C5  UNL d   1       0.062  -0.735   0.706  0.00  0.00     0.033 A 
ATOM      6  C6  UNL d   1      -1.158  -0.486   1.341  0.00  0.00    -0.057 A 
ENDROOT
BRANCH   1   7
ATOM      7  N   UNL d   1      -3.074   0.895   1.798  0.00  0.00    -0.732 N 
ATOM      8  C   UNL d   1      -4.314   0.227   1.467  0.00  0.00     0.284 C 
ATOM      9  H3  UNL d   1      -2.886   0.953   2.796  0.00  0.00     0.395 HD
ENDBRANCH   1   7
TORSDOF 1
ENDMDL
