MODEL 1
REMARK minimizedAffinity -2.1658783
REMARK minimizedRMSD -1
REMARK  1 active torsions:
REMARK  status: ('A' for Active; 'I' for Inactive)
REMARK    1  A    between atoms: N_2  and  C1_3 
ROOT
ATOM      1  C1  UNL d   1      -1.501   0.525   0.832  0.00  0.00     0.143 A 
ATOM      2  C2  UNL d   1      -1.757   1.362  -0.259  0.00  0.00    -0.057 A 
ATOM      3  C3  UNL d   1      -0.713   1.951  -0.983  0.00  0.00     0.033 A 
ATOM      4  C4  UNL d   1       0.609   1.735  -0.609  0.00  0.00    -0.042 A 
ATOM      5  C5  UNL d   1       0.886   0.927   0.488  0.00  0.00     0.033 A 
ATOM      6  C6  UNL d   1      -0.160   0.336   1.203  0.00  0.00    -0.057 A 
ENDROOT
BRANCH   1   7
ATOM      7  N   UNL d   1      -2.497  -0.011   1.652  0.00  0.00    -0.732 N 
ATOM      8  C   UNL d   1      -3.874   0.410   1.510  0.00  0.00     0.284 C 
ATOM      9  H3  UNL d   1      -2.381  -1.011   1.802  0.00  0.00     0.395 HD
ENDBRANCH   1   7
TORSDOF 1
ENDMDL
