MODEL 1
REMARK minimizedAffinity -2.58366251
REMARK minimizedRMSD -1
REMARK  1 active torsions:
REMARK  status: ('A' for Active; 'I' for Inactive)
REMARK    1  A    between atoms: N_2  and  C1_3 
ROOT
ATOM      1  C1  UNL d   1      -0.965   0.150   0.359  0.00  0.00     0.143 A 
ATOM      2  C2  UNL d   1      -0.805   1.366  -0.315  0.00  0.00    -0.057 A 
ATOM      3  C3  UNL d   1       0.374   1.662  -1.010  0.00  0.00     0.033 A 
ATOM      4  C4  UNL d   1       1.429   0.756  -1.018  0.00  0.00    -0.042 A 
ATOM      5  C5  UNL d   1       1.303  -0.447  -0.334  0.00  0.00     0.033 A 
ATOM      6  C6  UNL d   1       0.121  -0.740   0.353  0.00  0.00    -0.057 A 
ENDROOT
BRANCH   1   7
ATOM      7  N   UNL d   1      -2.074  -0.161   1.149  0.00  0.00    -0.732 N 
ATOM      8  C   UNL d   1      -2.613   0.809   2.078  0.00  0.00     0.284 C 
ATOM      9  H3  UNL d   1      -2.780  -0.685   0.638  0.00  0.00     0.395 HD
ENDBRANCH   1   7
TORSDOF 1
ENDMDL
