MODEL 1
REMARK minimizedAffinity -3.91474032
REMARK minimizedRMSD -1
REMARK  1 active torsions:
REMARK  status: ('A' for Active; 'I' for Inactive)
REMARK    1  A    between atoms: N_2  and  C1_3 
ROOT
ATOM      1  C1  UNL d   1      -0.757   0.490   0.596  0.00  0.00     0.143 A 
ATOM      2  C2  UNL d   1       0.637   0.503   0.706  0.00  0.00    -0.057 A 
ATOM      3  C3  UNL d   1       1.451   0.798  -0.395  0.00  0.00     0.033 A 
ATOM      4  C4  UNL d   1       0.882   1.058  -1.637  0.00  0.00    -0.042 A 
ATOM      5  C5  UNL d   1      -0.501   1.027  -1.776  0.00  0.00     0.033 A 
ATOM      6  C6  UNL d   1      -1.308   0.738  -0.672  0.00  0.00    -0.057 A 
ENDROOT
BRANCH   1   7
ATOM      7  N   UNL d   1      -1.616   0.108   1.629  0.00  0.00    -0.732 N 
ATOM      8  C   UNL d   1      -3.050   0.232   1.479  0.00  0.00     0.284 C 
ATOM      9  H3  UNL d   1      -1.318  -0.752   2.083  0.00  0.00     0.395 HD
ENDBRANCH   1   7
TORSDOF 1
ENDMDL
