MODEL 1
REMARK minimizedAffinity -1.35651863
REMARK minimizedRMSD -1
REMARK  1 active torsions:
REMARK  status: ('A' for Active; 'I' for Inactive)
REMARK    1  A    between atoms: N_2  and  C1_3 
ROOT
ATOM      1  C1  UNL d   1      -0.056   0.444   0.338  0.00  0.00     0.143 A 
ATOM      2  C2  UNL d   1      -0.646   1.377  -0.523  0.00  0.00    -0.057 A 
ATOM      3  C3  UNL d   1       0.119   2.094  -1.450  0.00  0.00     0.033 A 
ATOM      4  C4  UNL d   1       1.497   1.912  -1.514  0.00  0.00    -0.042 A 
ATOM      5  C5  UNL d   1       2.108   1.008  -0.651  0.00  0.00     0.033 A 
ATOM      6  C6  UNL d   1       1.337   0.290   0.268  0.00  0.00    -0.057 A 
ENDROOT
BRANCH   1   7
ATOM      7  N   UNL d   1      -0.748  -0.228   1.348  0.00  0.00    -0.732 N 
ATOM      8  C   UNL d   1      -1.990   0.302   1.869  0.00  0.00     0.284 C 
ATOM      9  H3  UNL d   1      -0.752  -1.236   1.212  0.00  0.00     0.395 HD
ENDBRANCH   1   7
TORSDOF 1
ENDMDL
