MODEL 1
REMARK minimizedAffinity -3.65551615
REMARK minimizedRMSD -1
REMARK  1 active torsions:
REMARK  status: ('A' for Active; 'I' for Inactive)
REMARK    1  A    between atoms: N_2  and  C1_3 
ROOT
ATOM      1  C1  UNL d   1      -1.337   0.543   0.904  0.00  0.00     0.143 A 
ATOM      2  C2  UNL d   1      -1.695   1.462  -0.088  0.00  0.00    -0.057 A 
ATOM      3  C3  UNL d   1      -0.737   2.010  -0.950  0.00  0.00     0.033 A 
ATOM      4  C4  UNL d   1       0.605   1.669  -0.815  0.00  0.00    -0.042 A 
ATOM      5  C5  UNL d   1       0.987   0.777   0.180  0.00  0.00     0.033 A 
ATOM      6  C6  UNL d   1       0.025   0.229   1.034  0.00  0.00    -0.057 A 
ENDROOT
BRANCH   1   7
ATOM      7  N   UNL d   1      -2.227   0.039   1.855  0.00  0.00    -0.732 N 
ATOM      8  C   UNL d   1      -3.656   0.090   1.628  0.00  0.00     0.284 C 
ATOM      9  H3  UNL d   1      -1.903  -0.833   2.267  0.00  0.00     0.395 HD
ENDBRANCH   1   7
TORSDOF 1
ENDMDL
