MODEL 1
REMARK minimizedAffinity 2.35200667
REMARK minimizedRMSD -1
REMARK  0 active torsions:
REMARK  status: ('A' for Active; 'I' for Inactive)
ROOT
ATOM      1  C2' OXE d   1       1.926  -4.397   2.299  0.00  0.00     0.078 C 
ATOM      2  C1' OXE d   1       0.714  -1.866   2.238  0.00  0.00     0.078 C 
ATOM      3  C1  OXE d   1       1.176  -2.393   3.574  0.00  0.00    -0.078 A 
ATOM      4  C2  OXE d   1       1.726  -3.652   3.601  0.00  0.00    -0.078 A 
ATOM      5  C3  OXE d   1       2.218  -4.164   4.798  0.00  0.00     0.003 A 
ATOM      6  C4  OXE d   1       2.019  -3.472   6.000  0.00  0.00    -0.002 A 
ATOM      7  C5  OXE d   1       1.425  -2.205   6.000  0.00  0.00    -0.002 A 
ATOM      8  C6  OXE d   1       1.038  -1.634   4.793  0.00  0.00     0.003 A 
ENDROOT
TORSDOF 0
ENDMDL
