MODEL 1
REMARK minimizedAffinity 12.3188086
REMARK minimizedRMSD -1
REMARK  0 active torsions:
REMARK  status: ('A' for Active; 'I' for Inactive)
ROOT
ATOM      1  C2' OXE d   1       1.702  -4.159   5.699  0.00  0.00     0.078 C 
ATOM      2  C1' OXE d   1       2.370  -5.192   3.175  0.00  0.00     0.078 C 
ATOM      3  C1  OXE d   1       1.751  -3.817   3.231  0.00  0.00    -0.078 A 
ATOM      4  C2  OXE d   1       1.384  -3.339   4.466  0.00  0.00    -0.078 A 
ATOM      5  C3  OXE d   1       0.859  -2.055   4.580  0.00  0.00     0.003 A 
ATOM      6  C4  OXE d   1       0.559  -1.308   3.435  0.00  0.00    -0.002 A 
ATOM      7  C5  OXE d   1       0.887  -1.793   2.165  0.00  0.00    -0.002 A 
ATOM      8  C6  OXE d   1       1.521  -3.025   2.049  0.00  0.00     0.003 A 
ENDROOT
TORSDOF 0
ENDMDL
