MODEL 1
REMARK minimizedAffinity 5.27951288
REMARK minimizedRMSD -1
REMARK  0 active torsions:
REMARK  status: ('A' for Active; 'I' for Inactive)
ROOT
ATOM      1  C2' OXE d   1       2.268  -2.744   1.196  0.00  0.00     0.078 C 
ATOM      2  C1' OXE d   1       0.855  -0.525   2.176  0.00  0.00     0.078 C 
ATOM      3  C1  OXE d   1       1.125  -1.663   3.128  0.00  0.00    -0.078 A 
ATOM      4  C2  OXE d   1       1.776  -2.765   2.628  0.00  0.00    -0.078 A 
ATOM      5  C3  OXE d   1       2.099  -3.819   3.477  0.00  0.00     0.003 A 
ATOM      6  C4  OXE d   1       1.632  -3.835   4.796  0.00  0.00    -0.002 A 
ATOM      7  C5  OXE d   1       0.932  -2.741   5.315  0.00  0.00    -0.002 A 
ATOM      8  C6  OXE d   1       0.708  -1.631   4.508  0.00  0.00     0.003 A 
ENDROOT
TORSDOF 0
ENDMDL
