MODEL 1
REMARK minimizedAffinity 10.169384
REMARK minimizedRMSD -1
REMARK  0 active torsions:
REMARK  status: ('A' for Active; 'I' for Inactive)
ROOT
ATOM      1  C2' OXE d   1       4.384  -3.254  -0.285  0.00  0.00     0.078 C 
ATOM      2  C1' OXE d   1       3.730  -0.555  -0.695  0.00  0.00     0.078 C 
ATOM      3  C1  OXE d   1       3.027  -1.287   0.420  0.00  0.00    -0.078 A 
ATOM      4  C2  OXE d   1       3.318  -2.620   0.584  0.00  0.00    -0.078 A 
ATOM      5  C3  OXE d   1       2.738  -3.329   1.632  0.00  0.00     0.003 A 
ATOM      6  C4  OXE d   1       1.747  -2.738   2.424  0.00  0.00    -0.002 A 
ATOM      7  C5  OXE d   1       1.406  -1.393   2.249  0.00  0.00    -0.002 A 
ATOM      8  C6  OXE d   1       2.066  -0.643   1.281  0.00  0.00     0.003 A 
ENDROOT
TORSDOF 0
ENDMDL
