MODEL 1
REMARK minimizedAffinity 13.9146013
REMARK minimizedRMSD -1
REMARK  0 active torsions:
REMARK  status: ('A' for Active; 'I' for Inactive)
ROOT
ATOM      1  C2' OXE d   1      -3.904   2.368  -5.779  0.00  0.00     0.078 C 
ATOM      2  C1' OXE d   1      -3.901   1.202  -3.226  0.00  0.00     0.078 C 
ATOM      3  C1  OXE d   1      -3.831   2.706  -3.312  0.00  0.00    -0.078 A 
ATOM      4  C2  OXE d   1      -3.786   3.266  -4.566  0.00  0.00    -0.078 A 
ATOM      5  C3  OXE d   1      -3.776   4.651  -4.703  0.00  0.00     0.003 A 
ATOM      6  C4  OXE d   1      -3.657   5.474  -3.576  0.00  0.00    -0.002 A 
ATOM      7  C5  OXE d   1      -3.661   4.922  -2.290  0.00  0.00    -0.002 A 
ATOM      8  C6  OXE d   1      -3.790   3.545  -2.140  0.00  0.00     0.003 A 
ENDROOT
TORSDOF 0
ENDMDL
