MODEL 1
REMARK minimizedAffinity 12.1029758
REMARK minimizedRMSD -1
REMARK  0 active torsions:
REMARK  status: ('A' for Active; 'I' for Inactive)
ROOT
ATOM      1  C2' OXE d   1       0.878  -0.420   5.292  0.00  0.00     0.078 C 
ATOM      2  C1' OXE d   1       1.528  -3.085   5.887  0.00  0.00     0.078 C 
ATOM      3  C1  OXE d   1       1.492  -2.677   4.435  0.00  0.00    -0.078 A 
ATOM      4  C2  OXE d   1       1.127  -1.383   4.152  0.00  0.00    -0.078 A 
ATOM      5  C3  OXE d   1       1.131  -0.939   2.832  0.00  0.00     0.003 A 
ATOM      6  C4  OXE d   1       1.352  -1.839   1.782  0.00  0.00    -0.002 A 
ATOM      7  C5  OXE d   1       1.686  -3.171   2.048  0.00  0.00    -0.002 A 
ATOM      8  C6  OXE d   1       1.802  -3.595   3.367  0.00  0.00     0.003 A 
ENDROOT
TORSDOF 0
ENDMDL
