MODEL 1
REMARK minimizedAffinity 8.12441349
REMARK minimizedRMSD -1
REMARK  0 active torsions:
REMARK  status: ('A' for Active; 'I' for Inactive)
ROOT
ATOM      1  C2' OXE d   1       0.665  -5.998   1.661  0.00  0.00     0.078 C 
ATOM      2  C1' OXE d   1      -1.702  -5.028   0.504  0.00  0.00     0.078 C 
ATOM      3  C1  OXE d   1      -0.524  -5.275  -0.405  0.00  0.00    -0.078 A 
ATOM      4  C2  OXE d   1       0.644  -5.705   0.176  0.00  0.00    -0.078 A 
ATOM      5  C3  OXE d   1       1.744  -6.000  -0.624  0.00  0.00     0.003 A 
ATOM      6  C4  OXE d   1       1.720  -5.716  -1.995  0.00  0.00    -0.002 A 
ATOM      7  C5  OXE d   1       0.553  -5.240  -2.601  0.00  0.00    -0.002 A 
ATOM      8  C6  OXE d   1      -0.589  -5.054  -1.829  0.00  0.00     0.003 A 
ENDROOT
TORSDOF 0
ENDMDL
