MODEL 1
REMARK minimizedAffinity 13.0838861
REMARK minimizedRMSD -1
REMARK  0 active torsions:
REMARK  status: ('A' for Active; 'I' for Inactive)
ROOT
ATOM      1  C4' PXY d   1       5.969  -4.829  -0.778  0.00  0.00     0.077 C 
ATOM      2  C1' PXY d   1       3.063  -3.477  -5.589  0.00  0.00     0.077 C 
ATOM      3  C1  PXY d   1       3.836  -3.829  -4.334  0.00  0.00    -0.082 A 
ATOM      4  C2  PXY d   1       3.301  -4.650  -3.445  0.00  0.00     0.003 A 
ATOM      5  C3  PXY d   1       3.973  -4.954  -2.289  0.00  0.00     0.003 A 
ATOM      6  C4  PXY d   1       5.228  -4.454  -2.065  0.00  0.00    -0.082 A 
ATOM      7  C5  PXY d   1       5.785  -3.624  -2.972  0.00  0.00     0.003 A 
ATOM      8  C6  PXY d   1       5.069  -3.295  -4.120  0.00  0.00     0.003 A 
ENDROOT
TORSDOF 0
ENDMDL
