MODEL 1
REMARK minimizedAffinity 9.37764359
REMARK minimizedRMSD -1
REMARK  0 active torsions:
REMARK  status: ('A' for Active; 'I' for Inactive)
ROOT
ATOM      1  C4' PXY d   1       6.000  -4.875  -1.523  0.00  0.00     0.077 C 
ATOM      2  C1' PXY d   1       2.621  -2.625  -5.638  0.00  0.00     0.077 C 
ATOM      3  C1  PXY d   1       3.518  -3.211  -4.565  0.00  0.00    -0.082 A 
ATOM      4  C2  PXY d   1       3.077  -4.210  -3.818  0.00  0.00     0.003 A 
ATOM      5  C3  PXY d   1       3.863  -4.730  -2.822  0.00  0.00     0.003 A 
ATOM      6  C4  PXY d   1       5.133  -4.259  -2.624  0.00  0.00    -0.082 A 
ATOM      7  C5  PXY d   1       5.594  -3.247  -3.389  0.00  0.00     0.003 A 
ATOM      8  C6  PXY d   1       4.765  -2.705  -4.368  0.00  0.00     0.003 A 
ENDROOT
TORSDOF 0
ENDMDL
