MODEL 1
REMARK minimizedAffinity 5.00955629
REMARK minimizedRMSD -1
REMARK  0 active torsions:
REMARK  status: ('A' for Active; 'I' for Inactive)
ROOT
ATOM      1  C4' PXY d   1      -2.567   1.339   3.244  0.00  0.00     0.077 C 
ATOM      2  C1' PXY d   1       0.315   3.177  -1.417  0.00  0.00     0.077 C 
ATOM      3  C1  PXY d   1      -0.450   2.703  -0.198  0.00  0.00    -0.082 A 
ATOM      4  C2  PXY d   1       0.201   2.125   0.799  0.00  0.00     0.003 A 
ATOM      5  C3  PXY d   1      -0.480   1.662   1.896  0.00  0.00     0.003 A 
ATOM      6  C4  PXY d   1      -1.834   1.841   1.997  0.00  0.00    -0.082 A 
ATOM      7  C5  PXY d   1      -2.503   2.439   0.989  0.00  0.00     0.003 A 
ATOM      8  C6  PXY d   1      -1.799   2.865  -0.134  0.00  0.00     0.003 A 
ENDROOT
TORSDOF 0
ENDMDL
