MODEL 1
REMARK minimizedAffinity 8.70632839
REMARK minimizedRMSD -1
REMARK  0 active torsions:
REMARK  status: ('A' for Active; 'I' for Inactive)
ROOT
ATOM      1  C4' PXY d   1      -2.933   3.027   1.730  0.00  0.00     0.077 C 
ATOM      2  C1' PXY d   1       1.171  -0.058  -0.926  0.00  0.00     0.077 C 
ATOM      3  C1  PXY d   1       0.095   0.743  -0.219  0.00  0.00    -0.082 A 
ATOM      4  C2  PXY d   1      -0.758   1.464  -0.930  0.00  0.00     0.003 A 
ATOM      5  C3  PXY d   1      -1.716   2.219  -0.305  0.00  0.00     0.003 A 
ATOM      6  C4  PXY d   1      -1.837   2.196   1.058  0.00  0.00    -0.082 A 
ATOM      7  C5  PXY d   1      -0.978   1.455   1.790  0.00  0.00     0.003 A 
ATOM      8  C6  PXY d   1       0.014   0.727   1.139  0.00  0.00     0.003 A 
ENDROOT
TORSDOF 0
ENDMDL
