MODEL 1
REMARK minimizedAffinity 3.0307436
REMARK minimizedRMSD -1
REMARK  0 active torsions:
REMARK  status: ('A' for Active; 'I' for Inactive)
ROOT
ATOM      1  C4' PXY d   1       0.084   1.967   4.392  0.00  0.00     0.077 C 
ATOM      2  C1' PXY d   1      -2.538   1.604  -0.747  0.00  0.00     0.077 C 
ATOM      3  C1  PXY d   1      -1.850   1.686   0.602  0.00  0.00    -0.082 A 
ATOM      4  C2  PXY d   1      -1.956   2.790   1.323  0.00  0.00     0.003 A 
ATOM      5  C3  PXY d   1      -1.315   2.893   2.531  0.00  0.00     0.003 A 
ATOM      6  C4  PXY d   1      -0.601   1.836   3.029  0.00  0.00    -0.082 A 
ATOM      7  C5  PXY d   1      -0.498   0.702   2.303  0.00  0.00     0.003 A 
ATOM      8  C6  PXY d   1      -1.122   0.633   1.061  0.00  0.00     0.003 A 
ENDROOT
TORSDOF 0
ENDMDL
