MODEL 1
REMARK minimizedAffinity 7.09022713
REMARK minimizedRMSD -1
REMARK  0 active torsions:
REMARK  status: ('A' for Active; 'I' for Inactive)
ROOT
ATOM      1  C4' PXY d   1      -5.998  -5.994   5.916  0.00  0.00     0.077 C 
ATOM      2  C1' PXY d   1      -2.707  -1.419   4.631  0.00  0.00     0.077 C 
ATOM      3  C1  PXY d   1      -3.565  -2.626   4.958  0.00  0.00    -0.082 A 
ATOM      4  C2  PXY d   1      -4.670  -2.469   5.668  0.00  0.00     0.003 A 
ATOM      5  C3  PXY d   1      -5.441  -3.553   6.000  0.00  0.00     0.003 A 
ATOM      6  C4  PXY d   1      -5.106  -4.804   5.555  0.00  0.00    -0.082 A 
ATOM      7  C5  PXY d   1      -3.986  -4.970   4.820  0.00  0.00     0.003 A 
ATOM      8  C6  PXY d   1      -3.195  -3.863   4.529  0.00  0.00     0.003 A 
ENDROOT
TORSDOF 0
ENDMDL
