MODEL 1
REMARK minimizedAffinity 4.39395428
REMARK minimizedRMSD -1
REMARK  0 active torsions:
REMARK  status: ('A' for Active; 'I' for Inactive)
ROOT
ATOM      1  C4' PXY d   1       5.733  -4.069   0.403  0.00  0.00     0.077 C 
ATOM      2  C1' PXY d   1       3.425  -3.108  -4.809  0.00  0.00     0.077 C 
ATOM      3  C1  PXY d   1       4.042  -3.360  -3.448  0.00  0.00    -0.082 A 
ATOM      4  C2  PXY d   1       3.315  -3.917  -2.493  0.00  0.00     0.003 A 
ATOM      5  C3  PXY d   1       3.847  -4.123  -1.246  0.00  0.00     0.003 A 
ATOM      6  C4  PXY d   1       5.154  -3.804  -0.990  0.00  0.00    -0.082 A 
ATOM      7  C5  PXY d   1       5.906  -3.245  -1.962  0.00  0.00     0.003 A 
ATOM      8  C6  PXY d   1       5.334  -3.006  -3.208  0.00  0.00     0.003 A 
ENDROOT
TORSDOF 0
ENDMDL
