MODEL 1
REMARK minimizedAffinity 8.6273756
REMARK minimizedRMSD -1
REMARK  0 active torsions:
REMARK  status: ('A' for Active; 'I' for Inactive)
ROOT
ATOM      1  C4' PXY d   1       1.082  -4.991   6.000  0.00  0.00     0.077 C 
ATOM      2  C1' PXY d   1      -2.861  -1.698   3.350  0.00  0.00     0.077 C 
ATOM      3  C1  PXY d   1      -1.831  -2.557   4.056  0.00  0.00    -0.082 A 
ATOM      4  C2  PXY d   1      -0.741  -2.936   3.410  0.00  0.00     0.003 A 
ATOM      5  C3  PXY d   1       0.186  -3.740   4.023  0.00  0.00     0.003 A 
ATOM      6  C4  PXY d   1       0.020  -4.116   5.329  0.00  0.00    -0.082 A 
ATOM      7  C5  PXY d   1      -1.084  -3.724   5.999  0.00  0.00     0.003 A 
ATOM      8  C6  PXY d   1      -2.033  -2.943   5.346  0.00  0.00     0.003 A 
ENDROOT
TORSDOF 0
ENDMDL
