MODEL 1
REMARK minimizedAffinity 10.5518894
REMARK minimizedRMSD -1
REMARK  0 active torsions:
REMARK  status: ('A' for Active; 'I' for Inactive)
ROOT
ATOM      1  C4' PXY d   1      -1.492  -2.253   4.135  0.00  0.00     0.077 C 
ATOM      2  C1' PXY d   1      -0.224   2.715   1.466  0.00  0.00     0.077 C 
ATOM      3  C1  PXY d   1      -0.546   1.407   2.160  0.00  0.00    -0.082 A 
ATOM      4  C2  PXY d   1      -1.784   1.168   2.564  0.00  0.00     0.003 A 
ATOM      5  C3  PXY d   1      -2.086   0.003   3.222  0.00  0.00     0.003 A 
ATOM      6  C4  PXY d   1      -1.123  -0.950   3.421  0.00  0.00    -0.082 A 
ATOM      7  C5  PXY d   1       0.139  -0.718   3.003  0.00  0.00     0.003 A 
ATOM      8  C6  PXY d   1       0.435   0.488   2.374  0.00  0.00     0.003 A 
ENDROOT
TORSDOF 0
ENDMDL
