MODEL 1
REMARK minimizedAffinity -3.07499766
REMARK minimizedRMSD -1
REMARK  0 active torsions:
REMARK  status: ('A' for Active; 'I' for Inactive)
ROOT
ATOM      1  C4' PXY d   1      -0.544   1.531   2.197  0.00  0.00     0.077 C 
ATOM      2  C1' PXY d   1       0.104  -0.451  -3.194  0.00  0.00     0.077 C 
ATOM      3  C1  PXY d   1      -0.068   0.081  -1.785  0.00  0.00    -0.082 A 
ATOM      4  C2  PXY d   1       0.452  -0.585  -0.767  0.00  0.00     0.003 A 
ATOM      5  C3  PXY d   1       0.279  -0.135   0.517  0.00  0.00     0.003 A 
ATOM      6  C4  PXY d   1      -0.388   1.037   0.757  0.00  0.00    -0.082 A 
ATOM      7  C5  PXY d   1      -0.912   1.727  -0.278  0.00  0.00     0.003 A 
ATOM      8  C6  PXY d   1      -0.761   1.232  -1.570  0.00  0.00     0.003 A 
ENDROOT
TORSDOF 0
ENDMDL
