MODEL 1
REMARK minimizedAffinity 2.50200009
REMARK minimizedRMSD -1
REMARK  0 active torsions:
REMARK  status: ('A' for Active; 'I' for Inactive)
ROOT
ATOM      1  C4' PXY d   1       3.770  -3.857  -3.608  0.00  0.00     0.077 C 
ATOM      2  C1' PXY d   1       5.606  -1.767   1.459  0.00  0.00     0.077 C 
ATOM      3  C1  PXY d   1       5.114  -2.319   0.136  0.00  0.00    -0.082 A 
ATOM      4  C2  PXY d   1       5.984  -2.595  -0.822  0.00  0.00     0.003 A 
ATOM      5  C3  PXY d   1       5.553  -3.066  -2.036  0.00  0.00     0.003 A 
ATOM      6  C4  PXY d   1       4.223  -3.306  -2.253  0.00  0.00    -0.082 A 
ATOM      7  C5  PXY d   1       3.330  -3.038  -1.277  0.00  0.00     0.003 A 
ATOM      8  C6  PXY d   1       3.784  -2.522  -0.066  0.00  0.00     0.003 A 
ENDROOT
TORSDOF 0
ENDMDL
