MODEL 1
REMARK minimizedAffinity 13.2184429
REMARK minimizedRMSD -1
REMARK  0 active torsions:
REMARK  status: ('A' for Active; 'I' for Inactive)
ROOT
ATOM      1  C4' PXY d   1      -3.614   0.274  -3.190  0.00  0.00     0.077 C 
ATOM      2  C1' PXY d   1       1.758   1.001  -1.182  0.00  0.00     0.077 C 
ATOM      3  C1  PXY d   1       0.353   0.801  -1.717  0.00  0.00    -0.082 A 
ATOM      4  C2  PXY d   1      -0.541   1.767  -1.582  0.00  0.00     0.003 A 
ATOM      5  C3  PXY d   1      -1.825   1.591  -2.031  0.00  0.00     0.003 A 
ATOM      6  C4  PXY d   1      -2.182   0.435  -2.674  0.00  0.00    -0.082 A 
ATOM      7  C5  PXY d   1      -1.271  -0.550  -2.825  0.00  0.00     0.003 A 
ATOM      8  C6  PXY d   1       0.015  -0.368  -2.325  0.00  0.00     0.003 A 
ENDROOT
TORSDOF 0
ENDMDL
