MODEL 1
REMARK minimizedAffinity 9.33692074
REMARK minimizedRMSD -1
REMARK  0 active torsions:
REMARK  status: ('A' for Active; 'I' for Inactive)
ROOT
ATOM      1  C4' PXY d   1      -1.025  -2.972   4.008  0.00  0.00     0.077 C 
ATOM      2  C1' PXY d   1      -0.825   2.334   1.722  0.00  0.00     0.077 C 
ATOM      3  C1  PXY d   1      -0.866   0.939   2.316  0.00  0.00    -0.082 A 
ATOM      4  C2  PXY d   1      -2.026   0.416   2.677  0.00  0.00     0.003 A 
ATOM      5  C3  PXY d   1      -2.079  -0.831   3.245  0.00  0.00     0.003 A 
ATOM      6  C4  PXY d   1      -0.937  -1.571   3.396  0.00  0.00    -0.082 A 
ATOM      7  C5  PXY d   1       0.250  -1.049   3.019  0.00  0.00     0.003 A 
ATOM      8  C6  PXY d   1       0.286   0.235   2.483  0.00  0.00     0.003 A 
ENDROOT
TORSDOF 0
ENDMDL
