MODEL 1
REMARK minimizedAffinity 7.60061646
REMARK minimizedRMSD -1
REMARK  0 active torsions:
REMARK  status: ('A' for Active; 'I' for Inactive)
ROOT
ATOM      1  C4' PXY d   1      -2.929  -0.415  -2.457  0.00  0.00     0.077 C 
ATOM      2  C1' PXY d   1       2.135   2.361  -2.216  0.00  0.00     0.077 C 
ATOM      3  C1  PXY d   1       0.802   1.643  -2.272  0.00  0.00    -0.082 A 
ATOM      4  C2  PXY d   1       0.771   0.333  -2.461  0.00  0.00     0.003 A 
ATOM      5  C3  PXY d   1      -0.427  -0.328  -2.546  0.00  0.00     0.003 A 
ATOM      6  C4  PXY d   1      -1.605   0.351  -2.384  0.00  0.00    -0.082 A 
ATOM      7  C5  PXY d   1      -1.583   1.685  -2.181  0.00  0.00     0.003 A 
ATOM      8  C6  PXY d   1      -0.357   2.343  -2.138  0.00  0.00     0.003 A 
ENDROOT
TORSDOF 0
ENDMDL
