MODEL 1
REMARK minimizedAffinity 11.4234123
REMARK minimizedRMSD -1
REMARK  0 active torsions:
REMARK  status: ('A' for Active; 'I' for Inactive)
ROOT
ATOM      1  C4' PXY d   1      -2.226  -1.850   4.431  0.00  0.00     0.077 C 
ATOM      2  C1' PXY d   1      -1.912   2.686   0.861  0.00  0.00     0.077 C 
ATOM      3  C1  PXY d   1      -2.008   1.496   1.796  0.00  0.00    -0.082 A 
ATOM      4  C2  PXY d   1      -1.047   1.280   2.679  0.00  0.00     0.003 A 
ATOM      5  C3  PXY d   1      -1.101   0.191   3.511  0.00  0.00     0.003 A 
ATOM      6  C4  PXY d   1      -2.176  -0.656   3.474  0.00  0.00    -0.082 A 
ATOM      7  C5  PXY d   1      -3.166  -0.437   2.582  0.00  0.00     0.003 A 
ATOM      8  C6  PXY d   1      -3.071   0.651   1.719  0.00  0.00     0.003 A 
ENDROOT
TORSDOF 0
ENDMDL
