MODEL 1
REMARK minimizedAffinity 7.88623476
REMARK minimizedRMSD -1
REMARK  0 active torsions:
REMARK  status: ('A' for Active; 'I' for Inactive)
ROOT
ATOM      1  C4' PXY d   1       1.440   0.198   4.546  0.00  0.00     0.077 C 
ATOM      2  C1' PXY d   1      -2.529   2.768   1.222  0.00  0.00     0.077 C 
ATOM      3  C1  PXY d   1      -1.481   2.104   2.092  0.00  0.00    -0.082 A 
ATOM      4  C2  PXY d   1      -1.480   0.788   2.227  0.00  0.00     0.003 A 
ATOM      5  C3  PXY d   1      -0.558   0.174   3.035  0.00  0.00     0.003 A 
ATOM      6  C4  PXY d   1       0.406   0.910   3.670  0.00  0.00    -0.082 A 
ATOM      7  C5  PXY d   1       0.418   2.253   3.529  0.00  0.00     0.003 A 
ATOM      8  C6  PXY d   1      -0.551   2.861   2.737  0.00  0.00     0.003 A 
ENDROOT
TORSDOF 0
ENDMDL
