MODEL 1
REMARK minimizedAffinity 5.29481316
REMARK minimizedRMSD -1
REMARK  0 active torsions:
REMARK  status: ('A' for Active; 'I' for Inactive)
ROOT
ATOM      1  C4' PXY d   1       1.081  -3.651  -1.723  0.00  0.00     0.077 C 
ATOM      2  C1' PXY d   1       5.999  -1.106  -0.065  0.00  0.00     0.077 C 
ATOM      3  C1  PXY d   1       4.715  -1.778  -0.511  0.00  0.00    -0.082 A 
ATOM      4  C2  PXY d   1       3.557  -1.365  -0.021  0.00  0.00     0.003 A 
ATOM      5  C3  PXY d   1       2.389  -1.982  -0.389  0.00  0.00     0.003 A 
ATOM      6  C4  PXY d   1       2.401  -2.997  -1.309  0.00  0.00    -0.082 A 
ATOM      7  C5  PXY d   1       3.577  -3.416  -1.821  0.00  0.00     0.003 A 
ATOM      8  C6  PXY d   1       4.756  -2.804  -1.403  0.00  0.00     0.003 A 
ENDROOT
TORSDOF 0
ENDMDL
