MODEL 1
REMARK minimizedAffinity 5.19228888
REMARK minimizedRMSD -1
REMARK  0 active torsions:
REMARK  status: ('A' for Active; 'I' for Inactive)
ROOT
ATOM      1  C4' PXY d   1      -0.628   2.229   0.552  0.00  0.00     0.077 C 
ATOM      2  C1' PXY d   1       0.707  -0.108  -4.563  0.00  0.00     0.077 C 
ATOM      3  C1  PXY d   1       0.369   0.510  -3.221  0.00  0.00    -0.082 A 
ATOM      4  C2  PXY d   1      -0.582  -0.027  -2.475  0.00  0.00     0.003 A 
ATOM      5  C3  PXY d   1      -0.923   0.538  -1.273  0.00  0.00     0.003 A 
ATOM      6  C4  PXY d   1      -0.247   1.633  -0.806  0.00  0.00    -0.082 A 
ATOM      7  C5  PXY d   1       0.732   2.181  -1.557  0.00  0.00     0.003 A 
ATOM      8  C6  PXY d   1       1.035   1.616  -2.792  0.00  0.00     0.003 A 
ENDROOT
TORSDOF 0
ENDMDL
