MODEL 1
REMARK minimizedAffinity -2.36944294
REMARK minimizedRMSD -1
REMARK  0 active torsions:
REMARK  status: ('A' for Active; 'I' for Inactive)
ROOT
ATOM      1  C   UNL d   1       4.495  -2.998   5.724  0.00  0.00     0.172 C 
ATOM      2  N   UNL d   1       4.875  -3.138   4.337  0.00  0.00    -0.070 N 
ATOM      3  C1  UNL d   1       4.206  -3.875   3.397  0.00  0.00    -0.004 A 
ATOM      4  C2  UNL d   1       4.884  -3.752   2.204  0.00  0.00    -0.047 A 
ATOM      5  C3  UNL d   1       6.000  -2.912   2.435  0.00  0.00    -0.047 A 
ATOM      6  C4  UNL d   1       5.970  -2.547   3.764  0.00  0.00    -0.004 A 
ENDROOT
TORSDOF 0
ENDMDL
