MODEL 1
REMARK minimizedAffinity -2.63365197
REMARK minimizedRMSD -1
REMARK  0 active torsions:
REMARK  status: ('A' for Active; 'I' for Inactive)
ROOT
ATOM      1  C   UNL d   1       5.459  -3.005   5.853  0.00  0.00     0.172 C 
ATOM      2  N   UNL d   1       5.590  -3.504   4.504  0.00  0.00    -0.070 N 
ATOM      3  C1  UNL d   1       5.328  -2.795   3.362  0.00  0.00    -0.004 A 
ATOM      4  C2  UNL d   1       5.575  -3.621   2.287  0.00  0.00    -0.047 A 
ATOM      5  C3  UNL d   1       6.000  -4.869   2.800  0.00  0.00    -0.047 A 
ATOM      6  C4  UNL d   1       6.000  -4.769   4.176  0.00  0.00    -0.004 A 
ENDROOT
TORSDOF 0
ENDMDL
