MODEL 1
REMARK minimizedAffinity -2.54416633
REMARK minimizedRMSD -1
REMARK  0 active torsions:
REMARK  status: ('A' for Active; 'I' for Inactive)
ROOT
ATOM      1  C   UNL d   1       5.587  -3.000   5.993  0.00  0.00     0.172 C 
ATOM      2  N   UNL d   1       5.712  -3.163   4.563  0.00  0.00    -0.070 N 
ATOM      3  C1  UNL d   1       5.627  -4.349   3.884  0.00  0.00    -0.004 A 
ATOM      4  C2  UNL d   1       5.799  -4.081   2.544  0.00  0.00    -0.047 A 
ATOM      5  C3  UNL d   1       5.995  -2.685   2.412  0.00  0.00    -0.047 A 
ATOM      6  C4  UNL d   1       5.936  -2.142   3.678  0.00  0.00    -0.004 A 
ENDROOT
TORSDOF 0
ENDMDL
