MODEL 1
REMARK minimizedAffinity -2.84264874
REMARK minimizedRMSD -1
REMARK  0 active torsions:
REMARK  status: ('A' for Active; 'I' for Inactive)
ROOT
ATOM      1  C   UNL d   1       2.460  -3.179   4.266  0.00  0.00     0.172 C 
ATOM      2  N   UNL d   1       3.900  -3.083   4.310  0.00  0.00    -0.070 N 
ATOM      3  C1  UNL d   1       4.689  -3.403   5.382  0.00  0.00    -0.004 A 
ATOM      4  C2  UNL d   1       6.000  -3.175   5.024  0.00  0.00    -0.047 A 
ATOM      5  C3  UNL d   1       5.999  -2.702   3.691  0.00  0.00    -0.047 A 
ATOM      6  C4  UNL d   1       4.686  -2.654   3.273  0.00  0.00    -0.004 A 
ENDROOT
TORSDOF 0
ENDMDL
