MODEL 1
REMARK minimizedAffinity -3.38250971
REMARK minimizedRMSD -1
REMARK  0 active torsions:
REMARK  status: ('A' for Active; 'I' for Inactive)
ROOT
ATOM      1  C   UNL d   1       5.839  -3.204   3.051  0.00  0.00     0.172 C 
ATOM      2  N   UNL d   1       4.611  -3.414   3.781  0.00  0.00    -0.070 N 
ATOM      3  C1  UNL d   1       3.368  -3.563   3.225  0.00  0.00    -0.004 A 
ATOM      4  C2  UNL d   1       2.466  -3.742   4.251  0.00  0.00    -0.047 A 
ATOM      5  C3  UNL d   1       3.191  -3.699   5.466  0.00  0.00    -0.047 A 
ATOM      6  C4  UNL d   1       4.517  -3.494   5.145  0.00  0.00    -0.004 A 
ENDROOT
TORSDOF 0
ENDMDL
