MODEL 1
REMARK minimizedAffinity -2.8491962
REMARK minimizedRMSD -1
REMARK  0 active torsions:
REMARK  status: ('A' for Active; 'I' for Inactive)
ROOT
ATOM      1  C   UNL d   1       5.452  -5.694   5.337  0.00  0.00     0.172 C 
ATOM      2  N   UNL d   1       5.472  -4.512   4.508  0.00  0.00    -0.070 N 
ATOM      3  C1  UNL d   1       5.557  -4.496   3.142  0.00  0.00    -0.004 A 
ATOM      4  C2  UNL d   1       5.546  -3.180   2.733  0.00  0.00    -0.047 A 
ATOM      5  C3  UNL d   1       5.453  -2.377   3.895  0.00  0.00    -0.047 A 
ATOM      6  C4  UNL d   1       5.408  -3.227   4.980  0.00  0.00    -0.004 A 
ENDROOT
TORSDOF 0
ENDMDL
