MODEL 1
REMARK minimizedAffinity -2.41019011
REMARK minimizedRMSD -1
REMARK  0 active torsions:
REMARK  status: ('A' for Active; 'I' for Inactive)
ROOT
ATOM      1  C   UNL d   1       4.719  -5.457   5.622  0.00  0.00     0.172 C 
ATOM      2  N   UNL d   1       5.239  -4.303   4.927  0.00  0.00    -0.070 N 
ATOM      3  C1  UNL d   1       5.525  -3.091   5.495  0.00  0.00    -0.004 A 
ATOM      4  C2  UNL d   1       5.999  -2.261   4.502  0.00  0.00    -0.047 A 
ATOM      5  C3  UNL d   1       5.997  -3.000   3.296  0.00  0.00    -0.047 A 
ATOM      6  C4  UNL d   1       5.522  -4.261   3.587  0.00  0.00    -0.004 A 
ENDROOT
TORSDOF 0
ENDMDL
