MODEL 1
REMARK minimizedAffinity -2.66183472
REMARK minimizedRMSD -1
REMARK  0 active torsions:
REMARK  status: ('A' for Active; 'I' for Inactive)
ROOT
ATOM      1  C   UNL d   1       4.790  -2.686   5.520  0.00  0.00     0.172 C 
ATOM      2  N   UNL d   1       5.192  -3.469   4.375  0.00  0.00    -0.070 N 
ATOM      3  C1  UNL d   1       5.071  -4.828   4.256  0.00  0.00    -0.004 A 
ATOM      4  C2  UNL d   1       5.566  -5.188   3.021  0.00  0.00    -0.047 A 
ATOM      5  C3  UNL d   1       6.000  -4.006   2.377  0.00  0.00    -0.047 A 
ATOM      6  C4  UNL d   1       5.757  -2.956   3.238  0.00  0.00    -0.004 A 
ENDROOT
TORSDOF 0
ENDMDL
