MODEL 1
REMARK minimizedAffinity -2.46130562
REMARK minimizedRMSD -1
REMARK  0 active torsions:
REMARK  status: ('A' for Active; 'I' for Inactive)
ROOT
ATOM      1  C   UNL d   1       5.920  -5.850   3.359  0.00  0.00     0.172 C 
ATOM      2  N   UNL d   1       5.576  -4.653   4.090  0.00  0.00    -0.070 N 
ATOM      3  C1  UNL d   1       5.124  -4.609   5.382  0.00  0.00    -0.004 A 
ATOM      4  C2  UNL d   1       4.912  -3.287   5.710  0.00  0.00    -0.047 A 
ATOM      5  C3  UNL d   1       5.247  -2.510   4.576  0.00  0.00    -0.047 A 
ATOM      6  C4  UNL d   1       5.655  -3.381   3.587  0.00  0.00    -0.004 A 
ENDROOT
TORSDOF 0
ENDMDL
