MODEL 1
REMARK minimizedAffinity -2.81082392
REMARK minimizedRMSD -1
REMARK  0 active torsions:
REMARK  status: ('A' for Active; 'I' for Inactive)
ROOT
ATOM      1  C   UNL d   1       3.905  -5.151   6.000  0.00  0.00     0.172 C 
ATOM      2  N   UNL d   1       4.481  -4.224   5.054  0.00  0.00    -0.070 N 
ATOM      3  C1  UNL d   1       4.888  -4.530   3.783  0.00  0.00    -0.004 A 
ATOM      4  C2  UNL d   1       5.377  -3.378   3.207  0.00  0.00    -0.047 A 
ATOM      5  C3  UNL d   1       5.261  -2.343   4.166  0.00  0.00    -0.047 A 
ATOM      6  C4  UNL d   1       4.703  -2.895   5.300  0.00  0.00    -0.004 A 
ENDROOT
TORSDOF 0
ENDMDL
