MODEL 1
REMARK minimizedAffinity -1.98303115
REMARK minimizedRMSD -1
REMARK  0 active torsions:
REMARK  status: ('A' for Active; 'I' for Inactive)
ROOT
ATOM      1  C   UNL d   1       5.492  -5.253   3.748  0.00  0.00     0.172 C 
ATOM      2  N   UNL d   1       5.622  -3.924   3.198  0.00  0.00    -0.070 N 
ATOM      3  C1  UNL d   1       5.996  -3.625   1.915  0.00  0.00    -0.004 A 
ATOM      4  C2  UNL d   1       5.999  -2.252   1.786  0.00  0.00    -0.047 A 
ATOM      5  C3  UNL d   1       5.614  -1.709   3.034  0.00  0.00    -0.047 A 
ATOM      6  C4  UNL d   1       5.387  -2.766   3.890  0.00  0.00    -0.004 A 
ENDROOT
TORSDOF 0
ENDMDL
