MODEL 1
REMARK minimizedAffinity -2.25852871
REMARK minimizedRMSD -1
REMARK  0 active torsions:
REMARK  status: ('A' for Active; 'I' for Inactive)
ROOT
ATOM      1  C   UNL d   1       5.181  -3.378   2.442  0.00  0.00     0.172 C 
ATOM      2  N   UNL d   1       5.221  -3.279   3.882  0.00  0.00    -0.070 N 
ATOM      3  C1  UNL d   1       4.498  -2.399   4.642  0.00  0.00    -0.004 A 
ATOM      4  C2  UNL d   1       4.817  -2.622   5.964  0.00  0.00    -0.047 A 
ATOM      5  C3  UNL d   1       5.765  -3.671   6.000  0.00  0.00    -0.047 A 
ATOM      6  C4  UNL d   1       5.998  -4.059   4.697  0.00  0.00    -0.004 A 
ENDROOT
TORSDOF 0
ENDMDL
