MODEL 1
REMARK minimizedAffinity 0.863178968
REMARK minimizedRMSD -1
REMARK  0 active torsions:
REMARK  status: ('A' for Active; 'I' for Inactive)
ROOT
ATOM      1  C   UNL d   1       5.949  -5.780   3.421  0.00  0.00     0.172 C 
ATOM      2  N   UNL d   1       5.764  -4.399   3.041  0.00  0.00    -0.070 N 
ATOM      3  C1  UNL d   1       5.994  -3.876   1.796  0.00  0.00    -0.004 A 
ATOM      4  C2  UNL d   1       5.701  -2.531   1.843  0.00  0.00    -0.047 A 
ATOM      5  C3  UNL d   1       5.281  -2.234   3.161  0.00  0.00    -0.047 A 
ATOM      6  C4  UNL d   1       5.330  -3.409   3.882  0.00  0.00    -0.004 A 
ENDROOT
TORSDOF 0
ENDMDL
