MODEL 1
REMARK minimizedAffinity -2.80063391
REMARK minimizedRMSD -1
REMARK  0 active torsions:
REMARK  status: ('A' for Active; 'I' for Inactive)
ROOT
ATOM      1  C   UNL d   1       4.875  -2.634   5.618  0.00  0.00     0.172 C 
ATOM      2  N   UNL d   1       5.274  -3.053   4.295  0.00  0.00    -0.070 N 
ATOM      3  C1  UNL d   1       5.725  -4.300   3.955  0.00  0.00    -0.004 A 
ATOM      4  C2  UNL d   1       6.000  -4.296   2.605  0.00  0.00    -0.047 A 
ATOM      5  C3  UNL d   1       5.705  -3.001   2.117  0.00  0.00    -0.047 A 
ATOM      6  C4  UNL d   1       5.257  -2.251   3.184  0.00  0.00    -0.004 A 
ENDROOT
TORSDOF 0
ENDMDL
