MODEL 1
REMARK minimizedAffinity 5.38386583
REMARK minimizedRMSD -1
REMARK  0 active torsions:
REMARK  status: ('A' for Active; 'I' for Inactive)
ROOT
ATOM      1  C1  DEN d   1       1.353  -0.613   1.632  0.00  0.00     0.130 A 
ATOM      2  C2  DEN d   1       1.039  -1.198   2.932  0.00  0.00    -0.031 A 
ATOM      3  C3  DEN d   1       0.095  -0.297   3.623  0.00  0.00     0.027 A 
ATOM      4  C4  DEN d   1      -0.909   1.935   2.807  0.00  0.00     0.027 A 
ATOM      5  C5  DEN d   1      -0.930   2.845   1.773  0.00  0.00    -0.003 A 
ATOM      6  C6  DEN d   1      -0.172   2.685   0.644  0.00  0.00     0.001 A 
ATOM      7  C7  DEN d   1       0.606   1.566   0.501  0.00  0.00     0.017 A 
ATOM      8  C8  DEN d   1       0.638   0.648   1.543  0.00  0.00    -0.094 A 
ATOM      9  C9  DEN d   1      -0.145   0.821   2.671  0.00  0.00    -0.072 A 
ENDROOT
TORSDOF 0
ENDMDL
