MODEL 1
REMARK minimizedAffinity 11.6480312
REMARK minimizedRMSD -1
REMARK  0 active torsions:
REMARK  status: ('A' for Active; 'I' for Inactive)
ROOT
ATOM      1  C1  DEN d   1      -1.508   2.695   0.585  0.00  0.00     0.130 A 
ATOM      2  C2  DEN d   1      -0.076   2.772   0.861  0.00  0.00    -0.031 A 
ATOM      3  C3  DEN d   1       0.645   2.622  -0.420  0.00  0.00     0.027 A 
ATOM      4  C4  DEN d   1      -0.313   2.286  -2.791  0.00  0.00     0.027 A 
ATOM      5  C5  DEN d   1      -1.471   2.145  -3.524  0.00  0.00    -0.003 A 
ATOM      6  C6  DEN d   1      -2.710   2.144  -2.940  0.00  0.00     0.001 A 
ATOM      7  C7  DEN d   1      -2.823   2.331  -1.588  0.00  0.00     0.017 A 
ATOM      8  C8  DEN d   1      -1.660   2.466  -0.841  0.00  0.00    -0.094 A 
ATOM      9  C9  DEN d   1      -0.418   2.477  -1.451  0.00  0.00    -0.072 A 
ENDROOT
TORSDOF 0
ENDMDL
