MODEL 1
REMARK minimizedAffinity 0.62460196
REMARK minimizedRMSD -1
REMARK  0 active torsions:
REMARK  status: ('A' for Active; 'I' for Inactive)
ROOT
ATOM      1  C1  DEN d   1      -0.621   1.714  -0.233  0.00  0.00     0.130 A 
ATOM      2  C2  DEN d   1       0.049   3.010  -0.283  0.00  0.00    -0.031 A 
ATOM      3  C3  DEN d   1      -0.766   3.913  -1.121  0.00  0.00     0.027 A 
ATOM      4  C4  DEN d   1      -2.990   3.434  -2.336  0.00  0.00     0.027 A 
ATOM      5  C5  DEN d   1      -3.941   2.473  -2.598  0.00  0.00    -0.003 A 
ATOM      6  C6  DEN d   1      -3.836   1.192  -2.122  0.00  0.00     0.001 A 
ATOM      7  C7  DEN d   1      -2.779   0.851  -1.321  0.00  0.00     0.017 A 
ATOM      8  C8  DEN d   1      -1.812   1.812  -1.058  0.00  0.00    -0.094 A 
ATOM      9  C9  DEN d   1      -1.942   3.104  -1.538  0.00  0.00    -0.072 A 
ENDROOT
TORSDOF 0
ENDMDL
