MODEL 1
REMARK minimizedAffinity 3.6517868
REMARK minimizedRMSD -1
REMARK  0 active torsions:
REMARK  status: ('A' for Active; 'I' for Inactive)
ROOT
ATOM      1  C1  DEN d   1      -1.904   3.433  -3.409  0.00  0.00     0.130 A 
ATOM      2  C2  DEN d   1      -3.101   2.640  -3.140  0.00  0.00    -0.031 A 
ATOM      3  C3  DEN d   1      -2.899   1.927  -1.863  0.00  0.00     0.027 A 
ATOM      4  C4  DEN d   1      -0.862   1.978  -0.281  0.00  0.00     0.027 A 
ATOM      5  C5  DEN d   1       0.399   2.497  -0.092  0.00  0.00    -0.003 A 
ATOM      6  C6  DEN d   1       0.990   3.331  -1.004  0.00  0.00     0.001 A 
ATOM      7  C7  DEN d   1       0.301   3.706  -2.126  0.00  0.00     0.017 A 
ATOM      8  C8  DEN d   1      -0.969   3.181  -2.328  0.00  0.00    -0.094 A 
ATOM      9  C9  DEN d   1      -1.554   2.350  -1.388  0.00  0.00    -0.072 A 
ENDROOT
TORSDOF 0
ENDMDL
