MODEL 1
REMARK minimizedAffinity 12.5625353
REMARK minimizedRMSD -1
REMARK  0 active torsions:
REMARK  status: ('A' for Active; 'I' for Inactive)
ROOT
ATOM      1  C1  DEN d   1      -1.053   1.950  -2.235  0.00  0.00     0.130 A 
ATOM      2  C2  DEN d   1      -2.413   1.499  -1.953  0.00  0.00    -0.031 A 
ATOM      3  C3  DEN d   1      -3.348   2.400  -2.655  0.00  0.00     0.027 A 
ATOM      4  C4  DEN d   1      -2.826   4.438  -4.147  0.00  0.00     0.027 A 
ATOM      5  C5  DEN d   1      -1.818   5.216  -4.671  0.00  0.00    -0.003 A 
ATOM      6  C6  DEN d   1      -0.496   4.984  -4.394  0.00  0.00     0.001 A 
ATOM      7  C7  DEN d   1      -0.145   3.919  -3.608  0.00  0.00     0.017 A 
ATOM      8  C8  DEN d   1      -1.157   3.133  -3.070  0.00  0.00    -0.094 A 
ATOM      9  C9  DEN d   1      -2.486   3.378  -3.371  0.00  0.00    -0.072 A 
ENDROOT
TORSDOF 0
ENDMDL
