MODEL 1
REMARK minimizedAffinity 11.3096275
REMARK minimizedRMSD -1
REMARK  0 active torsions:
REMARK  status: ('A' for Active; 'I' for Inactive)
ROOT
ATOM      1  C1  DEN d   1      -1.194   1.674   0.957  0.00  0.00     0.130 A 
ATOM      2  C2  DEN d   1      -0.479   2.004   2.186  0.00  0.00    -0.031 A 
ATOM      3  C3  DEN d   1       0.406   3.152   1.905  0.00  0.00     0.027 A 
ATOM      4  C4  DEN d   1       0.734   4.446  -0.303  0.00  0.00     0.027 A 
ATOM      5  C5  DEN d   1       0.353   4.526  -1.624  0.00  0.00    -0.003 A 
ATOM      6  C6  DEN d   1      -0.537   3.647  -2.182  0.00  0.00     0.001 A 
ATOM      7  C7  DEN d   1      -1.111   2.677  -1.404  0.00  0.00     0.017 A 
ATOM      8  C8  DEN d   1      -0.727   2.585  -0.072  0.00  0.00    -0.094 A 
ATOM      9  C9  DEN d   1       0.165   3.491   0.476  0.00  0.00    -0.072 A 
ENDROOT
TORSDOF 0
ENDMDL
