MODEL 1
REMARK minimizedAffinity 8.58760262
REMARK minimizedRMSD -1
REMARK  0 active torsions:
REMARK  status: ('A' for Active; 'I' for Inactive)
ROOT
ATOM      1  C1  DEN d   1      -3.155   2.095  -1.952  0.00  0.00     0.130 A 
ATOM      2  C2  DEN d   1      -2.178   3.127  -2.291  0.00  0.00    -0.031 A 
ATOM      3  C3  DEN d   1      -0.835   2.516  -2.247  0.00  0.00     0.027 A 
ATOM      4  C4  DEN d   1      -0.175   0.084  -1.694  0.00  0.00     0.027 A 
ATOM      5  C5  DEN d   1      -0.657  -1.154  -1.332  0.00  0.00    -0.003 A 
ATOM      6  C6  DEN d   1      -1.990  -1.387  -1.119  0.00  0.00     0.001 A 
ATOM      7  C7  DEN d   1      -2.894  -0.376  -1.312  0.00  0.00     0.017 A 
ATOM      8  C8  DEN d   1      -2.416   0.878  -1.669  0.00  0.00    -0.094 A 
ATOM      9  C9  DEN d   1      -1.065   1.090  -1.891  0.00  0.00    -0.072 A 
ENDROOT
TORSDOF 0
ENDMDL
