MODEL 1
REMARK minimizedAffinity 1.74445808
REMARK minimizedRMSD -1
REMARK  0 active torsions:
REMARK  status: ('A' for Active; 'I' for Inactive)
ROOT
ATOM      1  C1  DEN d   1       0.742   1.034   1.395  0.00  0.00     0.130 A 
ATOM      2  C2  DEN d   1      -0.006   2.154   1.959  0.00  0.00    -0.031 A 
ATOM      3  C3  DEN d   1      -0.834   2.737   0.885  0.00  0.00     0.027 A 
ATOM      4  C4  DEN d   1      -1.032   2.016  -1.584  0.00  0.00     0.027 A 
ATOM      5  C5  DEN d   1      -0.582   1.125  -2.533  0.00  0.00    -0.003 A 
ATOM      6  C6  DEN d   1       0.359   0.170  -2.250  0.00  0.00     0.001 A 
ATOM      7  C7  DEN d   1       0.847   0.056  -0.975  0.00  0.00     0.017 A 
ATOM      8  C8  DEN d   1       0.403   0.955  -0.015  0.00  0.00    -0.094 A 
ATOM      9  C9  DEN d   1      -0.558   1.905  -0.318  0.00  0.00    -0.072 A 
ENDROOT
TORSDOF 0
ENDMDL
