MODEL 1
REMARK minimizedAffinity 4.38738441
REMARK minimizedRMSD -1
REMARK  0 active torsions:
REMARK  status: ('A' for Active; 'I' for Inactive)
ROOT
ATOM      1  C1  BNZ d   1      -5.363  -5.339   3.412  0.00  0.00     0.000 A 
ATOM      2  C2  BNZ d   1      -5.015  -4.014   3.431  0.00  0.00     0.000 A 
ATOM      3  C3  BNZ d   1      -4.884  -3.342   4.613  0.00  0.00     0.000 A 
ATOM      4  C4  BNZ d   1      -5.138  -3.982   5.772  0.00  0.00     0.000 A 
ATOM      5  C5  BNZ d   1      -5.499  -5.315   5.770  0.00  0.00     0.000 A 
ATOM      6  C6  BNZ d   1      -5.592  -5.999   4.580  0.00  0.00     0.000 A 
ENDROOT
TORSDOF 0
ENDMDL
