MODEL 1
REMARK minimizedAffinity 3.40397191
REMARK minimizedRMSD -1
REMARK  0 active torsions:
REMARK  status: ('A' for Active; 'I' for Inactive)
ROOT
ATOM      1  C1  BNZ d   1      -2.995  -0.476   1.528  0.00  0.00     0.000 A 
ATOM      2  C2  BNZ d   1      -3.665   0.047   2.601  0.00  0.00     0.000 A 
ATOM      3  C3  BNZ d   1      -3.068   0.129   3.828  0.00  0.00     0.000 A 
ATOM      4  C4  BNZ d   1      -1.818  -0.349   3.990  0.00  0.00     0.000 A 
ATOM      5  C5  BNZ d   1      -1.132  -0.889   2.920  0.00  0.00     0.000 A 
ATOM      6  C6  BNZ d   1      -1.722  -0.933   1.677  0.00  0.00     0.000 A 
ENDROOT
TORSDOF 0
ENDMDL
