MODEL 1
REMARK minimizedAffinity 5.01123667
REMARK minimizedRMSD -1
REMARK  0 active torsions:
REMARK  status: ('A' for Active; 'I' for Inactive)
ROOT
ATOM      1  C1  BNZ d   1      -5.981  -4.069   4.694  0.00  0.00     0.000 A 
ATOM      2  C2  BNZ d   1      -5.229  -4.099   3.550  0.00  0.00     0.000 A 
ATOM      3  C3  BNZ d   1      -4.295  -5.078   3.352  0.00  0.00     0.000 A 
ATOM      4  C4  BNZ d   1      -4.087  -6.000   4.313  0.00  0.00     0.000 A 
ATOM      5  C5  BNZ d   1      -4.830  -5.978   5.476  0.00  0.00     0.000 A 
ATOM      6  C6  BNZ d   1      -5.796  -5.015   5.656  0.00  0.00     0.000 A 
ENDROOT
TORSDOF 0
ENDMDL
