MODEL 1
REMARK minimizedAffinity 1.26107144
REMARK minimizedRMSD -1
REMARK  0 active torsions:
REMARK  status: ('A' for Active; 'I' for Inactive)
ROOT
ATOM      1  C1  BNZ d   1      -3.873   5.249  -4.880  0.00  0.00     0.000 A 
ATOM      2  C2  BNZ d   1      -3.189   4.859  -3.760  0.00  0.00     0.000 A 
ATOM      3  C3  BNZ d   1      -1.823   4.843  -3.743  0.00  0.00     0.000 A 
ATOM      4  C4  BNZ d   1      -1.142   5.179  -4.858  0.00  0.00     0.000 A 
ATOM      5  C5  BNZ d   1      -1.817   5.565  -5.999  0.00  0.00     0.000 A 
ATOM      6  C6  BNZ d   1      -3.192   5.617  -6.000  0.00  0.00     0.000 A 
ENDROOT
TORSDOF 0
ENDMDL
