MODEL 1
REMARK minimizedAffinity -3.16523647
REMARK minimizedRMSD -1
REMARK  0 active torsions:
REMARK  status: ('A' for Active; 'I' for Inactive)
ROOT
ATOM      1  C1  BNZ d   1      -4.011   0.621   5.148  0.00  0.00     0.000 A 
ATOM      2  C2  BNZ d   1      -3.681   0.572   3.820  0.00  0.00     0.000 A 
ATOM      3  C3  BNZ d   1      -4.134  -0.443   3.024  0.00  0.00     0.000 A 
ATOM      4  C4  BNZ d   1      -4.881  -1.427   3.565  0.00  0.00     0.000 A 
ATOM      5  C5  BNZ d   1      -5.214  -1.396   4.905  0.00  0.00     0.000 A 
ATOM      6  C6  BNZ d   1      -4.789  -0.352   5.694  0.00  0.00     0.000 A 
ENDROOT
TORSDOF 0
ENDMDL
