MODEL 1
REMARK minimizedAffinity 4.91580582
REMARK minimizedRMSD -1
REMARK  0 active torsions:
REMARK  status: ('A' for Active; 'I' for Inactive)
ROOT
ATOM      1  C1  BNZ d   1       3.364  -1.058   1.610  0.00  0.00     0.000 A 
ATOM      2  C2  BNZ d   1       3.265  -2.230   0.909  0.00  0.00     0.000 A 
ATOM      3  C3  BNZ d   1       3.940  -2.403  -0.267  0.00  0.00     0.000 A 
ATOM      4  C4  BNZ d   1       4.681  -1.389  -0.760  0.00  0.00     0.000 A 
ATOM      5  C5  BNZ d   1       4.783  -0.198  -0.071  0.00  0.00     0.000 A 
ATOM      6  C6  BNZ d   1       4.133  -0.042   1.132  0.00  0.00     0.000 A 
ENDROOT
TORSDOF 0
ENDMDL
