MODEL 1
REMARK minimizedAffinity 0.630374789
REMARK minimizedRMSD -1
REMARK  0 active torsions:
REMARK  status: ('A' for Active; 'I' for Inactive)
ROOT
ATOM      1  C1  BNZ d   1      -1.040  -1.033   1.621  0.00  0.00     0.000 A 
ATOM      2  C2  BNZ d   1      -0.868  -0.095   2.604  0.00  0.00     0.000 A 
ATOM      3  C3  BNZ d   1      -1.899   0.245   3.435  0.00  0.00     0.000 A 
ATOM      4  C4  BNZ d   1      -3.109  -0.322   3.256  0.00  0.00     0.000 A 
ATOM      5  C5  BNZ d   1      -3.301  -1.263   2.264  0.00  0.00     0.000 A 
ATOM      6  C6  BNZ d   1      -2.251  -1.632   1.455  0.00  0.00     0.000 A 
ENDROOT
TORSDOF 0
ENDMDL
