MODEL 1
REMARK minimizedAffinity 4.55571938
REMARK minimizedRMSD -1
REMARK  0 active torsions:
REMARK  status: ('A' for Active; 'I' for Inactive)
ROOT
ATOM      1  C1  BNZ d   1      -4.616   0.219   4.964  0.00  0.00     0.000 A 
ATOM      2  C2  BNZ d   1      -5.417  -0.769   5.471  0.00  0.00     0.000 A 
ATOM      3  C3  BNZ d   1      -5.816  -1.817   4.689  0.00  0.00     0.000 A 
ATOM      4  C4  BNZ d   1      -5.446  -1.855   3.393  0.00  0.00     0.000 A 
ATOM      5  C5  BNZ d   1      -4.646  -0.861   2.864  0.00  0.00     0.000 A 
ATOM      6  C6  BNZ d   1      -4.215   0.172   3.665  0.00  0.00     0.000 A 
ENDROOT
TORSDOF 0
ENDMDL
