MODEL 1
REMARK minimizedAffinity 0.453993678
REMARK minimizedRMSD -1
REMARK  0 active torsions:
REMARK  status: ('A' for Active; 'I' for Inactive)
ROOT
ATOM      1  C1  BNZ d   1      -5.207   5.373  -3.747  0.00  0.00     0.000 A 
ATOM      2  C2  BNZ d   1      -3.936   4.864  -3.716  0.00  0.00     0.000 A 
ATOM      3  C3  BNZ d   1      -3.125   4.942  -4.814  0.00  0.00     0.000 A 
ATOM      4  C4  BNZ d   1      -3.598   5.491  -5.951  0.00  0.00     0.000 A 
ATOM      5  C5  BNZ d   1      -4.881   6.000  -6.000  0.00  0.00     0.000 A 
ATOM      6  C6  BNZ d   1      -5.681   5.955  -4.882  0.00  0.00     0.000 A 
ENDROOT
TORSDOF 0
ENDMDL
