MODEL 1
REMARK minimizedAffinity -0.956900716
REMARK minimizedRMSD -1
REMARK  0 active torsions:
REMARK  status: ('A' for Active; 'I' for Inactive)
ROOT
ATOM      1  C1  BNZ d   1      -3.238   0.952   6.000  0.00  0.00     0.000 A 
ATOM      2  C2  BNZ d   1      -4.429   0.277   6.000  0.00  0.00     0.000 A 
ATOM      3  C3  BNZ d   1      -4.868  -0.369   4.877  0.00  0.00     0.000 A 
ATOM      4  C4  BNZ d   1      -4.135  -0.305   3.747  0.00  0.00     0.000 A 
ATOM      5  C5  BNZ d   1      -2.936   0.380   3.729  0.00  0.00     0.000 A 
ATOM      6  C6  BNZ d   1      -2.479   0.996   4.871  0.00  0.00     0.000 A 
ENDROOT
TORSDOF 0
ENDMDL
