MODEL 1
REMARK minimizedAffinity -4.04845285
REMARK minimizedRMSD -1
REMARK  0 active torsions:
REMARK  status: ('A' for Active; 'I' for Inactive)
ROOT
ATOM      1  C1  BNZ d   1      -3.754   0.054   4.774  0.00  0.00     0.000 A 
ATOM      2  C2  BNZ d   1      -4.716  -0.858   5.117  0.00  0.00     0.000 A 
ATOM      3  C3  BNZ d   1      -4.988  -1.926   4.309  0.00  0.00     0.000 A 
ATOM      4  C4  BNZ d   1      -4.329  -2.058   3.140  0.00  0.00     0.000 A 
ATOM      5  C5  BNZ d   1      -3.363  -1.141   2.775  0.00  0.00     0.000 A 
ATOM      6  C6  BNZ d   1      -3.064  -0.089   3.610  0.00  0.00     0.000 A 
ENDROOT
TORSDOF 0
ENDMDL
