MODEL 1
REMARK minimizedAffinity -1.08192599
REMARK minimizedRMSD -1
REMARK  0 active torsions:
REMARK  status: ('A' for Active; 'I' for Inactive)
ROOT
ATOM      1  C1  BNZ d   1      -2.595   0.557   4.236  0.00  0.00     0.000 A 
ATOM      2  C2  BNZ d   1      -3.873   0.182   4.555  0.00  0.00     0.000 A 
ATOM      3  C3  BNZ d   1      -4.576  -0.667   3.746  0.00  0.00     0.000 A 
ATOM      4  C4  BNZ d   1      -4.016  -1.107   2.601  0.00  0.00     0.000 A 
ATOM      5  C5  BNZ d   1      -2.732  -0.731   2.261  0.00  0.00     0.000 A 
ATOM      6  C6  BNZ d   1      -2.013   0.092   3.097  0.00  0.00     0.000 A 
ENDROOT
TORSDOF 0
ENDMDL
