MODEL 1
REMARK minimizedAffinity 3.04151392
REMARK minimizedRMSD -1
REMARK  0 active torsions:
REMARK  status: ('A' for Active; 'I' for Inactive)
ROOT
ATOM      1  C1  BNZ d   1      -1.936  -1.686   1.769  0.00  0.00     0.000 A 
ATOM      2  C2  BNZ d   1      -2.394  -1.642   3.059  0.00  0.00     0.000 A 
ATOM      3  C3  BNZ d   1      -2.389  -0.470   3.763  0.00  0.00     0.000 A 
ATOM      4  C4  BNZ d   1      -1.890   0.645   3.193  0.00  0.00     0.000 A 
ATOM      5  C5  BNZ d   1      -1.416   0.614   1.896  0.00  0.00     0.000 A 
ATOM      6  C6  BNZ d   1      -1.458  -0.558   1.177  0.00  0.00     0.000 A 
ENDROOT
TORSDOF 0
ENDMDL
