MODEL 1
REMARK minimizedAffinity 2.84488463
REMARK minimizedRMSD -1
REMARK  0 active torsions:
REMARK  status: ('A' for Active; 'I' for Inactive)
ROOT
ATOM      1  C1  BNZ d   1      -4.847   5.724  -3.601  0.00  0.00     0.000 A 
ATOM      2  C2  BNZ d   1      -3.482   5.646  -3.672  0.00  0.00     0.000 A 
ATOM      3  C3  BNZ d   1      -2.836   5.768  -4.870  0.00  0.00     0.000 A 
ATOM      4  C4  BNZ d   1      -3.556   5.928  -5.999  0.00  0.00     0.000 A 
ATOM      5  C5  BNZ d   1      -4.934   5.999  -5.945  0.00  0.00     0.000 A 
ATOM      6  C6  BNZ d   1      -5.579   5.914  -4.732  0.00  0.00     0.000 A 
ENDROOT
TORSDOF 0
ENDMDL
