MODEL 1
REMARK minimizedAffinity 6.38288307
REMARK minimizedRMSD -1
REMARK  0 active torsions:
REMARK  status: ('A' for Active; 'I' for Inactive)
ROOT
ATOM      1  C1  BNZ d   1       4.988   3.500  -4.155  0.00  0.00     0.000 A 
ATOM      2  C2  BNZ d   1       3.744   2.926  -4.161  0.00  0.00     0.000 A 
ATOM      3  C3  BNZ d   1       3.019   2.816  -3.007  0.00  0.00     0.000 A 
ATOM      4  C4  BNZ d   1       3.554   3.243  -1.845  0.00  0.00     0.000 A 
ATOM      5  C5  BNZ d   1       4.810   3.815  -1.822  0.00  0.00     0.000 A 
ATOM      6  C6  BNZ d   1       5.521   3.960  -2.991  0.00  0.00     0.000 A 
ENDROOT
TORSDOF 0
ENDMDL
