MODEL 1
REMARK minimizedAffinity 4.90670109
REMARK minimizedRMSD -1
REMARK  0 active torsions:
REMARK  status: ('A' for Active; 'I' for Inactive)
ROOT
ATOM      1  C1  BNZ d   1      -2.795   5.794  -5.999  0.00  0.00     0.000 A 
ATOM      2  C2  BNZ d   1      -4.148   6.000  -5.945  0.00  0.00     0.000 A 
ATOM      3  C3  BNZ d   1      -4.813   5.971  -4.751  0.00  0.00     0.000 A 
ATOM      4  C4  BNZ d   1      -4.132   5.696  -3.620  0.00  0.00     0.000 A 
ATOM      5  C5  BNZ d   1      -2.770   5.478  -3.659  0.00  0.00     0.000 A 
ATOM      6  C6  BNZ d   1      -2.097   5.547  -4.858  0.00  0.00     0.000 A 
ENDROOT
TORSDOF 0
ENDMDL
