MODEL 1
REMARK minimizedAffinity 1.99495399
REMARK minimizedRMSD -1
REMARK  0 active torsions:
REMARK  status: ('A' for Active; 'I' for Inactive)
ROOT
ATOM      1  C1  BNZ d   1      -3.809   1.487   4.236  0.00  0.00     0.000 A 
ATOM      2  C2  BNZ d   1      -4.926   0.981   3.625  0.00  0.00     0.000 A 
ATOM      3  C3  BNZ d   1      -4.920  -0.275   3.086  0.00  0.00     0.000 A 
ATOM      4  C4  BNZ d   1      -3.788  -1.007   3.123  0.00  0.00     0.000 A 
ATOM      5  C5  BNZ d   1      -2.652  -0.508   3.727  0.00  0.00     0.000 A 
ATOM      6  C6  BNZ d   1      -2.672   0.742   4.303  0.00  0.00     0.000 A 
ENDROOT
TORSDOF 0
ENDMDL
