MODEL 1
REMARK minimizedAffinity 9.26366997
REMARK minimizedRMSD -1
REMARK  0 active torsions:
REMARK  status: ('A' for Active; 'I' for Inactive)
ROOT
ATOM      1  C   UNL d   1       2.145   3.018   0.177  0.00  0.00     0.077 C 
ATOM      2  C1  UNL d   1       1.016   2.584   1.065  0.00  0.00    -0.074 A 
ATOM      3  C2  UNL d   1       1.262   1.871   2.243  0.00  0.00    -0.005 A 
ATOM      4  C3  UNL d   1       0.203   1.483   3.063  0.00  0.00     0.006 A 
ATOM      5  C4  UNL d   1      -1.110   1.803   2.715  0.00  0.00    -0.005 A 
ATOM      6  C5  UNL d   1      -1.375   2.516   1.541  0.00  0.00    -0.074 A 
ATOM      7  C6  UNL d   1      -2.779   2.876   1.156  0.00  0.00     0.077 C 
ATOM      8  C7  UNL d   1      -0.305   2.908   0.725  0.00  0.00    -0.001 A 
ENDROOT
TORSDOF 0
ENDMDL
