MODEL 1
REMARK minimizedAffinity 3.38640475
REMARK minimizedRMSD -1
REMARK  0 active torsions:
REMARK  status: ('A' for Active; 'I' for Inactive)
ROOT
ATOM      1  C   UNL d   1       0.912   3.433  -0.085  0.00  0.00     0.077 C 
ATOM      2  C1  UNL d   1       0.177   2.528   0.859  0.00  0.00    -0.074 A 
ATOM      3  C2  UNL d   1       0.864   1.793   1.831  0.00  0.00    -0.005 A 
ATOM      4  C3  UNL d   1       0.166   0.963   2.709  0.00  0.00     0.006 A 
ATOM      5  C4  UNL d   1      -1.223   0.859   2.623  0.00  0.00    -0.005 A 
ATOM      6  C5  UNL d   1      -1.927   1.586   1.657  0.00  0.00    -0.074 A 
ATOM      7  C6  UNL d   1      -3.420   1.494   1.558  0.00  0.00     0.077 C 
ATOM      8  C7  UNL d   1      -1.219   2.424   0.784  0.00  0.00    -0.001 A 
ENDROOT
TORSDOF 0
ENDMDL
