MODEL 1
REMARK minimizedAffinity 5.4805975
REMARK minimizedRMSD -1
REMARK  0 active torsions:
REMARK  status: ('A' for Active; 'I' for Inactive)
ROOT
ATOM      1  C   UNL d   1       1.128   1.512  -0.155  0.00  0.00     0.077 C 
ATOM      2  C1  UNL d   1       1.323   0.039  -0.354  0.00  0.00    -0.074 A 
ATOM      3  C2  UNL d   1       2.606  -0.511  -0.441  0.00  0.00    -0.005 A 
ATOM      4  C3  UNL d   1       2.772  -1.885  -0.617  0.00  0.00     0.006 A 
ATOM      5  C4  UNL d   1       1.659  -2.721  -0.707  0.00  0.00    -0.005 A 
ATOM      6  C5  UNL d   1       0.368  -2.190  -0.621  0.00  0.00    -0.074 A 
ATOM      7  C6  UNL d   1      -0.839  -3.076  -0.706  0.00  0.00     0.077 C 
ATOM      8  C7  UNL d   1       0.210  -0.809  -0.437  0.00  0.00    -0.001 A 
ENDROOT
TORSDOF 0
ENDMDL
