MODEL 1
REMARK minimizedAffinity 3.24763656
REMARK minimizedRMSD -1
REMARK  0 active torsions:
REMARK  status: ('A' for Active; 'I' for Inactive)
ROOT
ATOM      1  C   UNL d   1       4.695   3.731   3.161  0.00  0.00     0.077 C 
ATOM      2  C1  UNL d   1       3.512   2.885   2.792  0.00  0.00    -0.074 A 
ATOM      3  C2  UNL d   1       3.053   1.879   3.648  0.00  0.00    -0.005 A 
ATOM      4  C3  UNL d   1       1.946   1.107   3.295  0.00  0.00     0.006 A 
ATOM      5  C4  UNL d   1       1.288   1.333   2.086  0.00  0.00    -0.005 A 
ATOM      6  C5  UNL d   1       1.733   2.336   1.217  0.00  0.00    -0.074 A 
ATOM      7  C6  UNL d   1       1.031   2.598  -0.082  0.00  0.00     0.077 C 
ATOM      8  C7  UNL d   1       2.841   3.112   1.582  0.00  0.00    -0.001 A 
ENDROOT
TORSDOF 0
ENDMDL
