MODEL 1
REMARK minimizedAffinity 4.00230932
REMARK minimizedRMSD -1
REMARK  0 active torsions:
REMARK  status: ('A' for Active; 'I' for Inactive)
ROOT
ATOM      1  C   UNL d   1      -0.533   1.502   4.165  0.00  0.00     0.077 C 
ATOM      2  C1  UNL d   1      -0.986   1.907   2.794  0.00  0.00    -0.074 A 
ATOM      3  C2  UNL d   1      -0.089   2.465   1.876  0.00  0.00    -0.005 A 
ATOM      4  C3  UNL d   1      -0.523   2.828   0.601  0.00  0.00     0.006 A 
ATOM      5  C4  UNL d   1      -1.855   2.639   0.232  0.00  0.00    -0.005 A 
ATOM      6  C5  UNL d   1      -2.766   2.082   1.135  0.00  0.00    -0.074 A 
ATOM      7  C6  UNL d   1      -4.198   1.862   0.750  0.00  0.00     0.077 C 
ATOM      8  C7  UNL d   1      -2.321   1.713   2.412  0.00  0.00    -0.001 A 
ENDROOT
TORSDOF 0
ENDMDL
