MODEL 1
REMARK minimizedAffinity 4.00796795
REMARK minimizedRMSD -1
REMARK  0 active torsions:
REMARK  status: ('A' for Active; 'I' for Inactive)
ROOT
ATOM      1  C   UNL d   1       2.629  -1.421  -0.375  0.00  0.00     0.077 C 
ATOM      2  C1  UNL d   1       3.568  -0.337  -0.813  0.00  0.00    -0.074 A 
ATOM      3  C2  UNL d   1       3.693   0.003  -2.164  0.00  0.00    -0.005 A 
ATOM      4  C3  UNL d   1       4.563   1.021  -2.555  0.00  0.00     0.006 A 
ATOM      5  C4  UNL d   1       5.316   1.707  -1.602  0.00  0.00    -0.005 A 
ATOM      6  C5  UNL d   1       5.204   1.381  -0.246  0.00  0.00    -0.074 A 
ATOM      7  C6  UNL d   1       5.999   2.115   0.792  0.00  0.00     0.077 C 
ATOM      8  C7  UNL d   1       4.322   0.362   0.140  0.00  0.00    -0.001 A 
ENDROOT
TORSDOF 0
ENDMDL
