MODEL 1
REMARK minimizedAffinity 4.37575483
REMARK minimizedRMSD -1
REMARK  0 active torsions:
REMARK  status: ('A' for Active; 'I' for Inactive)
ROOT
ATOM      1  C   UNL d   1      -3.797   2.709   1.253  0.00  0.00     0.077 C 
ATOM      2  C1  UNL d   1      -2.324   2.429   1.214  0.00  0.00    -0.074 A 
ATOM      3  C2  UNL d   1      -1.573   2.692   0.064  0.00  0.00    -0.005 A 
ATOM      4  C3  UNL d   1      -0.202   2.436   0.046  0.00  0.00     0.006 A 
ATOM      5  C4  UNL d   1       0.431   1.915   1.175  0.00  0.00    -0.005 A 
ATOM      6  C5  UNL d   1      -0.304   1.646   2.335  0.00  0.00    -0.074 A 
ATOM      7  C6  UNL d   1       0.362   1.096   3.560  0.00  0.00     0.077 C 
ATOM      8  C7  UNL d   1      -1.680   1.913   2.347  0.00  0.00    -0.001 A 
ENDROOT
TORSDOF 0
ENDMDL
