MODEL 1
REMARK minimizedAffinity 6.13938999
REMARK minimizedRMSD -1
REMARK  0 active torsions:
REMARK  status: ('A' for Active; 'I' for Inactive)
ROOT
ATOM      1  C   UNL d   1       1.595  -4.835   1.399  0.00  0.00     0.077 C 
ATOM      2  C1  UNL d   1       1.780  -3.349   1.310  0.00  0.00    -0.074 A 
ATOM      3  C2  UNL d   1       2.117  -2.597   2.440  0.00  0.00    -0.005 A 
ATOM      4  C3  UNL d   1       2.295  -1.218   2.340  0.00  0.00     0.006 A 
ATOM      5  C4  UNL d   1       2.140  -0.577   1.110  0.00  0.00    -0.005 A 
ATOM      6  C5  UNL d   1       1.804  -1.312  -0.031  0.00  0.00    -0.074 A 
ATOM      7  C6  UNL d   1       1.643  -0.640  -1.362  0.00  0.00     0.077 C 
ATOM      8  C7  UNL d   1       1.633  -2.699   0.077  0.00  0.00    -0.001 A 
ENDROOT
TORSDOF 0
ENDMDL
