MODEL 1
REMARK minimizedAffinity 1.80928051
REMARK minimizedRMSD -1
REMARK  0 active torsions:
REMARK  status: ('A' for Active; 'I' for Inactive)
ROOT
ATOM      1  C   UNL d   1       1.849  -4.738   1.248  0.00  0.00     0.077 C 
ATOM      2  C1  UNL d   1       1.034  -3.584   0.745  0.00  0.00    -0.074 A 
ATOM      3  C2  UNL d   1      -0.344  -3.522   0.975  0.00  0.00    -0.005 A 
ATOM      4  C3  UNL d   1      -1.087  -2.438   0.509  0.00  0.00     0.006 A 
ATOM      5  C4  UNL d   1      -0.461  -1.406  -0.191  0.00  0.00    -0.005 A 
ATOM      6  C5  UNL d   1       0.917  -1.449  -0.430  0.00  0.00    -0.074 A 
ATOM      7  C6  UNL d   1       1.607  -0.344  -1.171  0.00  0.00     0.077 C 
ATOM      8  C7  UNL d   1       1.658  -2.539   0.048  0.00  0.00    -0.001 A 
ENDROOT
TORSDOF 0
ENDMDL
