MODEL 1
REMARK minimizedAffinity -0.695517421
REMARK minimizedRMSD -1
REMARK  0 active torsions:
REMARK  status: ('A' for Active; 'I' for Inactive)
ROOT
ATOM      1  C   UNL d   1       2.162  -0.389  -1.376  0.00  0.00     0.077 C 
ATOM      2  C1  UNL d   1       1.012  -1.250  -0.943  0.00  0.00    -0.074 A 
ATOM      3  C2  UNL d   1      -0.274  -1.039  -1.450  0.00  0.00    -0.005 A 
ATOM      4  C3  UNL d   1      -1.331  -1.854  -1.046  0.00  0.00     0.006 A 
ATOM      5  C4  UNL d   1      -1.114  -2.885  -0.131  0.00  0.00    -0.005 A 
ATOM      6  C5  UNL d   1       0.166  -3.111   0.386  0.00  0.00    -0.074 A 
ATOM      7  C6  UNL d   1       0.419  -4.222   1.362  0.00  0.00     0.077 C 
ATOM      8  C7  UNL d   1       1.225  -2.293  -0.031  0.00  0.00    -0.001 A 
ENDROOT
TORSDOF 0
ENDMDL
