MODEL 1
REMARK minimizedAffinity -1.30334067
REMARK minimizedRMSD -1
REMARK  0 active torsions:
REMARK  status: ('A' for Active; 'I' for Inactive)
ROOT
ATOM      1  C   UNL d   1       1.866  -0.375  -1.082  0.00  0.00     0.077 C 
ATOM      2  C1  UNL d   1       0.879  -1.392  -0.592  0.00  0.00    -0.074 A 
ATOM      3  C2  UNL d   1      -0.455  -1.359  -1.011  0.00  0.00    -0.005 A 
ATOM      4  C3  UNL d   1      -1.359  -2.318  -0.554  0.00  0.00     0.006 A 
ATOM      5  C4  UNL d   1      -0.940  -3.317   0.324  0.00  0.00    -0.005 A 
ATOM      6  C5  UNL d   1       0.390  -3.367   0.753  0.00  0.00    -0.074 A 
ATOM      7  C6  UNL d   1       0.860  -4.440   1.690  0.00  0.00     0.077 C 
ATOM      8  C7  UNL d   1       1.295  -2.404   0.284  0.00  0.00    -0.001 A 
ENDROOT
TORSDOF 0
ENDMDL
