MODEL 1
REMARK minimizedAffinity 4.38194942
REMARK minimizedRMSD -1
REMARK  0 active torsions:
REMARK  status: ('A' for Active; 'I' for Inactive)
ROOT
ATOM      1  C   UNL d   1       3.053  -2.038   3.353  0.00  0.00     0.077 C 
ATOM      2  C1  UNL d   1       2.488  -2.147   1.968  0.00  0.00    -0.074 A 
ATOM      3  C2  UNL d   1       1.691  -3.236   1.600  0.00  0.00    -0.005 A 
ATOM      4  C3  UNL d   1       1.165  -3.319   0.311  0.00  0.00     0.006 A 
ATOM      5  C4  UNL d   1       1.430  -2.315  -0.622  0.00  0.00    -0.005 A 
ATOM      6  C5  UNL d   1       2.224  -1.219  -0.272  0.00  0.00    -0.074 A 
ATOM      7  C6  UNL d   1       2.511  -0.126  -1.259  0.00  0.00     0.077 C 
ATOM      8  C7  UNL d   1       2.744  -1.139   1.028  0.00  0.00    -0.001 A 
ENDROOT
TORSDOF 0
ENDMDL
