MODEL 1
REMARK minimizedAffinity 4.74713326
REMARK minimizedRMSD -1
REMARK  0 active torsions:
REMARK  status: ('A' for Active; 'I' for Inactive)
ROOT
ATOM      1  C   UNL d   1      -0.523  -1.818   1.039  0.00  0.00     0.077 C 
ATOM      2  C1  UNL d   1       0.066  -1.482  -0.298  0.00  0.00    -0.074 A 
ATOM      3  C2  UNL d   1       1.275  -0.786  -0.397  0.00  0.00    -0.005 A 
ATOM      4  C3  UNL d   1       1.816  -0.488  -1.648  0.00  0.00     0.006 A 
ATOM      5  C4  UNL d   1       1.154  -0.882  -2.811  0.00  0.00    -0.005 A 
ATOM      6  C5  UNL d   1      -0.056  -1.580  -2.732  0.00  0.00    -0.074 A 
ATOM      7  C6  UNL d   1      -0.775  -2.020  -3.973  0.00  0.00     0.077 C 
ATOM      8  C7  UNL d   1      -0.589  -1.881  -1.472  0.00  0.00    -0.001 A 
ENDROOT
TORSDOF 0
ENDMDL
