MODEL 1
REMARK minimizedAffinity 7.52852869
REMARK minimizedRMSD -1
REMARK  0 active torsions:
REMARK  status: ('A' for Active; 'I' for Inactive)
ROOT
ATOM      1  C   UNL d   1      -5.676  -0.777   2.135  0.00  0.00     0.077 C 
ATOM      2  C1  UNL d   1      -4.443  -0.357   2.879  0.00  0.00    -0.074 A 
ATOM      3  C2  UNL d   1      -3.360  -1.230   3.026  0.00  0.00    -0.005 A 
ATOM      4  C3  UNL d   1      -2.216  -0.822   3.712  0.00  0.00     0.006 A 
ATOM      5  C4  UNL d   1      -2.144   0.460   4.258  0.00  0.00    -0.005 A 
ATOM      6  C5  UNL d   1      -3.217   1.347   4.120  0.00  0.00    -0.074 A 
ATOM      7  C6  UNL d   1      -3.151   2.732   4.692  0.00  0.00     0.077 C 
ATOM      8  C7  UNL d   1      -4.360   0.932   3.423  0.00  0.00    -0.001 A 
ENDROOT
TORSDOF 0
ENDMDL
