MODEL 1
REMARK minimizedAffinity 2.3975594
REMARK minimizedRMSD -1
REMARK  0 active torsions:
REMARK  status: ('A' for Active; 'I' for Inactive)
ROOT
ATOM      1  C   UNL d   1      -2.020  -1.531  -1.192  0.00  0.00     0.077 C 
ATOM      2  C1  UNL d   1      -0.573  -1.396  -0.821  0.00  0.00    -0.074 A 
ATOM      3  C2  UNL d   1       0.120  -0.202  -1.049  0.00  0.00    -0.005 A 
ATOM      4  C3  UNL d   1       1.462  -0.089  -0.689  0.00  0.00     0.006 A 
ATOM      5  C4  UNL d   1       2.125  -1.165  -0.099  0.00  0.00    -0.005 A 
ATOM      6  C5  UNL d   1       1.449  -2.366   0.137  0.00  0.00    -0.074 A 
ATOM      7  C6  UNL d   1       2.144  -3.530   0.779  0.00  0.00     0.077 C 
ATOM      8  C7  UNL d   1       0.098  -2.471  -0.220  0.00  0.00    -0.001 A 
ENDROOT
TORSDOF 0
ENDMDL
