MODEL 1
REMARK minimizedAffinity 4.37972879
REMARK minimizedRMSD -1
REMARK  0 active torsions:
REMARK  status: ('A' for Active; 'I' for Inactive)
ROOT
ATOM      1  C   UNL d   1       1.809  -1.468  -2.734  0.00  0.00     0.077 C 
ATOM      2  C1  UNL d   1       1.577  -1.439  -1.253  0.00  0.00    -0.074 A 
ATOM      3  C2  UNL d   1       2.400  -0.685  -0.411  0.00  0.00    -0.005 A 
ATOM      4  C3  UNL d   1       2.166  -0.659   0.964  0.00  0.00     0.006 A 
ATOM      5  C4  UNL d   1       1.107  -1.387   1.509  0.00  0.00    -0.005 A 
ATOM      6  C5  UNL d   1       0.272  -2.146   0.683  0.00  0.00    -0.074 A 
ATOM      7  C6  UNL d   1      -0.876  -2.925   1.252  0.00  0.00     0.077 C 
ATOM      8  C7  UNL d   1       0.510  -2.160  -0.698  0.00  0.00    -0.001 A 
ENDROOT
TORSDOF 0
ENDMDL
