MODEL 1
REMARK minimizedAffinity 0.0657217503
REMARK minimizedRMSD -1
REMARK  0 active torsions:
REMARK  status: ('A' for Active; 'I' for Inactive)
ROOT
ATOM      1  C   UNL d   1      -1.167  -1.809  -1.014  0.00  0.00     0.077 C 
ATOM      2  C1  UNL d   1      -0.058  -2.356  -0.165  0.00  0.00    -0.074 A 
ATOM      3  C2  UNL d   1       0.982  -1.532   0.278  0.00  0.00    -0.005 A 
ATOM      4  C3  UNL d   1       2.001  -2.053   1.075  0.00  0.00     0.006 A 
ATOM      5  C4  UNL d   1       1.991  -3.401   1.437  0.00  0.00    -0.005 A 
ATOM      6  C5  UNL d   1       0.959  -4.239   1.004  0.00  0.00    -0.074 A 
ATOM      7  C6  UNL d   1       0.927  -5.688   1.392  0.00  0.00     0.077 C 
ATOM      8  C7  UNL d   1      -0.065  -3.707   0.209  0.00  0.00    -0.001 A 
ENDROOT
TORSDOF 0
ENDMDL
