MODEL 1
REMARK minimizedAffinity 1.44281924
REMARK minimizedRMSD -1
REMARK  0 active torsions:
REMARK  status: ('A' for Active; 'I' for Inactive)
ROOT
ATOM      1  C   UNL d   1       1.343  -1.477  -1.530  0.00  0.00     0.077 C 
ATOM      2  C1  UNL d   1       1.155  -0.103  -2.102  0.00  0.00    -0.074 A 
ATOM      3  C2  UNL d   1       0.415   0.866  -1.417  0.00  0.00    -0.005 A 
ATOM      4  C3  UNL d   1       0.257   2.142  -1.958  0.00  0.00     0.006 A 
ATOM      5  C4  UNL d   1       0.835   2.461  -3.187  0.00  0.00    -0.005 A 
ATOM      6  C5  UNL d   1       1.578   1.505  -3.886  0.00  0.00    -0.074 A 
ATOM      7  C6  UNL d   1       2.214   1.835  -5.204  0.00  0.00     0.077 C 
ATOM      8  C7  UNL d   1       1.739   0.227  -3.333  0.00  0.00    -0.001 A 
ENDROOT
TORSDOF 0
ENDMDL
