MODEL 1
REMARK minimizedAffinity 0.326193988
REMARK minimizedRMSD -1
REMARK  0 active torsions:
REMARK  status: ('A' for Active; 'I' for Inactive)
ROOT
ATOM      1  C   UNL d   1       0.756  -3.280  -2.957  0.00  0.00     0.077 C 
ATOM      2  C1  UNL d   1       0.826  -1.876  -2.433  0.00  0.00    -0.074 A 
ATOM      3  C2  UNL d   1       0.822  -1.622  -1.058  0.00  0.00    -0.005 A 
ATOM      4  C3  UNL d   1       0.897  -0.311  -0.586  0.00  0.00     0.006 A 
ATOM      5  C4  UNL d   1       0.977   0.755  -1.482  0.00  0.00    -0.005 A 
ATOM      6  C5  UNL d   1       0.982   0.520  -2.860  0.00  0.00    -0.074 A 
ATOM      7  C6  UNL d   1       1.077   1.654  -3.837  0.00  0.00     0.077 C 
ATOM      8  C7  UNL d   1       0.914  -0.800  -3.327  0.00  0.00    -0.001 A 
ENDROOT
TORSDOF 0
ENDMDL
