MODEL 1
REMARK minimizedAffinity -1.58128154
REMARK minimizedRMSD -1
REMARK  0 active torsions:
REMARK  status: ('A' for Active; 'I' for Inactive)
ROOT
ATOM      1  C   UNL d   1      -4.385   1.780   5.556  0.00  0.00     0.077 C 
ATOM      2  C1  UNL d   1      -4.566   3.249   5.317  0.00  0.00    -0.074 A 
ATOM      3  C2  UNL d   1      -5.549   3.973   6.000  0.00  0.00    -0.005 A 
ATOM      4  C3  UNL d   1      -5.699   5.341   5.775  0.00  0.00     0.006 A 
ATOM      5  C4  UNL d   1      -4.869   5.999   4.866  0.00  0.00    -0.005 A 
ATOM      6  C5  UNL d   1      -3.880   5.292   4.175  0.00  0.00    -0.074 A 
ATOM      7  C6  UNL d   1      -2.973   5.985   3.202  0.00  0.00     0.077 C 
ATOM      8  C7  UNL d   1      -3.731   3.919   4.412  0.00  0.00    -0.001 A 
ENDROOT
TORSDOF 0
ENDMDL
