MODEL 1
REMARK minimizedAffinity 0.799708843
REMARK minimizedRMSD -1
REMARK  0 active torsions:
REMARK  status: ('A' for Active; 'I' for Inactive)
ROOT
ATOM      1  C   UNL d   1       1.631  -3.130  -3.357  0.00  0.00     0.077 C 
ATOM      2  C1  UNL d   1       1.258  -1.893  -2.596  0.00  0.00    -0.074 A 
ATOM      3  C2  UNL d   1       0.995  -1.946  -1.223  0.00  0.00    -0.005 A 
ATOM      4  C3  UNL d   1       0.658  -0.785  -0.526  0.00  0.00     0.006 A 
ATOM      5  C4  UNL d   1       0.582   0.438  -1.194  0.00  0.00    -0.005 A 
ATOM      6  C5  UNL d   1       0.842   0.510  -2.566  0.00  0.00    -0.074 A 
ATOM      7  C6  UNL d   1       0.774   1.818  -3.296  0.00  0.00     0.077 C 
ATOM      8  C7  UNL d   1       1.187  -0.659  -3.257  0.00  0.00    -0.001 A 
ENDROOT
TORSDOF 0
ENDMDL
