MODEL 1
REMARK minimizedAffinity 1.49730241
REMARK minimizedRMSD -1
REMARK  0 active torsions:
REMARK  status: ('A' for Active; 'I' for Inactive)
ROOT
ATOM      1  C   UNL d   1       2.258   4.475  -5.360  0.00  0.00     0.077 C 
ATOM      2  C1  UNL d   1       3.566   3.829  -5.014  0.00  0.00    -0.074 A 
ATOM      3  C2  UNL d   1       4.420   4.399  -4.065  0.00  0.00    -0.005 A 
ATOM      4  C3  UNL d   1       5.630   3.782  -3.746  0.00  0.00     0.006 A 
ATOM      5  C4  UNL d   1       5.997   2.590  -4.373  0.00  0.00    -0.005 A 
ATOM      6  C5  UNL d   1       5.156   2.005  -5.324  0.00  0.00    -0.074 A 
ATOM      7  C6  UNL d   1       5.531   0.720  -6.000  0.00  0.00     0.077 C 
ATOM      8  C7  UNL d   1       3.939   2.628  -5.634  0.00  0.00    -0.001 A 
ENDROOT
TORSDOF 0
ENDMDL
