MODEL 1
REMARK minimizedAffinity 1.12503624
REMARK minimizedRMSD -1
REMARK  0 active torsions:
REMARK  status: ('A' for Active; 'I' for Inactive)
ROOT
ATOM      1  C   UNL d   1       0.750  -0.738   0.118  0.00  0.00     0.077 C 
ATOM      2  C1  UNL d   1       0.846  -0.610  -1.373  0.00  0.00    -0.074 A 
ATOM      3  C2  UNL d   1       0.959  -1.743  -2.186  0.00  0.00    -0.005 A 
ATOM      4  C3  UNL d   1       1.037  -1.609  -3.572  0.00  0.00     0.006 A 
ATOM      5  C4  UNL d   1       1.005  -0.343  -4.159  0.00  0.00    -0.005 A 
ATOM      6  C5  UNL d   1       0.892   0.801  -3.362  0.00  0.00    -0.074 A 
ATOM      7  C6  UNL d   1       0.845   2.168  -3.977  0.00  0.00     0.077 C 
ATOM      8  C7  UNL d   1       0.806   0.657  -1.971  0.00  0.00    -0.001 A 
ENDROOT
TORSDOF 0
ENDMDL
