MODEL 1
REMARK minimizedAffinity 1.59351945
REMARK minimizedRMSD -1
REMARK  0 active torsions:
REMARK  status: ('A' for Active; 'I' for Inactive)
ROOT
ATOM      1  C   UNL d   1       6.000   0.655  -5.978  0.00  0.00     0.077 C 
ATOM      2  C1  UNL d   1       4.928   1.641  -5.621  0.00  0.00    -0.074 A 
ATOM      3  C2  UNL d   1       5.205   3.010  -5.548  0.00  0.00    -0.005 A 
ATOM      4  C3  UNL d   1       4.195   3.915  -5.224  0.00  0.00     0.006 A 
ATOM      5  C4  UNL d   1       2.900   3.462  -4.969  0.00  0.00    -0.005 A 
ATOM      6  C5  UNL d   1       2.604   2.097  -5.038  0.00  0.00    -0.074 A 
ATOM      7  C6  UNL d   1       1.215   1.595  -4.776  0.00  0.00     0.077 C 
ATOM      8  C7  UNL d   1       3.622   1.194  -5.371  0.00  0.00    -0.001 A 
ENDROOT
TORSDOF 0
ENDMDL
