MODEL 1
REMARK minimizedAffinity 4.26160622
REMARK minimizedRMSD -1
REMARK  0 active torsions:
REMARK  status: ('A' for Active; 'I' for Inactive)
ROOT
ATOM      1  C   UNL d   1       0.376   1.298  -0.889  0.00  0.00     0.077 C 
ATOM      2  C1  UNL d   1       0.886   0.537  -2.076  0.00  0.00    -0.074 A 
ATOM      3  C2  UNL d   1       1.524   1.196  -3.132  0.00  0.00    -0.005 A 
ATOM      4  C3  UNL d   1       2.002   0.473  -4.225  0.00  0.00     0.006 A 
ATOM      5  C4  UNL d   1       1.847  -0.913  -4.274  0.00  0.00    -0.005 A 
ATOM      6  C5  UNL d   1       1.212  -1.588  -3.227  0.00  0.00    -0.074 A 
ATOM      7  C6  UNL d   1       1.046  -3.079  -3.258  0.00  0.00     0.077 C 
ATOM      8  C7  UNL d   1       0.741  -0.856  -2.128  0.00  0.00    -0.001 A 
ENDROOT
TORSDOF 0
ENDMDL
