MODEL 1
REMARK minimizedAffinity -1.8841387
REMARK minimizedRMSD -1
REMARK  1 active torsions:
REMARK  status: ('A' for Active; 'I' for Inactive)
REMARK    1  A    between atoms: C1_2  and  C2_3 
ROOT
ATOM      1  C2  UNL d   1      -0.846  -0.404  -0.332  0.00  0.00    -0.073 A 
ATOM      2  C3  UNL d   1      -0.797  -1.231   0.796  0.00  0.00    -0.002 A 
ATOM      3  C4  UNL d   1       0.347  -1.268   1.594  0.00  0.00     0.004 A 
ATOM      4  C5  UNL d   1       1.450  -0.475   1.277  0.00  0.00    -0.004 A 
ATOM      5  C6  UNL d   1       1.416   0.367   0.161  0.00  0.00    -0.075 A 
ATOM      6  C7  UNL d   1       2.595   1.224  -0.196  0.00  0.00     0.076 C 
ATOM      7  C8  UNL d   1       0.264   0.396  -0.637  0.00  0.00     0.001 A 
ENDROOT
BRANCH   1   8
ATOM      8  C1  UNL d   1      -2.082  -0.356  -1.192  0.00  0.00     0.053 C 
ATOM      9  C   UNL d   1      -3.269  -1.029  -0.523  0.00  0.00     0.018 C 
ENDBRANCH   1   8
TORSDOF 1
ENDMDL
