MODEL 1
REMARK minimizedAffinity -4.9782939
REMARK minimizedRMSD -1
REMARK  1 active torsions:
REMARK  status: ('A' for Active; 'I' for Inactive)
REMARK    1  A    between atoms: C1_2  and  C2_3 
ROOT
ATOM      1  C2  UNL d   1      -2.025  -0.994   0.125  0.00  0.00    -0.073 A 
ATOM      2  C3  UNL d   1      -2.263  -1.125  -1.248  0.00  0.00    -0.002 A 
ATOM      3  C4  UNL d   1      -1.363  -0.592  -2.172  0.00  0.00     0.004 A 
ATOM      4  C5  UNL d   1      -0.216   0.069  -1.735  0.00  0.00    -0.004 A 
ATOM      5  C6  UNL d   1       0.045   0.199  -0.367  0.00  0.00    -0.075 A 
ATOM      6  C7  UNL d   1       1.274   0.909   0.120  0.00  0.00     0.076 C 
ATOM      7  C8  UNL d   1      -0.864  -0.336   0.555  0.00  0.00     0.001 A 
ENDROOT
BRANCH   1   8
ATOM      8  C1  UNL d   1      -2.990  -1.574   1.127  0.00  0.00     0.053 C 
ATOM      9  C   UNL d   1      -2.323  -2.590   2.040  0.00  0.00     0.018 C 
ENDBRANCH   1   8
TORSDOF 1
ENDMDL
