MODEL 1
REMARK minimizedAffinity -4.75991392
REMARK minimizedRMSD -1
REMARK  1 active torsions:
REMARK  status: ('A' for Active; 'I' for Inactive)
REMARK    1  A    between atoms: C1_2  and  C2_3 
ROOT
ATOM      1  C2  UNL d   1       0.600  -0.365   0.092  0.00  0.00    -0.073 A 
ATOM      2  C3  UNL d   1       0.489  -1.409   1.018  0.00  0.00    -0.002 A 
ATOM      3  C4  UNL d   1      -0.722  -2.085   1.176  0.00  0.00     0.004 A 
ATOM      4  C5  UNL d   1      -1.830  -1.730   0.407  0.00  0.00    -0.004 A 
ATOM      5  C6  UNL d   1      -1.735  -0.698  -0.532  0.00  0.00    -0.075 A 
ATOM      6  C7  UNL d   1      -2.919  -0.302  -1.365  0.00  0.00     0.076 C 
ATOM      7  C8  UNL d   1      -0.517  -0.022  -0.683  0.00  0.00     0.001 A 
ENDROOT
BRANCH   1   8
ATOM      8  C1  UNL d   1       1.907   0.363  -0.087  0.00  0.00     0.053 C 
ATOM      9  C   UNL d   1       2.115   1.430   0.976  0.00  0.00     0.018 C 
ENDBRANCH   1   8
TORSDOF 1
ENDMDL
