MODEL 1
REMARK minimizedAffinity -4.64121342
REMARK minimizedRMSD -1
REMARK  1 active torsions:
REMARK  status: ('A' for Active; 'I' for Inactive)
REMARK    1  A    between atoms: C1_2  and  C2_3 
ROOT
ATOM      1  C2  UNL d   1       0.054  -0.793   0.275  0.00  0.00    -0.073 A 
ATOM      2  C3  UNL d   1       0.143  -1.810   1.231  0.00  0.00    -0.002 A 
ATOM      3  C4  UNL d   1      -0.983  -2.562   1.567  0.00  0.00     0.004 A 
ATOM      4  C5  UNL d   1      -2.207  -2.310   0.946  0.00  0.00    -0.004 A 
ATOM      5  C6  UNL d   1      -2.313  -1.305  -0.021  0.00  0.00    -0.075 A 
ATOM      6  C7  UNL d   1      -3.622  -1.019  -0.697  0.00  0.00     0.076 C 
ATOM      7  C8  UNL d   1      -1.178  -0.552  -0.351  0.00  0.00     0.001 A 
ENDROOT
BRANCH   1   8
ATOM      8  C1  UNL d   1       1.270   0.018  -0.096  0.00  0.00     0.053 C 
ATOM      9  C   UNL d   1       1.401   1.270   0.757  0.00  0.00     0.018 C 
ENDBRANCH   1   8
TORSDOF 1
ENDMDL
