MODEL 1
REMARK minimizedAffinity -4.80973148
REMARK minimizedRMSD -1
REMARK  1 active torsions:
REMARK  status: ('A' for Active; 'I' for Inactive)
REMARK    1  A    between atoms: C1_2  and  C2_3 
ROOT
ATOM      1  C2  UNL d   1      -1.807  -0.588  -0.264  0.00  0.00    -0.073 A 
ATOM      2  C3  UNL d   1      -0.852   0.279  -0.807  0.00  0.00    -0.002 A 
ATOM      3  C4  UNL d   1       0.439   0.324  -0.280  0.00  0.00     0.004 A 
ATOM      4  C5  UNL d   1       0.790  -0.501   0.789  0.00  0.00    -0.004 A 
ATOM      5  C6  UNL d   1      -0.147  -1.383   1.337  0.00  0.00    -0.075 A 
ATOM      6  C7  UNL d   1       0.215  -2.275   2.488  0.00  0.00     0.076 C 
ATOM      7  C8  UNL d   1      -1.442  -1.420   0.804  0.00  0.00     0.001 A 
ENDROOT
BRANCH   1   8
ATOM      8  C1  UNL d   1      -3.201  -0.645  -0.834  0.00  0.00     0.053 C 
ATOM      9  C   UNL d   1      -3.973  -1.855  -0.332  0.00  0.00     0.018 C 
ENDBRANCH   1   8
TORSDOF 1
ENDMDL
