MODEL 1
REMARK minimizedAffinity -4.45630741
REMARK minimizedRMSD -1
REMARK  1 active torsions:
REMARK  status: ('A' for Active; 'I' for Inactive)
REMARK    1  A    between atoms: C1_2  and  C2_3 
ROOT
ATOM      1  C2  UNL d   1       0.459   0.191  -0.067  0.00  0.00    -0.073 A 
ATOM      2  C3  UNL d   1      -0.470   0.530  -1.057  0.00  0.00    -0.002 A 
ATOM      3  C4  UNL d   1      -1.743  -0.042  -1.054  0.00  0.00     0.004 A 
ATOM      4  C5  UNL d   1      -2.103  -0.950  -0.058  0.00  0.00    -0.004 A 
ATOM      5  C6  UNL d   1      -1.192  -1.291   0.947  0.00  0.00    -0.075 A 
ATOM      6  C7  UNL d   1      -1.562  -2.268   2.024  0.00  0.00     0.076 C 
ATOM      7  C8  UNL d   1       0.086  -0.716   0.935  0.00  0.00     0.001 A 
ENDROOT
BRANCH   1   8
ATOM      8  C1  UNL d   1       1.833   0.811  -0.063  0.00  0.00     0.053 C 
ATOM      9  C   UNL d   1       1.968   1.890   1.000  0.00  0.00     0.018 C 
ENDBRANCH   1   8
TORSDOF 1
ENDMDL
