MODEL 1
REMARK minimizedAffinity 0.139951929
REMARK minimizedRMSD -1
REMARK  1 active torsions:
REMARK  status: ('A' for Active; 'I' for Inactive)
REMARK    1  A    between atoms: C1_2  and  C2_3 
ROOT
ATOM      1  C2  UNL d   1       0.286  -0.188  -0.016  0.00  0.00    -0.073 A 
ATOM      2  C3  UNL d   1       0.509   0.666  -1.102  0.00  0.00    -0.002 A 
ATOM      3  C4  UNL d   1      -0.467   0.824  -2.087  0.00  0.00     0.004 A 
ATOM      4  C5  UNL d   1      -1.677   0.136  -1.992  0.00  0.00    -0.004 A 
ATOM      5  C6  UNL d   1      -1.923  -0.713  -0.909  0.00  0.00    -0.075 A 
ATOM      6  C7  UNL d   1      -3.218  -1.462  -0.794  0.00  0.00     0.076 C 
ATOM      7  C8  UNL d   1      -0.937  -0.868   0.075  0.00  0.00     0.001 A 
ENDROOT
BRANCH   1   8
ATOM      8  C1  UNL d   1       1.335  -0.357   1.053  0.00  0.00     0.053 C 
ATOM      9  C   UNL d   1       2.251   0.853   1.149  0.00  0.00     0.018 C 
ENDBRANCH   1   8
TORSDOF 1
ENDMDL
