MODEL 1
REMARK minimizedAffinity -5.52712822
REMARK minimizedRMSD -1
REMARK  1 active torsions:
REMARK  status: ('A' for Active; 'I' for Inactive)
REMARK    1  A    between atoms: C1_2  and  C2_3 
ROOT
ATOM      1  C2  UNL d   1      -0.314  -0.226  -0.092  0.00  0.00    -0.073 A 
ATOM      2  C3  UNL d   1      -1.206   0.389  -0.977  0.00  0.00    -0.002 A 
ATOM      3  C4  UNL d   1      -2.487  -0.131  -1.162  0.00  0.00     0.004 A 
ATOM      4  C5  UNL d   1      -2.892  -1.266  -0.459  0.00  0.00    -0.004 A 
ATOM      5  C6  UNL d   1      -2.020  -1.888   0.439  0.00  0.00    -0.075 A 
ATOM      6  C7  UNL d   1      -2.439  -3.111   1.201  0.00  0.00     0.076 C 
ATOM      7  C8  UNL d   1      -0.733  -1.361   0.617  0.00  0.00     0.001 A 
ENDROOT
BRANCH   1   8
ATOM      8  C1  UNL d   1       1.069   0.335   0.116  0.00  0.00     0.053 C 
ATOM      9  C   UNL d   1       2.096  -0.757   0.369  0.00  0.00     0.018 C 
ENDBRANCH   1   8
TORSDOF 1
ENDMDL
