MODEL 1
REMARK minimizedAffinity -2.39593029
REMARK minimizedRMSD -1
REMARK  1 active torsions:
REMARK  status: ('A' for Active; 'I' for Inactive)
REMARK    1  A    between atoms: C1_2  and  C2_3 
ROOT
ATOM      1  C2  UNL d   1       0.346   0.070  -0.298  0.00  0.00    -0.073 A 
ATOM      2  C3  UNL d   1       0.427   0.195  -1.690  0.00  0.00    -0.002 A 
ATOM      3  C4  UNL d   1      -0.705   0.000  -2.482  0.00  0.00     0.004 A 
ATOM      4  C5  UNL d   1      -1.929  -0.315  -1.892  0.00  0.00    -0.004 A 
ATOM      5  C6  UNL d   1      -2.033  -0.433  -0.502  0.00  0.00    -0.075 A 
ATOM      6  C7  UNL d   1      -3.341  -0.774   0.148  0.00  0.00     0.076 C 
ATOM      7  C8  UNL d   1      -0.891  -0.239   0.286  0.00  0.00     0.001 A 
ENDROOT
BRANCH   1   8
ATOM      8  C1  UNL d   1       1.564   0.286   0.562  0.00  0.00     0.053 C 
ATOM      9  C   UNL d   1       2.278   1.585   0.224  0.00  0.00     0.018 C 
ENDBRANCH   1   8
TORSDOF 1
ENDMDL
