MODEL 1
REMARK minimizedAffinity -3.78892612
REMARK minimizedRMSD -1
REMARK  3 active torsions:
REMARK  status: ('A' for Active; 'I' for Inactive)
REMARK    1  A    between atoms: C3'_2  and  C2'_3 
REMARK    2  A    between atoms: C2'_3  and  C1'_4 
REMARK    3  A    between atoms: C1'_4  and  C1_5 
ROOT
ATOM      1  C1  N4B d   1       0.220  -1.139   0.207  0.00  0.00    -0.075 A 
ATOM      2  C2  N4B d   1      -0.471  -0.279   1.088  0.00  0.00     0.002 A 
ATOM      3  C3  N4B d   1      -0.631   1.047   0.768  0.00  0.00     0.002 A 
ATOM      4  C4  N4B d   1      -0.095   1.537  -0.414  0.00  0.00    -0.004 A 
ATOM      5  C5  N4B d   1       0.549   0.694  -1.271  0.00  0.00     0.002 A 
ATOM      6  C6  N4B d   1       0.714  -0.642  -0.964  0.00  0.00     0.002 A 
ENDROOT
BRANCH   1   7
ATOM      7  C1' N4B d   1       0.495  -2.577   0.554  0.00  0.00     0.057 C 
BRANCH   7   8
ATOM      8  C2' N4B d   1      -0.377  -3.477  -0.316  0.00  0.00     0.009 C 
BRANCH   8   9
ATOM      9  C3' N4B d   1      -1.731  -3.743   0.320  0.00  0.00     0.004 C 
ATOM     10  C4' N4B d   1      -2.813  -3.973  -0.692  0.00  0.00     0.003 C 
ENDBRANCH   8   9
ENDBRANCH   7   8
ENDBRANCH   1   7
TORSDOF 3
ENDMDL
