MODEL 1
REMARK minimizedAffinity -6.28275967
REMARK minimizedRMSD -1
REMARK  3 active torsions:
REMARK  status: ('A' for Active; 'I' for Inactive)
REMARK    1  A    between atoms: C3'_2  and  C2'_3 
REMARK    2  A    between atoms: C2'_3  and  C1'_4 
REMARK    3  A    between atoms: C1'_4  and  C1_5 
ROOT
ATOM      1  C1  N4B d   1       0.344  -0.818  -0.901  0.00  0.00    -0.075 A 
ATOM      2  C2  N4B d   1       0.065  -1.168   0.438  0.00  0.00     0.002 A 
ATOM      3  C3  N4B d   1      -0.047  -2.489   0.794  0.00  0.00     0.002 A 
ATOM      4  C4  N4B d   1       0.098  -3.474  -0.172  0.00  0.00    -0.004 A 
ATOM      5  C5  N4B d   1       0.393  -3.129  -1.458  0.00  0.00     0.002 A 
ATOM      6  C6  N4B d   1       0.512  -1.805  -1.829  0.00  0.00     0.002 A 
ENDROOT
BRANCH   1   7
ATOM      7  C1' N4B d   1       0.391   0.615  -1.355  0.00  0.00     0.057 C 
BRANCH   7   8
ATOM      8  C2' N4B d   1       0.326   1.529  -0.134  0.00  0.00     0.009 C 
BRANCH   8   9
ATOM      9  C3' N4B d   1       1.640   2.251   0.106  0.00  0.00     0.004 C 
ATOM     10  C4' N4B d   1       1.517   3.368   1.099  0.00  0.00     0.003 C 
ENDBRANCH   8   9
ENDBRANCH   7   8
ENDBRANCH   1   7
TORSDOF 3
ENDMDL
