MODEL 1
REMARK minimizedAffinity -4.91324043
REMARK minimizedRMSD -1
REMARK  3 active torsions:
REMARK  status: ('A' for Active; 'I' for Inactive)
REMARK    1  A    between atoms: C3'_2  and  C2'_3 
REMARK    2  A    between atoms: C2'_3  and  C1'_4 
REMARK    3  A    between atoms: C1'_4  and  C1_5 
ROOT
ATOM      1  C1  N4B d   1      -0.394  -0.584  -0.229  0.00  0.00    -0.075 A 
ATOM      2  C2  N4B d   1      -0.708  -1.498   0.801  0.00  0.00     0.002 A 
ATOM      3  C3  N4B d   1      -0.651  -2.849   0.561  0.00  0.00     0.002 A 
ATOM      4  C4  N4B d   1      -0.303  -3.307  -0.701  0.00  0.00    -0.004 A 
ATOM      5  C5  N4B d   1       0.023  -2.418  -1.683  0.00  0.00     0.002 A 
ATOM      6  C6  N4B d   1      -0.026  -1.058  -1.454  0.00  0.00     0.002 A 
ENDROOT
BRANCH   1   7
ATOM      7  C1' N4B d   1      -0.526   0.902  -0.038  0.00  0.00     0.057 C 
BRANCH   7   8
ATOM      8  C2' N4B d   1       0.852   1.546  -0.162  0.00  0.00     0.009 C 
BRANCH   8   9
ATOM      9  C3' N4B d   1       0.895   2.924   0.477  0.00  0.00     0.004 C 
ATOM     10  C4' N4B d   1       2.293   3.420   0.695  0.00  0.00     0.003 C 
ENDBRANCH   8   9
ENDBRANCH   7   8
ENDBRANCH   1   7
TORSDOF 3
ENDMDL
