MODEL 1
REMARK minimizedAffinity -2.7903235
REMARK minimizedRMSD -1
REMARK  3 active torsions:
REMARK  status: ('A' for Active; 'I' for Inactive)
REMARK    1  A    between atoms: C3'_2  and  C2'_3 
REMARK    2  A    between atoms: C2'_3  and  C1'_4 
REMARK    3  A    between atoms: C1'_4  and  C1_5 
ROOT
ATOM      1  C1  N4B d   1       0.121  -0.476   0.270  0.00  0.00    -0.075 A 
ATOM      2  C2  N4B d   1       0.401  -1.805  -0.118  0.00  0.00     0.002 A 
ATOM      3  C3  N4B d   1      -0.433  -2.824   0.270  0.00  0.00     0.002 A 
ATOM      4  C4  N4B d   1      -1.538  -2.543   1.060  0.00  0.00    -0.004 A 
ATOM      5  C5  N4B d   1      -1.816  -1.254   1.409  0.00  0.00     0.002 A 
ATOM      6  C6  N4B d   1      -0.989  -0.219   1.022  0.00  0.00     0.002 A 
ENDROOT
BRANCH   1   7
ATOM      7  C1' N4B d   1       1.050   0.660  -0.058  0.00  0.00     0.057 C 
BRANCH   7   8
ATOM      8  C2' N4B d   1       0.277   1.974   0.006  0.00  0.00     0.009 C 
BRANCH   8   9
ATOM      9  C3' N4B d   1       1.192   3.160   0.258  0.00  0.00     0.004 C 
ATOM     10  C4' N4B d   1       2.449   3.108  -0.557  0.00  0.00     0.003 C 
ENDBRANCH   8   9
ENDBRANCH   7   8
ENDBRANCH   1   7
TORSDOF 3
ENDMDL
