MODEL 1
REMARK minimizedAffinity -5.08901644
REMARK minimizedRMSD -1
REMARK  3 active torsions:
REMARK  status: ('A' for Active; 'I' for Inactive)
REMARK    1  A    between atoms: C3'_2  and  C2'_3 
REMARK    2  A    between atoms: C2'_3  and  C1'_4 
REMARK    3  A    between atoms: C1'_4  and  C1_5 
ROOT
ATOM      1  C1  N4B d   1       0.036   0.783   0.352  0.00  0.00    -0.075 A 
ATOM      2  C2  N4B d   1      -0.284   1.941  -0.391  0.00  0.00     0.002 A 
ATOM      3  C3  N4B d   1       0.598   2.992  -0.438  0.00  0.00     0.002 A 
ATOM      4  C4  N4B d   1       1.793   2.917   0.263  0.00  0.00    -0.004 A 
ATOM      5  C5  N4B d   1       2.105   1.785   0.957  0.00  0.00     0.002 A 
ATOM      6  C6  N4B d   1       1.230   0.719   1.010  0.00  0.00     0.002 A 
ENDROOT
BRANCH   1   7
ATOM      7  C1' N4B d   1      -0.934  -0.357   0.503  0.00  0.00     0.057 C 
BRANCH   7   8
ATOM      8  C2' N4B d   1      -0.416  -1.318   1.569  0.00  0.00     0.009 C 
BRANCH   8   9
ATOM      9  C3' N4B d   1      -0.619  -2.770   1.172  0.00  0.00     0.004 C 
ATOM     10  C4' N4B d   1      -1.033  -2.928  -0.260  0.00  0.00     0.003 C 
ENDBRANCH   8   9
ENDBRANCH   7   8
ENDBRANCH   1   7
TORSDOF 3
ENDMDL
