MODEL 1
REMARK minimizedAffinity -5.28042459
REMARK minimizedRMSD -1
REMARK  3 active torsions:
REMARK  status: ('A' for Active; 'I' for Inactive)
REMARK    1  A    between atoms: C3'_2  and  C2'_3 
REMARK    2  A    between atoms: C2'_3  and  C1'_4 
REMARK    3  A    between atoms: C1'_4  and  C1_5 
ROOT
ATOM      1  C1  N4B d   1      -0.240  -0.080  -0.163  0.00  0.00    -0.075 A 
ATOM      2  C2  N4B d   1      -0.456  -0.261   1.221  0.00  0.00     0.002 A 
ATOM      3  C3  N4B d   1      -0.459  -1.526   1.755  0.00  0.00     0.002 A 
ATOM      4  C4  N4B d   1      -0.269  -2.621   0.926  0.00  0.00    -0.004 A 
ATOM      5  C5  N4B d   1      -0.036  -2.436  -0.405  0.00  0.00     0.002 A 
ATOM      6  C6  N4B d   1      -0.026  -1.170  -0.955  0.00  0.00     0.002 A 
ENDROOT
BRANCH   1   7
ATOM      7  C1' N4B d   1      -0.313   1.278  -0.807  0.00  0.00     0.057 C 
BRANCH   7   8
ATOM      8  C2' N4B d   1      -0.119   2.350   0.261  0.00  0.00     0.009 C 
BRANCH   8   9
ATOM      9  C3' N4B d   1       1.035   3.281  -0.072  0.00  0.00     0.004 C 
ATOM     10  C4' N4B d   1       2.282   2.956   0.694  0.00  0.00     0.003 C 
ENDBRANCH   8   9
ENDBRANCH   7   8
ENDBRANCH   1   7
TORSDOF 3
ENDMDL
