MODEL 1
REMARK minimizedAffinity -0.168376788
REMARK minimizedRMSD -1
REMARK  2 active torsions:
REMARK  status: ('A' for Active; 'I' for Inactive)
REMARK    1  A    between atoms: C2'_3  and  C1'_4 
REMARK    2  A    between atoms: C1'_4  and  C1_5 
ROOT
ATOM      1  C1  I4B d   1      -2.256   1.755   0.016  0.00  0.00    -0.075 A 
ATOM      2  C2  I4B d   1      -2.029   0.922   1.083  0.00  0.00     0.003 A 
ATOM      3  C3  I4B d   1      -0.704   0.612   1.476  0.00  0.00     0.002 A 
ATOM      4  C4  I4B d   1       0.355   1.113   0.747  0.00  0.00    -0.004 A 
ATOM      5  C5  I4B d   1       0.123   1.976  -0.320  0.00  0.00     0.002 A 
ATOM      6  C6  I4B d   1      -1.190   2.309  -0.681  0.00  0.00     0.003 A 
ENDROOT
BRANCH   1   7
ATOM      7  C1' I4B d   1      -3.668   2.035  -0.392  0.00  0.00     0.060 C 
BRANCH   7   8
ATOM      8  C2' I4B d   1      -4.572   1.655   0.763  0.00  0.00    -0.013 C 
ATOM      9  C4' I4B d   1      -5.997   2.061   0.497  0.00  0.00     0.013 C 
ATOM     10  C3' I4B d   1      -4.460   0.174   0.971  0.00  0.00     0.013 C 
ENDBRANCH   7   8
ENDBRANCH   1   7
TORSDOF 2
ENDMDL
