MODEL 1
REMARK minimizedAffinity 11.337635
REMARK minimizedRMSD -1
REMARK  2 active torsions:
REMARK  status: ('A' for Active; 'I' for Inactive)
REMARK    1  A    between atoms: C2'_3  and  C1'_4 
REMARK    2  A    between atoms: C1'_4  and  C1_5 
ROOT
ATOM      1  C1  I4B d   1      -1.049   2.416  -0.865  0.00  0.00    -0.075 A 
ATOM      2  C2  I4B d   1       0.088   1.678  -0.648  0.00  0.00     0.003 A 
ATOM      3  C3  I4B d   1       1.333   2.326  -0.461  0.00  0.00     0.002 A 
ATOM      4  C4  I4B d   1       1.403   3.701  -0.549  0.00  0.00    -0.004 A 
ATOM      5  C5  I4B d   1       0.246   4.448  -0.747  0.00  0.00     0.002 A 
ATOM      6  C6  I4B d   1      -0.990   3.803  -0.893  0.00  0.00     0.003 A 
ENDROOT
BRANCH   1   7
ATOM      7  C1' I4B d   1      -2.342   1.698  -1.090  0.00  0.00     0.060 C 
BRANCH   7   8
ATOM      8  C2' I4B d   1      -3.028   1.538   0.251  0.00  0.00    -0.013 C 
ATOM      9  C4' I4B d   1      -4.457   2.009   0.193  0.00  0.00     0.013 C 
ATOM     10  C3' I4B d   1      -2.949   0.092   0.642  0.00  0.00     0.013 C 
ENDBRANCH   7   8
ENDBRANCH   1   7
TORSDOF 2
ENDMDL
