MODEL 1
REMARK minimizedAffinity 5.40017176
REMARK minimizedRMSD -1
REMARK  2 active torsions:
REMARK  status: ('A' for Active; 'I' for Inactive)
REMARK    1  A    between atoms: C2'_3  and  C1'_4 
REMARK    2  A    between atoms: C1'_4  and  C1_5 
ROOT
ATOM      1  C1  I4B d   1      -1.143   0.699   0.901  0.00  0.00    -0.075 A 
ATOM      2  C2  I4B d   1       0.194   0.680   0.589  0.00  0.00     0.003 A 
ATOM      3  C3  I4B d   1       1.164   0.884   1.600  0.00  0.00     0.002 A 
ATOM      4  C4  I4B d   1       0.756   1.151   2.891  0.00  0.00    -0.004 A 
ATOM      5  C5  I4B d   1      -0.599   1.147   3.209  0.00  0.00     0.002 A 
ATOM      6  C6  I4B d   1      -1.554   0.908   2.211  0.00  0.00     0.003 A 
ENDROOT
BRANCH   1   7
ATOM      7  C1' I4B d   1      -2.142   0.513  -0.197  0.00  0.00     0.060 C 
BRANCH   7   8
ATOM      8  C2' I4B d   1      -2.749   1.866  -0.509  0.00  0.00    -0.013 C 
ATOM      9  C4' I4B d   1      -4.088   2.030   0.161  0.00  0.00     0.013 C 
ATOM     10  C3' I4B d   1      -1.784   2.922  -0.059  0.00  0.00     0.013 C 
ENDBRANCH   7   8
ENDBRANCH   1   7
TORSDOF 2
ENDMDL
