MODEL 1
REMARK minimizedAffinity 0.477861285
REMARK minimizedRMSD -1
REMARK  2 active torsions:
REMARK  status: ('A' for Active; 'I' for Inactive)
REMARK    1  A    between atoms: C2'_3  and  C1'_4 
REMARK    2  A    between atoms: C1'_4  and  C1_5 
ROOT
ATOM      1  C1  I4B d   1      -2.230   0.587   1.036  0.00  0.00    -0.075 A 
ATOM      2  C2  I4B d   1      -0.858   0.613   1.031  0.00  0.00     0.003 A 
ATOM      3  C3  I4B d   1      -0.166   1.614   0.308  0.00  0.00     0.002 A 
ATOM      4  C4  I4B d   1      -0.880   2.534  -0.432  0.00  0.00    -0.004 A 
ATOM      5  C5  I4B d   1      -2.272   2.521  -0.407  0.00  0.00     0.002 A 
ATOM      6  C6  I4B d   1      -2.952   1.549   0.341  0.00  0.00     0.003 A 
ENDROOT
BRANCH   1   7
ATOM      7  C1' I4B d   1      -2.928  -0.505   1.784  0.00  0.00     0.060 C 
BRANCH   7   8
ATOM      8  C2' I4B d   1      -2.651  -0.310   3.261  0.00  0.00    -0.013 C 
ATOM      9  C4' I4B d   1      -3.912  -0.438   4.074  0.00  0.00     0.013 C 
ATOM     10  C3' I4B d   1      -1.631  -1.327   3.679  0.00  0.00     0.013 C 
ENDBRANCH   7   8
ENDBRANCH   1   7
TORSDOF 2
ENDMDL
