MODEL 1
REMARK minimizedAffinity 4.76077414
REMARK minimizedRMSD -1
REMARK  2 active torsions:
REMARK  status: ('A' for Active; 'I' for Inactive)
REMARK    1  A    between atoms: C2'_3  and  C1'_4 
REMARK    2  A    between atoms: C1'_4  and  C1_5 
ROOT
ATOM      1  C1  I4B d   1      -2.406   1.707  -0.154  0.00  0.00    -0.075 A 
ATOM      2  C2  I4B d   1      -1.399   2.632  -0.037  0.00  0.00     0.003 A 
ATOM      3  C3  I4B d   1      -0.147   2.257   0.507  0.00  0.00     0.002 A 
ATOM      4  C4  I4B d   1       0.037   0.968   0.964  0.00  0.00    -0.004 A 
ATOM      5  C5  I4B d   1      -0.977   0.026   0.824  0.00  0.00     0.002 A 
ATOM      6  C6  I4B d   1      -2.203   0.394   0.250  0.00  0.00     0.003 A 
ENDROOT
BRANCH   1   7
ATOM      7  C1' I4B d   1      -3.727   2.145  -0.702  0.00  0.00     0.060 C 
BRANCH   7   8
ATOM      8  C2' I4B d   1      -4.739   2.100   0.426  0.00  0.00    -0.013 C 
ATOM      9  C4' I4B d   1      -5.999   2.839   0.058  0.00  0.00     0.013 C 
ATOM     10  C3' I4B d   1      -5.025   0.660   0.733  0.00  0.00     0.013 C 
ENDBRANCH   7   8
ENDBRANCH   1   7
TORSDOF 2
ENDMDL
