MODEL 1
REMARK minimizedAffinity 4.63800859
REMARK minimizedRMSD -1
REMARK  2 active torsions:
REMARK  status: ('A' for Active; 'I' for Inactive)
REMARK    1  A    between atoms: C2'_3  and  C1'_4 
REMARK    2  A    between atoms: C1'_4  and  C1_5 
ROOT
ATOM      1  C1  I4B d   1      -2.895   1.752   0.295  0.00  0.00    -0.075 A 
ATOM      2  C2  I4B d   1      -2.688   0.582   0.982  0.00  0.00     0.003 A 
ATOM      3  C3  I4B d   1      -3.786  -0.136   1.515  0.00  0.00     0.002 A 
ATOM      4  C4  I4B d   1      -5.061   0.376   1.382  0.00  0.00    -0.004 A 
ATOM      5  C5  I4B d   1      -5.271   1.550   0.665  0.00  0.00     0.002 A 
ATOM      6  C6  I4B d   1      -4.183   2.236   0.107  0.00  0.00     0.003 A 
ENDROOT
BRANCH   1   7
ATOM      7  C1' I4B d   1      -1.710   2.501  -0.227  0.00  0.00     0.060 C 
BRANCH   7   8
ATOM      8  C2' I4B d   1      -0.461   1.759   0.206  0.00  0.00    -0.013 C 
ATOM      9  C4' I4B d   1       0.717   2.125  -0.657  0.00  0.00     0.013 C 
ATOM     10  C3' I4B d   1      -0.202   2.090   1.646  0.00  0.00     0.013 C 
ENDBRANCH   7   8
ENDBRANCH   1   7
TORSDOF 2
ENDMDL
