MODEL 1
REMARK minimizedAffinity 9.3710537
REMARK minimizedRMSD -1
REMARK  2 active torsions:
REMARK  status: ('A' for Active; 'I' for Inactive)
REMARK    1  A    between atoms: C2'_3  and  C1'_4 
REMARK    2  A    between atoms: C1'_4  and  C1_5 
ROOT
ATOM      1  C1  I4B d   1      -2.992  -0.033   1.543  0.00  0.00    -0.075 A 
ATOM      2  C2  I4B d   1      -2.326  -0.310   2.711  0.00  0.00     0.003 A 
ATOM      3  C3  I4B d   1      -3.042  -0.731   3.858  0.00  0.00     0.002 A 
ATOM      4  C4  I4B d   1      -4.419  -0.812   3.807  0.00  0.00    -0.004 A 
ATOM      5  C5  I4B d   1      -5.090  -0.552   2.616  0.00  0.00     0.002 A 
ATOM      6  C6  I4B d   1      -4.372  -0.172   1.473  0.00  0.00     0.003 A 
ENDROOT
BRANCH   1   7
ATOM      7  C1' I4B d   1      -2.208   0.441   0.361  0.00  0.00     0.060 C 
BRANCH   7   8
ATOM      8  C2' I4B d   1      -1.936   1.921   0.544  0.00  0.00    -0.013 C 
ATOM      9  C4' I4B d   1      -0.482   2.240   0.318  0.00  0.00     0.013 C 
ATOM     10  C3' I4B d   1      -2.811   2.674  -0.414  0.00  0.00     0.013 C 
ENDBRANCH   7   8
ENDBRANCH   1   7
TORSDOF 2
ENDMDL
