MODEL 1
REMARK minimizedAffinity 5.71103287
REMARK minimizedRMSD -1
REMARK  2 active torsions:
REMARK  status: ('A' for Active; 'I' for Inactive)
REMARK    1  A    between atoms: C2'_3  and  C1'_4 
REMARK    2  A    between atoms: C1'_4  and  C1_5 
ROOT
ATOM      1  C1  I4B d   1      -0.774   1.137   0.313  0.00  0.00    -0.075 A 
ATOM      2  C2  I4B d   1       0.487   0.996   0.838  0.00  0.00     0.003 A 
ATOM      3  C3  I4B d   1       0.710   0.124   1.931  0.00  0.00     0.002 A 
ATOM      4  C4  I4B d   1      -0.357  -0.544   2.497  0.00  0.00    -0.004 A 
ATOM      5  C5  I4B d   1      -1.630  -0.417   1.949  0.00  0.00     0.002 A 
ATOM      6  C6  I4B d   1      -1.838   0.419   0.842  0.00  0.00     0.003 A 
ENDROOT
BRANCH   1   7
ATOM      7  C1' I4B d   1      -0.980   2.091  -0.821  0.00  0.00     0.060 C 
BRANCH   7   8
ATOM      8  C2' I4B d   1      -2.447   2.058  -1.198  0.00  0.00    -0.013 C 
ATOM      9  C4' I4B d   1      -3.322   2.353  -0.008  0.00  0.00     0.013 C 
ATOM     10  C3' I4B d   1      -2.666   3.060  -2.292  0.00  0.00     0.013 C 
ENDBRANCH   7   8
ENDBRANCH   1   7
TORSDOF 2
ENDMDL
