MODEL 1
REMARK minimizedAffinity 4.98957634
REMARK minimizedRMSD -1
REMARK  2 active torsions:
REMARK  status: ('A' for Active; 'I' for Inactive)
REMARK    1  A    between atoms: C2'_3  and  C1'_4 
REMARK    2  A    between atoms: C1'_4  and  C1_5 
ROOT
ATOM      1  C1  I4B d   1       0.890   1.490  -0.196  0.00  0.00    -0.075 A 
ATOM      2  C2  I4B d   1       2.108   1.605   0.427  0.00  0.00     0.003 A 
ATOM      3  C3  I4B d   1       2.194   2.158   1.727  0.00  0.00     0.002 A 
ATOM      4  C4  I4B d   1       1.052   2.626   2.344  0.00  0.00    -0.004 A 
ATOM      5  C5  I4B d   1      -0.185   2.488   1.721  0.00  0.00     0.002 A 
ATOM      6  C6  I4B d   1      -0.269   1.905   0.448  0.00  0.00     0.003 A 
ENDROOT
BRANCH   1   7
ATOM      7  C1' I4B d   1       0.839   0.931  -1.582  0.00  0.00     0.060 C 
BRANCH   7   8
ATOM      8  C2' I4B d   1       1.915   1.615  -2.401  0.00  0.00    -0.013 C 
ATOM      9  C4' I4B d   1       3.062   0.680  -2.684  0.00  0.00     0.013 C 
ATOM     10  C3' I4B d   1       1.289   2.104  -3.672  0.00  0.00     0.013 C 
ENDBRANCH   7   8
ENDBRANCH   1   7
TORSDOF 2
ENDMDL
