MODEL 1
REMARK minimizedAffinity 0.228124812
REMARK minimizedRMSD -1
REMARK  2 active torsions:
REMARK  status: ('A' for Active; 'I' for Inactive)
REMARK    1  A    between atoms: C2'_3  and  C1'_4 
REMARK    2  A    between atoms: C1'_4  and  C1_5 
ROOT
ATOM      1  C1  I4B d   1       0.139   1.007   0.342  0.00  0.00    -0.075 A 
ATOM      2  C2  I4B d   1       1.469   0.748   0.559  0.00  0.00     0.003 A 
ATOM      3  C3  I4B d   1       2.202   1.519   1.495  0.00  0.00     0.002 A 
ATOM      4  C4  I4B d   1       1.581   2.563   2.149  0.00  0.00    -0.004 A 
ATOM      5  C5  I4B d   1       0.227   2.810   1.944  0.00  0.00     0.002 A 
ATOM      6  C6  I4B d   1      -0.503   2.019   1.044  0.00  0.00     0.003 A 
ENDROOT
BRANCH   1   7
ATOM      7  C1' I4B d   1      -0.596   0.196  -0.677  0.00  0.00     0.060 C 
BRANCH   7   8
ATOM      8  C2' I4B d   1      -1.648  -0.620   0.046  0.00  0.00    -0.013 C 
ATOM      9  C4' I4B d   1      -2.313  -1.600  -0.885  0.00  0.00     0.013 C 
ATOM     10  C3' I4B d   1      -0.981  -1.326   1.189  0.00  0.00     0.013 C 
ENDBRANCH   7   8
ENDBRANCH   1   7
TORSDOF 2
ENDMDL
