MODEL 1
REMARK minimizedAffinity 15.936985
REMARK minimizedRMSD -1
REMARK  0 active torsions:
REMARK  status: ('A' for Active; 'I' for Inactive)
ROOT
ATOM      1  C   UNL d   1      -5.615   3.761   1.658  0.00  0.00    -0.002 A 
ATOM      2  C1  UNL d   1      -6.000   4.064   0.360  0.00  0.00     0.010 A 
ATOM      3  C2  UNL d   1      -5.373   3.451  -0.727  0.00  0.00     0.041 A 
ATOM      4  C3  UNL d   1      -4.344   2.520  -0.485  0.00  0.00    -0.075 A 
ATOM      5  S   UNL d   1      -3.435   1.645  -1.660  0.00  0.00     0.015 SA
ATOM      6  C4  UNL d   1      -2.516   0.849  -0.466  0.00  0.00     0.022 A 
ATOM      7  C5  UNL d   1      -2.880   1.229   0.804  0.00  0.00     0.026 A 
ATOM      8  C6  UNL d   1      -3.940   2.198   0.814  0.00  0.00    -0.082 A 
ATOM      9  C7  UNL d   1      -4.595   2.837   1.895  0.00  0.00     0.045 A 
ENDROOT
TORSDOF 0
ENDMDL
