MODEL 1
REMARK minimizedAffinity 5.97482872
REMARK minimizedRMSD -1
REMARK  0 active torsions:
REMARK  status: ('A' for Active; 'I' for Inactive)
ROOT
ATOM      1  C   UNL d   1      -4.442  -3.746  -1.781  0.00  0.00    -0.002 A 
ATOM      2  C1  UNL d   1      -4.869  -2.546  -2.331  0.00  0.00     0.010 A 
ATOM      3  C2  UNL d   1      -5.366  -2.500  -3.635  0.00  0.00     0.041 A 
ATOM      4  C3  UNL d   1      -5.428  -3.691  -4.384  0.00  0.00    -0.075 A 
ATOM      5  S   UNL d   1      -6.000  -3.875  -6.000  0.00  0.00     0.015 SA
ATOM      6  C4  UNL d   1      -5.691  -5.551  -5.998  0.00  0.00     0.022 A 
ATOM      7  C5  UNL d   1      -5.164  -5.977  -4.802  0.00  0.00     0.026 A 
ATOM      8  C6  UNL d   1      -5.004  -4.912  -3.852  0.00  0.00    -0.082 A 
ATOM      9  C7  UNL d   1      -4.504  -4.926  -2.527  0.00  0.00     0.045 A 
ENDROOT
TORSDOF 0
ENDMDL
