MODEL 1
REMARK minimizedAffinity 11.1982021
REMARK minimizedRMSD -1
REMARK  0 active torsions:
REMARK  status: ('A' for Active; 'I' for Inactive)
ROOT
ATOM      1  C   UNL d   1       0.851  -3.330   3.397  0.00  0.00    -0.002 A 
ATOM      2  C1  UNL d   1       0.710  -2.636   4.591  0.00  0.00     0.010 A 
ATOM      3  C2  UNL d   1       1.016  -1.276   4.662  0.00  0.00     0.041 A 
ATOM      4  C3  UNL d   1       1.469  -0.617   3.502  0.00  0.00    -0.075 A 
ATOM      5  S   UNL d   1       1.903   1.045   3.353  0.00  0.00     0.015 SA
ATOM      6  C4  UNL d   1       2.286   0.874   1.701  0.00  0.00     0.022 A 
ATOM      7  C5  UNL d   1       2.093  -0.414   1.258  0.00  0.00     0.026 A 
ATOM      8  C6  UNL d   1       1.619  -1.294   2.288  0.00  0.00    -0.082 A 
ATOM      9  C7  UNL d   1       1.301  -2.673   2.248  0.00  0.00     0.045 A 
ENDROOT
TORSDOF 0
ENDMDL
