MODEL 1
REMARK minimizedAffinity -0.823285043
REMARK minimizedRMSD -1
REMARK  0 active torsions:
REMARK  status: ('A' for Active; 'I' for Inactive)
ROOT
ATOM      1  C   UNL d   1       2.974  -3.361   5.999  0.00  0.00    -0.002 A 
ATOM      2  C1  UNL d   1       4.072  -3.344   5.150  0.00  0.00     0.010 A 
ATOM      3  C2  UNL d   1       3.953  -2.861   3.845  0.00  0.00     0.041 A 
ATOM      4  C3  UNL d   1       2.701  -2.390   3.404  0.00  0.00    -0.075 A 
ATOM      5  S   UNL d   1       2.320  -1.752   1.849  0.00  0.00     0.015 SA
ATOM      6  C4  UNL d   1       0.691  -1.487   2.274  0.00  0.00     0.022 A 
ATOM      7  C5  UNL d   1       0.427  -1.869   3.568  0.00  0.00     0.026 A 
ATOM      8  C6  UNL d   1       1.581  -2.396   4.241  0.00  0.00    -0.082 A 
ATOM      9  C7  UNL d   1       1.734  -2.892   5.558  0.00  0.00     0.045 A 
ENDROOT
TORSDOF 0
ENDMDL
