MODEL 1
REMARK minimizedAffinity 18.1026115
REMARK minimizedRMSD -1
REMARK  0 active torsions:
REMARK  status: ('A' for Active; 'I' for Inactive)
ROOT
ATOM      1  C   UNL d   1       2.833   1.321  -0.267  0.00  0.00    -0.002 A 
ATOM      2  C1  UNL d   1       2.852   2.222   0.788  0.00  0.00     0.010 A 
ATOM      3  C2  UNL d   1       2.404   1.842   2.055  0.00  0.00     0.041 A 
ATOM      4  C3  UNL d   1       1.933   0.528   2.246  0.00  0.00    -0.075 A 
ATOM      5  S   UNL d   1       1.336  -0.160   3.710  0.00  0.00     0.015 SA
ATOM      6  C4  UNL d   1       1.043  -1.667   2.969  0.00  0.00     0.022 A 
ATOM      7  C5  UNL d   1       1.386  -1.662   1.638  0.00  0.00     0.026 A 
ATOM      8  C6  UNL d   1       1.905  -0.398   1.199  0.00  0.00    -0.082 A 
ATOM      9  C7  UNL d   1       2.366   0.018  -0.074  0.00  0.00     0.045 A 
ENDROOT
TORSDOF 0
ENDMDL
