MODEL 1
REMARK minimizedAffinity 0.738879383
REMARK minimizedRMSD -1
REMARK  0 active torsions:
REMARK  status: ('A' for Active; 'I' for Inactive)
ROOT
ATOM      1  C   UNL d   1      -3.568   1.937   1.483  0.00  0.00    -0.002 A 
ATOM      2  C1  UNL d   1      -4.872   1.490   1.645  0.00  0.00     0.010 A 
ATOM      3  C2  UNL d   1      -5.651   1.155   0.536  0.00  0.00     0.041 A 
ATOM      4  C3  UNL d   1      -5.092   1.276  -0.751  0.00  0.00    -0.075 A 
ATOM      5  S   UNL d   1      -5.858   0.922  -2.255  0.00  0.00     0.015 SA
ATOM      6  C4  UNL d   1      -4.473   1.355  -3.148  0.00  0.00     0.022 A 
ATOM      7  C5  UNL d   1      -3.442   1.762  -2.335  0.00  0.00     0.026 A 
ATOM      8  C6  UNL d   1      -3.781   1.723  -0.940  0.00  0.00    -0.082 A 
ATOM      9  C7  UNL d   1      -3.017   2.056   0.204  0.00  0.00     0.045 A 
ENDROOT
TORSDOF 0
ENDMDL
