MODEL 1
REMARK minimizedAffinity 12.6974735
REMARK minimizedRMSD -1
REMARK  0 active torsions:
REMARK  status: ('A' for Active; 'I' for Inactive)
ROOT
ATOM      1  C   UNL d   1       1.751   5.535  -1.417  0.00  0.00    -0.002 A 
ATOM      2  C1  UNL d   1       1.261   5.736  -2.700  0.00  0.00     0.010 A 
ATOM      3  C2  UNL d   1       2.135   5.889  -3.778  0.00  0.00     0.041 A 
ATOM      4  C3  UNL d   1       3.523   5.832  -3.544  0.00  0.00    -0.075 A 
ATOM      5  S   UNL d   1       4.781   5.992  -4.711  0.00  0.00     0.015 SA
ATOM      6  C4  UNL d   1       5.999   5.795  -3.535  0.00  0.00     0.022 A 
ATOM      7  C5  UNL d   1       5.476   5.611  -2.277  0.00  0.00     0.026 A 
ATOM      8  C6  UNL d   1       4.040   5.629  -2.261  0.00  0.00    -0.082 A 
ATOM      9  C7  UNL d   1       3.128   5.480  -1.189  0.00  0.00     0.045 A 
ENDROOT
TORSDOF 0
ENDMDL
