MODEL 1
REMARK minimizedAffinity 19.5705204
REMARK minimizedRMSD -1
REMARK  0 active torsions:
REMARK  status: ('A' for Active; 'I' for Inactive)
ROOT
ATOM      1  C   UNL d   1       5.949  -3.432   4.372  0.00  0.00    -0.002 A 
ATOM      2  C1  UNL d   1       5.998  -3.042   3.041  0.00  0.00     0.010 A 
ATOM      3  C2  UNL d   1       4.829  -2.714   2.352  0.00  0.00     0.041 A 
ATOM      4  C3  UNL d   1       3.596  -2.782   3.031  0.00  0.00    -0.075 A 
ATOM      5  S   UNL d   1       2.036  -2.425   2.392  0.00  0.00     0.015 SA
ATOM      6  C4  UNL d   1       1.266  -2.779   3.870  0.00  0.00     0.022 A 
ATOM      7  C5  UNL d   1       2.163  -3.163   4.839  0.00  0.00     0.026 A 
ATOM      8  C6  UNL d   1       3.521  -3.170   4.372  0.00  0.00    -0.082 A 
ATOM      9  C7  UNL d   1       4.724  -3.498   5.042  0.00  0.00     0.045 A 
ENDROOT
TORSDOF 0
ENDMDL
