MODEL 1
REMARK minimizedAffinity 16.6562042
REMARK minimizedRMSD -1
REMARK  0 active torsions:
REMARK  status: ('A' for Active; 'I' for Inactive)
ROOT
ATOM      1  C   UNL d   1       1.703  -3.436   3.610  0.00  0.00    -0.002 A 
ATOM      2  C1  UNL d   1       0.852  -2.594   4.311  0.00  0.00     0.010 A 
ATOM      3  C2  UNL d   1       0.719  -1.253   3.947  0.00  0.00     0.041 A 
ATOM      4  C3  UNL d   1       1.464  -0.767   2.853  0.00  0.00    -0.075 A 
ATOM      5  S   UNL d   1       1.462   0.838   2.226  0.00  0.00     0.015 SA
ATOM      6  C4  UNL d   1       2.591   0.445   1.011  0.00  0.00     0.022 A 
ATOM      7  C5  UNL d   1       2.971  -0.875   1.069  0.00  0.00     0.026 A 
ATOM      8  C6  UNL d   1       2.327  -1.596   2.131  0.00  0.00    -0.082 A 
ATOM      9  C7  UNL d   1       2.440  -2.950   2.526  0.00  0.00     0.045 A 
ENDROOT
TORSDOF 0
ENDMDL
