MODEL 1
REMARK minimizedAffinity 6.27074003
REMARK minimizedRMSD -1
REMARK  1 active torsions:
REMARK  status: ('A' for Active; 'I' for Inactive)
REMARK    1  A    between atoms: C1_2  and  C2_3 
ROOT
ATOM      1  C2  UNL d   1       3.704   0.298   0.265  0.00  0.00    -0.076 A 
ATOM      2  C3  UNL d   1       4.853   1.074   0.498  0.00  0.00     0.004 A 
ATOM      3  C4  UNL d   1       5.532   1.685  -0.554  0.00  0.00    -0.003 A 
ATOM      4  C5  UNL d   1       5.073   1.531  -1.858  0.00  0.00     0.000 A 
ATOM      5  C6  UNL d   1       3.925   0.779  -2.106  0.00  0.00     0.000 A 
ATOM      6  C7  UNL d   1       3.219   0.170  -1.055  0.00  0.00    -0.073 A 
ATOM      7  C8  UNL d   1       1.991  -0.634  -1.381  0.00  0.00     0.078 C 
ENDROOT
BRANCH   1   8
ATOM      8  C1  UNL d   1       3.025  -0.363   1.443  0.00  0.00     0.053 C 
ATOM      9  C   UNL d   1       4.018  -0.903   2.460  0.00  0.00     0.018 C 
ENDBRANCH   1   8
TORSDOF 1
ENDMDL
