MODEL 1
REMARK minimizedAffinity 6.21437359
REMARK minimizedRMSD -1
REMARK  1 active torsions:
REMARK  status: ('A' for Active; 'I' for Inactive)
REMARK    1  A    between atoms: C1_2  and  C2_3 
ROOT
ATOM      1  C2  UNL d   1       0.731   1.686  -0.338  0.00  0.00    -0.076 A 
ATOM      2  C3  UNL d   1       1.277   2.679   0.495  0.00  0.00     0.004 A 
ATOM      3  C4  UNL d   1       0.525   3.789   0.876  0.00  0.00    -0.003 A 
ATOM      4  C5  UNL d   1      -0.786   3.924   0.431  0.00  0.00     0.000 A 
ATOM      5  C6  UNL d   1      -1.349   2.940  -0.381  0.00  0.00     0.000 A 
ATOM      6  C7  UNL d   1      -0.609   1.807  -0.761  0.00  0.00    -0.073 A 
ATOM      7  C8  UNL d   1      -1.265   0.780  -1.643  0.00  0.00     0.078 C 
ENDROOT
BRANCH   1   8
ATOM      8  C1  UNL d   1       1.604   0.519  -0.740  0.00  0.00     0.053 C 
ATOM      9  C   UNL d   1       2.699   0.232   0.276  0.00  0.00     0.018 C 
ENDBRANCH   1   8
TORSDOF 1
ENDMDL
