MODEL 1
REMARK minimizedAffinity 8.15564156
REMARK minimizedRMSD -1
REMARK  1 active torsions:
REMARK  status: ('A' for Active; 'I' for Inactive)
REMARK    1  A    between atoms: C1_2  and  C2_3 
ROOT
ATOM      1  C2  UNL d   1       0.534   1.067  -0.847  0.00  0.00    -0.076 A 
ATOM      2  C3  UNL d   1       1.606   0.159  -0.792  0.00  0.00     0.004 A 
ATOM      3  C4  UNL d   1       2.721   0.414   0.004  0.00  0.00    -0.003 A 
ATOM      4  C5  UNL d   1       2.783   1.580   0.759  0.00  0.00     0.000 A 
ATOM      5  C6  UNL d   1       1.721   2.484   0.730  0.00  0.00     0.000 A 
ATOM      6  C7  UNL d   1       0.582   2.234  -0.055  0.00  0.00    -0.073 A 
ATOM      7  C8  UNL d   1      -0.532   3.246  -0.053  0.00  0.00     0.078 C 
ENDROOT
BRANCH   1   8
ATOM      8  C1  UNL d   1      -0.638   0.751  -1.749  0.00  0.00     0.053 C 
ATOM      9  C   UNL d   1      -0.951  -0.737  -1.797  0.00  0.00     0.018 C 
ENDBRANCH   1   8
TORSDOF 1
ENDMDL
