MODEL 1
REMARK minimizedAffinity 7.64783907
REMARK minimizedRMSD -1
REMARK  1 active torsions:
REMARK  status: ('A' for Active; 'I' for Inactive)
REMARK    1  A    between atoms: C1_2  and  C2_3 
ROOT
ATOM      1  C2  UNL d   1       4.748   1.411  -1.530  0.00  0.00    -0.076 A 
ATOM      2  C3  UNL d   1       3.718   0.833  -2.293  0.00  0.00     0.004 A 
ATOM      3  C4  UNL d   1       2.553   0.364  -1.688  0.00  0.00    -0.003 A 
ATOM      4  C5  UNL d   1       2.398   0.468  -0.310  0.00  0.00     0.000 A 
ATOM      5  C6  UNL d   1       3.401   1.055   0.460  0.00  0.00     0.000 A 
ATOM      6  C7  UNL d   1       4.575   1.547  -0.136  0.00  0.00    -0.073 A 
ATOM      7  C8  UNL d   1       5.627   2.165   0.744  0.00  0.00     0.078 C 
ENDROOT
BRANCH   1   8
ATOM      8  C1  UNL d   1       6.000   1.877  -2.237  0.00  0.00     0.053 C 
ATOM      9  C   UNL d   1       5.933   3.343  -2.636  0.00  0.00     0.018 C 
ENDBRANCH   1   8
TORSDOF 1
ENDMDL
