MODEL 1
REMARK minimizedAffinity 4.59897232
REMARK minimizedRMSD -1
REMARK  1 active torsions:
REMARK  status: ('A' for Active; 'I' for Inactive)
REMARK    1  A    between atoms: C1_2  and  C2_3 
ROOT
ATOM      1  C2  UNL d   1       4.459   1.488  -0.151  0.00  0.00    -0.076 A 
ATOM      2  C3  UNL d   1       3.511   0.676   0.496  0.00  0.00     0.004 A 
ATOM      3  C4  UNL d   1       2.599  -0.084  -0.233  0.00  0.00    -0.003 A 
ATOM      4  C5  UNL d   1       2.620  -0.045  -1.623  0.00  0.00     0.000 A 
ATOM      5  C6  UNL d   1       3.565   0.740  -2.283  0.00  0.00     0.000 A 
ATOM      6  C7  UNL d   1       4.502   1.500  -1.562  0.00  0.00    -0.073 A 
ATOM      7  C8  UNL d   1       5.495   2.334  -2.325  0.00  0.00     0.078 C 
ENDROOT
BRANCH   1   8
ATOM      8  C1  UNL d   1       5.405   2.311   0.693  0.00  0.00     0.053 C 
ATOM      9  C   UNL d   1       4.685   3.094   1.780  0.00  0.00     0.018 C 
ENDBRANCH   1   8
TORSDOF 1
ENDMDL
