MODEL 1
REMARK minimizedAffinity 16.1454372
REMARK minimizedRMSD -1
REMARK  1 active torsions:
REMARK  status: ('A' for Active; 'I' for Inactive)
REMARK    1  A    between atoms: C1_2  and  C2_3 
ROOT
ATOM      1  C2  UNL d   1       3.757  -0.511   3.625  0.00  0.00    -0.076 A 
ATOM      2  C3  UNL d   1       4.931  -1.283   3.578  0.00  0.00     0.004 A 
ATOM      3  C4  UNL d   1       5.704  -1.483   4.721  0.00  0.00    -0.003 A 
ATOM      4  C5  UNL d   1       5.315  -0.916   5.929  0.00  0.00     0.000 A 
ATOM      5  C6  UNL d   1       4.144  -0.161   5.998  0.00  0.00     0.000 A 
ATOM      6  C7  UNL d   1       3.345   0.037   4.859  0.00  0.00    -0.073 A 
ATOM      7  C8  UNL d   1       2.095   0.865   4.989  0.00  0.00     0.078 C 
ENDROOT
BRANCH   1   8
ATOM      8  C1  UNL d   1       2.974  -0.305   2.348  0.00  0.00     0.053 C 
ATOM      9  C   UNL d   1       3.328   1.000   1.652  0.00  0.00     0.018 C 
ENDBRANCH   1   8
TORSDOF 1
ENDMDL
