MODEL 1
REMARK minimizedAffinity 4.90979433
REMARK minimizedRMSD -1
REMARK  1 active torsions:
REMARK  status: ('A' for Active; 'I' for Inactive)
REMARK    1  A    between atoms: C1_2  and  C2_3 
ROOT
ATOM      1  C2  UNL d   1       3.467   0.592  -2.831  0.00  0.00    -0.076 A 
ATOM      2  C3  UNL d   1       3.438  -0.152  -4.023  0.00  0.00     0.004 A 
ATOM      3  C4  UNL d   1       2.699  -1.330  -4.115  0.00  0.00    -0.003 A 
ATOM      4  C5  UNL d   1       1.978  -1.784  -3.016  0.00  0.00     0.000 A 
ATOM      5  C6  UNL d   1       1.981  -1.049  -1.831  0.00  0.00     0.000 A 
ATOM      6  C7  UNL d   1       2.707   0.150  -1.727  0.00  0.00    -0.073 A 
ATOM      7  C8  UNL d   1       2.681   0.899  -0.422  0.00  0.00     0.078 C 
ENDROOT
BRANCH   1   8
ATOM      8  C1  UNL d   1       4.307   1.849  -2.781  0.00  0.00     0.053 C 
ATOM      9  C   UNL d   1       5.711   1.632  -3.325  0.00  0.00     0.018 C 
ENDBRANCH   1   8
TORSDOF 1
ENDMDL
