MODEL 1
REMARK minimizedAffinity 13.5376291
REMARK minimizedRMSD -1
REMARK  1 active torsions:
REMARK  status: ('A' for Active; 'I' for Inactive)
REMARK    1  A    between atoms: C1_2  and  C2_3 
ROOT
ATOM      1  C2  UNL d   1      -0.811   3.266   0.102  0.00  0.00    -0.076 A 
ATOM      2  C3  UNL d   1       0.277   2.949   0.934  0.00  0.00     0.004 A 
ATOM      3  C4  UNL d   1       0.679   3.813   1.950  0.00  0.00    -0.003 A 
ATOM      4  C5  UNL d   1      -0.002   5.009   2.152  0.00  0.00     0.000 A 
ATOM      5  C6  UNL d   1      -1.094   5.331   1.348  0.00  0.00     0.000 A 
ATOM      6  C7  UNL d   1      -1.522   4.463   0.329  0.00  0.00    -0.073 A 
ATOM      7  C8  UNL d   1      -2.703   4.864  -0.512  0.00  0.00     0.078 C 
ENDROOT
BRANCH   1   8
ATOM      8  C1  UNL d   1      -1.183   2.302  -1.002  0.00  0.00     0.053 C 
ATOM      9  C   UNL d   1      -1.651   0.957  -0.467  0.00  0.00     0.018 C 
ENDBRANCH   1   8
TORSDOF 1
ENDMDL
