MODEL 1
REMARK minimizedAffinity -4.16967392
REMARK minimizedRMSD -1
REMARK  0 active torsions:
REMARK  status: ('A' for Active; 'I' for Inactive)
ROOT
ATOM      1  C   UNL d   1      -0.565  -1.865   3.229  0.00  0.00     0.077 C 
ATOM      2  C1  UNL d   1       0.149  -1.396   1.996  0.00  0.00    -0.074 A 
ATOM      3  C2  UNL d   1       1.386  -1.937   1.632  0.00  0.00    -0.005 A 
ATOM      4  C3  UNL d   1       2.033  -1.497   0.477  0.00  0.00     0.006 A 
ATOM      5  C4  UNL d   1       1.451  -0.513  -0.323  0.00  0.00    -0.005 A 
ATOM      6  C5  UNL d   1       0.214   0.039   0.025  0.00  0.00    -0.074 A 
ATOM      7  C6  UNL d   1      -0.430   1.090  -0.830  0.00  0.00     0.077 C 
ATOM      8  C7  UNL d   1      -0.433  -0.413   1.183  0.00  0.00    -0.001 A 
ENDROOT
TORSDOF 0
ENDMDL
