MODEL 1
REMARK minimizedAffinity -0.790517867
REMARK minimizedRMSD -1
REMARK  0 active torsions:
REMARK  status: ('A' for Active; 'I' for Inactive)
ROOT
ATOM      1  C   UNL d   1       2.565  -1.824   0.714  0.00  0.00     0.077 C 
ATOM      2  C1  UNL d   1       1.275  -1.059   0.716  0.00  0.00    -0.074 A 
ATOM      3  C2  UNL d   1       0.328  -1.249   1.728  0.00  0.00    -0.005 A 
ATOM      4  C3  UNL d   1      -0.863  -0.523   1.722  0.00  0.00     0.006 A 
ATOM      5  C4  UNL d   1      -1.119   0.398   0.706  0.00  0.00    -0.005 A 
ATOM      6  C5  UNL d   1      -0.184   0.602  -0.314  0.00  0.00    -0.074 A 
ATOM      7  C6  UNL d   1      -0.439   1.595  -1.408  0.00  0.00     0.077 C 
ATOM      8  C7  UNL d   1       1.014  -0.126  -0.297  0.00  0.00    -0.001 A 
ENDROOT
TORSDOF 0
ENDMDL
