MODEL 1
REMARK minimizedAffinity -2.82788038
REMARK minimizedRMSD -1
REMARK  0 active torsions:
REMARK  status: ('A' for Active; 'I' for Inactive)
ROOT
ATOM      1  C   UNL d   1      -1.585  -0.725   2.120  0.00  0.00     0.077 C 
ATOM      2  C1  UNL d   1      -1.084  -0.074   0.866  0.00  0.00    -0.074 A 
ATOM      3  C2  UNL d   1      -1.968   0.309  -0.148  0.00  0.00    -0.005 A 
ATOM      4  C3  UNL d   1      -1.488   0.922  -1.305  0.00  0.00     0.006 A 
ATOM      5  C4  UNL d   1      -0.121   1.159  -1.460  0.00  0.00    -0.005 A 
ATOM      6  C5  UNL d   1       0.778   0.784  -0.456  0.00  0.00    -0.074 A 
ATOM      7  C6  UNL d   1       2.248   1.040  -0.602  0.00  0.00     0.077 C 
ATOM      8  C7  UNL d   1       0.287   0.174   0.707  0.00  0.00    -0.001 A 
ENDROOT
TORSDOF 0
ENDMDL
