MODEL 1
REMARK minimizedAffinity -4.92383385
REMARK minimizedRMSD -1
REMARK  0 active torsions:
REMARK  status: ('A' for Active; 'I' for Inactive)
ROOT
ATOM      1  C   UNL d   1      -1.549   1.561  -2.380  0.00  0.00     0.077 C 
ATOM      2  C1  UNL d   1      -1.138   0.862  -1.119  0.00  0.00    -0.074 A 
ATOM      3  C2  UNL d   1      -1.930   0.930   0.032  0.00  0.00    -0.005 A 
ATOM      4  C3  UNL d   1      -1.540   0.267   1.195  0.00  0.00     0.006 A 
ATOM      5  C4  UNL d   1      -0.356  -0.471   1.219  0.00  0.00    -0.005 A 
ATOM      6  C5  UNL d   1       0.449  -0.552   0.078  0.00  0.00    -0.074 A 
ATOM      7  C6  UNL d   1       1.720  -1.348   0.084  0.00  0.00     0.077 C 
ATOM      8  C7  UNL d   1       0.046   0.112  -1.089  0.00  0.00    -0.001 A 
ENDROOT
TORSDOF 0
ENDMDL
