MODEL 1
REMARK minimizedAffinity -5.19137669
REMARK minimizedRMSD -1
REMARK  0 active torsions:
REMARK  status: ('A' for Active; 'I' for Inactive)
ROOT
ATOM      1  C   UNL d   1       2.704  -1.135   0.388  0.00  0.00     0.077 C 
ATOM      2  C1  UNL d   1       1.260  -0.799   0.157  0.00  0.00    -0.074 A 
ATOM      3  C2  UNL d   1       0.750  -0.677  -1.140  0.00  0.00    -0.005 A 
ATOM      4  C3  UNL d   1      -0.597  -0.373  -1.339  0.00  0.00     0.006 A 
ATOM      5  C4  UNL d   1      -1.445  -0.188  -0.247  0.00  0.00    -0.005 A 
ATOM      6  C5  UNL d   1      -0.952  -0.307   1.057  0.00  0.00    -0.074 A 
ATOM      7  C6  UNL d   1      -1.852  -0.121   2.242  0.00  0.00     0.077 C 
ATOM      8  C7  UNL d   1       0.400  -0.619   1.249  0.00  0.00    -0.001 A 
ENDROOT
TORSDOF 0
ENDMDL
