MODEL 1
REMARK minimizedAffinity -1.97609365
REMARK minimizedRMSD -1
REMARK  0 active torsions:
REMARK  status: ('A' for Active; 'I' for Inactive)
ROOT
ATOM      1  C   UNL d   1       2.424  -0.761  -0.205  0.00  0.00     0.077 C 
ATOM      2  C1  UNL d   1       1.027  -0.215  -0.190  0.00  0.00    -0.074 A 
ATOM      3  C2  UNL d   1       0.314  -0.098   1.008  0.00  0.00    -0.005 A 
ATOM      4  C3  UNL d   1      -0.980   0.421   1.008  0.00  0.00     0.006 A 
ATOM      5  C4  UNL d   1      -1.575   0.827  -0.188  0.00  0.00    -0.005 A 
ATOM      6  C5  UNL d   1      -0.878   0.718  -1.395  0.00  0.00    -0.074 A 
ATOM      7  C6  UNL d   1      -1.498   1.158  -2.687  0.00  0.00     0.077 C 
ATOM      8  C7  UNL d   1       0.426   0.202  -1.386  0.00  0.00    -0.001 A 
ENDROOT
TORSDOF 0
ENDMDL
