MODEL 1
REMARK minimizedAffinity -5.44141865
REMARK minimizedRMSD -1
REMARK  0 active torsions:
REMARK  status: ('A' for Active; 'I' for Inactive)
ROOT
ATOM      1  C   UNL d   1      -1.123   2.275  -2.236  0.00  0.00     0.077 C 
ATOM      2  C1  UNL d   1      -1.082   1.110  -1.293  0.00  0.00    -0.074 A 
ATOM      3  C2  UNL d   1      -2.222   0.717  -0.585  0.00  0.00    -0.005 A 
ATOM      4  C3  UNL d   1      -2.170  -0.375   0.281  0.00  0.00     0.006 A 
ATOM      5  C4  UNL d   1      -0.980  -1.083   0.449  0.00  0.00    -0.005 A 
ATOM      6  C5  UNL d   1       0.171  -0.705  -0.250  0.00  0.00    -0.074 A 
ATOM      7  C6  UNL d   1       1.456  -1.461  -0.089  0.00  0.00     0.077 C 
ATOM      8  C7  UNL d   1       0.109   0.389  -1.125  0.00  0.00    -0.001 A 
ENDROOT
TORSDOF 0
ENDMDL
