MODEL 1
REMARK minimizedAffinity -3.57702279
REMARK minimizedRMSD -1
REMARK  0 active torsions:
REMARK  status: ('A' for Active; 'I' for Inactive)
ROOT
ATOM      1  C   UNL d   1       1.622  -3.090   2.352  0.00  0.00     0.077 C 
ATOM      2  C1  UNL d   1       1.148  -1.835   1.681  0.00  0.00    -0.074 A 
ATOM      3  C2  UNL d   1       1.956  -1.164   0.757  0.00  0.00    -0.005 A 
ATOM      4  C3  UNL d   1       1.498  -0.004   0.134  0.00  0.00     0.006 A 
ATOM      5  C4  UNL d   1       0.229   0.497   0.427  0.00  0.00    -0.005 A 
ATOM      6  C5  UNL d   1      -0.594  -0.161   1.347  0.00  0.00    -0.074 A 
ATOM      7  C6  UNL d   1      -1.964   0.359   1.666  0.00  0.00     0.077 C 
ATOM      8  C7  UNL d   1      -0.129  -1.330   1.964  0.00  0.00    -0.001 A 
ENDROOT
TORSDOF 0
ENDMDL
