MODEL 1
REMARK minimizedAffinity 3.52887869
REMARK minimizedRMSD -1
REMARK  0 active torsions:
REMARK  status: ('A' for Active; 'I' for Inactive)
ROOT
ATOM      1  C   UNL d   1       2.982  -1.717   1.309  0.00  0.00     0.077 C 
ATOM      2  C1  UNL d   1       2.482  -0.496   0.596  0.00  0.00    -0.074 A 
ATOM      3  C2  UNL d   1       1.146  -0.099   0.702  0.00  0.00    -0.005 A 
ATOM      4  C3  UNL d   1       0.697   1.045   0.041  0.00  0.00     0.006 A 
ATOM      5  C4  UNL d   1       1.580   1.802  -0.731  0.00  0.00    -0.005 A 
ATOM      6  C5  UNL d   1       2.920   1.421  -0.848  0.00  0.00    -0.074 A 
ATOM      7  C6  UNL d   1       3.884   2.228  -1.665  0.00  0.00     0.077 C 
ATOM      8  C7  UNL d   1       3.365   0.274  -0.175  0.00  0.00    -0.001 A 
ENDROOT
TORSDOF 0
ENDMDL
