MODEL 1
REMARK minimizedAffinity 6.16056776
REMARK minimizedRMSD -1
REMARK  0 active torsions:
REMARK  status: ('A' for Active; 'I' for Inactive)
ROOT
ATOM      1  C   UNL d   1      -4.069  -4.499   1.491  0.00  0.00     0.077 C 
ATOM      2  C1  UNL d   1      -4.414  -4.993   0.117  0.00  0.00    -0.074 A 
ATOM      3  C2  UNL d   1      -5.668  -5.553  -0.151  0.00  0.00    -0.005 A 
ATOM      4  C3  UNL d   1      -5.978  -6.000  -1.435  0.00  0.00     0.006 A 
ATOM      5  C4  UNL d   1      -5.040  -5.891  -2.463  0.00  0.00    -0.005 A 
ATOM      6  C5  UNL d   1      -3.782  -5.333  -2.214  0.00  0.00    -0.074 A 
ATOM      7  C6  UNL d   1      -2.766  -5.200  -3.309  0.00  0.00     0.077 C 
ATOM      8  C7  UNL d   1      -3.480  -4.880  -0.922  0.00  0.00    -0.001 A 
ENDROOT
TORSDOF 0
ENDMDL
