MODEL 1
REMARK minimizedAffinity 2.48848176
REMARK minimizedRMSD -1
REMARK  0 active torsions:
REMARK  status: ('A' for Active; 'I' for Inactive)
ROOT
ATOM      1  C   UNL d   1      -1.046  -0.366   2.432  0.00  0.00     0.077 C 
ATOM      2  C1  UNL d   1       0.290  -0.551   1.776  0.00  0.00    -0.074 A 
ATOM      3  C2  UNL d   1       1.319  -1.244   2.423  0.00  0.00    -0.005 A 
ATOM      4  C3  UNL d   1       2.553  -1.416   1.796  0.00  0.00     0.006 A 
ATOM      5  C4  UNL d   1       2.771  -0.898   0.519  0.00  0.00    -0.005 A 
ATOM      6  C5  UNL d   1       1.754  -0.204  -0.144  0.00  0.00    -0.074 A 
ATOM      7  C6  UNL d   1       1.968   0.351  -1.521  0.00  0.00     0.077 C 
ATOM      8  C7  UNL d   1       0.514  -0.041   0.490  0.00  0.00    -0.001 A 
ENDROOT
TORSDOF 0
ENDMDL
