MODEL 1
REMARK minimizedAffinity 6.40912533
REMARK minimizedRMSD -1
REMARK  0 active torsions:
REMARK  status: ('A' for Active; 'I' for Inactive)
ROOT
ATOM      1  C   UNL d   1      -1.906  -4.501  -0.366  0.00  0.00     0.077 C 
ATOM      2  C1  UNL d   1      -1.465  -3.199   0.234  0.00  0.00    -0.074 A 
ATOM      3  C2  UNL d   1      -2.201  -2.595   1.259  0.00  0.00    -0.005 A 
ATOM      4  C3  UNL d   1      -1.774  -1.388   1.814  0.00  0.00     0.006 A 
ATOM      5  C4  UNL d   1      -0.610  -0.775   1.351  0.00  0.00    -0.005 A 
ATOM      6  C5  UNL d   1       0.140  -1.365   0.328  0.00  0.00    -0.074 A 
ATOM      7  C6  UNL d   1       1.399  -0.725  -0.174  0.00  0.00     0.077 C 
ATOM      8  C7  UNL d   1      -0.292  -2.581  -0.220  0.00  0.00    -0.001 A 
ENDROOT
TORSDOF 0
ENDMDL
