MODEL 1
REMARK minimizedAffinity 1.75355995
REMARK minimizedRMSD -1
REMARK  0 active torsions:
REMARK  status: ('A' for Active; 'I' for Inactive)
ROOT
ATOM      1  C   UNL d   1      -2.533  -3.747   1.039  0.00  0.00     0.077 C 
ATOM      2  C1  UNL d   1      -2.042  -2.331   0.981  0.00  0.00    -0.074 A 
ATOM      3  C2  UNL d   1      -2.740  -1.301   1.620  0.00  0.00    -0.005 A 
ATOM      4  C3  UNL d   1      -2.266   0.010   1.565  0.00  0.00     0.006 A 
ATOM      5  C4  UNL d   1      -1.090   0.303   0.874  0.00  0.00    -0.005 A 
ATOM      6  C5  UNL d   1      -0.378  -0.713   0.230  0.00  0.00    -0.074 A 
ATOM      7  C6  UNL d   1       0.893  -0.417  -0.509  0.00  0.00     0.077 C 
ATOM      8  C7  UNL d   1      -0.857  -2.029   0.295  0.00  0.00    -0.001 A 
ENDROOT
TORSDOF 0
ENDMDL
