MODEL 1
REMARK minimizedAffinity -2.43310189
REMARK minimizedRMSD -1
REMARK  0 active torsions:
REMARK  status: ('A' for Active; 'I' for Inactive)
ROOT
ATOM      1  C   UNL d   1       2.042  -2.632   1.532  0.00  0.00     0.077 C 
ATOM      2  C1  UNL d   1       1.721  -1.322   0.877  0.00  0.00    -0.074 A 
ATOM      3  C2  UNL d   1       0.546  -0.631   1.189  0.00  0.00    -0.005 A 
ATOM      4  C3  UNL d   1       0.266   0.592   0.578  0.00  0.00     0.006 A 
ATOM      5  C4  UNL d   1       1.156   1.135  -0.349  0.00  0.00    -0.005 A 
ATOM      6  C5  UNL d   1       2.337   0.458  -0.673  0.00  0.00    -0.074 A 
ATOM      7  C6  UNL d   1       3.309   1.032  -1.660  0.00  0.00     0.077 C 
ATOM      8  C7  UNL d   1       2.615  -0.766  -0.050  0.00  0.00    -0.001 A 
ENDROOT
TORSDOF 0
ENDMDL
