MODEL 1
REMARK minimizedAffinity -6.11447811
REMARK minimizedRMSD -1
REMARK  0 active torsions:
REMARK  status: ('A' for Active; 'I' for Inactive)
ROOT
ATOM      1  C   UNL d   1       1.574  -3.042   0.586  0.00  0.00     0.077 C 
ATOM      2  C1  UNL d   1       0.576  -2.066   1.136  0.00  0.00    -0.074 A 
ATOM      3  C2  UNL d   1       0.152  -2.144   2.467  0.00  0.00    -0.005 A 
ATOM      4  C3  UNL d   1      -0.769  -1.224   2.966  0.00  0.00     0.006 A 
ATOM      5  C4  UNL d   1      -1.276  -0.219   2.142  0.00  0.00    -0.005 A 
ATOM      6  C5  UNL d   1      -0.864  -0.125   0.809  0.00  0.00    -0.074 A 
ATOM      7  C6  UNL d   1      -1.391   0.956  -0.088  0.00  0.00     0.077 C 
ATOM      8  C7  UNL d   1       0.068  -1.049   0.316  0.00  0.00    -0.001 A 
ENDROOT
TORSDOF 0
ENDMDL
