MODEL 1
REMARK minimizedAffinity -0.179742634
REMARK minimizedRMSD -1
REMARK  0 active torsions:
REMARK  status: ('A' for Active; 'I' for Inactive)
ROOT
ATOM      1  C   UNL d   1       2.524  -1.483   1.126  0.00  0.00     0.077 C 
ATOM      2  C1  UNL d   1       1.390  -0.520   0.938  0.00  0.00    -0.074 A 
ATOM      3  C2  UNL d   1       1.453   0.484  -0.033  0.00  0.00    -0.005 A 
ATOM      4  C3  UNL d   1       0.386   1.367  -0.203  0.00  0.00     0.006 A 
ATOM      5  C4  UNL d   1      -0.752   1.255   0.597  0.00  0.00    -0.005 A 
ATOM      6  C5  UNL d   1      -0.833   0.257   1.573  0.00  0.00    -0.074 A 
ATOM      7  C6  UNL d   1      -2.054   0.116   2.433  0.00  0.00     0.077 C 
ATOM      8  C7  UNL d   1       0.240  -0.631   1.732  0.00  0.00    -0.001 A 
ENDROOT
TORSDOF 0
ENDMDL
