MODEL 1
REMARK minimizedAffinity -2.20617533
REMARK minimizedRMSD -1
REMARK  0 active torsions:
REMARK  status: ('A' for Active; 'I' for Inactive)
ROOT
ATOM      1  C   UNL d   1      -1.660  -1.089   2.840  0.00  0.00     0.077 C 
ATOM      2  C1  UNL d   1      -0.944  -0.413   1.709  0.00  0.00    -0.074 A 
ATOM      3  C2  UNL d   1      -1.550   0.622   0.989  0.00  0.00    -0.005 A 
ATOM      4  C3  UNL d   1      -0.868   1.247  -0.054  0.00  0.00     0.006 A 
ATOM      5  C4  UNL d   1       0.426   0.846  -0.388  0.00  0.00    -0.005 A 
ATOM      6  C5  UNL d   1       1.049  -0.187   0.321  0.00  0.00    -0.074 A 
ATOM      7  C6  UNL d   1       2.443  -0.624  -0.019  0.00  0.00     0.077 C 
ATOM      8  C7  UNL d   1       0.359  -0.805   1.372  0.00  0.00    -0.001 A 
ENDROOT
TORSDOF 0
ENDMDL
