MODEL 1
REMARK minimizedAffinity -5.09830809
REMARK minimizedRMSD -1
REMARK  2 active torsions:
REMARK  status: ('A' for Active; 'I' for Inactive)
REMARK    1  A    between atoms: C2'_3  and  C1'_4 
REMARK    2  A    between atoms: C1'_4  and  C1_5 
ROOT
ATOM      1  C1  I4B d   1       3.091   4.736   4.409  0.00  0.00    -0.075 A 
ATOM      2  C2  I4B d   1       3.442   3.674   3.613  0.00  0.00     0.003 A 
ATOM      3  C3  I4B d   1       4.580   3.758   2.774  0.00  0.00     0.002 A 
ATOM      4  C4  I4B d   1       5.304   4.933   2.726  0.00  0.00    -0.004 A 
ATOM      5  C5  I4B d   1       4.959   6.000   3.551  0.00  0.00     0.002 A 
ATOM      6  C6  I4B d   1       3.853   5.897   4.407  0.00  0.00     0.003 A 
ENDROOT
BRANCH   1   7
ATOM      7  C1' I4B d   1       1.864   4.625   5.258  0.00  0.00     0.060 C 
BRANCH   7   8
ATOM      8  C2' I4B d   1       0.970   5.807   4.943  0.00  0.00    -0.013 C 
ATOM      9  C4' I4B d   1       0.363   5.682   3.570  0.00  0.00     0.013 C 
ATOM     10  C3' I4B d   1      -0.091   5.879   6.000  0.00  0.00     0.013 C 
ENDBRANCH   7   8
ENDBRANCH   1   7
TORSDOF 2
ENDMDL
