MODEL 1
REMARK minimizedAffinity 1.61175072
REMARK minimizedRMSD -1
REMARK  2 active torsions:
REMARK  status: ('A' for Active; 'I' for Inactive)
REMARK    1  A    between atoms: C2'_3  and  C1'_4 
REMARK    2  A    between atoms: C1'_4  and  C1_5 
ROOT
ATOM      1  C1  I4B d   1       2.835   4.921   4.821  0.00  0.00    -0.075 A 
ATOM      2  C2  I4B d   1       2.311   5.434   3.661  0.00  0.00     0.003 A 
ATOM      3  C3  I4B d   1       1.012   5.999   3.654  0.00  0.00     0.002 A 
ATOM      4  C4  I4B d   1       0.259   5.986   4.810  0.00  0.00    -0.004 A 
ATOM      5  C5  I4B d   1       0.801   5.486   5.991  0.00  0.00     0.002 A 
ATOM      6  C6  I4B d   1       2.102   4.962   6.000  0.00  0.00     0.003 A 
ENDROOT
BRANCH   1   7
ATOM      7  C1' I4B d   1       4.196   4.302   4.785  0.00  0.00     0.060 C 
BRANCH   7   8
ATOM      8  C2' I4B d   1       4.129   3.078   3.893  0.00  0.00    -0.013 C 
ATOM      9  C4' I4B d   1       4.222   3.458   2.439  0.00  0.00     0.013 C 
ATOM     10  C3' I4B d   1       5.246   2.158   4.286  0.00  0.00     0.013 C 
ENDBRANCH   7   8
ENDBRANCH   1   7
TORSDOF 2
ENDMDL
