MODEL 1
REMARK minimizedAffinity 6.38596821
REMARK minimizedRMSD -1
REMARK  2 active torsions:
REMARK  status: ('A' for Active; 'I' for Inactive)
REMARK    1  A    between atoms: C2'_3  and  C1'_4 
REMARK    2  A    between atoms: C1'_4  and  C1_5 
ROOT
ATOM      1  C1  I4B d   1       3.407   3.321   3.296  0.00  0.00    -0.075 A 
ATOM      2  C2  I4B d   1       3.484   2.238   4.135  0.00  0.00     0.003 A 
ATOM      3  C3  I4B d   1       3.140   2.369   5.502  0.00  0.00     0.002 A 
ATOM      4  C4  I4B d   1       2.776   3.606   5.996  0.00  0.00    -0.004 A 
ATOM      5  C5  I4B d   1       2.677   4.698   5.139  0.00  0.00     0.002 A 
ATOM      6  C6  I4B d   1       2.983   4.553   3.778  0.00  0.00     0.003 A 
ENDROOT
BRANCH   1   7
ATOM      7  C1' I4B d   1       3.809   3.154   1.865  0.00  0.00     0.060 C 
BRANCH   7   8
ATOM      8  C2' I4B d   1       4.533   1.830   1.735  0.00  0.00    -0.013 C 
ATOM      9  C4' I4B d   1       3.919   0.976   0.657  0.00  0.00     0.013 C 
ATOM     10  C3' I4B d   1       5.976   2.117   1.442  0.00  0.00     0.013 C 
ENDBRANCH   7   8
ENDBRANCH   1   7
TORSDOF 2
ENDMDL
