MODEL 1
REMARK minimizedAffinity 3.37613273
REMARK minimizedRMSD -1
REMARK  2 active torsions:
REMARK  status: ('A' for Active; 'I' for Inactive)
REMARK    1  A    between atoms: C2'_3  and  C1'_4 
REMARK    2  A    between atoms: C1'_4  and  C1_5 
ROOT
ATOM      1  C1  I4B d   1       3.029   1.121   1.091  0.00  0.00    -0.075 A 
ATOM      2  C2  I4B d   1       3.701   0.043   1.612  0.00  0.00     0.003 A 
ATOM      3  C3  I4B d   1       3.722  -1.189   0.915  0.00  0.00     0.002 A 
ATOM      4  C4  I4B d   1       3.021  -1.313  -0.267  0.00  0.00    -0.004 A 
ATOM      5  C5  I4B d   1       2.360  -0.213  -0.806  0.00  0.00     0.002 A 
ATOM      6  C6  I4B d   1       2.374   1.015  -0.129  0.00  0.00     0.003 A 
ENDROOT
BRANCH   1   7
ATOM      7  C1' I4B d   1       3.000   2.397   1.869  0.00  0.00     0.060 C 
BRANCH   7   8
ATOM      8  C2' I4B d   1       4.092   2.330   2.918  0.00  0.00    -0.013 C 
ATOM      9  C4' I4B d   1       5.366   2.957   2.418  0.00  0.00     0.013 C 
ATOM     10  C3' I4B d   1       3.593   3.024   4.150  0.00  0.00     0.013 C 
ENDBRANCH   7   8
ENDBRANCH   1   7
TORSDOF 2
ENDMDL
