MODEL 1
REMARK minimizedAffinity -4.92122889
REMARK minimizedRMSD -1
REMARK  2 active torsions:
REMARK  status: ('A' for Active; 'I' for Inactive)
REMARK    1  A    between atoms: C2'_3  and  C1'_4 
REMARK    2  A    between atoms: C1'_4  and  C1_5 
ROOT
ATOM      1  C1  I4B d   1       2.069   4.823   4.830  0.00  0.00    -0.075 A 
ATOM      2  C2  I4B d   1       1.657   5.223   3.583  0.00  0.00     0.003 A 
ATOM      3  C3  I4B d   1       0.379   5.807   3.408  0.00  0.00     0.002 A 
ATOM      4  C4  I4B d   1      -0.468   5.926   4.491  0.00  0.00    -0.004 A 
ATOM      5  C5  I4B d   1      -0.039   5.542   5.759  0.00  0.00     0.002 A 
ATOM      6  C6  I4B d   1       1.242   4.998   5.932  0.00  0.00     0.003 A 
ENDROOT
BRANCH   1   7
ATOM      7  C1' I4B d   1       3.412   4.180   4.973  0.00  0.00     0.060 C 
BRANCH   7   8
ATOM      8  C2' I4B d   1       3.203   2.778   5.508  0.00  0.00    -0.013 C 
ATOM      9  C4' I4B d   1       2.629   1.871   4.452  0.00  0.00     0.013 C 
ATOM     10  C3' I4B d   1       4.525   2.268   6.000  0.00  0.00     0.013 C 
ENDBRANCH   7   8
ENDBRANCH   1   7
TORSDOF 2
ENDMDL
