MODEL 1
REMARK minimizedAffinity 7.55700541
REMARK minimizedRMSD -1
REMARK  2 active torsions:
REMARK  status: ('A' for Active; 'I' for Inactive)
REMARK    1  A    between atoms: C2'_3  and  C1'_4 
REMARK    2  A    between atoms: C1'_4  and  C1_5 
ROOT
ATOM      1  C1  I4B d   1       1.827  -1.707  -0.859  0.00  0.00    -0.075 A 
ATOM      2  C2  I4B d   1       1.541  -2.827  -0.120  0.00  0.00     0.003 A 
ATOM      3  C3  I4B d   1       0.412  -3.621  -0.437  0.00  0.00     0.002 A 
ATOM      4  C4  I4B d   1      -0.425  -3.233  -1.463  0.00  0.00    -0.004 A 
ATOM      5  C5  I4B d   1      -0.121  -2.109  -2.226  0.00  0.00     0.002 A 
ATOM      6  C6  I4B d   1       1.020  -1.348  -1.930  0.00  0.00     0.003 A 
ENDROOT
BRANCH   1   7
ATOM      7  C1' I4B d   1       3.009  -0.873  -0.476  0.00  0.00     0.060 C 
BRANCH   7   8
ATOM      8  C2' I4B d   1       2.824   0.504  -1.080  0.00  0.00    -0.013 C 
ATOM      9  C4' I4B d   1       2.024   1.397  -0.169  0.00  0.00     0.013 C 
ATOM     10  C3' I4B d   1       4.183   1.079  -1.345  0.00  0.00     0.013 C 
ENDBRANCH   7   8
ENDBRANCH   1   7
TORSDOF 2
ENDMDL
