MODEL 1
REMARK minimizedAffinity -1.69116449
REMARK minimizedRMSD -1
REMARK  0 active torsions:
REMARK  status: ('A' for Active; 'I' for Inactive)
ROOT
ATOM      1  C   UNL d   1      -2.831  -2.887  -1.270  0.00  0.00    -0.002 A 
ATOM      2  C1  UNL d   1      -1.868  -3.208  -2.217  0.00  0.00     0.010 A 
ATOM      3  C2  UNL d   1      -0.669  -2.496  -2.281  0.00  0.00     0.041 A 
ATOM      4  C3  UNL d   1      -0.450  -1.446  -1.368  0.00  0.00    -0.075 A 
ATOM      5  S   UNL d   1       0.943  -0.437  -1.259  0.00  0.00     0.015 SA
ATOM      6  C4  UNL d   1       0.295   0.444   0.048  0.00  0.00     0.022 A 
ATOM      7  C5  UNL d   1      -0.954  -0.007   0.405  0.00  0.00     0.026 A 
ATOM      8  C6  UNL d   1      -1.404  -1.104  -0.405  0.00  0.00    -0.082 A 
ATOM      9  C7  UNL d   1      -2.610  -1.845  -0.366  0.00  0.00     0.045 A 
ENDROOT
TORSDOF 0
ENDMDL
