MODEL 1
REMARK minimizedAffinity -1.53114581
REMARK minimizedRMSD -1
REMARK  0 active torsions:
REMARK  status: ('A' for Active; 'I' for Inactive)
ROOT
ATOM      1  C   UNL d   1      -1.134   1.394   2.753  0.00  0.00    -0.002 A 
ATOM      2  C1  UNL d   1      -2.216   0.540   2.910  0.00  0.00     0.010 A 
ATOM      3  C2  UNL d   1      -2.496  -0.437   1.952  0.00  0.00     0.041 A 
ATOM      4  C3  UNL d   1      -1.659  -0.542   0.823  0.00  0.00    -0.075 A 
ATOM      5  S   UNL d   1      -1.807  -1.662  -0.479  0.00  0.00     0.015 SA
ATOM      6  C4  UNL d   1      -0.437  -1.034  -1.274  0.00  0.00     0.022 A 
ATOM      7  C5  UNL d   1       0.132   0.005  -0.577  0.00  0.00     0.026 A 
ATOM      8  C6  UNL d   1      -0.563   0.306   0.643  0.00  0.00    -0.082 A 
ATOM      9  C7  UNL d   1      -0.307   1.286   1.632  0.00  0.00     0.045 A 
ENDROOT
TORSDOF 0
ENDMDL
