MODEL 1
REMARK minimizedAffinity 1.39273322
REMARK minimizedRMSD -1
REMARK  0 active torsions:
REMARK  status: ('A' for Active; 'I' for Inactive)
ROOT
ATOM      1  C   UNL d   1      -2.790  -1.532  -0.905  0.00  0.00    -0.002 A 
ATOM      2  C1  UNL d   1      -1.847  -2.339  -1.526  0.00  0.00     0.010 A 
ATOM      3  C2  UNL d   1      -0.490  -2.206  -1.224  0.00  0.00     0.041 A 
ATOM      4  C3  UNL d   1      -0.093  -1.242  -0.277  0.00  0.00    -0.075 A 
ATOM      5  S   UNL d   1       1.512  -0.903   0.252  0.00  0.00     0.015 SA
ATOM      6  C4  UNL d   1       0.984   0.319   1.315  0.00  0.00     0.022 A 
ATOM      7  C5  UNL d   1      -0.381   0.478   1.281  0.00  0.00     0.026 A 
ATOM      8  C6  UNL d   1      -1.025  -0.419   0.363  0.00  0.00    -0.082 A 
ATOM      9  C7  UNL d   1      -2.393  -0.577   0.035  0.00  0.00     0.045 A 
ENDROOT
TORSDOF 0
ENDMDL
