MODEL 1
REMARK minimizedAffinity 5.44025278
REMARK minimizedRMSD -1
REMARK  2 active torsions:
REMARK  status: ('A' for Active; 'I' for Inactive)
REMARK    1  A    between atoms: C1_2  and  C2_3 
REMARK    2  A    between atoms: C2_3  and  C3_4 
ROOT
ATOM      1  C3  UNL d   1       3.823  -3.622  -4.182  0.00  0.00    -0.075 A 
ATOM      2  C4  UNL d   1       5.095  -3.041  -4.081  0.00  0.00     0.002 A 
ATOM      3  C5  UNL d   1       5.998  -3.474  -3.110  0.00  0.00     0.002 A 
ATOM      4  C6  UNL d   1       5.638  -4.486  -2.222  0.00  0.00    -0.004 A 
ATOM      5  C7  UNL d   1       4.371  -5.059  -2.302  0.00  0.00     0.002 A 
ATOM      6  C8  UNL d   1       3.467  -4.630  -3.276  0.00  0.00     0.002 A 
ENDROOT
BRANCH   1   7
ATOM      7  C2  UNL d   1       2.852  -3.178  -5.249  0.00  0.00     0.056 C 
BRANCH   7   8
ATOM      8  C1  UNL d   1       2.666  -1.659  -5.329  0.00  0.00     0.007 C 
ATOM      9  C   UNL d   1       1.279  -1.201  -4.898  0.00  0.00     0.009 C 
ENDBRANCH   7   8
ENDBRANCH   1   7
TORSDOF 2
ENDMDL
