MODEL 1
REMARK minimizedAffinity 2.13904142
REMARK minimizedRMSD -1
REMARK  2 active torsions:
REMARK  status: ('A' for Active; 'I' for Inactive)
REMARK    1  A    between atoms: C1_2  and  C2_3 
REMARK    2  A    between atoms: C2_3  and  C3_4 
ROOT
ATOM      1  C3  UNL d   1      -1.616   1.814   1.857  0.00  0.00    -0.075 A 
ATOM      2  C4  UNL d   1      -0.905   2.489   2.860  0.00  0.00     0.002 A 
ATOM      3  C5  UNL d   1       0.066   1.824   3.609  0.00  0.00     0.002 A 
ATOM      4  C6  UNL d   1       0.330   0.477   3.375  0.00  0.00    -0.004 A 
ATOM      5  C7  UNL d   1      -0.383  -0.208   2.393  0.00  0.00     0.002 A 
ATOM      6  C8  UNL d   1      -1.351   0.456   1.638  0.00  0.00     0.002 A 
ENDROOT
BRANCH   1   7
ATOM      7  C2  UNL d   1      -2.647   2.535   1.022  0.00  0.00     0.056 C 
BRANCH   7   8
ATOM      8  C1  UNL d   1      -2.544   2.251  -0.480  0.00  0.00     0.007 C 
ATOM      9  C   UNL d   1      -1.111   2.259  -0.995  0.00  0.00     0.009 C 
ENDBRANCH   7   8
ENDBRANCH   1   7
TORSDOF 2
ENDMDL
