MODEL 1
REMARK minimizedAffinity 7.62472057
REMARK minimizedRMSD -1
REMARK  2 active torsions:
REMARK  status: ('A' for Active; 'I' for Inactive)
REMARK    1  A    between atoms: C1_2  and  C2_3 
REMARK    2  A    between atoms: C2_3  and  C3_4 
ROOT
ATOM      1  C3  UNL d   1      -2.007  -1.539   3.444  0.00  0.00    -0.075 A 
ATOM      2  C4  UNL d   1      -2.787  -2.227   4.384  0.00  0.00     0.002 A 
ATOM      3  C5  UNL d   1      -2.303  -3.383   4.997  0.00  0.00     0.002 A 
ATOM      4  C6  UNL d   1      -1.040  -3.871   4.672  0.00  0.00    -0.004 A 
ATOM      5  C7  UNL d   1      -0.262  -3.205   3.727  0.00  0.00     0.002 A 
ATOM      6  C8  UNL d   1      -0.742  -2.046   3.115  0.00  0.00     0.002 A 
ENDROOT
BRANCH   1   7
ATOM      7  C2  UNL d   1      -2.513  -0.271   2.798  0.00  0.00     0.056 C 
BRANCH   7   8
ATOM      8  C1  UNL d   1      -1.425   0.780   2.551  0.00  0.00     0.007 C 
ATOM      9  C   UNL d   1      -1.790   1.776   1.458  0.00  0.00     0.009 C 
ENDBRANCH   7   8
ENDBRANCH   1   7
TORSDOF 2
ENDMDL
