MODEL 1
REMARK minimizedAffinity 5.25333691
REMARK minimizedRMSD -1
REMARK  2 active torsions:
REMARK  status: ('A' for Active; 'I' for Inactive)
REMARK    1  A    between atoms: C1_2  and  C2_3 
REMARK    2  A    between atoms: C2_3  and  C3_4 
ROOT
ATOM      1  C3  UNL d   1       4.059  -3.863  -2.418  0.00  0.00    -0.075 A 
ATOM      2  C4  UNL d   1       5.374  -3.391  -2.298  0.00  0.00     0.002 A 
ATOM      3  C5  UNL d   1       6.000  -3.346  -1.052  0.00  0.00     0.002 A 
ATOM      4  C6  UNL d   1       5.318  -3.762   0.089  0.00  0.00    -0.004 A 
ATOM      5  C7  UNL d   1       4.005  -4.217  -0.016  0.00  0.00     0.002 A 
ATOM      6  C8  UNL d   1       3.378  -4.267  -1.262  0.00  0.00     0.002 A 
ENDROOT
BRANCH   1   7
ATOM      7  C2  UNL d   1       3.386  -3.942  -3.767  0.00  0.00     0.056 C 
BRANCH   7   8
ATOM      8  C1  UNL d   1       3.405  -2.625  -4.552  0.00  0.00     0.007 C 
ATOM      9  C   UNL d   1       2.082  -1.874  -4.497  0.00  0.00     0.009 C 
ENDBRANCH   7   8
ENDBRANCH   1   7
TORSDOF 2
ENDMDL
