MODEL 1
REMARK minimizedAffinity 5.39364719
REMARK minimizedRMSD -1
REMARK  2 active torsions:
REMARK  status: ('A' for Active; 'I' for Inactive)
REMARK    1  A    between atoms: C1_2  and  C2_3 
REMARK    2  A    between atoms: C2_3  and  C3_4 
ROOT
ATOM      1  C3  UNL d   1      -0.812   1.760   0.013  0.00  0.00    -0.075 A 
ATOM      2  C4  UNL d   1      -0.413   1.514   1.335  0.00  0.00     0.002 A 
ATOM      3  C5  UNL d   1      -1.237   1.872   2.402  0.00  0.00     0.002 A 
ATOM      4  C6  UNL d   1      -2.463   2.488   2.163  0.00  0.00    -0.004 A 
ATOM      5  C7  UNL d   1      -2.862   2.753   0.855  0.00  0.00     0.002 A 
ATOM      6  C8  UNL d   1      -2.042   2.392  -0.215  0.00  0.00     0.002 A 
ENDROOT
BRANCH   1   7
ATOM      7  C2  UNL d   1       0.062   1.348  -1.147  0.00  0.00     0.056 C 
BRANCH   7   8
ATOM      8  C1  UNL d   1       0.260  -0.166  -1.272  0.00  0.00     0.007 C 
ATOM      9  C   UNL d   1      -0.691  -0.815  -2.268  0.00  0.00     0.009 C 
ENDBRANCH   7   8
ENDBRANCH   1   7
TORSDOF 2
ENDMDL
