MODEL 1
REMARK minimizedAffinity 11.1415462
REMARK minimizedRMSD -1
REMARK  2 active torsions:
REMARK  status: ('A' for Active; 'I' for Inactive)
REMARK    1  A    between atoms: C1_2  and  C2_3 
REMARK    2  A    between atoms: C2_3  and  C3_4 
ROOT
ATOM      1  C3  UNL d   1       0.060   1.738  -1.587  0.00  0.00    -0.075 A 
ATOM      2  C4  UNL d   1      -1.043   1.188  -2.256  0.00  0.00     0.002 A 
ATOM      3  C5  UNL d   1      -0.903   0.666  -3.542  0.00  0.00     0.002 A 
ATOM      4  C6  UNL d   1       0.336   0.695  -4.178  0.00  0.00    -0.004 A 
ATOM      5  C7  UNL d   1       1.435   1.254  -3.529  0.00  0.00     0.002 A 
ATOM      6  C8  UNL d   1       1.299   1.773  -2.241  0.00  0.00     0.002 A 
ENDROOT
BRANCH   1   7
ATOM      7  C2  UNL d   1      -0.078   2.278  -0.183  0.00  0.00     0.056 C 
BRANCH   7   8
ATOM      8  C1  UNL d   1      -1.385   1.882   0.511  0.00  0.00     0.007 C 
ATOM      9  C   UNL d   1      -1.220   1.635   2.005  0.00  0.00     0.009 C 
ENDBRANCH   7   8
ENDBRANCH   1   7
TORSDOF 2
ENDMDL
