MODEL 1
REMARK minimizedAffinity 7.61201763
REMARK minimizedRMSD -1
REMARK  2 active torsions:
REMARK  status: ('A' for Active; 'I' for Inactive)
REMARK    1  A    between atoms: C1_2  and  C2_3 
REMARK    2  A    between atoms: C2_3  and  C3_4 
ROOT
ATOM      1  C3  UNL d   1      -1.910   0.609   2.459  0.00  0.00    -0.075 A 
ATOM      2  C4  UNL d   1      -2.969   1.129   1.701  0.00  0.00     0.002 A 
ATOM      3  C5  UNL d   1      -2.757   2.192   0.823  0.00  0.00     0.002 A 
ATOM      4  C6  UNL d   1      -1.489   2.754   0.699  0.00  0.00    -0.004 A 
ATOM      5  C7  UNL d   1      -0.433   2.257   1.460  0.00  0.00     0.002 A 
ATOM      6  C8  UNL d   1      -0.641   1.190   2.336  0.00  0.00     0.002 A 
ENDROOT
BRANCH   1   7
ATOM      7  C2  UNL d   1      -2.127  -0.561   3.389  0.00  0.00     0.056 C 
BRANCH   7   8
ATOM      8  C1  UNL d   1      -1.089  -1.678   3.238  0.00  0.00     0.007 C 
ATOM      9  C   UNL d   1      -1.364  -2.879   4.134  0.00  0.00     0.009 C 
ENDBRANCH   7   8
ENDBRANCH   1   7
TORSDOF 2
ENDMDL
