MODEL 1
REMARK minimizedAffinity 5.78021336
REMARK minimizedRMSD -1
REMARK  2 active torsions:
REMARK  status: ('A' for Active; 'I' for Inactive)
REMARK    1  A    between atoms: C1_2  and  C2_3 
REMARK    2  A    between atoms: C2_3  and  C3_4 
ROOT
ATOM      1  C3  UNL d   1      -1.001   2.043   1.441  0.00  0.00    -0.075 A 
ATOM      2  C4  UNL d   1      -0.172   3.011   2.027  0.00  0.00     0.002 A 
ATOM      3  C5  UNL d   1       0.237   2.883   3.355  0.00  0.00     0.002 A 
ATOM      4  C6  UNL d   1      -0.184   1.794   4.115  0.00  0.00    -0.004 A 
ATOM      5  C7  UNL d   1      -1.021   0.836   3.548  0.00  0.00     0.002 A 
ATOM      6  C8  UNL d   1      -1.428   0.959   2.218  0.00  0.00     0.002 A 
ENDROOT
BRANCH   1   7
ATOM      7  C2  UNL d   1      -1.423   2.160  -0.004  0.00  0.00     0.056 C 
BRANCH   7   8
ATOM      8  C1  UNL d   1      -0.277   2.504  -0.962  0.00  0.00     0.007 C 
ATOM      9  C   UNL d   1       0.261   1.294  -1.713  0.00  0.00     0.009 C 
ENDBRANCH   7   8
ENDBRANCH   1   7
TORSDOF 2
ENDMDL
