MODEL 1
REMARK minimizedAffinity -3.28671551
REMARK minimizedRMSD -1
REMARK  2 active torsions:
REMARK  status: ('A' for Active; 'I' for Inactive)
REMARK    1  A    between atoms: C1_2  and  C2_3 
REMARK    2  A    between atoms: C2_3  and  C3_4 
ROOT
ATOM      1  C3  UNL d   1      -0.464   0.819  -0.788  0.00  0.00    -0.075 A 
ATOM      2  C4  UNL d   1      -1.032   0.610  -2.054  0.00  0.00     0.002 A 
ATOM      3  C5  UNL d   1      -0.821  -0.589  -2.735  0.00  0.00     0.002 A 
ATOM      4  C6  UNL d   1      -0.035  -1.588  -2.166  0.00  0.00    -0.004 A 
ATOM      5  C7  UNL d   1       0.548  -1.385  -0.917  0.00  0.00     0.002 A 
ATOM      6  C8  UNL d   1       0.336  -0.187  -0.231  0.00  0.00     0.002 A 
ENDROOT
BRANCH   1   7
ATOM      7  C2  UNL d   1      -0.711   2.103  -0.033  0.00  0.00     0.056 C 
BRANCH   7   8
ATOM      8  C1  UNL d   1      -1.572   1.932   1.223  0.00  0.00     0.007 C 
ATOM      9  C   UNL d   1      -0.827   1.271   2.375  0.00  0.00     0.009 C 
ENDBRANCH   7   8
ENDBRANCH   1   7
TORSDOF 2
ENDMDL
