MODEL 1
REMARK minimizedAffinity 5.55743408
REMARK minimizedRMSD -1
REMARK  2 active torsions:
REMARK  status: ('A' for Active; 'I' for Inactive)
REMARK    1  A    between atoms: C1_2  and  C2_3 
REMARK    2  A    between atoms: C2_3  and  C3_4 
ROOT
ATOM      1  C3  UNL d   1       4.212  -2.992  -1.869  0.00  0.00    -0.075 A 
ATOM      2  C4  UNL d   1       3.273  -2.456  -0.976  0.00  0.00     0.002 A 
ATOM      3  C5  UNL d   1       3.668  -1.547   0.007  0.00  0.00     0.002 A 
ATOM      4  C6  UNL d   1       5.005  -1.172   0.116  0.00  0.00    -0.004 A 
ATOM      5  C7  UNL d   1       5.949  -1.711  -0.755  0.00  0.00     0.002 A 
ATOM      6  C8  UNL d   1       5.556  -2.617  -1.742  0.00  0.00     0.002 A 
ENDROOT
BRANCH   1   7
ATOM      7  C2  UNL d   1       3.786  -3.952  -2.953  0.00  0.00     0.056 C 
BRANCH   7   8
ATOM      8  C1  UNL d   1       3.777  -5.421  -2.517  0.00  0.00     0.007 C 
ATOM      9  C   UNL d   1       2.375  -5.999  -2.383  0.00  0.00     0.009 C 
ENDBRANCH   7   8
ENDBRANCH   1   7
TORSDOF 2
ENDMDL
