MODEL 1
REMARK minimizedAffinity 6.19290781
REMARK minimizedRMSD -1
REMARK  2 active torsions:
REMARK  status: ('A' for Active; 'I' for Inactive)
REMARK    1  A    between atoms: C1_2  and  C2_3 
REMARK    2  A    between atoms: C2_3  and  C3_4 
ROOT
ATOM      1  C3  UNL d   1      -1.050   1.768  -1.354  0.00  0.00    -0.075 A 
ATOM      2  C4  UNL d   1      -1.452   0.671  -2.130  0.00  0.00     0.002 A 
ATOM      3  C5  UNL d   1      -0.504  -0.151  -2.739  0.00  0.00     0.002 A 
ATOM      4  C6  UNL d   1       0.855   0.117  -2.588  0.00  0.00    -0.004 A 
ATOM      5  C7  UNL d   1       1.265   1.213  -1.833  0.00  0.00     0.002 A 
ATOM      6  C8  UNL d   1       0.319   2.036  -1.219  0.00  0.00     0.002 A 
ENDROOT
BRANCH   1   7
ATOM      7  C2  UNL d   1      -2.071   2.645  -0.668  0.00  0.00     0.056 C 
BRANCH   7   8
ATOM      8  C1  UNL d   1      -2.183   2.408   0.841  0.00  0.00     0.007 C 
ATOM      9  C   UNL d   1      -3.381   3.106   1.471  0.00  0.00     0.009 C 
ENDBRANCH   7   8
ENDBRANCH   1   7
TORSDOF 2
ENDMDL
