MODEL 1
REMARK minimizedAffinity 3.57446671
REMARK minimizedRMSD -1
REMARK  2 active torsions:
REMARK  status: ('A' for Active; 'I' for Inactive)
REMARK    1  A    between atoms: C1_2  and  C2_3 
REMARK    2  A    between atoms: C2_3  and  C3_4 
ROOT
ATOM      1  C3  UNL d   1       0.064   1.474  -1.724  0.00  0.00    -0.075 A 
ATOM      2  C4  UNL d   1      -0.725   0.322  -1.858  0.00  0.00     0.002 A 
ATOM      3  C5  UNL d   1      -0.582  -0.509  -2.969  0.00  0.00     0.002 A 
ATOM      4  C6  UNL d   1       0.342  -0.196  -3.963  0.00  0.00    -0.004 A 
ATOM      5  C7  UNL d   1       1.119   0.954  -3.849  0.00  0.00     0.002 A 
ATOM      6  C8  UNL d   1       0.982   1.786  -2.736  0.00  0.00     0.002 A 
ENDROOT
BRANCH   1   7
ATOM      7  C2  UNL d   1      -0.064   2.362  -0.510  0.00  0.00     0.056 C 
BRANCH   7   8
ATOM      8  C1  UNL d   1      -0.335   1.602   0.793  0.00  0.00     0.007 C 
ATOM      9  C   UNL d   1      -1.214   2.374   1.767  0.00  0.00     0.009 C 
ENDBRANCH   7   8
ENDBRANCH   1   7
TORSDOF 2
ENDMDL
