MODEL 1
REMARK minimizedAffinity 11.9714899
REMARK minimizedRMSD -1
REMARK  2 active torsions:
REMARK  status: ('A' for Active; 'I' for Inactive)
REMARK    1  A    between atoms: C2'_3  and  C1'_4 
REMARK    2  A    between atoms: C1'_4  and  C1_5 
ROOT
ATOM      1  C1  I4B d   1       5.037   0.988   3.371  0.00  0.00    -0.075 A 
ATOM      2  C2  I4B d   1       5.532  -0.289   3.285  0.00  0.00     0.003 A 
ATOM      3  C3  I4B d   1       5.999  -0.953   4.445  0.00  0.00     0.002 A 
ATOM      4  C4  I4B d   1       5.999  -0.289   5.654  0.00  0.00    -0.004 A 
ATOM      5  C5  I4B d   1       5.475   0.998   5.745  0.00  0.00     0.002 A 
ATOM      6  C6  I4B d   1       4.979   1.636   4.598  0.00  0.00     0.003 A 
ENDROOT
BRANCH   1   7
ATOM      7  C1' I4B d   1       4.583   1.671   2.121  0.00  0.00     0.060 C 
BRANCH   7   8
ATOM      8  C2' I4B d   1       3.845   2.933   2.519  0.00  0.00    -0.013 C 
ATOM      9  C4' I4B d   1       4.800   3.992   3.006  0.00  0.00     0.013 C 
ATOM     10  C3' I4B d   1       3.068   3.411   1.329  0.00  0.00     0.013 C 
ENDBRANCH   7   8
ENDBRANCH   1   7
TORSDOF 2
ENDMDL
