MODEL 1
REMARK minimizedAffinity 8.30848694
REMARK minimizedRMSD -1
REMARK  2 active torsions:
REMARK  status: ('A' for Active; 'I' for Inactive)
REMARK    1  A    between atoms: C2'_3  and  C1'_4 
REMARK    2  A    between atoms: C1'_4  and  C1_5 
ROOT
ATOM      1  C1  I4B d   1       5.451   1.687   3.964  0.00  0.00    -0.075 A 
ATOM      2  C2  I4B d   1       5.747   2.182   5.210  0.00  0.00     0.003 A 
ATOM      3  C3  I4B d   1       6.000   3.564   5.386  0.00  0.00     0.002 A 
ATOM      4  C4  I4B d   1       5.995   4.401   4.289  0.00  0.00    -0.004 A 
ATOM      5  C5  I4B d   1       5.672   3.901   3.030  0.00  0.00     0.002 A 
ATOM      6  C6  I4B d   1       5.386   2.538   2.869  0.00  0.00     0.003 A 
ENDROOT
BRANCH   1   7
ATOM      7  C1' I4B d   1       5.222   0.217   3.809  0.00  0.00     0.060 C 
BRANCH   7   8
ATOM      8  C2' I4B d   1       3.808   0.015   3.304  0.00  0.00    -0.013 C 
ATOM      9  C4' I4B d   1       3.802  -0.628   1.942  0.00  0.00     0.013 C 
ATOM     10  C3' I4B d   1       3.075  -0.827   4.304  0.00  0.00     0.013 C 
ENDBRANCH   7   8
ENDBRANCH   1   7
TORSDOF 2
ENDMDL
