MODEL 1
REMARK minimizedAffinity 9.95027065
REMARK minimizedRMSD -1
REMARK  2 active torsions:
REMARK  status: ('A' for Active; 'I' for Inactive)
REMARK    1  A    between atoms: C2'_3  and  C1'_4 
REMARK    2  A    between atoms: C1'_4  and  C1_5 
ROOT
ATOM      1  C1  I4B d   1      -2.948   0.809   1.021  0.00  0.00    -0.075 A 
ATOM      2  C2  I4B d   1      -2.756   1.904   1.827  0.00  0.00     0.003 A 
ATOM      3  C3  I4B d   1      -2.839   3.210   1.286  0.00  0.00     0.002 A 
ATOM      4  C4  I4B d   1      -3.065   3.373  -0.065  0.00  0.00    -0.004 A 
ATOM      5  C5  I4B d   1      -3.282   2.263  -0.876  0.00  0.00     0.002 A 
ATOM      6  C6  I4B d   1      -3.235   0.973  -0.328  0.00  0.00     0.003 A 
ENDROOT
BRANCH   1   7
ATOM      7  C1' I4B d   1      -2.820  -0.556   1.618  0.00  0.00     0.060 C 
BRANCH   7   8
ATOM      8  C2' I4B d   1      -3.312  -0.488   3.050  0.00  0.00    -0.013 C 
ATOM      9  C4' I4B d   1      -4.045  -1.746   3.435  0.00  0.00     0.013 C 
ATOM     10  C3' I4B d   1      -2.125  -0.259   3.937  0.00  0.00     0.013 C 
ENDBRANCH   7   8
ENDBRANCH   1   7
TORSDOF 2
ENDMDL
