MODEL 1
REMARK minimizedAffinity 3.76827335
REMARK minimizedRMSD -1
REMARK  2 active torsions:
REMARK  status: ('A' for Active; 'I' for Inactive)
REMARK    1  A    between atoms: C2'_3  and  C1'_4 
REMARK    2  A    between atoms: C1'_4  and  C1_5 
ROOT
ATOM      1  C1  I4B d   1      -3.810  -0.392   1.562  0.00  0.00    -0.075 A 
ATOM      2  C2  I4B d   1      -2.798   0.111   0.782  0.00  0.00     0.003 A 
ATOM      3  C3  I4B d   1      -3.084   0.652  -0.495  0.00  0.00     0.002 A 
ATOM      4  C4  I4B d   1      -4.379   0.624  -0.970  0.00  0.00    -0.004 A 
ATOM      5  C5  I4B d   1      -5.407   0.135  -0.169  0.00  0.00     0.002 A 
ATOM      6  C6  I4B d   1      -5.123  -0.365   1.110  0.00  0.00     0.003 A 
ENDROOT
BRANCH   1   7
ATOM      7  C1' I4B d   1      -3.468  -0.986   2.892  0.00  0.00     0.060 C 
BRANCH   7   8
ATOM      8  C2' I4B d   1      -2.821   0.095   3.733  0.00  0.00    -0.013 C 
ATOM      9  C4' I4B d   1      -3.836   0.792   4.600  0.00  0.00     0.013 C 
ATOM     10  C3' I4B d   1      -1.748  -0.544   4.563  0.00  0.00     0.013 C 
ENDBRANCH   7   8
ENDBRANCH   1   7
TORSDOF 2
ENDMDL
