MODEL 1
REMARK minimizedAffinity 1.76463652
REMARK minimizedRMSD -1
REMARK  2 active torsions:
REMARK  status: ('A' for Active; 'I' for Inactive)
REMARK    1  A    between atoms: C2'_3  and  C1'_4 
REMARK    2  A    between atoms: C1'_4  and  C1_5 
ROOT
ATOM      1  C1  I4B d   1      -2.903   1.349   2.241  0.00  0.00    -0.075 A 
ATOM      2  C2  I4B d   1      -3.517   0.537   1.320  0.00  0.00     0.003 A 
ATOM      3  C3  I4B d   1      -3.905  -0.778   1.676  0.00  0.00     0.002 A 
ATOM      4  C4  I4B d   1      -3.616  -1.253   2.939  0.00  0.00    -0.004 A 
ATOM      5  C5  I4B d   1      -3.015  -0.420   3.878  0.00  0.00     0.002 A 
ATOM      6  C6  I4B d   1      -2.667   0.894   3.531  0.00  0.00     0.003 A 
ENDROOT
BRANCH   1   7
ATOM      7  C1' I4B d   1      -2.477   2.720   1.821  0.00  0.00     0.060 C 
BRANCH   7   8
ATOM      8  C2' I4B d   1      -3.342   3.140   0.650  0.00  0.00    -0.013 C 
ATOM      9  C4' I4B d   1      -3.344   4.637   0.482  0.00  0.00     0.013 C 
ATOM     10  C3' I4B d   1      -2.819   2.458  -0.579  0.00  0.00     0.013 C 
ENDBRANCH   7   8
ENDBRANCH   1   7
TORSDOF 2
ENDMDL
