MODEL 1
REMARK minimizedAffinity -2.28591275
REMARK minimizedRMSD -1
REMARK  2 active torsions:
REMARK  status: ('A' for Active; 'I' for Inactive)
REMARK    1  A    between atoms: C2'_3  and  C1'_4 
REMARK    2  A    between atoms: C1'_4  and  C1_5 
ROOT
ATOM      1  C1  I4B d   1       2.326  -1.813   1.416  0.00  0.00    -0.075 A 
ATOM      2  C2  I4B d   1       1.389  -1.034   0.785  0.00  0.00     0.003 A 
ATOM      3  C3  I4B d   1       0.219  -1.622   0.246  0.00  0.00     0.002 A 
ATOM      4  C4  I4B d   1       0.052  -2.990   0.316  0.00  0.00    -0.004 A 
ATOM      5  C5  I4B d   1       0.992  -3.776   0.977  0.00  0.00     0.002 A 
ATOM      6  C6  I4B d   1       2.130  -3.182   1.541  0.00  0.00     0.003 A 
ENDROOT
BRANCH   1   7
ATOM      7  C1' I4B d   1       3.565  -1.164   1.945  0.00  0.00     0.060 C 
BRANCH   7   8
ATOM      8  C2' I4B d   1       3.162  -0.239   3.075  0.00  0.00    -0.013 C 
ATOM      9  C4' I4B d   1       3.879  -0.593   4.351  0.00  0.00     0.013 C 
ATOM     10  C3' I4B d   1       3.468   1.167   2.655  0.00  0.00     0.013 C 
ENDBRANCH   7   8
ENDBRANCH   1   7
TORSDOF 2
ENDMDL
