MODEL 1
REMARK minimizedAffinity 5.79302645
REMARK minimizedRMSD -1
REMARK  2 active torsions:
REMARK  status: ('A' for Active; 'I' for Inactive)
REMARK    1  A    between atoms: C2'_3  and  C1'_4 
REMARK    2  A    between atoms: C1'_4  and  C1_5 
ROOT
ATOM      1  C1  I4B d   1       4.214   0.727   3.794  0.00  0.00    -0.075 A 
ATOM      2  C2  I4B d   1       4.186   1.980   3.235  0.00  0.00     0.003 A 
ATOM      3  C3  I4B d   1       5.086   2.979   3.680  0.00  0.00     0.002 A 
ATOM      4  C4  I4B d   1       5.956   2.699   4.713  0.00  0.00    -0.004 A 
ATOM      5  C5  I4B d   1       5.999   1.421   5.263  0.00  0.00     0.002 A 
ATOM      6  C6  I4B d   1       5.131   0.424   4.792  0.00  0.00     0.003 A 
ENDROOT
BRANCH   1   7
ATOM      7  C1' I4B d   1       3.227  -0.294   3.323  0.00  0.00     0.060 C 
BRANCH   7   8
ATOM      8  C2' I4B d   1       2.748  -1.072   4.532  0.00  0.00    -0.013 C 
ATOM      9  C4' I4B d   1       1.332  -0.706   4.890  0.00  0.00     0.013 C 
ATOM     10  C3' I4B d   1       2.867  -2.534   4.219  0.00  0.00     0.013 C 
ENDBRANCH   7   8
ENDBRANCH   1   7
TORSDOF 2
ENDMDL
