MODEL 1
REMARK minimizedAffinity 0.0177319851
REMARK minimizedRMSD -1
REMARK  2 active torsions:
REMARK  status: ('A' for Active; 'I' for Inactive)
REMARK    1  A    between atoms: C2'_3  and  C1'_4 
REMARK    2  A    between atoms: C1'_4  and  C1_5 
ROOT
ATOM      1  C1  I4B d   1       3.252  -0.308   3.154  0.00  0.00    -0.075 A 
ATOM      2  C2  I4B d   1       3.510   0.875   2.508  0.00  0.00     0.003 A 
ATOM      3  C3  I4B d   1       4.563   1.713   2.948  0.00  0.00     0.002 A 
ATOM      4  C4  I4B d   1       5.296   1.355   4.061  0.00  0.00    -0.004 A 
ATOM      5  C5  I4B d   1       5.049   0.144   4.700  0.00  0.00     0.002 A 
ATOM      6  C6  I4B d   1       4.029  -0.699   4.237  0.00  0.00     0.003 A 
ENDROOT
BRANCH   1   7
ATOM      7  C1' I4B d   1       2.111  -1.153   2.683  0.00  0.00     0.060 C 
BRANCH   7   8
ATOM      8  C2' I4B d   1       2.597  -1.985   1.513  0.00  0.00    -0.013 C 
ATOM      9  C4' I4B d   1       1.688  -3.159   1.264  0.00  0.00     0.013 C 
ATOM     10  C3' I4B d   1       2.671  -1.092   0.310  0.00  0.00     0.013 C 
ENDBRANCH   7   8
ENDBRANCH   1   7
TORSDOF 2
ENDMDL
