MODEL 1
REMARK minimizedAffinity 6.27374268
REMARK minimizedRMSD -1
REMARK  2 active torsions:
REMARK  status: ('A' for Active; 'I' for Inactive)
REMARK    1  A    between atoms: C2'_3  and  C1'_4 
REMARK    2  A    between atoms: C1'_4  and  C1_5 
ROOT
ATOM      1  C1  I4B d   1      -3.736   0.152   2.401  0.00  0.00    -0.075 A 
ATOM      2  C2  I4B d   1      -4.948  -0.092   1.805  0.00  0.00     0.003 A 
ATOM      3  C3  I4B d   1      -6.000  -0.685   2.545  0.00  0.00     0.002 A 
ATOM      4  C4  I4B d   1      -5.781  -1.061   3.854  0.00  0.00    -0.004 A 
ATOM      5  C5  I4B d   1      -4.559  -0.792   4.464  0.00  0.00     0.002 A 
ATOM      6  C6  I4B d   1      -3.534  -0.170   3.737  0.00  0.00     0.003 A 
ENDROOT
BRANCH   1   7
ATOM      7  C1' I4B d   1      -2.636   0.749   1.581  0.00  0.00     0.060 C 
BRANCH   7   8
ATOM      8  C2' I4B d   1      -2.753   0.200   0.174  0.00  0.00    -0.013 C 
ATOM      9  C4' I4B d   1      -2.163   1.152  -0.833  0.00  0.00     0.013 C 
ATOM     10  C3' I4B d   1      -2.057  -1.128   0.136  0.00  0.00     0.013 C 
ENDBRANCH   7   8
ENDBRANCH   1   7
TORSDOF 2
ENDMDL
