MODEL 1
REMARK minimizedAffinity 7.84676409
REMARK minimizedRMSD -1
REMARK  2 active torsions:
REMARK  status: ('A' for Active; 'I' for Inactive)
REMARK    1  A    between atoms: C2'_3  and  C1'_4 
REMARK    2  A    between atoms: C1'_4  and  C1_5 
ROOT
ATOM      1  C1  I4B d   1      -2.052  -4.584  -1.366  0.00  0.00    -0.075 A 
ATOM      2  C2  I4B d   1      -1.310  -5.538  -2.017  0.00  0.00     0.003 A 
ATOM      3  C3  I4B d   1      -0.093  -5.185  -2.649  0.00  0.00     0.002 A 
ATOM      4  C4  I4B d   1       0.316  -3.867  -2.649  0.00  0.00    -0.004 A 
ATOM      5  C5  I4B d   1      -0.426  -2.906  -1.969  0.00  0.00     0.002 A 
ATOM      6  C6  I4B d   1      -1.611  -3.268  -1.313  0.00  0.00     0.003 A 
ENDROOT
BRANCH   1   7
ATOM      7  C1' I4B d   1      -3.349  -4.984  -0.738  0.00  0.00     0.060 C 
BRANCH   7   8
ATOM      8  C2' I4B d   1      -3.159  -4.987   0.765  0.00  0.00    -0.013 C 
ATOM      9  C4' I4B d   1      -4.439  -5.339   1.476  0.00  0.00     0.013 C 
ATOM     10  C3' I4B d   1      -2.071  -5.965   1.092  0.00  0.00     0.013 C 
ENDBRANCH   7   8
ENDBRANCH   1   7
TORSDOF 2
ENDMDL
