MODEL 1
REMARK minimizedAffinity 9.55830002
REMARK minimizedRMSD -1
REMARK  2 active torsions:
REMARK  status: ('A' for Active; 'I' for Inactive)
REMARK    1  A    between atoms: C2'_3  and  C1'_4 
REMARK    2  A    between atoms: C1'_4  and  C1_5 
ROOT
ATOM      1  C1  I4B d   1      -3.086   1.487   1.489  0.00  0.00    -0.075 A 
ATOM      2  C2  I4B d   1      -3.153   1.648   0.128  0.00  0.00     0.003 A 
ATOM      3  C3  I4B d   1      -3.306   2.941  -0.430  0.00  0.00     0.002 A 
ATOM      4  C4  I4B d   1      -3.437   4.031   0.405  0.00  0.00    -0.004 A 
ATOM      5  C5  I4B d   1      -3.346   3.868   1.785  0.00  0.00     0.002 A 
ATOM      6  C6  I4B d   1      -3.157   2.590   2.330  0.00  0.00     0.003 A 
ENDROOT
BRANCH   1   7
ATOM      7  C1' I4B d   1      -2.957   0.105   2.046  0.00  0.00     0.060 C 
BRANCH   7   8
ATOM      8  C2' I4B d   1      -3.303   0.161   3.520  0.00  0.00    -0.013 C 
ATOM      9  C4' I4B d   1      -4.358  -0.854   3.871  0.00  0.00     0.013 C 
ATOM     10  C3' I4B d   1      -2.044  -0.074   4.300  0.00  0.00     0.013 C 
ENDBRANCH   7   8
ENDBRANCH   1   7
TORSDOF 2
ENDMDL
