MODEL 1
REMARK minimizedAffinity -2.97015405
REMARK minimizedRMSD -1
REMARK  2 active torsions:
REMARK  status: ('A' for Active; 'I' for Inactive)
REMARK    1  A    between atoms: C2'_3  and  C1'_4 
REMARK    2  A    between atoms: C1'_4  and  C1_5 
ROOT
ATOM      1  C1  I4B d   1       3.505  -0.450   2.731  0.00  0.00    -0.075 A 
ATOM      2  C2  I4B d   1       3.826   0.885   2.728  0.00  0.00     0.003 A 
ATOM      3  C3  I4B d   1       4.981   1.342   3.408  0.00  0.00     0.002 A 
ATOM      4  C4  I4B d   1       5.753   0.443   4.115  0.00  0.00    -0.004 A 
ATOM      5  C5  I4B d   1       5.439  -0.913   4.098  0.00  0.00     0.002 A 
ATOM      6  C6  I4B d   1       4.315  -1.364   3.392  0.00  0.00     0.003 A 
ENDROOT
BRANCH   1   7
ATOM      7  C1' I4B d   1       2.260  -0.893   2.031  0.00  0.00     0.060 C 
BRANCH   7   8
ATOM      8  C2' I4B d   1       2.661  -1.481   0.693  0.00  0.00    -0.013 C 
ATOM      9  C4' I4B d   1       2.905  -2.963   0.800  0.00  0.00     0.013 C 
ATOM     10  C3' I4B d   1       1.568  -1.181  -0.290  0.00  0.00     0.013 C 
ENDBRANCH   7   8
ENDBRANCH   1   7
TORSDOF 2
ENDMDL
