MODEL 1
REMARK minimizedAffinity -4.00194407
REMARK minimizedRMSD -1
REMARK  0 active torsions:
REMARK  status: ('A' for Active; 'I' for Inactive)
ROOT
ATOM      1  O1  BZF d   1      -0.390  -1.572  -1.394  0.00  0.00    -0.204 OA
ATOM      2  C2  BZF d   1      -0.856  -2.687  -0.726  0.00  0.00     0.174 A 
ATOM      3  C3  BZF d   1      -1.178  -2.382   0.548  0.00  0.00    -0.012 A 
ATOM      4  C3A BZF d   1      -0.983  -0.969   0.657  0.00  0.00    -0.107 A 
ATOM      5  C4  BZF d   1      -1.151  -0.074   1.674  0.00  0.00     0.055 A 
ATOM      6  C5  BZF d   1      -0.802   1.224   1.477  0.00  0.00    -0.016 A 
ATOM      7  C6  BZF d   1      -0.276   1.660   0.278  0.00  0.00     0.022 A 
ATOM      8  C7  BZF d   1      -0.096   0.810  -0.762  0.00  0.00     0.029 A 
ATOM      9  C7A BZF d   1      -0.479  -0.495  -0.576  0.00  0.00     0.058 A 
ENDROOT
TORSDOF 0
ENDMDL
