MODEL 1
REMARK minimizedAffinity -4.7656312
REMARK minimizedRMSD -1
REMARK  0 active torsions:
REMARK  status: ('A' for Active; 'I' for Inactive)
ROOT
ATOM      1  O1  BZF d   1       0.528   0.637  -1.069  0.00  0.00    -0.204 OA
ATOM      2  C2  BZF d   1       0.086   0.950   0.202  0.00  0.00     0.174 A 
ATOM      3  C3  BZF d   1      -0.612  -0.075   0.732  0.00  0.00    -0.012 A 
ATOM      4  C3A BZF d   1      -0.528  -1.127  -0.234  0.00  0.00    -0.107 A 
ATOM      5  C4  BZF d   1      -1.009  -2.404  -0.275  0.00  0.00     0.055 A 
ATOM      6  C5  BZF d   1      -0.814  -3.148  -1.396  0.00  0.00    -0.016 A 
ATOM      7  C6  BZF d   1      -0.147  -2.645  -2.494  0.00  0.00     0.022 A 
ATOM      8  C7  BZF d   1       0.352  -1.385  -2.499  0.00  0.00     0.029 A 
ATOM      9  C7A BZF d   1       0.185  -0.642  -1.355  0.00  0.00     0.058 A 
ENDROOT
TORSDOF 0
ENDMDL
