MODEL 1
REMARK minimizedAffinity -1.0422045
REMARK minimizedRMSD -1
REMARK  0 active torsions:
REMARK  status: ('A' for Active; 'I' for Inactive)
ROOT
ATOM      1  O1  BZF d   1      -0.843  -2.769   1.420  0.00  0.00    -0.204 OA
ATOM      2  C2  BZF d   1      -0.841  -3.378   0.180  0.00  0.00     0.174 A 
ATOM      3  C3  BZF d   1      -0.712  -2.463  -0.803  0.00  0.00    -0.012 A 
ATOM      4  C3A BZF d   1      -0.535  -1.212  -0.131  0.00  0.00    -0.107 A 
ATOM      5  C4  BZF d   1      -0.340   0.067  -0.566  0.00  0.00     0.055 A 
ATOM      6  C5  BZF d   1      -0.278   1.073   0.346  0.00  0.00    -0.016 A 
ATOM      7  C6  BZF d   1      -0.413   0.836   1.698  0.00  0.00     0.022 A 
ATOM      8  C7  BZF d   1      -0.603  -0.417   2.178  0.00  0.00     0.029 A 
ATOM      9  C7A BZF d   1      -0.633  -1.440   1.261  0.00  0.00     0.058 A 
ENDROOT
TORSDOF 0
ENDMDL
