MODEL 1
REMARK minimizedAffinity -1.22325969
REMARK minimizedRMSD -1
REMARK  0 active torsions:
REMARK  status: ('A' for Active; 'I' for Inactive)
ROOT
ATOM      1  O1  BZF d   1      -1.010  -1.858   1.212  0.00  0.00    -0.204 OA
ATOM      2  C2  BZF d   1      -0.443  -0.616   1.420  0.00  0.00     0.174 A 
ATOM      3  C3  BZF d   1       0.121  -0.152   0.286  0.00  0.00    -0.012 A 
ATOM      4  C3A BZF d   1      -0.188  -1.127  -0.715  0.00  0.00    -0.107 A 
ATOM      5  C4  BZF d   1       0.085  -1.222  -2.049  0.00  0.00     0.055 A 
ATOM      6  C5  BZF d   1      -0.297  -2.338  -2.724  0.00  0.00    -0.016 A 
ATOM      7  C6  BZF d   1      -0.948  -3.379  -2.095  0.00  0.00     0.022 A 
ATOM      8  C7  BZF d   1      -1.245  -3.329  -0.774  0.00  0.00     0.029 A 
ATOM      9  C7A BZF d   1      -0.890  -2.188  -0.096  0.00  0.00     0.058 A 
ENDROOT
TORSDOF 0
ENDMDL
