MODEL 1
REMARK minimizedAffinity -4.39554977
REMARK minimizedRMSD -1
REMARK  0 active torsions:
REMARK  status: ('A' for Active; 'I' for Inactive)
ROOT
ATOM      1  O1  BZF d   1       0.745   0.121  -1.249  0.00  0.00    -0.204 OA
ATOM      2  C2  BZF d   1       0.584   0.575   0.046  0.00  0.00     0.174 A 
ATOM      3  C3  BZF d   1       0.134  -0.412   0.847  0.00  0.00    -0.012 A 
ATOM      4  C3A BZF d   1       0.094  -1.579   0.019  0.00  0.00    -0.107 A 
ATOM      5  C4  BZF d   1      -0.254  -2.879   0.247  0.00  0.00     0.055 A 
ATOM      6  C5  BZF d   1      -0.253  -3.755  -0.792  0.00  0.00    -0.016 A 
ATOM      7  C6  BZF d   1       0.084  -3.364  -2.071  0.00  0.00     0.022 A 
ATOM      8  C7  BZF d   1       0.441  -2.085  -2.345  0.00  0.00     0.029 A 
ATOM      9  C7A BZF d   1       0.473  -1.206  -1.291  0.00  0.00     0.058 A 
ENDROOT
TORSDOF 0
ENDMDL
