MODEL 1
REMARK minimizedAffinity -3.12733006
REMARK minimizedRMSD -1
REMARK  0 active torsions:
REMARK  status: ('A' for Active; 'I' for Inactive)
ROOT
ATOM      1  O1  BZF d   1       0.103  -1.820  -2.561  0.00  0.00    -0.204 OA
ATOM      2  C2  BZF d   1      -0.312  -3.131  -2.697  0.00  0.00     0.174 A 
ATOM      3  C3  BZF d   1      -0.811  -3.598  -1.534  0.00  0.00    -0.012 A 
ATOM      4  C3A BZF d   1      -0.785  -2.483  -0.638  0.00  0.00    -0.107 A 
ATOM      5  C4  BZF d   1      -1.166  -2.314   0.662  0.00  0.00     0.055 A 
ATOM      6  C5  BZF d   1      -0.939  -1.119   1.267  0.00  0.00    -0.016 A 
ATOM      7  C6  BZF d   1      -0.330  -0.074   0.604  0.00  0.00     0.022 A 
ATOM      8  C7  BZF d   1       0.061  -0.192  -0.688  0.00  0.00     0.029 A 
ATOM      9  C7A BZF d   1      -0.196  -1.388  -1.312  0.00  0.00     0.058 A 
ENDROOT
TORSDOF 0
ENDMDL
