MODEL 1
REMARK minimizedAffinity -1.12462592
REMARK minimizedRMSD -1
REMARK  0 active torsions:
REMARK  status: ('A' for Active; 'I' for Inactive)
ROOT
ATOM      1  O1  BZF d   1       0.680   3.332  -0.186  0.00  0.00    -0.204 OA
ATOM      2  C2  BZF d   1       1.857   3.582   0.493  0.00  0.00     0.174 A 
ATOM      3  C3  BZF d   1       2.185   2.538   1.282  0.00  0.00    -0.012 A 
ATOM      4  C3A BZF d   1       1.198   1.538   1.013  0.00  0.00    -0.107 A 
ATOM      5  C4  BZF d   1       0.994   0.270   1.477  0.00  0.00     0.055 A 
ATOM      6  C5  BZF d   1      -0.106  -0.415   1.069  0.00  0.00    -0.016 A 
ATOM      7  C6  BZF d   1      -1.025   0.139   0.202  0.00  0.00     0.022 A 
ATOM      8  C7  BZF d   1      -0.864   1.392  -0.290  0.00  0.00     0.029 A 
ATOM      9  C7A BZF d   1       0.264   2.074   0.096  0.00  0.00     0.058 A 
ENDROOT
TORSDOF 0
ENDMDL
