MODEL 1
REMARK minimizedAffinity -3.34311652
REMARK minimizedRMSD -1
REMARK  0 active torsions:
REMARK  status: ('A' for Active; 'I' for Inactive)
ROOT
ATOM      1  O1  BZF d   1       0.909   0.960  -0.474  0.00  0.00    -0.204 OA
ATOM      2  C2  BZF d   1       0.423   2.184  -0.056  0.00  0.00     0.174 A 
ATOM      3  C3  BZF d   1      -0.699   2.028   0.675  0.00  0.00    -0.012 A 
ATOM      4  C3A BZF d   1      -0.877   0.614   0.795  0.00  0.00    -0.107 A 
ATOM      5  C4  BZF d   1      -1.808  -0.166   1.420  0.00  0.00     0.055 A 
ATOM      6  C5  BZF d   1      -1.738  -1.516   1.283  0.00  0.00    -0.016 A 
ATOM      7  C6  BZF d   1      -0.756  -2.119   0.525  0.00  0.00     0.022 A 
ATOM      8  C7  BZF d   1       0.192  -1.388  -0.110  0.00  0.00     0.029 A 
ATOM      9  C7A BZF d   1       0.144  -0.025   0.053  0.00  0.00     0.058 A 
ENDROOT
TORSDOF 0
ENDMDL
