MODEL 1
REMARK minimizedAffinity -2.21041346
REMARK minimizedRMSD -1
REMARK  0 active torsions:
REMARK  status: ('A' for Active; 'I' for Inactive)
ROOT
ATOM      1  O1  BZF d   1       0.031   0.300  -1.443  0.00  0.00    -0.204 OA
ATOM      2  C2  BZF d   1       0.168   1.490  -0.755  0.00  0.00     0.174 A 
ATOM      3  C3  BZF d   1      -0.124   1.323   0.551  0.00  0.00    -0.012 A 
ATOM      4  C3A BZF d   1      -0.375  -0.077   0.705  0.00  0.00    -0.107 A 
ATOM      5  C4  BZF d   1      -0.700  -0.860   1.775  0.00  0.00     0.055 A 
ATOM      6  C5  BZF d   1      -0.948  -2.181   1.576  0.00  0.00    -0.016 A 
ATOM      7  C6  BZF d   1      -0.886  -2.750   0.321  0.00  0.00     0.022 A 
ATOM      8  C7  BZF d   1      -0.563  -2.015  -0.771  0.00  0.00     0.029 A 
ATOM      9  C7A BZF d   1      -0.279  -0.686  -0.567  0.00  0.00     0.058 A 
ENDROOT
TORSDOF 0
ENDMDL
