MODEL 1
REMARK minimizedAffinity -3.08460069
REMARK minimizedRMSD -1
REMARK  0 active torsions:
REMARK  status: ('A' for Active; 'I' for Inactive)
ROOT
ATOM      1  O1  BZF d   1      -0.113   0.700  -1.806  0.00  0.00    -0.204 OA
ATOM      2  C2  BZF d   1      -0.023   1.902  -1.131  0.00  0.00     0.174 A 
ATOM      3  C3  BZF d   1      -0.307   1.739   0.177  0.00  0.00    -0.012 A 
ATOM      4  C3A BZF d   1      -0.503   0.332   0.347  0.00  0.00    -0.107 A 
ATOM      5  C4  BZF d   1      -0.796  -0.452   1.426  0.00  0.00     0.055 A 
ATOM      6  C5  BZF d   1      -0.993  -1.784   1.241  0.00  0.00    -0.016 A 
ATOM      7  C6  BZF d   1      -0.909  -2.364  -0.008  0.00  0.00     0.022 A 
ATOM      8  C7  BZF d   1      -0.615  -1.628  -1.108  0.00  0.00     0.029 A 
ATOM      9  C7A BZF d   1      -0.383  -0.287  -0.919  0.00  0.00     0.058 A 
ENDROOT
TORSDOF 0
ENDMDL
