MODEL 1
REMARK minimizedAffinity -2.82126522
REMARK minimizedRMSD -1
REMARK  0 active torsions:
REMARK  status: ('A' for Active; 'I' for Inactive)
ROOT
ATOM      1  O1  BZF d   1       0.074  -1.689  -2.457  0.00  0.00    -0.204 OA
ATOM      2  C2  BZF d   1      -0.256  -3.018  -2.638  0.00  0.00     0.174 A 
ATOM      3  C3  BZF d   1      -0.681  -3.567  -1.482  0.00  0.00    -0.012 A 
ATOM      4  C3A BZF d   1      -0.701  -2.492  -0.539  0.00  0.00    -0.107 A 
ATOM      5  C4  BZF d   1      -1.049  -2.405   0.779  0.00  0.00     0.055 A 
ATOM      6  C5  BZF d   1      -0.884  -1.223   1.429  0.00  0.00    -0.016 A 
ATOM      7  C6  BZF d   1      -0.370  -0.111   0.794  0.00  0.00     0.022 A 
ATOM      8  C7  BZF d   1      -0.016  -0.147  -0.513  0.00  0.00     0.029 A 
ATOM      9  C7A BZF d   1      -0.212  -1.331  -1.182  0.00  0.00     0.058 A 
ENDROOT
TORSDOF 0
ENDMDL
