MODEL 1
REMARK minimizedAffinity -1.11143053
REMARK minimizedRMSD -1
REMARK  0 active torsions:
REMARK  status: ('A' for Active; 'I' for Inactive)
ROOT
ATOM      1  O1  BZF d   1       0.488  -0.156   1.957  0.00  0.00    -0.204 OA
ATOM      2  C2  BZF d   1      -0.414  -0.932   1.254  0.00  0.00     0.174 A 
ATOM      3  C3  BZF d   1      -0.822  -0.298   0.137  0.00  0.00    -0.012 A 
ATOM      4  C3A BZF d   1      -0.063   0.914   0.093  0.00  0.00    -0.107 A 
ATOM      5  C4  BZF d   1      -0.009   1.958  -0.786  0.00  0.00     0.055 A 
ATOM      6  C5  BZF d   1       0.785   3.023  -0.500  0.00  0.00    -0.016 A 
ATOM      7  C6  BZF d   1       1.533   3.080   0.657  0.00  0.00     0.022 A 
ATOM      8  C7  BZF d   1       1.517   2.067   1.558  0.00  0.00     0.029 A 
ATOM      9  C7A BZF d   1       0.740   0.975   1.255  0.00  0.00     0.058 A 
ENDROOT
TORSDOF 0
ENDMDL
