MODEL 1
REMARK minimizedAffinity -2.62268186
REMARK minimizedRMSD -1
REMARK  0 active torsions:
REMARK  status: ('A' for Active; 'I' for Inactive)
ROOT
ATOM      1  O1  BZF d   1       0.073   0.455  -0.553  0.00  0.00    -0.204 OA
ATOM      2  C2  BZF d   1      -0.342   0.763   0.728  0.00  0.00     0.174 A 
ATOM      3  C3  BZF d   1      -0.999  -0.277   1.281  0.00  0.00    -0.012 A 
ATOM      4  C3A BZF d   1      -0.913  -1.331   0.318  0.00  0.00    -0.107 A 
ATOM      5  C4  BZF d   1      -1.360  -2.621   0.296  0.00  0.00     0.055 A 
ATOM      6  C5  BZF d   1      -1.174  -3.366  -0.826  0.00  0.00    -0.016 A 
ATOM      7  C6  BZF d   1      -0.551  -2.851  -1.944  0.00  0.00     0.022 A 
ATOM      8  C7  BZF d   1      -0.086  -1.578  -1.968  0.00  0.00     0.029 A 
ATOM      9  C7A BZF d   1      -0.242  -0.834  -0.824  0.00  0.00     0.058 A 
ENDROOT
TORSDOF 0
ENDMDL
