MODEL 1
REMARK minimizedAffinity -3.36454558
REMARK minimizedRMSD -1
REMARK  0 active torsions:
REMARK  status: ('A' for Active; 'I' for Inactive)
ROOT
ATOM      1  O1  BZF d   1       0.045   0.510  -1.156  0.00  0.00    -0.204 OA
ATOM      2  C2  BZF d   1      -0.141   1.176   0.040  0.00  0.00     0.174 A 
ATOM      3  C3  BZF d   1      -0.601   0.335   0.989  0.00  0.00    -0.012 A 
ATOM      4  C3A BZF d   1      -0.622  -0.955   0.371  0.00  0.00    -0.107 A 
ATOM      5  C4  BZF d   1      -0.968  -2.201   0.810  0.00  0.00     0.055 A 
ATOM      6  C5  BZF d   1      -0.945  -3.240  -0.066  0.00  0.00    -0.016 A 
ATOM      7  C6  BZF d   1      -0.586  -3.068  -1.387  0.00  0.00     0.022 A 
ATOM      8  C7  BZF d   1      -0.229  -1.852  -1.867  0.00  0.00     0.029 A 
ATOM      9  C7A BZF d   1      -0.220  -0.806  -0.976  0.00  0.00     0.058 A 
ENDROOT
TORSDOF 0
ENDMDL
