MODEL 1
REMARK minimizedAffinity -1.7881186
REMARK minimizedRMSD -1
REMARK  0 active torsions:
REMARK  status: ('A' for Active; 'I' for Inactive)
ROOT
ATOM      1  O1  BZF d   1       1.067   2.847  -0.414  0.00  0.00    -0.204 OA
ATOM      2  C2  BZF d   1       2.211   3.052   0.332  0.00  0.00     0.174 A 
ATOM      3  C3  BZF d   1       2.377   2.064   1.235  0.00  0.00    -0.012 A 
ATOM      4  C3A BZF d   1       1.316   1.138   0.979  0.00  0.00    -0.107 A 
ATOM      5  C4  BZF d   1       0.956  -0.055   1.538  0.00  0.00     0.055 A 
ATOM      6  C5  BZF d   1      -0.175  -0.671   1.105  0.00  0.00    -0.016 A 
ATOM      7  C6  BZF d   1      -0.971  -0.122   0.121  0.00  0.00     0.022 A 
ATOM      8  C7  BZF d   1      -0.652   1.057  -0.466  0.00  0.00     0.029 A 
ATOM      9  C7A BZF d   1       0.509   1.666  -0.055  0.00  0.00     0.058 A 
ENDROOT
TORSDOF 0
ENDMDL
