MODEL 1
REMARK minimizedAffinity 1.49623191
REMARK minimizedRMSD -1
REMARK  0 active torsions:
REMARK  status: ('A' for Active; 'I' for Inactive)
ROOT
ATOM      1  O1  BZF d   1      -0.302  -0.717  -1.653  0.00  0.00    -0.204 OA
ATOM      2  C2  BZF d   1       0.042   0.619  -1.721  0.00  0.00     0.174 A 
ATOM      3  C3  BZF d   1      -0.093   1.209  -0.516  0.00  0.00    -0.012 A 
ATOM      4  C3A BZF d   1      -0.461   0.156   0.380  0.00  0.00    -0.107 A 
ATOM      5  C4  BZF d   1      -0.721   0.111   1.720  0.00  0.00     0.055 A 
ATOM      6  C5  BZF d   1      -1.124  -1.062   2.275  0.00  0.00    -0.016 A 
ATOM      7  C6  BZF d   1      -1.283  -2.206   1.521  0.00  0.00     0.022 A 
ATOM      8  C7  BZF d   1      -1.032  -2.212   0.189  0.00  0.00     0.029 A 
ATOM      9  C7A BZF d   1      -0.592  -1.036  -0.369  0.00  0.00     0.058 A 
ENDROOT
TORSDOF 0
ENDMDL
