MODEL 1
REMARK minimizedAffinity -4.31199312
REMARK minimizedRMSD -1
REMARK  0 active torsions:
REMARK  status: ('A' for Active; 'I' for Inactive)
ROOT
ATOM      1  O1  BZF d   1       0.269   0.510  -1.242  0.00  0.00    -0.204 OA
ATOM      2  C2  BZF d   1       0.012   1.075  -0.008  0.00  0.00     0.174 A 
ATOM      3  C3  BZF d   1      -0.532   0.169   0.830  0.00  0.00    -0.012 A 
ATOM      4  C3A BZF d   1      -0.536  -1.062   0.101  0.00  0.00    -0.107 A 
ATOM      5  C4  BZF d   1      -0.938  -2.331   0.404  0.00  0.00     0.055 A 
ATOM      6  C5  BZF d   1      -0.874  -3.291  -0.556  0.00  0.00    -0.016 A 
ATOM      7  C6  BZF d   1      -0.418  -3.017  -1.828  0.00  0.00     0.022 A 
ATOM      8  C7  BZF d   1      -0.003  -1.774  -2.175  0.00  0.00     0.029 A 
ATOM      9  C7A BZF d   1      -0.035  -0.809  -1.197  0.00  0.00     0.058 A 
ENDROOT
TORSDOF 0
ENDMDL
