MODEL 1
REMARK minimizedAffinity -3.30882978
REMARK minimizedRMSD -1
REMARK  0 active torsions:
REMARK  status: ('A' for Active; 'I' for Inactive)
ROOT
ATOM      1  C   UNL d   1       0.158   1.250  -0.240  0.00  0.00     0.172 C 
ATOM      2  N   UNL d   1      -0.194  -0.079   0.201  0.00  0.00    -0.070 N 
ATOM      3  C1  UNL d   1      -0.919  -0.383   1.322  0.00  0.00    -0.004 A 
ATOM      4  C2  UNL d   1      -1.038  -1.754   1.389  0.00  0.00    -0.047 A 
ATOM      5  C3  UNL d   1      -0.360  -2.294   0.270  0.00  0.00    -0.047 A 
ATOM      6  C4  UNL d   1       0.153  -1.235  -0.448  0.00  0.00    -0.004 A 
ENDROOT
TORSDOF 0
ENDMDL
