MODEL 1
REMARK minimizedAffinity -3.58517838
REMARK minimizedRMSD -1
REMARK  0 active torsions:
REMARK  status: ('A' for Active; 'I' for Inactive)
ROOT
ATOM      1  C   UNL d   1       0.603   1.358  -0.039  0.00  0.00     0.172 C 
ATOM      2  N   UNL d   1       0.391  -0.059   0.140  0.00  0.00    -0.070 N 
ATOM      3  C1  UNL d   1      -0.221  -0.645   1.216  0.00  0.00    -0.004 A 
ATOM      4  C2  UNL d   1      -0.226  -2.008   1.008  0.00  0.00    -0.047 A 
ATOM      5  C3  UNL d   1       0.404  -2.249  -0.236  0.00  0.00    -0.047 A 
ATOM      6  C4  UNL d   1       0.776  -1.025  -0.752  0.00  0.00    -0.004 A 
ENDROOT
TORSDOF 0
ENDMDL
