MODEL 1
REMARK minimizedAffinity -3.83680439
REMARK minimizedRMSD -1
REMARK  0 active torsions:
REMARK  status: ('A' for Active; 'I' for Inactive)
ROOT
ATOM      1  C   UNL d   1       0.167   0.964  -0.845  0.00  0.00     0.172 C 
ATOM      2  N   UNL d   1      -0.049  -0.324  -0.228  0.00  0.00    -0.070 N 
ATOM      3  C1  UNL d   1      -0.927  -0.584   0.790  0.00  0.00    -0.004 A 
ATOM      4  C2  UNL d   1      -0.837  -1.925   1.093  0.00  0.00    -0.047 A 
ATOM      5  C3  UNL d   1       0.129  -2.491   0.227  0.00  0.00    -0.047 A 
ATOM      6  C4  UNL d   1       0.601  -1.477  -0.580  0.00  0.00    -0.004 A 
ENDROOT
TORSDOF 0
ENDMDL
