MODEL 1
REMARK minimizedAffinity -3.35231471
REMARK minimizedRMSD -1
REMARK  0 active torsions:
REMARK  status: ('A' for Active; 'I' for Inactive)
ROOT
ATOM      1  C   UNL d   1       0.068   2.120  -0.420  0.00  0.00     0.172 C 
ATOM      2  N   UNL d   1      -0.050   0.706  -0.153  0.00  0.00    -0.070 N 
ATOM      3  C1  UNL d   1       0.537  -0.295  -0.879  0.00  0.00    -0.004 A 
ATOM      4  C2  UNL d   1       0.182  -1.497  -0.304  0.00  0.00    -0.047 A 
ATOM      5  C3  UNL d   1      -0.648  -1.207   0.805  0.00  0.00    -0.047 A 
ATOM      6  C4  UNL d   1      -0.775   0.164   0.876  0.00  0.00    -0.004 A 
ENDROOT
TORSDOF 0
ENDMDL
