MODEL 1
REMARK minimizedAffinity -3.48938322
REMARK minimizedRMSD -1
REMARK  0 active torsions:
REMARK  status: ('A' for Active; 'I' for Inactive)
ROOT
ATOM      1  C   UNL d   1      -0.763   0.265   1.099  0.00  0.00     0.172 C 
ATOM      2  N   UNL d   1      -0.048  -0.718   0.320  0.00  0.00    -0.070 N 
ATOM      3  C1  UNL d   1       0.551  -0.495  -0.891  0.00  0.00    -0.004 A 
ATOM      4  C2  UNL d   1       1.124  -1.678  -1.303  0.00  0.00    -0.047 A 
ATOM      5  C3  UNL d   1       0.861  -2.646  -0.305  0.00  0.00    -0.047 A 
ATOM      6  C4  UNL d   1       0.134  -2.025   0.688  0.00  0.00    -0.004 A 
ENDROOT
TORSDOF 0
ENDMDL
