MODEL 1
REMARK minimizedAffinity -3.08760262
REMARK minimizedRMSD -1
REMARK  0 active torsions:
REMARK  status: ('A' for Active; 'I' for Inactive)
ROOT
ATOM      1  C   UNL d   1      -0.347   1.567  -1.117  0.00  0.00     0.172 C 
ATOM      2  N   UNL d   1      -0.003   0.168  -1.024  0.00  0.00    -0.070 N 
ATOM      3  C1  UNL d   1       0.007  -0.577   0.125  0.00  0.00    -0.004 A 
ATOM      4  C2  UNL d   1       0.388  -1.860  -0.207  0.00  0.00    -0.047 A 
ATOM      5  C3  UNL d   1       0.616  -1.886  -1.603  0.00  0.00    -0.047 A 
ATOM      6  C4  UNL d   1       0.367  -0.617  -2.084  0.00  0.00    -0.004 A 
ENDROOT
TORSDOF 0
ENDMDL
