MODEL 1
REMARK minimizedAffinity -4.12992859
REMARK minimizedRMSD -1
REMARK  0 active torsions:
REMARK  status: ('A' for Active; 'I' for Inactive)
ROOT
ATOM      1  C   UNL d   1       0.343   0.946   0.202  0.00  0.00     0.172 C 
ATOM      2  N   UNL d   1       0.088  -0.456   0.431  0.00  0.00    -0.070 N 
ATOM      3  C1  UNL d   1      -0.430  -0.997   1.578  0.00  0.00    -0.004 A 
ATOM      4  C2  UNL d   1      -0.519  -2.360   1.399  0.00  0.00    -0.047 A 
ATOM      5  C3  UNL d   1      -0.036  -2.650   0.101  0.00  0.00    -0.047 A 
ATOM      6  C4  UNL d   1       0.333  -1.453  -0.476  0.00  0.00    -0.004 A 
ENDROOT
TORSDOF 0
ENDMDL
