MODEL 1
REMARK minimizedAffinity -3.90805888
REMARK minimizedRMSD -1
REMARK  0 active torsions:
REMARK  status: ('A' for Active; 'I' for Inactive)
ROOT
ATOM      1  C   UNL d   1       0.193   0.952  -0.325  0.00  0.00     0.172 C 
ATOM      2  N   UNL d   1      -0.124  -0.401   0.067  0.00  0.00    -0.070 N 
ATOM      3  C1  UNL d   1       0.412  -1.537  -0.477  0.00  0.00    -0.004 A 
ATOM      4  C2  UNL d   1      -0.146  -2.619   0.168  0.00  0.00    -0.047 A 
ATOM      5  C3  UNL d   1      -1.050  -2.116   1.134  0.00  0.00    -0.047 A 
ATOM      6  C4  UNL d   1      -1.017  -0.740   1.050  0.00  0.00    -0.004 A 
ENDROOT
TORSDOF 0
ENDMDL
