MODEL 1
REMARK minimizedAffinity -3.47186255
REMARK minimizedRMSD -1
REMARK  0 active torsions:
REMARK  status: ('A' for Active; 'I' for Inactive)
ROOT
ATOM      1  C   UNL d   1      -0.837  -0.507   1.183  0.00  0.00     0.172 C 
ATOM      2  N   UNL d   1      -0.392  -1.484   0.216  0.00  0.00    -0.070 N 
ATOM      3  C1  UNL d   1       0.328  -1.215  -0.917  0.00  0.00    -0.004 A 
ATOM      4  C2  UNL d   1       0.553  -2.409  -1.568  0.00  0.00    -0.047 A 
ATOM      5  C3  UNL d   1      -0.053  -3.431  -0.799  0.00  0.00    -0.047 A 
ATOM      6  C4  UNL d   1      -0.631  -2.830   0.300  0.00  0.00    -0.004 A 
ENDROOT
TORSDOF 0
ENDMDL
