MODEL 1
REMARK minimizedAffinity -2.36505461
REMARK minimizedRMSD -1
REMARK  0 active torsions:
REMARK  status: ('A' for Active; 'I' for Inactive)
ROOT
ATOM      1  C   UNL d   1       0.006  -0.713   1.471  0.00  0.00     0.172 C 
ATOM      2  N   UNL d   1       0.363   0.363   0.577  0.00  0.00    -0.070 N 
ATOM      3  C1  UNL d   1       0.103   0.404  -0.767  0.00  0.00    -0.004 A 
ATOM      4  C2  UNL d   1       0.599   1.593  -1.257  0.00  0.00    -0.047 A 
ATOM      5  C3  UNL d   1       1.178   2.290  -0.170  0.00  0.00    -0.047 A 
ATOM      6  C4  UNL d   1       1.017   1.506   0.953  0.00  0.00    -0.004 A 
ENDROOT
TORSDOF 0
ENDMDL
