MODEL 1
REMARK minimizedAffinity -3.98947358
REMARK minimizedRMSD -1
REMARK  0 active torsions:
REMARK  status: ('A' for Active; 'I' for Inactive)
ROOT
ATOM      1  C   UNL d   1       0.089   0.348  -0.583  0.00  0.00     0.172 C 
ATOM      2  N   UNL d   1       0.227  -1.079  -0.758  0.00  0.00    -0.070 N 
ATOM      3  C1  UNL d   1       0.485  -1.716  -1.942  0.00  0.00    -0.004 A 
ATOM      4  C2  UNL d   1       0.543  -3.070  -1.689  0.00  0.00    -0.047 A 
ATOM      5  C3  UNL d   1       0.310  -3.252  -0.305  0.00  0.00    -0.047 A 
ATOM      6  C4  UNL d   1       0.118  -2.004   0.247  0.00  0.00    -0.004 A 
ENDROOT
TORSDOF 0
ENDMDL
