MODEL 1
REMARK minimizedAffinity -1.48095894
REMARK minimizedRMSD -1
REMARK  0 active torsions:
REMARK  status: ('A' for Active; 'I' for Inactive)
ROOT
ATOM      1  C   UNL d   1      -1.013  -2.610   0.772  0.00  0.00     0.172 C 
ATOM      2  N   UNL d   1      -0.749  -1.252   0.357  0.00  0.00    -0.070 N 
ATOM      3  C1  UNL d   1      -1.156  -0.123   1.017  0.00  0.00    -0.004 A 
ATOM      4  C2  UNL d   1      -0.706   0.967   0.304  0.00  0.00    -0.047 A 
ATOM      5  C3  UNL d   1      -0.005   0.476  -0.823  0.00  0.00    -0.047 A 
ATOM      6  C4  UNL d   1      -0.047  -0.901  -0.765  0.00  0.00    -0.004 A 
ENDROOT
TORSDOF 0
ENDMDL
