MODEL 1
REMARK minimizedAffinity -4.11604595
REMARK minimizedRMSD -1
REMARK  0 active torsions:
REMARK  status: ('A' for Active; 'I' for Inactive)
ROOT
ATOM      1  C   UNL d   1       0.321   0.945  -0.260  0.00  0.00     0.172 C 
ATOM      2  N   UNL d   1       0.211  -0.481  -0.058  0.00  0.00    -0.070 N 
ATOM      3  C1  UNL d   1      -0.346  -1.092   1.033  0.00  0.00    -0.004 A 
ATOM      4  C2  UNL d   1      -0.258  -2.455   0.844  0.00  0.00    -0.047 A 
ATOM      5  C3  UNL d   1       0.376  -2.669  -0.403  0.00  0.00    -0.047 A 
ATOM      6  C4  UNL d   1       0.655  -1.431  -0.940  0.00  0.00    -0.004 A 
ENDROOT
TORSDOF 0
ENDMDL
