MODEL 1
REMARK minimizedAffinity -2.29510713
REMARK minimizedRMSD -1
REMARK  0 active torsions:
REMARK  status: ('A' for Active; 'I' for Inactive)
ROOT
ATOM      1  C   UNL d   1      -2.987  -2.967   0.738  0.00  0.00     0.172 C 
ATOM      2  N   UNL d   1      -1.608  -2.810   0.341  0.00  0.00    -0.070 N 
ATOM      3  C1  UNL d   1      -0.738  -3.828   0.056  0.00  0.00    -0.004 A 
ATOM      4  C2  UNL d   1       0.474  -3.266  -0.282  0.00  0.00    -0.047 A 
ATOM      5  C3  UNL d   1       0.328  -1.861  -0.195  0.00  0.00    -0.047 A 
ATOM      6  C4  UNL d   1      -0.971  -1.606   0.192  0.00  0.00    -0.004 A 
ENDROOT
TORSDOF 0
ENDMDL
