MODEL 1
REMARK minimizedAffinity -3.62967658
REMARK minimizedRMSD -1
REMARK  0 active torsions:
REMARK  status: ('A' for Active; 'I' for Inactive)
ROOT
ATOM      1  C   UNL d   1       0.737   0.222   0.274  0.00  0.00     0.172 C 
ATOM      2  N   UNL d   1       0.013  -1.016   0.444  0.00  0.00    -0.070 N 
ATOM      3  C1  UNL d   1       0.439  -2.252   0.036  0.00  0.00    -0.004 A 
ATOM      4  C2  UNL d   1      -0.531  -3.168   0.381  0.00  0.00    -0.047 A 
ATOM      5  C3  UNL d   1      -1.577  -2.458   1.016  0.00  0.00    -0.047 A 
ATOM      6  C4  UNL d   1      -1.214  -1.128   1.042  0.00  0.00    -0.004 A 
ENDROOT
TORSDOF 0
ENDMDL
