MODEL 1
REMARK minimizedAffinity -2.50664449
REMARK minimizedRMSD -1
REMARK  0 active torsions:
REMARK  status: ('A' for Active; 'I' for Inactive)
ROOT
ATOM      1  C   UNL d   1       1.596  -0.982  -0.773  0.00  0.00     0.172 C 
ATOM      2  N   UNL d   1       0.506  -0.811   0.158  0.00  0.00    -0.070 N 
ATOM      3  C1  UNL d   1       0.616  -0.799   1.523  0.00  0.00    -0.004 A 
ATOM      4  C2  UNL d   1      -0.645  -0.612   2.047  0.00  0.00    -0.047 A 
ATOM      5  C3  UNL d   1      -1.544  -0.508   0.959  0.00  0.00    -0.047 A 
ATOM      6  C4  UNL d   1      -0.805  -0.635  -0.198  0.00  0.00    -0.004 A 
ENDROOT
TORSDOF 0
ENDMDL
