MODEL 1
REMARK minimizedAffinity 1.99476385
REMARK minimizedRMSD -1
REMARK  0 active torsions:
REMARK  status: ('A' for Active; 'I' for Inactive)
ROOT
ATOM      1  C   UNL d   1       0.084  -2.557   3.304  0.00  0.00     0.172 C 
ATOM      2  N   UNL d   1       0.356  -1.449   2.419  0.00  0.00    -0.070 N 
ATOM      3  C1  UNL d   1      -0.469  -1.004   1.421  0.00  0.00    -0.004 A 
ATOM      4  C2  UNL d   1       0.148   0.066   0.810  0.00  0.00    -0.047 A 
ATOM      5  C3  UNL d   1       1.387   0.270   1.462  0.00  0.00    -0.047 A 
ATOM      6  C4  UNL d   1       1.490  -0.682   2.454  0.00  0.00    -0.004 A 
ENDROOT
TORSDOF 0
ENDMDL
