MODEL 1
REMARK minimizedAffinity -2.14620781
REMARK minimizedRMSD -1
REMARK  0 active torsions:
REMARK  status: ('A' for Active; 'I' for Inactive)
ROOT
ATOM      1  C   UNL d   1      -1.684   3.670  -2.761  0.00  0.00     0.172 C 
ATOM      2  N   UNL d   1      -1.051   2.379  -2.630  0.00  0.00    -0.070 N 
ATOM      3  C1  UNL d   1      -0.231   1.795  -3.558  0.00  0.00    -0.004 A 
ATOM      4  C2  UNL d   1       0.166   0.573  -3.059  0.00  0.00    -0.047 A 
ATOM      5  C3  UNL d   1      -0.437   0.417  -1.789  0.00  0.00    -0.047 A 
ATOM      6  C4  UNL d   1      -1.186   1.550  -1.548  0.00  0.00    -0.004 A 
ENDROOT
TORSDOF 0
ENDMDL
