MODEL 1
REMARK minimizedAffinity 0.216284603
REMARK minimizedRMSD -1
REMARK  0 active torsions:
REMARK  status: ('A' for Active; 'I' for Inactive)
ROOT
ATOM      1  C   UNL d   1      -0.507  -1.771   3.121  0.00  0.00     0.172 C 
ATOM      2  N   UNL d   1       0.686  -1.177   2.565  0.00  0.00    -0.070 N 
ATOM      3  C1  UNL d   1       1.667  -0.539   3.276  0.00  0.00    -0.004 A 
ATOM      4  C2  UNL d   1       2.629  -0.118   2.384  0.00  0.00    -0.047 A 
ATOM      5  C3  UNL d   1       2.211  -0.515   1.092  0.00  0.00    -0.047 A 
ATOM      6  C4  UNL d   1       1.006  -1.169   1.233  0.00  0.00    -0.004 A 
ENDROOT
TORSDOF 0
ENDMDL
