MODEL 1
REMARK minimizedAffinity -3.69110489
REMARK minimizedRMSD -1
REMARK  0 active torsions:
REMARK  status: ('A' for Active; 'I' for Inactive)
ROOT
ATOM      1  C   UNL d   1      -0.726   0.417  -1.413  0.00  0.00     0.172 C 
ATOM      2  N   UNL d   1      -1.263   1.457  -2.259  0.00  0.00    -0.070 N 
ATOM      3  C1  UNL d   1      -2.584   1.803  -2.357  0.00  0.00    -0.004 A 
ATOM      4  C2  UNL d   1      -2.684   2.835  -3.265  0.00  0.00    -0.047 A 
ATOM      5  C3  UNL d   1      -1.378   3.119  -3.729  0.00  0.00    -0.047 A 
ATOM      6  C4  UNL d   1      -0.518   2.251  -3.090  0.00  0.00    -0.004 A 
ENDROOT
TORSDOF 0
ENDMDL
