MODEL 1
REMARK minimizedAffinity -1.48663473
REMARK minimizedRMSD -1
REMARK  0 active torsions:
REMARK  status: ('A' for Active; 'I' for Inactive)
ROOT
ATOM      1  C   UNL d   1      -3.217   2.776  -2.119  0.00  0.00     0.172 C 
ATOM      2  N   UNL d   1      -1.798   2.696  -2.375  0.00  0.00    -0.070 N 
ATOM      3  C1  UNL d   1      -0.987   1.641  -2.055  0.00  0.00    -0.004 A 
ATOM      4  C2  UNL d   1       0.292   1.952  -2.462  0.00  0.00    -0.047 A 
ATOM      5  C3  UNL d   1       0.248   3.240  -3.047  0.00  0.00    -0.047 A 
ATOM      6  C4  UNL d   1      -1.058   3.678  -2.979  0.00  0.00    -0.004 A 
ENDROOT
TORSDOF 0
ENDMDL
