MODEL 1
REMARK minimizedAffinity -3.40246892
REMARK minimizedRMSD -1
REMARK  0 active torsions:
REMARK  status: ('A' for Active; 'I' for Inactive)
ROOT
ATOM      1  C   UNL d   1      -0.030  -0.095  -1.320  0.00  0.00     0.172 C 
ATOM      2  N   UNL d   1       0.009  -0.342   0.102  0.00  0.00    -0.070 N 
ATOM      3  C1  UNL d   1       1.076  -0.848   0.795  0.00  0.00    -0.004 A 
ATOM      4  C2  UNL d   1       0.715  -0.932   2.123  0.00  0.00    -0.047 A 
ATOM      5  C3  UNL d   1      -0.615  -0.460   2.231  0.00  0.00    -0.047 A 
ATOM      6  C4  UNL d   1      -1.027  -0.101   0.965  0.00  0.00    -0.004 A 
ENDROOT
TORSDOF 0
ENDMDL
