MODEL 1
REMARK minimizedAffinity -2.80684447
REMARK minimizedRMSD -1
REMARK  0 active torsions:
REMARK  status: ('A' for Active; 'I' for Inactive)
ROOT
ATOM      1  C   UNL d   1      -0.534   0.324   1.352  0.00  0.00     0.172 C 
ATOM      2  N   UNL d   1      -0.102  -0.228   0.090  0.00  0.00    -0.070 N 
ATOM      3  C1  UNL d   1       1.152  -0.706  -0.185  0.00  0.00    -0.004 A 
ATOM      4  C2  UNL d   1       1.160  -1.142  -1.492  0.00  0.00    -0.047 A 
ATOM      5  C3  UNL d   1      -0.133  -0.916  -2.022  0.00  0.00    -0.047 A 
ATOM      6  C4  UNL d   1      -0.894  -0.350  -1.021  0.00  0.00    -0.004 A 
ENDROOT
TORSDOF 0
ENDMDL
