MODEL 1
REMARK minimizedAffinity -2.76814651
REMARK minimizedRMSD -1
REMARK  0 active torsions:
REMARK  status: ('A' for Active; 'I' for Inactive)
ROOT
ATOM      1  C   UNL d   1      -0.834   0.290  -0.368  0.00  0.00     0.172 C 
ATOM      2  N   UNL d   1      -0.771   1.311  -1.388  0.00  0.00    -0.070 N 
ATOM      3  C1  UNL d   1       0.110   2.359  -1.415  0.00  0.00    -0.004 A 
ATOM      4  C2  UNL d   1      -0.153   3.103  -2.545  0.00  0.00    -0.047 A 
ATOM      5  C3  UNL d   1      -1.230   2.481  -3.219  0.00  0.00    -0.047 A 
ATOM      6  C4  UNL d   1      -1.593   1.374  -2.481  0.00  0.00    -0.004 A 
ENDROOT
TORSDOF 0
ENDMDL
