MODEL 1
REMARK minimizedAffinity -1.99496329
REMARK minimizedRMSD -1
REMARK  0 active torsions:
REMARK  status: ('A' for Active; 'I' for Inactive)
ROOT
ATOM      1  C   UNL d   1       0.746  -1.794   2.443  0.00  0.00     0.172 C 
ATOM      2  N   UNL d   1       0.402  -1.135   1.205  0.00  0.00    -0.070 N 
ATOM      3  C1  UNL d   1       1.164  -1.127   0.067  0.00  0.00    -0.004 A 
ATOM      4  C2  UNL d   1       0.490  -0.394  -0.886  0.00  0.00    -0.047 A 
ATOM      5  C3  UNL d   1      -0.717   0.055  -0.301  0.00  0.00    -0.047 A 
ATOM      6  C4  UNL d   1      -0.746  -0.418   0.994  0.00  0.00    -0.004 A 
ENDROOT
TORSDOF 0
ENDMDL
