MODEL 1
REMARK minimizedAffinity -2.51340055
REMARK minimizedRMSD -1
REMARK  0 active torsions:
REMARK  status: ('A' for Active; 'I' for Inactive)
ROOT
ATOM      1  C   UNL d   1       2.191  -2.101  -0.068  0.00  0.00     0.172 C 
ATOM      2  N   UNL d   1       1.201  -1.582   0.846  0.00  0.00    -0.070 N 
ATOM      3  C1  UNL d   1       1.012  -1.995   2.137  0.00  0.00    -0.004 A 
ATOM      4  C2  UNL d   1      -0.023  -1.257   2.669  0.00  0.00    -0.047 A 
ATOM      5  C3  UNL d   1      -0.473  -0.371   1.662  0.00  0.00    -0.047 A 
ATOM      6  C4  UNL d   1       0.302  -0.593   0.543  0.00  0.00    -0.004 A 
ENDROOT
TORSDOF 0
ENDMDL
