MODEL 1
REMARK minimizedAffinity -3.43868637
REMARK minimizedRMSD -1
REMARK  1 active torsions:
REMARK  status: ('A' for Active; 'I' for Inactive)
REMARK    1  A    between atoms: N_2  and  C1_3 
ROOT
ATOM      1  C1  UNL d   1       0.000  -0.246   0.250  0.00  0.00     0.143 A 
ATOM      2  C2  UNL d   1       0.767   0.527   1.129  0.00  0.00    -0.057 A 
ATOM      3  C3  UNL d   1       0.165   1.323   2.111  0.00  0.00     0.033 A 
ATOM      4  C4  UNL d   1      -1.221   1.382   2.213  0.00  0.00    -0.042 A 
ATOM      5  C5  UNL d   1      -2.004   0.642   1.334  0.00  0.00     0.033 A 
ATOM      6  C6  UNL d   1      -1.396  -0.156   0.360  0.00  0.00    -0.057 A 
ENDROOT
BRANCH   1   7
ATOM      7  N   UNL d   1       0.536  -0.981  -0.810  0.00  0.00    -0.732 N 
ATOM      8  C   UNL d   1       0.469  -0.476  -2.165  0.00  0.00     0.284 C 
ATOM      9  H3  UNL d   1       1.425  -1.415  -0.572  0.00  0.00     0.395 HD
ENDBRANCH   1   7
TORSDOF 1
ENDMDL
