MODEL 1
REMARK minimizedAffinity -4.52140236
REMARK minimizedRMSD -1
REMARK  1 active torsions:
REMARK  status: ('A' for Active; 'I' for Inactive)
REMARK    1  A    between atoms: N_2  and  C1_3 
ROOT
ATOM      1  C1  UNL d   1      -0.085  -0.047   0.527  0.00  0.00     0.143 A 
ATOM      2  C2  UNL d   1      -1.432   0.069   0.888  0.00  0.00    -0.057 A 
ATOM      3  C3  UNL d   1      -1.816   0.732   2.059  0.00  0.00     0.033 A 
ATOM      4  C4  UNL d   1      -0.854   1.268   2.909  0.00  0.00    -0.042 A 
ATOM      5  C5  UNL d   1       0.492   1.143   2.584  0.00  0.00     0.033 A 
ATOM      6  C6  UNL d   1       0.869   0.486   1.409  0.00  0.00    -0.057 A 
ENDROOT
BRANCH   1   7
ATOM      7  N   UNL d   1       0.366  -0.779  -0.574  0.00  0.00    -0.732 N 
ATOM      8  C   UNL d   1       0.581  -0.134  -1.851  0.00  0.00     0.284 C 
ATOM      9  H3  UNL d   1       1.084  -1.455  -0.323  0.00  0.00     0.395 HD
ENDBRANCH   1   7
TORSDOF 1
ENDMDL
