MODEL 1
REMARK minimizedAffinity -1.63383257
REMARK minimizedRMSD -1
REMARK  1 active torsions:
REMARK  status: ('A' for Active; 'I' for Inactive)
REMARK    1  A    between atoms: N_2  and  C1_3 
ROOT
ATOM      1  C1  UNL d   1       0.672   0.059  -1.353  0.00  0.00     0.143 A 
ATOM      2  C2  UNL d   1       1.379   0.205  -0.155  0.00  0.00    -0.057 A 
ATOM      3  C3  UNL d   1       0.792  -0.107   1.077  0.00  0.00     0.033 A 
ATOM      4  C4  UNL d   1      -0.528  -0.544   1.135  0.00  0.00    -0.042 A 
ATOM      5  C5  UNL d   1      -1.258  -0.672  -0.042  0.00  0.00     0.033 A 
ATOM      6  C6  UNL d   1      -0.663  -0.365  -1.270  0.00  0.00    -0.057 A 
ENDROOT
BRANCH   1   7
ATOM      7  N   UNL d   1       1.168   0.446  -2.601  0.00  0.00    -0.732 N 
ATOM      8  C   UNL d   1       0.510   0.024  -3.819  0.00  0.00     0.284 C 
ATOM      9  H3  UNL d   1       1.480   1.414  -2.611  0.00  0.00     0.395 HD
ENDBRANCH   1   7
TORSDOF 1
ENDMDL
