MODEL 1
REMARK minimizedAffinity -3.29937649
REMARK minimizedRMSD -1
REMARK  1 active torsions:
REMARK  status: ('A' for Active; 'I' for Inactive)
REMARK    1  A    between atoms: N_2  and  C1_3 
ROOT
ATOM      1  C1  UNL d   1      -0.151  -0.217  -0.429  0.00  0.00     0.143 A 
ATOM      2  C2  UNL d   1       1.003   0.041   0.319  0.00  0.00    -0.057 A 
ATOM      3  C3  UNL d   1       0.929   0.623   1.590  0.00  0.00     0.033 A 
ATOM      4  C4  UNL d   1      -0.302   0.984   2.126  0.00  0.00    -0.042 A 
ATOM      5  C5  UNL d   1      -1.461   0.760   1.390  0.00  0.00     0.033 A 
ATOM      6  C6  UNL d   1      -1.381   0.173   0.124  0.00  0.00    -0.057 A 
ENDROOT
BRANCH   1   7
ATOM      7  N   UNL d   1      -0.137  -0.703  -1.739  0.00  0.00    -0.732 N 
ATOM      8  C   UNL d   1       0.335   0.126  -2.827  0.00  0.00     0.284 C 
ATOM      9  H3  UNL d   1       0.169  -1.672  -1.791  0.00  0.00     0.395 HD
ENDBRANCH   1   7
TORSDOF 1
ENDMDL
