MODEL 1
REMARK minimizedAffinity -4.1667881
REMARK minimizedRMSD -1
REMARK  1 active torsions:
REMARK  status: ('A' for Active; 'I' for Inactive)
REMARK    1  A    between atoms: C1_2  and  C2_3 
ROOT
ATOM      1  C2  UNL d   1      -1.623   0.505  -0.263  0.00  0.00    -0.081 A 
ATOM      2  C3  UNL d   1      -1.739  -0.716  -0.937  0.00  0.00     0.006 A 
ATOM      3  C4  UNL d   1      -0.921  -1.796  -0.594  0.00  0.00     0.002 A 
ATOM      4  C5  UNL d   1       0.021  -1.674   0.433  0.00  0.00    -0.080 A 
ATOM      5  C6  UNL d   1       0.884  -2.834   0.831  0.00  0.00     0.076 C 
ATOM      6  C7  UNL d   1       0.149  -0.449   1.095  0.00  0.00     0.002 A 
ATOM      7  C8  UNL d   1      -0.668   0.631   0.752  0.00  0.00     0.006 A 
ENDROOT
BRANCH   1   8
ATOM      8  C1  UNL d   1      -2.547   1.651  -0.586  0.00  0.00     0.054 C 
ATOM      9  C   UNL d   1      -1.874   2.664  -1.501  0.00  0.00     0.018 C 
ENDBRANCH   1   8
TORSDOF 1
ENDMDL
