MODEL 1
REMARK minimizedAffinity 3.63053727
REMARK minimizedRMSD -1
REMARK  1 active torsions:
REMARK  status: ('A' for Active; 'I' for Inactive)
REMARK    1  A    between atoms: C1_2  and  C2_3 
ROOT
ATOM      1  C2  UNL d   1      -3.462  -5.423  -2.133  0.00  0.00    -0.081 A 
ATOM      2  C3  UNL d   1      -2.123  -5.826  -2.211  0.00  0.00     0.006 A 
ATOM      3  C4  UNL d   1      -1.182  -5.336  -1.302  0.00  0.00     0.002 A 
ATOM      4  C5  UNL d   1      -1.565  -4.442  -0.296  0.00  0.00    -0.080 A 
ATOM      5  C6  UNL d   1      -0.571  -3.932   0.705  0.00  0.00     0.076 C 
ATOM      6  C7  UNL d   1      -2.899  -4.027  -0.228  0.00  0.00     0.002 A 
ATOM      7  C8  UNL d   1      -3.840  -4.516  -1.137  0.00  0.00     0.006 A 
ENDROOT
BRANCH   1   8
ATOM      8  C1  UNL d   1      -4.491  -6.000  -3.071  0.00  0.00     0.054 C 
ATOM      9  C   UNL d   1      -5.894  -5.878  -2.495  0.00  0.00     0.018 C 
ENDBRANCH   1   8
TORSDOF 1
ENDMDL
