MODEL 1
REMARK minimizedAffinity 11.6714954
REMARK minimizedRMSD -1
REMARK  1 active torsions:
REMARK  status: ('A' for Active; 'I' for Inactive)
REMARK    1  A    between atoms: C1_2  and  C2_3 
ROOT
ATOM      1  C2  UNL d   1      -0.904  -2.142   3.491  0.00  0.00    -0.081 A 
ATOM      2  C3  UNL d   1      -1.086  -2.334   2.116  0.00  0.00     0.006 A 
ATOM      3  C4  UNL d   1      -0.433  -1.513   1.194  0.00  0.00     0.002 A 
ATOM      4  C5  UNL d   1       0.418  -0.492   1.631  0.00  0.00    -0.080 A 
ATOM      5  C6  UNL d   1       1.149   0.377   0.651  0.00  0.00     0.076 C 
ATOM      6  C7  UNL d   1       0.586  -0.289   3.005  0.00  0.00     0.002 A 
ATOM      7  C8  UNL d   1      -0.067  -1.109   3.927  0.00  0.00     0.006 A 
ENDROOT
BRANCH   1   8
ATOM      8  C1  UNL d   1      -1.556  -3.067   4.487  0.00  0.00     0.054 C 
ATOM      9  C   UNL d   1      -1.040  -2.815   5.896  0.00  0.00     0.018 C 
ENDBRANCH   1   8
TORSDOF 1
ENDMDL
