MODEL 1
REMARK minimizedAffinity 1.37442183
REMARK minimizedRMSD -1
REMARK  1 active torsions:
REMARK  status: ('A' for Active; 'I' for Inactive)
REMARK    1  A    between atoms: C1_2  and  C2_3 
ROOT
ATOM      1  C2  UNL d   1      -1.041  -0.251   0.515  0.00  0.00    -0.081 A 
ATOM      2  C3  UNL d   1      -1.324  -1.091  -0.569  0.00  0.00     0.006 A 
ATOM      3  C4  UNL d   1      -2.607  -1.129  -1.119  0.00  0.00     0.002 A 
ATOM      4  C5  UNL d   1      -3.626  -0.324  -0.600  0.00  0.00    -0.080 A 
ATOM      5  C6  UNL d   1      -5.001  -0.333  -1.201  0.00  0.00     0.076 C 
ATOM      6  C7  UNL d   1      -3.348   0.503   0.494  0.00  0.00     0.002 A 
ATOM      7  C8  UNL d   1      -2.065   0.541   1.045  0.00  0.00     0.006 A 
ENDROOT
BRANCH   1   8
ATOM      8  C1  UNL d   1       0.358  -0.159   1.069  0.00  0.00     0.054 C 
ATOM      9  C   UNL d   1       0.985  -1.538   1.218  0.00  0.00     0.018 C 
ENDBRANCH   1   8
TORSDOF 1
ENDMDL
