MODEL 1
REMARK minimizedAffinity 11.9402094
REMARK minimizedRMSD -1
REMARK  1 active torsions:
REMARK  status: ('A' for Active; 'I' for Inactive)
REMARK    1  A    between atoms: C1_2  and  C2_3 
ROOT
ATOM      1  C2  UNL d   1       1.213  -0.725   0.754  0.00  0.00    -0.081 A 
ATOM      2  C3  UNL d   1       1.066  -2.059   0.352  0.00  0.00     0.006 A 
ATOM      3  C4  UNL d   1       0.184  -2.908   1.025  0.00  0.00     0.002 A 
ATOM      4  C5  UNL d   1      -0.571  -2.437   2.104  0.00  0.00    -0.080 A 
ATOM      5  C6  UNL d   1      -1.545  -3.330   2.814  0.00  0.00     0.076 C 
ATOM      6  C7  UNL d   1      -0.412  -1.109   2.516  0.00  0.00     0.002 A 
ATOM      7  C8  UNL d   1       0.471  -0.260   1.845  0.00  0.00     0.006 A 
ENDROOT
BRANCH   1   8
ATOM      8  C1  UNL d   1       2.115   0.210  -0.009  0.00  0.00     0.054 C 
ATOM      9  C   UNL d   1       1.402   1.510  -0.353  0.00  0.00     0.018 C 
ENDBRANCH   1   8
TORSDOF 1
ENDMDL
