MODEL 1
REMARK minimizedAffinity 5.54614258
REMARK minimizedRMSD -1
REMARK  1 active torsions:
REMARK  status: ('A' for Active; 'I' for Inactive)
REMARK    1  A    between atoms: C1_2  and  C2_3 
ROOT
ATOM      1  C2  UNL d   1      -2.250  -3.926  -0.736  0.00  0.00    -0.081 A 
ATOM      2  C3  UNL d   1      -3.051  -2.905  -0.208  0.00  0.00     0.006 A 
ATOM      3  C4  UNL d   1      -2.516  -1.977   0.688  0.00  0.00     0.002 A 
ATOM      4  C5  UNL d   1      -1.170  -2.049   1.066  0.00  0.00    -0.080 A 
ATOM      5  C6  UNL d   1      -0.576  -1.041   2.004  0.00  0.00     0.076 C 
ATOM      6  C7  UNL d   1      -0.375  -3.079   0.553  0.00  0.00     0.002 A 
ATOM      7  C8  UNL d   1      -0.909  -4.007  -0.343  0.00  0.00     0.006 A 
ENDROOT
BRANCH   1   8
ATOM      8  C1  UNL d   1      -2.807  -4.889  -1.752  0.00  0.00     0.054 C 
ATOM      9  C   UNL d   1      -3.711  -5.924  -1.097  0.00  0.00     0.018 C 
ENDBRANCH   1   8
TORSDOF 1
ENDMDL
