MODEL 1
REMARK minimizedAffinity -1.3998729
REMARK minimizedRMSD -1
REMARK  1 active torsions:
REMARK  status: ('A' for Active; 'I' for Inactive)
REMARK    1  A    between atoms: C1_2  and  C2_3 
ROOT
ATOM      1  C2  UNL d   1      -4.507  -5.373   1.240  0.00  0.00    -0.081 A 
ATOM      2  C3  UNL d   1      -5.405  -6.000   0.367  0.00  0.00     0.006 A 
ATOM      3  C4  UNL d   1      -5.368  -5.729  -1.002  0.00  0.00     0.002 A 
ATOM      4  C5  UNL d   1      -4.428  -4.835  -1.524  0.00  0.00    -0.080 A 
ATOM      5  C6  UNL d   1      -4.357  -4.559  -2.997  0.00  0.00     0.076 C 
ATOM      6  C7  UNL d   1      -3.541  -4.195  -0.651  0.00  0.00     0.002 A 
ATOM      7  C8  UNL d   1      -3.579  -4.464   0.719  0.00  0.00     0.006 A 
ENDROOT
BRANCH   1   8
ATOM      8  C1  UNL d   1      -4.502  -5.711   2.708  0.00  0.00     0.054 C 
ATOM      9  C   UNL d   1      -5.908  -6.000   3.214  0.00  0.00     0.018 C 
ENDBRANCH   1   8
TORSDOF 1
ENDMDL
