MODEL 1
REMARK minimizedAffinity 14.9676542
REMARK minimizedRMSD -1
REMARK  1 active torsions:
REMARK  status: ('A' for Active; 'I' for Inactive)
REMARK    1  A    between atoms: C1_2  and  C2_3 
ROOT
ATOM      1  C2  UNL d   1       1.696  -0.233   2.233  0.00  0.00    -0.081 A 
ATOM      2  C3  UNL d   1       0.775  -0.551   3.239  0.00  0.00     0.006 A 
ATOM      3  C4  UNL d   1      -0.471  -1.090   2.913  0.00  0.00     0.002 A 
ATOM      4  C5  UNL d   1      -0.814  -1.329   1.578  0.00  0.00    -0.080 A 
ATOM      5  C6  UNL d   1      -2.137  -1.937   1.217  0.00  0.00     0.076 C 
ATOM      6  C7  UNL d   1       0.099  -0.996   0.572  0.00  0.00     0.002 A 
ATOM      7  C8  UNL d   1       1.345  -0.456   0.897  0.00  0.00     0.006 A 
ENDROOT
BRANCH   1   8
ATOM      8  C1  UNL d   1       3.066   0.288   2.585  0.00  0.00     0.054 C 
ATOM      9  C   UNL d   1       4.151  -0.424   1.789  0.00  0.00     0.018 C 
ENDBRANCH   1   8
TORSDOF 1
ENDMDL
