MODEL 1
REMARK minimizedAffinity 6.02958059
REMARK minimizedRMSD -1
REMARK  1 active torsions:
REMARK  status: ('A' for Active; 'I' for Inactive)
REMARK    1  A    between atoms: C1_2  and  C2_3 
ROOT
ATOM      1  C2  UNL d   1      -0.341   3.663  -2.130  0.00  0.00    -0.081 A 
ATOM      2  C3  UNL d   1      -1.483   2.954  -2.521  0.00  0.00     0.006 A 
ATOM      3  C4  UNL d   1      -2.069   3.188  -3.768  0.00  0.00     0.002 A 
ATOM      4  C5  UNL d   1      -1.518   4.127  -4.646  0.00  0.00    -0.080 A 
ATOM      5  C6  UNL d   1      -2.119   4.366  -5.999  0.00  0.00     0.076 C 
ATOM      6  C7  UNL d   1      -0.388   4.849  -4.247  0.00  0.00     0.002 A 
ATOM      7  C8  UNL d   1       0.198   4.616  -3.001  0.00  0.00     0.006 A 
ENDROOT
BRANCH   1   8
ATOM      8  C1  UNL d   1       0.330   3.367  -0.813  0.00  0.00     0.054 C 
ATOM      9  C   UNL d   1       1.806   3.741  -0.848  0.00  0.00     0.018 C 
ENDBRANCH   1   8
TORSDOF 1
ENDMDL
