MODEL 1
REMARK minimizedAffinity 5.77757311
REMARK minimizedRMSD -1
REMARK  1 active torsions:
REMARK  status: ('A' for Active; 'I' for Inactive)
REMARK    1  A    between atoms: C1_2  and  C2_3 
ROOT
ATOM      1  C2  UNL d   1       1.304  -0.509   0.715  0.00  0.00    -0.081 A 
ATOM      2  C3  UNL d   1       0.918   0.036  -0.516  0.00  0.00     0.006 A 
ATOM      3  C4  UNL d   1       1.879   0.388  -1.467  0.00  0.00     0.002 A 
ATOM      4  C5  UNL d   1       3.240   0.194  -1.206  0.00  0.00    -0.080 A 
ATOM      5  C6  UNL d   1       4.280   0.539  -2.230  0.00  0.00     0.076 C 
ATOM      6  C7  UNL d   1       3.626  -0.334   0.031  0.00  0.00     0.002 A 
ATOM      7  C8  UNL d   1       2.666  -0.685   0.982  0.00  0.00     0.006 A 
ENDROOT
BRANCH   1   8
ATOM      8  C1  UNL d   1       0.267  -0.949   1.717  0.00  0.00     0.054 C 
ATOM      9  C   UNL d   1      -0.515  -2.153   1.211  0.00  0.00     0.018 C 
ENDBRANCH   1   8
TORSDOF 1
ENDMDL
