MODEL 1
REMARK minimizedAffinity -3.83266926
REMARK minimizedRMSD -1
REMARK  0 active torsions:
REMARK  status: ('A' for Active; 'I' for Inactive)
ROOT
ATOM      1  C2' OXE d   1       0.717  -1.041  -1.052  0.00  0.00     0.078 C 
ATOM      2  C1' OXE d   1      -0.025   1.530  -1.900  0.00  0.00     0.078 C 
ATOM      3  C1  OXE d   1      -0.085   1.232  -0.423  0.00  0.00    -0.078 A 
ATOM      4  C2  OXE d   1       0.235  -0.042  -0.022  0.00  0.00    -0.078 A 
ATOM      5  C3  OXE d   1       0.249  -0.355   1.335  0.00  0.00     0.003 A 
ATOM      6  C4  OXE d   1      -0.208   0.571   2.280  0.00  0.00    -0.002 A 
ATOM      7  C5  OXE d   1      -0.576   1.862   1.889  0.00  0.00    -0.002 A 
ATOM      8  C6  OXE d   1      -0.480   2.222   0.549  0.00  0.00     0.003 A 
ENDROOT
TORSDOF 0
ENDMDL
