MODEL 1
REMARK minimizedAffinity -3.05510497
REMARK minimizedRMSD -1
REMARK  0 active torsions:
REMARK  status: ('A' for Active; 'I' for Inactive)
ROOT
ATOM      1  C2' OXE d   1      -1.502   1.863   1.121  0.00  0.00     0.078 C 
ATOM      2  C1' OXE d   1       0.021  -0.420   1.712  0.00  0.00     0.078 C 
ATOM      3  C1  OXE d   1       0.051   0.099   0.296  0.00  0.00    -0.078 A 
ATOM      4  C2  OXE d   1      -0.734   1.188   0.005  0.00  0.00    -0.078 A 
ATOM      5  C3  OXE d   1      -0.701   1.740  -1.272  0.00  0.00     0.003 A 
ATOM      6  C4  OXE d   1       0.004   1.104  -2.301  0.00  0.00    -0.002 A 
ATOM      7  C5  OXE d   1       0.778  -0.030  -2.036  0.00  0.00    -0.002 A 
ATOM      8  C6  OXE d   1       0.846  -0.519  -0.736  0.00  0.00     0.003 A 
ENDROOT
TORSDOF 0
ENDMDL
