MODEL 1
REMARK minimizedAffinity -3.40910459
REMARK minimizedRMSD -1
REMARK  0 active torsions:
REMARK  status: ('A' for Active; 'I' for Inactive)
ROOT
ATOM      1  C2' OXE d   1      -2.134   1.891   0.898  0.00  0.00     0.078 C 
ATOM      2  C1' OXE d   1      -1.544   2.857  -1.670  0.00  0.00     0.078 C 
ATOM      3  C1  OXE d   1      -0.709   1.720  -1.138  0.00  0.00    -0.078 A 
ATOM      4  C2  OXE d   1      -0.974   1.284   0.138  0.00  0.00    -0.078 A 
ATOM      5  C3  OXE d   1      -0.270   0.202   0.657  0.00  0.00     0.003 A 
ATOM      6  C4  OXE d   1       0.808  -0.347  -0.048  0.00  0.00    -0.002 A 
ATOM      7  C5  OXE d   1       1.121   0.109  -1.334  0.00  0.00    -0.002 A 
ATOM      8  C6  OXE d   1       0.346   1.110  -1.909  0.00  0.00     0.003 A 
ENDROOT
TORSDOF 0
ENDMDL
