MODEL 1
REMARK minimizedAffinity -4.27640581
REMARK minimizedRMSD -1
REMARK  0 active torsions:
REMARK  status: ('A' for Active; 'I' for Inactive)
ROOT
ATOM      1  C2' OXE d   1      -0.407  -0.409   3.136  0.00  0.00     0.078 C 
ATOM      2  C1' OXE d   1      -1.029   2.062   1.959  0.00  0.00     0.078 C 
ATOM      3  C1  OXE d   1      -0.493   0.972   1.065  0.00  0.00    -0.078 A 
ATOM      4  C2  OXE d   1      -0.147  -0.219   1.658  0.00  0.00    -0.078 A 
ATOM      5  C3  OXE d   1       0.301  -1.276   0.871  0.00  0.00     0.003 A 
ATOM      6  C4  OXE d   1       0.548  -1.088  -0.495  0.00  0.00    -0.002 A 
ATOM      7  C5  OXE d   1       0.240   0.129  -1.111  0.00  0.00    -0.002 A 
ATOM      8  C6  OXE d   1      -0.320   1.153  -0.355  0.00  0.00     0.003 A 
ENDROOT
TORSDOF 0
ENDMDL
