MODEL 1
REMARK minimizedAffinity -6.18085289
REMARK minimizedRMSD -1
REMARK  0 active torsions:
REMARK  status: ('A' for Active; 'I' for Inactive)
ROOT
ATOM      1  C2' OXE d   1       1.173  -1.125  -0.753  0.00  0.00     0.078 C 
ATOM      2  C1' OXE d   1       2.398  -0.653   1.728  0.00  0.00     0.078 C 
ATOM      3  C1  OXE d   1       1.120   0.086   1.423  0.00  0.00    -0.078 A 
ATOM      4  C2  OXE d   1       0.552  -0.116   0.188  0.00  0.00    -0.078 A 
ATOM      5  C3  OXE d   1      -0.657   0.499  -0.124  0.00  0.00     0.003 A 
ATOM      6  C4  OXE d   1      -1.220   1.440   0.747  0.00  0.00    -0.002 A 
ATOM      7  C5  OXE d   1      -0.637   1.690   1.994  0.00  0.00    -0.002 A 
ATOM      8  C6  OXE d   1       0.508   0.991   2.364  0.00  0.00     0.003 A 
ENDROOT
TORSDOF 0
ENDMDL
