MODEL 1
REMARK minimizedAffinity -5.0018301
REMARK minimizedRMSD -1
REMARK  0 active torsions:
REMARK  status: ('A' for Active; 'I' for Inactive)
ROOT
ATOM      1  C2' OXE d   1      -1.198   2.756   1.362  0.00  0.00     0.078 C 
ATOM      2  C1' OXE d   1      -1.202   2.337  -1.413  0.00  0.00     0.078 C 
ATOM      3  C1  OXE d   1      -0.582   1.273  -0.542  0.00  0.00    -0.078 A 
ATOM      4  C2  OXE d   1      -0.542   1.508   0.811  0.00  0.00    -0.078 A 
ATOM      5  C3  OXE d   1      -0.030   0.535   1.665  0.00  0.00     0.003 A 
ATOM      6  C4  OXE d   1       0.584  -0.611   1.146  0.00  0.00    -0.002 A 
ATOM      7  C5  OXE d   1       0.590  -0.851  -0.232  0.00  0.00    -0.002 A 
ATOM      8  C6  OXE d   1      -0.025   0.059  -1.085  0.00  0.00     0.003 A 
ENDROOT
TORSDOF 0
ENDMDL
