MODEL 1
REMARK minimizedAffinity -3.94570017
REMARK minimizedRMSD -1
REMARK  0 active torsions:
REMARK  status: ('A' for Active; 'I' for Inactive)
ROOT
ATOM      1  C2' OXE d   1       2.102  -0.637   0.764  0.00  0.00     0.078 C 
ATOM      2  C1' OXE d   1      -0.087  -1.520  -0.755  0.00  0.00     0.078 C 
ATOM      3  C1  OXE d   1      -0.209  -0.192  -0.052  0.00  0.00    -0.078 A 
ATOM      4  C2  OXE d   1       0.849   0.211   0.727  0.00  0.00    -0.078 A 
ATOM      5  C3  OXE d   1       0.810   1.453   1.354  0.00  0.00     0.003 A 
ATOM      6  C4  OXE d   1      -0.357   2.227   1.323  0.00  0.00    -0.002 A 
ATOM      7  C5  OXE d   1      -1.461   1.816   0.568  0.00  0.00    -0.002 A 
ATOM      8  C6  OXE d   1      -1.388   0.633  -0.159  0.00  0.00     0.003 A 
ENDROOT
TORSDOF 0
ENDMDL
