MODEL 1
REMARK minimizedAffinity -4.83693504
REMARK minimizedRMSD -1
REMARK  0 active torsions:
REMARK  status: ('A' for Active; 'I' for Inactive)
ROOT
ATOM      1  C2' OXE d   1      -1.957   1.848  -1.123  0.00  0.00     0.078 C 
ATOM      2  C1' OXE d   1      -2.094   2.391   1.627  0.00  0.00     0.078 C 
ATOM      3  C1  OXE d   1      -0.969   1.514   1.139  0.00  0.00    -0.078 A 
ATOM      4  C2  OXE d   1      -0.937   1.216  -0.202  0.00  0.00    -0.078 A 
ATOM      5  C3  OXE d   1       0.111   0.456  -0.714  0.00  0.00     0.003 A 
ATOM      6  C4  OXE d   1       1.045  -0.134   0.146  0.00  0.00    -0.002 A 
ATOM      7  C5  OXE d   1       1.008   0.125   1.520  0.00  0.00    -0.002 A 
ATOM      8  C6  OXE d   1       0.034   0.979   2.026  0.00  0.00     0.003 A 
ENDROOT
TORSDOF 0
ENDMDL
