MODEL 1
REMARK minimizedAffinity -4.45034838
REMARK minimizedRMSD -1
REMARK  0 active torsions:
REMARK  status: ('A' for Active; 'I' for Inactive)
ROOT
ATOM      1  C2' OXE d   1      -0.146   1.329  -1.796  0.00  0.00     0.078 C 
ATOM      2  C1' OXE d   1       0.407  -1.231  -0.786  0.00  0.00     0.078 C 
ATOM      3  C1  OXE d   1       0.217  -0.109   0.205  0.00  0.00    -0.078 A 
ATOM      4  C2  OXE d   1      -0.007   1.149  -0.300  0.00  0.00    -0.078 A 
ATOM      5  C3  OXE d   1      -0.242   2.209   0.571  0.00  0.00     0.003 A 
ATOM      6  C4  OXE d   1      -0.102   2.036   1.953  0.00  0.00    -0.002 A 
ATOM      7  C5  OXE d   1       0.165   0.770   2.486  0.00  0.00    -0.002 A 
ATOM      8  C6  OXE d   1       0.285  -0.319   1.630  0.00  0.00     0.003 A 
ENDROOT
TORSDOF 0
ENDMDL
