MODEL 1
REMARK minimizedAffinity -3.8584516
REMARK minimizedRMSD -1
REMARK  0 active torsions:
REMARK  status: ('A' for Active; 'I' for Inactive)
ROOT
ATOM      1  C2' OXE d   1      -1.135   2.242   1.762  0.00  0.00     0.078 C 
ATOM      2  C1' OXE d   1      -1.299   2.182  -1.039  0.00  0.00     0.078 C 
ATOM      3  C1  OXE d   1      -0.589   1.043  -0.352  0.00  0.00    -0.078 A 
ATOM      4  C2  OXE d   1      -0.472   1.104   1.016  0.00  0.00    -0.078 A 
ATOM      5  C3  OXE d   1       0.126   0.052   1.705  0.00  0.00     0.003 A 
ATOM      6  C4  OXE d   1       0.745  -0.991   1.006  0.00  0.00    -0.002 A 
ATOM      7  C5  OXE d   1       0.673  -1.052  -0.390  0.00  0.00    -0.002 A 
ATOM      8  C6  OXE d   1      -0.026  -0.067  -1.080  0.00  0.00     0.003 A 
ENDROOT
TORSDOF 0
ENDMDL
