MODEL 1
REMARK minimizedAffinity -2.52611399
REMARK minimizedRMSD -1
REMARK  0 active torsions:
REMARK  status: ('A' for Active; 'I' for Inactive)
ROOT
ATOM      1  C2' OXE d   1      -0.998   2.474  -1.710  0.00  0.00     0.078 C 
ATOM      2  C1' OXE d   1      -1.066   2.410   1.095  0.00  0.00     0.078 C 
ATOM      3  C1  OXE d   1      -0.433   1.242   0.380  0.00  0.00    -0.078 A 
ATOM      4  C2  OXE d   1      -0.446   1.260  -0.994  0.00  0.00    -0.078 A 
ATOM      5  C3  OXE d   1       0.173   0.234  -1.702  0.00  0.00     0.003 A 
ATOM      6  C4  OXE d   1       0.672  -0.889  -1.032  0.00  0.00    -0.002 A 
ATOM      7  C5  OXE d   1       0.659  -0.946   0.366  0.00  0.00    -0.002 A 
ATOM      8  C6  OXE d   1       0.150   0.128   1.087  0.00  0.00     0.003 A 
ENDROOT
TORSDOF 0
ENDMDL
