MODEL 1
REMARK minimizedAffinity -3.27450657
REMARK minimizedRMSD -1
REMARK  0 active torsions:
REMARK  status: ('A' for Active; 'I' for Inactive)
ROOT
ATOM      1  C2' OXE d   1      -1.374   2.430  -1.200  0.00  0.00     0.078 C 
ATOM      2  C1' OXE d   1      -0.991   2.919   1.537  0.00  0.00     0.078 C 
ATOM      3  C1  OXE d   1      -0.271   1.744   0.925  0.00  0.00    -0.078 A 
ATOM      4  C2  OXE d   1      -0.501   1.484  -0.404  0.00  0.00    -0.078 A 
ATOM      5  C3  OXE d   1       0.180   0.445  -1.031  0.00  0.00     0.003 A 
ATOM      6  C4  OXE d   1       0.978  -0.432  -0.286  0.00  0.00    -0.002 A 
ATOM      7  C5  OXE d   1       1.194  -0.209   1.078  0.00  0.00    -0.002 A 
ATOM      8  C6  OXE d   1       0.613   0.897   1.688  0.00  0.00     0.003 A 
ENDROOT
TORSDOF 0
ENDMDL
