MODEL 1
REMARK minimizedAffinity -1.40471554
REMARK minimizedRMSD -1
REMARK  0 active torsions:
REMARK  status: ('A' for Active; 'I' for Inactive)
ROOT
ATOM      1  C2' OXE d   1      -0.821   2.575  -1.087  0.00  0.00     0.078 C 
ATOM      2  C1' OXE d   1      -0.587   2.626   1.710  0.00  0.00     0.078 C 
ATOM      3  C1  OXE d   1      -0.346   1.313   1.008  0.00  0.00    -0.078 A 
ATOM      4  C2  OXE d   1      -0.509   1.286  -0.356  0.00  0.00    -0.078 A 
ATOM      5  C3  OXE d   1      -0.246   0.114  -1.059  0.00  0.00     0.003 A 
ATOM      6  C4  OXE d   1       0.032  -1.075  -0.375  0.00  0.00    -0.002 A 
ATOM      7  C5  OXE d   1       0.163  -1.079   1.018  0.00  0.00    -0.002 A 
ATOM      8  C6  OXE d   1       0.019   0.113   1.719  0.00  0.00     0.003 A 
ENDROOT
TORSDOF 0
ENDMDL
