MODEL 1
REMARK minimizedAffinity -6.00857735
REMARK minimizedRMSD -1
REMARK  0 active torsions:
REMARK  status: ('A' for Active; 'I' for Inactive)
ROOT
ATOM      1  C2' OXE d   1      -1.183   2.474   1.513  0.00  0.00     0.078 C 
ATOM      2  C1' OXE d   1      -1.222   2.454  -1.294  0.00  0.00     0.078 C 
ATOM      3  C1  OXE d   1      -0.460   1.357  -0.593  0.00  0.00    -0.078 A 
ATOM      4  C2  OXE d   1      -0.407   1.401   0.779  0.00  0.00    -0.078 A 
ATOM      5  C3  OXE d   1       0.237   0.384   1.478  0.00  0.00     0.003 A 
ATOM      6  C4  OXE d   1       0.960  -0.599   0.792  0.00  0.00    -0.002 A 
ATOM      7  C5  OXE d   1       0.952  -0.640  -0.607  0.00  0.00    -0.002 A 
ATOM      8  C6  OXE d   1       0.214   0.304  -1.312  0.00  0.00     0.003 A 
ENDROOT
TORSDOF 0
ENDMDL
