MODEL 1
REMARK minimizedAffinity -4.01893044
REMARK minimizedRMSD -1
REMARK  0 active torsions:
REMARK  status: ('A' for Active; 'I' for Inactive)
ROOT
ATOM      1  C2' OXE d   1       1.101  -0.320   2.036  0.00  0.00     0.078 C 
ATOM      2  C1' OXE d   1       0.229  -0.936  -0.561  0.00  0.00     0.078 C 
ATOM      3  C1  OXE d   1      -0.237   0.363   0.048  0.00  0.00    -0.078 A 
ATOM      4  C2  OXE d   1       0.157   0.635   1.336  0.00  0.00    -0.078 A 
ATOM      5  C3  OXE d   1      -0.200   1.844   1.926  0.00  0.00     0.003 A 
ATOM      6  C4  OXE d   1      -1.081   2.717   1.276  0.00  0.00    -0.002 A 
ATOM      7  C5  OXE d   1      -1.526   2.441  -0.021  0.00  0.00    -0.002 A 
ATOM      8  C6  OXE d   1      -1.080   1.291  -0.664  0.00  0.00     0.003 A 
ENDROOT
TORSDOF 0
ENDMDL
