MODEL 1
REMARK minimizedAffinity -4.01862097
REMARK minimizedRMSD -1
REMARK  0 active torsions:
REMARK  status: ('A' for Active; 'I' for Inactive)
ROOT
ATOM      1  C   UNL d   1       1.106   1.715   1.809  0.00  0.00     0.077 C 
ATOM      2  C1  UNL d   1       1.254   0.943   0.531  0.00  0.00    -0.074 A 
ATOM      3  C2  UNL d   1       1.790   1.542  -0.613  0.00  0.00    -0.005 A 
ATOM      4  C3  UNL d   1       1.931   0.809  -1.791  0.00  0.00     0.006 A 
ATOM      5  C4  UNL d   1       1.536  -0.529  -1.837  0.00  0.00    -0.005 A 
ATOM      6  C5  UNL d   1       0.998  -1.145  -0.703  0.00  0.00    -0.074 A 
ATOM      7  C6  UNL d   1       0.579  -2.585  -0.732  0.00  0.00     0.077 C 
ATOM      8  C7  UNL d   1       0.867  -0.404   0.479  0.00  0.00    -0.001 A 
ENDROOT
TORSDOF 0
ENDMDL
