MODEL 1
REMARK minimizedAffinity -2.44525027
REMARK minimizedRMSD -1
REMARK  0 active torsions:
REMARK  status: ('A' for Active; 'I' for Inactive)
ROOT
ATOM      1  C   UNL d   1       2.083   0.581  -2.496  0.00  0.00     0.077 C 
ATOM      2  C1  UNL d   1       1.456   0.580  -1.134  0.00  0.00    -0.074 A 
ATOM      3  C2  UNL d   1       0.370  -0.252  -0.844  0.00  0.00    -0.005 A 
ATOM      4  C3  UNL d   1      -0.198  -0.249   0.431  0.00  0.00     0.006 A 
ATOM      5  C4  UNL d   1       0.314   0.585   1.426  0.00  0.00    -0.005 A 
ATOM      6  C5  UNL d   1       1.400   1.423   1.154  0.00  0.00    -0.074 A 
ATOM      7  C6  UNL d   1       1.969   2.318   2.215  0.00  0.00     0.077 C 
ATOM      8  C7  UNL d   1       1.969   1.409  -0.127  0.00  0.00    -0.001 A 
ENDROOT
TORSDOF 0
ENDMDL
