MODEL 1
REMARK minimizedAffinity 0.469018728
REMARK minimizedRMSD -1
REMARK  0 active torsions:
REMARK  status: ('A' for Active; 'I' for Inactive)
ROOT
ATOM      1  C   UNL d   1      -0.734  -0.494   1.195  0.00  0.00     0.077 C 
ATOM      2  C1  UNL d   1      -2.110   0.055   1.424  0.00  0.00    -0.074 A 
ATOM      3  C2  UNL d   1      -3.243  -0.633   0.975  0.00  0.00    -0.005 A 
ATOM      4  C3  UNL d   1      -4.517  -0.114   1.204  0.00  0.00     0.006 A 
ATOM      5  C4  UNL d   1      -4.672   1.096   1.881  0.00  0.00    -0.005 A 
ATOM      6  C5  UNL d   1      -3.552   1.798   2.338  0.00  0.00    -0.074 A 
ATOM      7  C6  UNL d   1      -3.702   3.094   3.077  0.00  0.00     0.077 C 
ATOM      8  C7  UNL d   1      -2.275   1.266   2.111  0.00  0.00    -0.001 A 
ENDROOT
TORSDOF 0
ENDMDL
