MODEL 1
REMARK minimizedAffinity 1.18814135
REMARK minimizedRMSD -1
REMARK  0 active torsions:
REMARK  status: ('A' for Active; 'I' for Inactive)
ROOT
ATOM      1  C   UNL d   1      -1.493   0.637   1.045  0.00  0.00     0.077 C 
ATOM      2  C1  UNL d   1      -0.675  -0.309   0.217  0.00  0.00    -0.074 A 
ATOM      3  C2  UNL d   1      -0.610  -1.670   0.534  0.00  0.00    -0.005 A 
ATOM      4  C3  UNL d   1       0.148  -2.539  -0.251  0.00  0.00     0.006 A 
ATOM      5  C4  UNL d   1       0.846  -2.057  -1.359  0.00  0.00    -0.005 A 
ATOM      6  C5  UNL d   1       0.792  -0.700  -1.691  0.00  0.00    -0.074 A 
ATOM      7  C6  UNL d   1       1.528  -0.168  -2.885  0.00  0.00     0.077 C 
ATOM      8  C7  UNL d   1       0.023   0.166  -0.902  0.00  0.00    -0.001 A 
ENDROOT
TORSDOF 0
ENDMDL
