MODEL 1
REMARK minimizedAffinity -3.57797217
REMARK minimizedRMSD -1
REMARK  0 active torsions:
REMARK  status: ('A' for Active; 'I' for Inactive)
ROOT
ATOM      1  C   UNL d   1      -0.063   0.345  -1.889  0.00  0.00     0.077 C 
ATOM      2  C1  UNL d   1       1.192   0.821  -1.220  0.00  0.00    -0.074 A 
ATOM      3  C2  UNL d   1       2.437   0.676  -1.842  0.00  0.00    -0.005 A 
ATOM      4  C3  UNL d   1       3.594   1.132  -1.212  0.00  0.00     0.006 A 
ATOM      5  C4  UNL d   1       3.520   1.736   0.044  0.00  0.00    -0.005 A 
ATOM      6  C5  UNL d   1       2.284   1.890   0.680  0.00  0.00    -0.074 A 
ATOM      7  C6  UNL d   1       2.185   2.546   2.026  0.00  0.00     0.077 C 
ATOM      8  C7  UNL d   1       1.124   1.436   0.038  0.00  0.00    -0.001 A 
ENDROOT
TORSDOF 0
ENDMDL
