MODEL 1
REMARK minimizedAffinity -1.53366768
REMARK minimizedRMSD -1
REMARK  0 active torsions:
REMARK  status: ('A' for Active; 'I' for Inactive)
ROOT
ATOM      1  C   UNL d   1       2.610   4.013   3.690  0.00  0.00     0.077 C 
ATOM      2  C1  UNL d   1       1.644   2.914   3.364  0.00  0.00    -0.074 A 
ATOM      3  C2  UNL d   1       0.986   2.210   4.378  0.00  0.00    -0.005 A 
ATOM      4  C3  UNL d   1       0.083   1.196   4.058  0.00  0.00     0.006 A 
ATOM      5  C4  UNL d   1      -0.171   0.876   2.724  0.00  0.00    -0.005 A 
ATOM      6  C5  UNL d   1       0.477   1.569   1.697  0.00  0.00    -0.074 A 
ATOM      7  C6  UNL d   1       0.209   1.244   0.257  0.00  0.00     0.077 C 
ATOM      8  C7  UNL d   1       1.378   2.591   2.025  0.00  0.00    -0.001 A 
ENDROOT
TORSDOF 0
ENDMDL
