MODEL 1
REMARK minimizedAffinity -3.06818533
REMARK minimizedRMSD -1
REMARK  0 active torsions:
REMARK  status: ('A' for Active; 'I' for Inactive)
ROOT
ATOM      1  C   UNL d   1       2.044   1.137  -1.875  0.00  0.00     0.077 C 
ATOM      2  C1  UNL d   1       1.337   0.949  -0.565  0.00  0.00    -0.074 A 
ATOM      3  C2  UNL d   1       0.146   0.220  -0.490  0.00  0.00    -0.005 A 
ATOM      4  C3  UNL d   1      -0.495   0.045   0.736  0.00  0.00     0.006 A 
ATOM      5  C4  UNL d   1       0.047   0.597   1.898  0.00  0.00    -0.005 A 
ATOM      6  C5  UNL d   1       1.238   1.329   1.842  0.00  0.00    -0.074 A 
ATOM      7  C6  UNL d   1       1.839   1.920   3.082  0.00  0.00     0.077 C 
ATOM      8  C7  UNL d   1       1.880   1.494   0.607  0.00  0.00    -0.001 A 
ENDROOT
TORSDOF 0
ENDMDL
