MODEL 1
REMARK minimizedAffinity -3.9835434
REMARK minimizedRMSD -1
REMARK  0 active torsions:
REMARK  status: ('A' for Active; 'I' for Inactive)
ROOT
ATOM      1  C   UNL d   1       1.056   2.044   0.394  0.00  0.00     0.077 C 
ATOM      2  C1  UNL d   1       1.203   0.848  -0.498  0.00  0.00    -0.074 A 
ATOM      3  C2  UNL d   1       1.834   0.953  -1.742  0.00  0.00    -0.005 A 
ATOM      4  C3  UNL d   1       1.972  -0.170  -2.558  0.00  0.00     0.006 A 
ATOM      5  C4  UNL d   1       1.481  -1.408  -2.139  0.00  0.00    -0.005 A 
ATOM      6  C5  UNL d   1       0.848  -1.532  -0.898  0.00  0.00    -0.074 A 
ATOM      7  C6  UNL d   1       0.324  -2.856  -0.427  0.00  0.00     0.077 C 
ATOM      8  C7  UNL d   1       0.720  -0.400  -0.081  0.00  0.00    -0.001 A 
ENDROOT
TORSDOF 0
ENDMDL
