MODEL 1
REMARK minimizedAffinity -3.03211522
REMARK minimizedRMSD -1
REMARK  0 active torsions:
REMARK  status: ('A' for Active; 'I' for Inactive)
ROOT
ATOM      1  C   UNL d   1       1.310  -0.141  -2.736  0.00  0.00     0.077 C 
ATOM      2  C1  UNL d   1       0.581  -0.691  -1.547  0.00  0.00    -0.074 A 
ATOM      3  C2  UNL d   1       0.717  -2.033  -1.177  0.00  0.00    -0.005 A 
ATOM      4  C3  UNL d   1       0.040  -2.528  -0.063  0.00  0.00     0.006 A 
ATOM      5  C4  UNL d   1      -0.780  -1.688   0.691  0.00  0.00    -0.005 A 
ATOM      6  C5  UNL d   1      -0.928  -0.343   0.337  0.00  0.00    -0.074 A 
ATOM      7  C6  UNL d   1      -1.798   0.576   1.143  0.00  0.00     0.077 C 
ATOM      8  C7  UNL d   1      -0.239   0.149  -0.779  0.00  0.00    -0.001 A 
ENDROOT
TORSDOF 0
ENDMDL
