MODEL 1
REMARK minimizedAffinity -3.0755403
REMARK minimizedRMSD -1
REMARK  0 active torsions:
REMARK  status: ('A' for Active; 'I' for Inactive)
ROOT
ATOM      1  C   UNL d   1       1.834   0.074  -3.213  0.00  0.00     0.077 C 
ATOM      2  C1  UNL d   1       1.242  -0.059  -1.841  0.00  0.00    -0.074 A 
ATOM      3  C2  UNL d   1       0.879   1.072  -1.103  0.00  0.00    -0.005 A 
ATOM      4  C3  UNL d   1       0.321   0.932   0.168  0.00  0.00     0.006 A 
ATOM      5  C4  UNL d   1       0.121  -0.337   0.712  0.00  0.00    -0.005 A 
ATOM      6  C5  UNL d   1       0.477  -1.479  -0.012  0.00  0.00    -0.074 A 
ATOM      7  C6  UNL d   1       0.260  -2.851   0.553  0.00  0.00     0.077 C 
ATOM      8  C7  UNL d   1       1.031  -1.331  -1.291  0.00  0.00    -0.001 A 
ENDROOT
TORSDOF 0
ENDMDL
