MODEL 1
REMARK minimizedAffinity -3.91438103
REMARK minimizedRMSD -1
REMARK  0 active torsions:
REMARK  status: ('A' for Active; 'I' for Inactive)
ROOT
ATOM      1  C   UNL d   1      -2.091   0.562   0.970  0.00  0.00     0.077 C 
ATOM      2  C1  UNL d   1      -1.079  -0.222   0.187  0.00  0.00    -0.074 A 
ATOM      3  C2  UNL d   1      -0.443  -1.335   0.747  0.00  0.00    -0.005 A 
ATOM      4  C3  UNL d   1       0.489  -2.059   0.004  0.00  0.00     0.006 A 
ATOM      5  C4  UNL d   1       0.793  -1.680  -1.304  0.00  0.00    -0.005 A 
ATOM      6  C5  UNL d   1       0.166  -0.571  -1.880  0.00  0.00    -0.074 A 
ATOM      7  C6  UNL d   1       0.474  -0.155  -3.288  0.00  0.00     0.077 C 
ATOM      8  C7  UNL d   1      -0.774   0.148  -1.130  0.00  0.00    -0.001 A 
ENDROOT
TORSDOF 0
ENDMDL
