MODEL 1
REMARK minimizedAffinity -4.37745762
REMARK minimizedRMSD -1
REMARK  0 active torsions:
REMARK  status: ('A' for Active; 'I' for Inactive)
ROOT
ATOM      1  C   UNL d   1       2.300  -0.189  -3.093  0.00  0.00     0.077 C 
ATOM      2  C1  UNL d   1       1.348  -0.070  -1.940  0.00  0.00    -0.074 A 
ATOM      3  C2  UNL d   1       0.076  -0.647  -1.996  0.00  0.00    -0.005 A 
ATOM      4  C3  UNL d   1      -0.795  -0.536  -0.912  0.00  0.00     0.006 A 
ATOM      5  C4  UNL d   1      -0.403   0.153   0.236  0.00  0.00    -0.005 A 
ATOM      6  C5  UNL d   1       0.865   0.737   0.310  0.00  0.00    -0.074 A 
ATOM      7  C6  UNL d   1       1.306   1.473   1.541  0.00  0.00     0.077 C 
ATOM      8  C7  UNL d   1       1.738   0.615  -0.780  0.00  0.00    -0.001 A 
ENDROOT
TORSDOF 0
ENDMDL
