MODEL 1
REMARK minimizedAffinity -4.66536283
REMARK minimizedRMSD -1
REMARK  0 active torsions:
REMARK  status: ('A' for Active; 'I' for Inactive)
ROOT
ATOM      1  C   UNL d   1      -2.644   1.088  -0.140  0.00  0.00     0.077 C 
ATOM      2  C1  UNL d   1      -1.276   0.500  -0.322  0.00  0.00    -0.074 A 
ATOM      3  C2  UNL d   1      -0.658  -0.216   0.708  0.00  0.00    -0.005 A 
ATOM      4  C3  UNL d   1       0.610  -0.765   0.520  0.00  0.00     0.006 A 
ATOM      5  C4  UNL d   1       1.272  -0.604  -0.698  0.00  0.00    -0.005 A 
ATOM      6  C5  UNL d   1       0.670   0.109  -1.740  0.00  0.00    -0.074 A 
ATOM      7  C6  UNL d   1       1.363   0.283  -3.058  0.00  0.00     0.077 C 
ATOM      8  C7  UNL d   1      -0.608   0.651  -1.546  0.00  0.00    -0.001 A 
ENDROOT
TORSDOF 0
ENDMDL
