MODEL 1
REMARK minimizedAffinity -1.36629927
REMARK minimizedRMSD -1
REMARK  0 active torsions:
REMARK  status: ('A' for Active; 'I' for Inactive)
ROOT
ATOM      1  C   UNL d   1       0.713   1.346   1.781  0.00  0.00     0.077 C 
ATOM      2  C1  UNL d   1       0.471   0.282   0.752  0.00  0.00    -0.074 A 
ATOM      3  C2  UNL d   1      -0.071  -0.956   1.112  0.00  0.00    -0.005 A 
ATOM      4  C3  UNL d   1      -0.299  -1.933   0.143  0.00  0.00     0.006 A 
ATOM      5  C4  UNL d   1       0.011  -1.682  -1.194  0.00  0.00    -0.005 A 
ATOM      6  C5  UNL d   1       0.553  -0.450  -1.573  0.00  0.00    -0.074 A 
ATOM      7  C6  UNL d   1       0.883  -0.160  -3.007  0.00  0.00     0.077 C 
ATOM      8  C7  UNL d   1       0.773   0.529  -0.594  0.00  0.00    -0.001 A 
ENDROOT
TORSDOF 0
ENDMDL
