MODEL 1
REMARK minimizedAffinity -1.31987631
REMARK minimizedRMSD -1
REMARK  0 active torsions:
REMARK  status: ('A' for Active; 'I' for Inactive)
ROOT
ATOM      1  C   UNL d   1       0.311  -0.308   0.335  0.00  0.00     0.077 C 
ATOM      2  C1  UNL d   1       0.932   1.055   0.408  0.00  0.00    -0.074 A 
ATOM      3  C2  UNL d   1       0.975   1.887  -0.715  0.00  0.00    -0.005 A 
ATOM      4  C3  UNL d   1       1.547   3.156  -0.630  0.00  0.00     0.006 A 
ATOM      5  C4  UNL d   1       2.081   3.606   0.578  0.00  0.00    -0.005 A 
ATOM      6  C5  UNL d   1       2.046   2.789   1.713  0.00  0.00    -0.074 A 
ATOM      7  C6  UNL d   1       2.606   3.261   3.021  0.00  0.00     0.077 C 
ATOM      8  C7  UNL d   1       1.463   1.518   1.621  0.00  0.00    -0.001 A 
ENDROOT
TORSDOF 0
ENDMDL
