MODEL 1
REMARK minimizedAffinity 6.54129171
REMARK minimizedRMSD -1
REMARK  0 active torsions:
REMARK  status: ('A' for Active; 'I' for Inactive)
ROOT
ATOM      1  C   UNL d   1      -5.764   1.820  -5.967  0.00  0.00     0.077 C 
ATOM      2  C1  UNL d   1      -4.460   2.504  -5.681  0.00  0.00    -0.074 A 
ATOM      3  C2  UNL d   1      -3.374   1.794  -5.159  0.00  0.00    -0.005 A 
ATOM      4  C3  UNL d   1      -2.165   2.442  -4.908  0.00  0.00     0.006 A 
ATOM      5  C4  UNL d   1      -2.030   3.805  -5.175  0.00  0.00    -0.005 A 
ATOM      6  C5  UNL d   1      -3.104   4.532  -5.697  0.00  0.00    -0.074 A 
ATOM      7  C6  UNL d   1      -2.972   5.995  -5.999  0.00  0.00     0.077 C 
ATOM      8  C7  UNL d   1      -4.313   3.872  -5.954  0.00  0.00    -0.001 A 
ENDROOT
TORSDOF 0
ENDMDL
