MODEL 1
REMARK minimizedAffinity 3.77505922
REMARK minimizedRMSD -1
REMARK  1 active torsions:
REMARK  status: ('A' for Active; 'I' for Inactive)
REMARK    1  A    between atoms: C1_2  and  C2_3 
ROOT
ATOM      1  C2  UNL d   1      -5.542   3.004  -2.109  0.00  0.00    -0.081 A 
ATOM      2  C3  UNL d   1      -5.995   2.303  -3.232  0.00  0.00     0.006 A 
ATOM      3  C4  UNL d   1      -5.999   2.908  -4.491  0.00  0.00     0.002 A 
ATOM      4  C5  UNL d   1      -5.542   4.221  -4.649  0.00  0.00    -0.080 A 
ATOM      5  C6  UNL d   1      -5.513   4.872  -6.000  0.00  0.00     0.076 C 
ATOM      6  C7  UNL d   1      -5.106   4.928  -3.523  0.00  0.00     0.002 A 
ATOM      7  C8  UNL d   1      -5.102   4.323  -2.264  0.00  0.00     0.006 A 
ENDROOT
BRANCH   1   8
ATOM      8  C1  UNL d   1      -5.476   2.332  -0.761  0.00  0.00     0.054 C 
ATOM      9  C   UNL d   1      -4.109   1.708  -0.520  0.00  0.00     0.018 C 
ENDBRANCH   1   8
TORSDOF 1
ENDMDL
