MODEL 1
REMARK minimizedAffinity 5.24908733
REMARK minimizedRMSD -1
REMARK  1 active torsions:
REMARK  status: ('A' for Active; 'I' for Inactive)
REMARK    1  A    between atoms: C1_2  and  C2_3 
ROOT
ATOM      1  C2  UNL d   1      -0.694   5.205  -1.461  0.00  0.00    -0.081 A 
ATOM      2  C3  UNL d   1      -1.523   4.188  -0.973  0.00  0.00     0.006 A 
ATOM      3  C4  UNL d   1      -1.186   3.498   0.194  0.00  0.00     0.002 A 
ATOM      4  C5  UNL d   1      -0.019   3.818   0.896  0.00  0.00    -0.080 A 
ATOM      5  C6  UNL d   1       0.339   3.106   2.167  0.00  0.00     0.076 C 
ATOM      6  C7  UNL d   1       0.818   4.823   0.399  0.00  0.00     0.002 A 
ATOM      7  C8  UNL d   1       0.482   5.512  -0.768  0.00  0.00     0.006 A 
ENDROOT
BRANCH   1   8
ATOM      8  C1  UNL d   1      -1.088   5.995  -2.683  0.00  0.00     0.054 C 
ATOM      9  C   UNL d   1       0.023   5.993  -3.724  0.00  0.00     0.018 C 
ENDBRANCH   1   8
TORSDOF 1
ENDMDL
