MODEL 1
REMARK minimizedAffinity 15.5465441
REMARK minimizedRMSD -1
REMARK  1 active torsions:
REMARK  status: ('A' for Active; 'I' for Inactive)
REMARK    1  A    between atoms: C1_2  and  C2_3 
ROOT
ATOM      1  C2  UNL d   1      -0.292   1.914  -0.111  0.00  0.00    -0.081 A 
ATOM      2  C3  UNL d   1       0.714   1.153  -0.719  0.00  0.00     0.006 A 
ATOM      3  C4  UNL d   1       0.390   0.167  -1.653  0.00  0.00     0.002 A 
ATOM      4  C5  UNL d   1      -0.944  -0.071  -2.000  0.00  0.00    -0.080 A 
ATOM      5  C6  UNL d   1      -1.304  -1.106  -3.024  0.00  0.00     0.076 C 
ATOM      6  C7  UNL d   1      -1.951   0.677  -1.381  0.00  0.00     0.002 A 
ATOM      7  C8  UNL d   1      -1.627   1.664  -0.447  0.00  0.00     0.006 A 
ENDROOT
BRANCH   1   8
ATOM      8  C1  UNL d   1       0.058   3.023   0.848  0.00  0.00     0.054 C 
ATOM      9  C   UNL d   1       0.422   4.302   0.106  0.00  0.00     0.018 C 
ENDBRANCH   1   8
TORSDOF 1
ENDMDL
