MODEL 1
REMARK minimizedAffinity 11.3461103
REMARK minimizedRMSD -1
REMARK  1 active torsions:
REMARK  status: ('A' for Active; 'I' for Inactive)
REMARK    1  A    between atoms: C1_2  and  C2_3 
ROOT
ATOM      1  C2  UNL d   1       0.311   2.677   2.389  0.00  0.00    -0.081 A 
ATOM      2  C3  UNL d   1       1.658   2.333   2.551  0.00  0.00     0.006 A 
ATOM      3  C4  UNL d   1       2.015   1.174   3.245  0.00  0.00     0.002 A 
ATOM      4  C5  UNL d   1       1.030   0.337   3.781  0.00  0.00    -0.080 A 
ATOM      5  C6  UNL d   1       1.398  -0.926   4.502  0.00  0.00     0.076 C 
ATOM      6  C7  UNL d   1      -0.315   0.690   3.634  0.00  0.00     0.002 A 
ATOM      7  C8  UNL d   1      -0.672   1.849   2.941  0.00  0.00     0.006 A 
ENDROOT
BRANCH   1   8
ATOM      8  C1  UNL d   1      -0.078   3.892   1.586  0.00  0.00     0.054 C 
ATOM      9  C   UNL d   1       0.134   3.662   0.096  0.00  0.00     0.018 C 
ENDBRANCH   1   8
TORSDOF 1
ENDMDL
