MODEL 1
REMARK minimizedAffinity 12.2901125
REMARK minimizedRMSD -1
REMARK  1 active torsions:
REMARK  status: ('A' for Active; 'I' for Inactive)
REMARK    1  A    between atoms: C1_2  and  C2_3 
ROOT
ATOM      1  C2  UNL d   1       1.092   4.782  -0.297  0.00  0.00    -0.081 A 
ATOM      2  C3  UNL d   1      -0.042   4.000  -0.046  0.00  0.00     0.006 A 
ATOM      3  C4  UNL d   1      -0.107   3.191   1.091  0.00  0.00     0.002 A 
ATOM      4  C5  UNL d   1       0.956   3.157   1.999  0.00  0.00    -0.080 A 
ATOM      5  C6  UNL d   1       0.887   2.316   3.239  0.00  0.00     0.076 C 
ATOM      6  C7  UNL d   1       2.096   3.925   1.740  0.00  0.00     0.002 A 
ATOM      7  C8  UNL d   1       2.162   4.733   0.603  0.00  0.00     0.006 A 
ENDROOT
BRANCH   1   8
ATOM      8  C1  UNL d   1       1.138   5.705  -1.488  0.00  0.00     0.054 C 
ATOM      9  C   UNL d   1       0.974   4.935  -2.791  0.00  0.00     0.018 C 
ENDBRANCH   1   8
TORSDOF 1
ENDMDL
