MODEL 1
REMARK minimizedAffinity 13.358943
REMARK minimizedRMSD -1
REMARK  1 active torsions:
REMARK  status: ('A' for Active; 'I' for Inactive)
REMARK    1  A    between atoms: C1_2  and  C2_3 
ROOT
ATOM      1  C2  UNL d   1      -0.012   2.300   0.012  0.00  0.00    -0.081 A 
ATOM      2  C3  UNL d   1       1.064   1.580  -0.522  0.00  0.00     0.006 A 
ATOM      3  C4  UNL d   1       0.852   0.347  -1.143  0.00  0.00     0.002 A 
ATOM      4  C5  UNL d   1      -0.438  -0.184  -1.247  0.00  0.00    -0.080 A 
ATOM      5  C6  UNL d   1      -0.682  -1.492  -1.937  0.00  0.00     0.076 C 
ATOM      6  C7  UNL d   1      -1.511   0.527  -0.697  0.00  0.00     0.002 A 
ATOM      7  C8  UNL d   1      -1.300   1.760  -0.076  0.00  0.00     0.006 A 
ENDROOT
BRANCH   1   8
ATOM      8  C1  UNL d   1       0.204   3.660   0.625  0.00  0.00     0.054 C 
ATOM      9  C   UNL d   1       0.377   4.728  -0.446  0.00  0.00     0.018 C 
ENDBRANCH   1   8
TORSDOF 1
ENDMDL
