MODEL 1
REMARK minimizedAffinity -2.52366352
REMARK minimizedRMSD -1
REMARK  0 active torsions:
REMARK  status: ('A' for Active; 'I' for Inactive)
ROOT
ATOM      1  C   UNL d   1       0.145   0.125   0.010  0.00  0.00     0.172 C 
ATOM      2  N   UNL d   1       0.338   1.464   0.515  0.00  0.00    -0.070 N 
ATOM      3  C1  UNL d   1       0.291   2.612  -0.230  0.00  0.00    -0.004 A 
ATOM      4  C2  UNL d   1       0.523   3.675   0.616  0.00  0.00    -0.047 A 
ATOM      5  C3  UNL d   1       0.718   3.147   1.915  0.00  0.00    -0.047 A 
ATOM      6  C4  UNL d   1       0.597   1.776   1.823  0.00  0.00    -0.004 A 
ENDROOT
TORSDOF 0
ENDMDL
