MODEL 1
REMARK minimizedAffinity 1.00005698
REMARK minimizedRMSD -1
REMARK  0 active torsions:
REMARK  status: ('A' for Active; 'I' for Inactive)
ROOT
ATOM      1  C   UNL d   1       0.381  -0.058  -1.563  0.00  0.00     0.172 C 
ATOM      2  N   UNL d   1       0.329   0.745  -0.363  0.00  0.00    -0.070 N 
ATOM      3  C1  UNL d   1       1.275   0.764   0.626  0.00  0.00    -0.004 A 
ATOM      4  C2  UNL d   1       0.859   1.655   1.591  0.00  0.00    -0.047 A 
ATOM      5  C3  UNL d   1      -0.381   2.189   1.168  0.00  0.00    -0.047 A 
ATOM      6  C4  UNL d   1      -0.685   1.609  -0.046  0.00  0.00    -0.004 A 
ENDROOT
TORSDOF 0
ENDMDL
