MODEL 1
REMARK minimizedAffinity 0.999226749
REMARK minimizedRMSD -1
REMARK  0 active torsions:
REMARK  status: ('A' for Active; 'I' for Inactive)
ROOT
ATOM      1  C   UNL d   1      -0.889   3.858  -0.488  0.00  0.00     0.172 C 
ATOM      2  N   UNL d   1      -0.652   2.903   0.569  0.00  0.00    -0.070 N 
ATOM      3  C1  UNL d   1      -0.231   1.611   0.399  0.00  0.00    -0.004 A 
ATOM      4  C2  UNL d   1      -0.124   1.034   1.646  0.00  0.00    -0.047 A 
ATOM      5  C3  UNL d   1      -0.495   2.013   2.598  0.00  0.00    -0.047 A 
ATOM      6  C4  UNL d   1      -0.817   3.160   1.905  0.00  0.00    -0.004 A 
ENDROOT
TORSDOF 0
ENDMDL
