MODEL 1
REMARK minimizedAffinity 2.27358055
REMARK minimizedRMSD -1
REMARK  0 active torsions:
REMARK  status: ('A' for Active; 'I' for Inactive)
ROOT
ATOM      1  C   UNL d   1      -0.457   1.956   2.831  0.00  0.00     0.172 C 
ATOM      2  N   UNL d   1      -0.696   2.560   1.541  0.00  0.00    -0.070 N 
ATOM      3  C1  UNL d   1      -1.118   3.845   1.327  0.00  0.00    -0.004 A 
ATOM      4  C2  UNL d   1      -1.225   4.034  -0.034  0.00  0.00    -0.047 A 
ATOM      5  C3  UNL d   1      -0.855   2.820  -0.660  0.00  0.00    -0.047 A 
ATOM      6  C4  UNL d   1      -0.533   1.925   0.339  0.00  0.00    -0.004 A 
ENDROOT
TORSDOF 0
ENDMDL
