MODEL 1
REMARK minimizedAffinity -1.17643976
REMARK minimizedRMSD -1
REMARK  0 active torsions:
REMARK  status: ('A' for Active; 'I' for Inactive)
ROOT
ATOM      1  C   UNL d   1      -0.592   2.013   2.078  0.00  0.00     0.172 C 
ATOM      2  N   UNL d   1      -0.840   2.224   0.671  0.00  0.00    -0.070 N 
ATOM      3  C1  UNL d   1      -1.109   3.429   0.080  0.00  0.00    -0.004 A 
ATOM      4  C2  UNL d   1      -1.284   3.208  -1.269  0.00  0.00    -0.047 A 
ATOM      5  C3  UNL d   1      -1.116   1.821  -1.496  0.00  0.00    -0.047 A 
ATOM      6  C4  UNL d   1      -0.842   1.236  -0.278  0.00  0.00    -0.004 A 
ENDROOT
TORSDOF 0
ENDMDL
