MODEL 1
REMARK minimizedAffinity 3.05931807
REMARK minimizedRMSD -1
REMARK  0 active torsions:
REMARK  status: ('A' for Active; 'I' for Inactive)
ROOT
ATOM      1  C   UNL d   1      -0.857   3.634   0.825  0.00  0.00     0.172 C 
ATOM      2  N   UNL d   1      -0.671   2.514   1.718  0.00  0.00    -0.070 N 
ATOM      3  C1  UNL d   1       0.477   1.779   1.848  0.00  0.00    -0.004 A 
ATOM      4  C2  UNL d   1       0.250   0.806   2.797  0.00  0.00    -0.047 A 
ATOM      5  C3  UNL d   1      -1.081   0.961   3.252  0.00  0.00    -0.047 A 
ATOM      6  C4  UNL d   1      -1.628   2.025   2.568  0.00  0.00    -0.004 A 
ENDROOT
TORSDOF 0
ENDMDL
