MODEL 1
REMARK minimizedAffinity 1.0051111
REMARK minimizedRMSD -1
REMARK  0 active torsions:
REMARK  status: ('A' for Active; 'I' for Inactive)
ROOT
ATOM      1  C   UNL d   1       5.270  -4.670  -3.163  0.00  0.00     0.172 C 
ATOM      2  N   UNL d   1       4.748  -4.997  -1.856  0.00  0.00    -0.070 N 
ATOM      3  C1  UNL d   1       3.702  -4.370  -1.234  0.00  0.00    -0.004 A 
ATOM      4  C2  UNL d   1       3.515  -4.975  -0.010  0.00  0.00    -0.047 A 
ATOM      5  C3  UNL d   1       4.483  -6.000   0.108  0.00  0.00    -0.047 A 
ATOM      6  C4  UNL d   1       5.233  -5.992  -1.049  0.00  0.00    -0.004 A 
ENDROOT
TORSDOF 0
ENDMDL
