MODEL 1
REMARK minimizedAffinity 1.18061948
REMARK minimizedRMSD -1
REMARK  0 active torsions:
REMARK  status: ('A' for Active; 'I' for Inactive)
ROOT
ATOM      1  C   UNL d   1      -0.081   0.427   1.944  0.00  0.00     0.172 C 
ATOM      2  N   UNL d   1       0.575  -0.039   0.745  0.00  0.00    -0.070 N 
ATOM      3  C1  UNL d   1       0.223   0.289  -0.537  0.00  0.00    -0.004 A 
ATOM      4  C2  UNL d   1       1.090  -0.356  -1.392  0.00  0.00    -0.047 A 
ATOM      5  C3  UNL d   1       1.995  -1.098  -0.596  0.00  0.00    -0.047 A 
ATOM      6  C4  UNL d   1       1.653  -0.884   0.723  0.00  0.00    -0.004 A 
ENDROOT
TORSDOF 0
ENDMDL
