MODEL 1
REMARK minimizedAffinity -5.60287476
REMARK minimizedRMSD -1
REMARK  0 active torsions:
REMARK  status: ('A' for Active; 'I' for Inactive)
ROOT
ATOM      1  C   UNL d   1       2.502  -0.551   1.279  0.00  0.00     0.020 A 
ATOM      2  C1  UNL d   1       2.876  -1.630   0.479  0.00  0.00     0.020 A 
ATOM      3  C2  UNL d   1       1.993  -2.126  -0.481  0.00  0.00     0.034 A 
ATOM      4  C3  UNL d   1       0.731  -1.544  -0.645  0.00  0.00     0.017 A 
ATOM      5  C4  UNL d   1       0.356  -0.461   0.159  0.00  0.00     0.017 A 
ATOM      6  C5  UNL d   1       1.245   0.032   1.119  0.00  0.00     0.034 A 
ATOM      7 Cl   UNL d   1      -1.184   0.310   0.016  0.00  0.00    -0.070 Cl
ATOM      8 Cl1  UNL d   1      -0.311  -2.208  -1.853  0.00  0.00    -0.070 Cl
ENDROOT
TORSDOF 0
ENDMDL
