MODEL 1
REMARK minimizedAffinity -4.97969294
REMARK minimizedRMSD -1
REMARK  0 active torsions:
REMARK  status: ('A' for Active; 'I' for Inactive)
ROOT
ATOM      1  C   UNL d   1       2.565  -1.620   0.665  0.00  0.00     0.020 A 
ATOM      2  C1  UNL d   1       2.230  -0.342   1.110  0.00  0.00     0.020 A 
ATOM      3  C2  UNL d   1       1.005   0.224   0.750  0.00  0.00     0.034 A 
ATOM      4  C3  UNL d   1       0.111  -0.488  -0.058  0.00  0.00     0.017 A 
ATOM      5  C4  UNL d   1       0.448  -1.771  -0.504  0.00  0.00     0.017 A 
ATOM      6  C5  UNL d   1       1.675  -2.333  -0.140  0.00  0.00     0.034 A 
ATOM      7 Cl   UNL d   1      -0.604  -2.710  -1.503  0.00  0.00    -0.070 Cl
ATOM      8 Cl1  UNL d   1      -1.386   0.274  -0.464  0.00  0.00    -0.070 Cl
ENDROOT
TORSDOF 0
ENDMDL
