MODEL 1
REMARK minimizedAffinity -4.68314028
REMARK minimizedRMSD -1
REMARK  0 active torsions:
REMARK  status: ('A' for Active; 'I' for Inactive)
ROOT
ATOM      1  C   UNL d   1       0.277  -0.022   0.471  0.00  0.00     0.020 A 
ATOM      2  C1  UNL d   1      -0.243  -0.576  -0.698  0.00  0.00     0.020 A 
ATOM      3  C2  UNL d   1       0.580  -1.324  -1.543  0.00  0.00     0.034 A 
ATOM      4  C3  UNL d   1       1.928  -1.519  -1.220  0.00  0.00     0.017 A 
ATOM      5  C4  UNL d   1       2.449  -0.962  -0.046  0.00  0.00     0.017 A 
ATOM      6  C5  UNL d   1       1.620  -0.215   0.796  0.00  0.00     0.034 A 
ATOM      7 Cl   UNL d   1       4.102  -1.160   0.420  0.00  0.00    -0.070 Cl
ATOM      8 Cl1  UNL d   1       2.888  -2.455  -2.310  0.00  0.00    -0.070 Cl
ENDROOT
TORSDOF 0
ENDMDL
