MODEL 1
REMARK minimizedAffinity -1.81028986
REMARK minimizedRMSD -1
REMARK  0 active torsions:
REMARK  status: ('A' for Active; 'I' for Inactive)
ROOT
ATOM      1  C   UNL d   1       0.422  -2.670  -0.485  0.00  0.00     0.020 A 
ATOM      2  C1  UNL d   1       1.789  -2.400  -0.437  0.00  0.00     0.020 A 
ATOM      3  C2  UNL d   1       2.236  -1.088  -0.270  0.00  0.00     0.034 A 
ATOM      4  C3  UNL d   1       1.316  -0.040  -0.150  0.00  0.00     0.017 A 
ATOM      5  C4  UNL d   1      -0.056  -0.312  -0.198  0.00  0.00     0.017 A 
ATOM      6  C5  UNL d   1      -0.499  -1.628  -0.365  0.00  0.00     0.034 A 
ATOM      7 Cl   UNL d   1      -1.252   0.928  -0.056  0.00  0.00    -0.070 Cl
ATOM      8 Cl1  UNL d   1       1.939   1.558   0.055  0.00  0.00    -0.070 Cl
ENDROOT
TORSDOF 0
ENDMDL
