MODEL 1
REMARK minimizedAffinity -2.45027781
REMARK minimizedRMSD -1
REMARK  0 active torsions:
REMARK  status: ('A' for Active; 'I' for Inactive)
ROOT
ATOM      1  C   UNL d   1      -0.293   1.614   0.010  0.00  0.00     0.020 A 
ATOM      2  C1  UNL d   1       1.041   1.765   0.385  0.00  0.00     0.020 A 
ATOM      3  C2  UNL d   1       1.963   0.753   0.108  0.00  0.00     0.034 A 
ATOM      4  C3  UNL d   1       1.552  -0.414  -0.547  0.00  0.00     0.017 A 
ATOM      5  C4  UNL d   1       0.213  -0.564  -0.923  0.00  0.00     0.017 A 
ATOM      6  C5  UNL d   1      -0.706   0.452  -0.643  0.00  0.00     0.034 A 
ATOM      7 Cl   UNL d   1      -0.369  -1.975  -1.734  0.00  0.00    -0.070 Cl
ATOM      8 Cl1  UNL d   1       2.746  -1.623  -0.858  0.00  0.00    -0.070 Cl
ENDROOT
TORSDOF 0
ENDMDL
