MODEL 1
REMARK minimizedAffinity 2.24922919
REMARK minimizedRMSD -1
REMARK  0 active torsions:
REMARK  status: ('A' for Active; 'I' for Inactive)
ROOT
ATOM      1  C   UNL d   1       2.367   0.087   0.078  0.00  0.00     0.077 C 
ATOM      2  C1  UNL d   1       0.879   0.012  -0.095  0.00  0.00    -0.074 A 
ATOM      3  C2  UNL d   1       0.317  -0.515  -1.263  0.00  0.00    -0.005 A 
ATOM      4  C3  UNL d   1      -1.069  -0.587  -1.406  0.00  0.00     0.006 A 
ATOM      5  C4  UNL d   1      -1.905  -0.135  -0.384  0.00  0.00    -0.005 A 
ATOM      6  C5  UNL d   1      -1.361   0.394   0.791  0.00  0.00    -0.074 A 
ATOM      7  C6  UNL d   1      -2.246   0.876   1.902  0.00  0.00     0.077 C 
ATOM      8  C7  UNL d   1       0.032   0.457   0.929  0.00  0.00    -0.001 A 
ENDROOT
TORSDOF 0
ENDMDL
