MODEL 1
REMARK minimizedAffinity 1.58620751
REMARK minimizedRMSD -1
REMARK  0 active torsions:
REMARK  status: ('A' for Active; 'I' for Inactive)
ROOT
ATOM      1  C   UNL d   1      -2.037  -1.029   0.718  0.00  0.00     0.077 C 
ATOM      2  C1  UNL d   1      -0.664  -0.676   0.229  0.00  0.00    -0.074 A 
ATOM      3  C2  UNL d   1      -0.487   0.082  -0.933  0.00  0.00    -0.005 A 
ATOM      4  C3  UNL d   1       0.796   0.410  -1.370  0.00  0.00     0.006 A 
ATOM      5  C4  UNL d   1       1.913  -0.015  -0.651  0.00  0.00    -0.005 A 
ATOM      6  C5  UNL d   1       1.756  -0.772   0.514  0.00  0.00    -0.074 A 
ATOM      7  C6  UNL d   1       2.947  -1.229   1.304  0.00  0.00     0.077 C 
ATOM      8  C7  UNL d   1       0.463  -1.093   0.951  0.00  0.00    -0.001 A 
ENDROOT
TORSDOF 0
ENDMDL
