MODEL 1
REMARK minimizedAffinity 8.4388752
REMARK minimizedRMSD -1
REMARK  0 active torsions:
REMARK  status: ('A' for Active; 'I' for Inactive)
ROOT
ATOM      1  C   UNL d   1       2.050   1.679  -4.147  0.00  0.00     0.077 C 
ATOM      2  C1  UNL d   1       0.920   0.747  -3.822  0.00  0.00    -0.074 A 
ATOM      3  C2  UNL d   1      -0.001   0.366  -4.802  0.00  0.00    -0.005 A 
ATOM      4  C3  UNL d   1      -1.041  -0.509  -4.487  0.00  0.00     0.006 A 
ATOM      5  C4  UNL d   1      -1.170  -1.009  -3.191  0.00  0.00    -0.005 A 
ATOM      6  C5  UNL d   1      -0.258  -0.639  -2.198  0.00  0.00    -0.074 A 
ATOM      7  C6  UNL d   1      -0.376  -1.176  -0.802  0.00  0.00     0.077 C 
ATOM      8  C7  UNL d   1       0.789   0.234  -2.524  0.00  0.00    -0.001 A 
ENDROOT
TORSDOF 0
ENDMDL
