MODEL 1
REMARK minimizedAffinity -1.77778041
REMARK minimizedRMSD -1
REMARK  0 active torsions:
REMARK  status: ('A' for Active; 'I' for Inactive)
ROOT
ATOM      1  C   UNL d   1       2.274  -0.929   0.893  0.00  0.00     0.077 C 
ATOM      2  C1  UNL d   1       0.919  -0.345   1.167  0.00  0.00    -0.074 A 
ATOM      3  C2  UNL d   1      -0.046  -0.267   0.158  0.00  0.00    -0.005 A 
ATOM      4  C3  UNL d   1      -1.305   0.270   0.430  0.00  0.00     0.006 A 
ATOM      5  C4  UNL d   1      -1.610   0.733   1.711  0.00  0.00    -0.005 A 
ATOM      6  C5  UNL d   1      -0.657   0.662   2.732  0.00  0.00    -0.074 A 
ATOM      7  C6  UNL d   1      -0.972   1.146   4.116  0.00  0.00     0.077 C 
ATOM      8  C7  UNL d   1       0.603   0.115   2.453  0.00  0.00    -0.001 A 
ENDROOT
TORSDOF 0
ENDMDL
