MODEL 1
REMARK minimizedAffinity -3.39232945
REMARK minimizedRMSD -1
REMARK  0 active torsions:
REMARK  status: ('A' for Active; 'I' for Inactive)
ROOT
ATOM      1  C   UNL d   1       0.967  -0.469  -0.959  0.00  0.00     0.077 C 
ATOM      2  C1  UNL d   1      -0.119  -0.201   0.039  0.00  0.00    -0.074 A 
ATOM      3  C2  UNL d   1       0.178  -0.019   1.394  0.00  0.00    -0.005 A 
ATOM      4  C3  UNL d   1      -0.843   0.240   2.309  0.00  0.00     0.006 A 
ATOM      5  C4  UNL d   1      -2.168   0.318   1.880  0.00  0.00    -0.005 A 
ATOM      6  C5  UNL d   1      -2.484   0.140   0.529  0.00  0.00    -0.074 A 
ATOM      7  C6  UNL d   1      -3.903   0.231   0.050  0.00  0.00     0.077 C 
ATOM      8  C7  UNL d   1      -1.453  -0.113  -0.385  0.00  0.00    -0.001 A 
ENDROOT
TORSDOF 0
ENDMDL
