MODEL 1
REMARK minimizedAffinity -4.00437069
REMARK minimizedRMSD -1
REMARK  0 active torsions:
REMARK  status: ('A' for Active; 'I' for Inactive)
ROOT
ATOM      1  C   UNL d   1      -0.614  -0.319  -4.313  0.00  0.00     0.077 C 
ATOM      2  C1  UNL d   1       0.649  -0.036  -3.556  0.00  0.00    -0.074 A 
ATOM      3  C2  UNL d   1       1.748   0.557  -4.186  0.00  0.00    -0.005 A 
ATOM      4  C3  UNL d   1       2.913   0.823  -3.467  0.00  0.00     0.006 A 
ATOM      5  C4  UNL d   1       2.991   0.498  -2.112  0.00  0.00    -0.005 A 
ATOM      6  C5  UNL d   1       1.903  -0.094  -1.464  0.00  0.00    -0.074 A 
ATOM      7  C6  UNL d   1       1.967  -0.440  -0.006  0.00  0.00     0.077 C 
ATOM      8  C7  UNL d   1       0.733  -0.352  -2.192  0.00  0.00    -0.001 A 
ENDROOT
TORSDOF 0
ENDMDL
