MODEL 1
REMARK minimizedAffinity -0.0428618193
REMARK minimizedRMSD -1
REMARK  0 active torsions:
REMARK  status: ('A' for Active; 'I' for Inactive)
ROOT
ATOM      1  C   UNL d   1       1.305   0.920  -3.312  0.00  0.00     0.077 C 
ATOM      2  C1  UNL d   1       1.156   0.431  -1.902  0.00  0.00    -0.074 A 
ATOM      3  C2  UNL d   1       2.207  -0.226  -1.255  0.00  0.00    -0.005 A 
ATOM      4  C3  UNL d   1       2.057  -0.667   0.060  0.00  0.00     0.006 A 
ATOM      5  C4  UNL d   1       0.857  -0.455   0.739  0.00  0.00    -0.005 A 
ATOM      6  C5  UNL d   1      -0.205   0.201   0.109  0.00  0.00    -0.074 A 
ATOM      7  C6  UNL d   1      -1.498   0.446   0.828  0.00  0.00     0.077 C 
ATOM      8  C7  UNL d   1      -0.044   0.647  -1.210  0.00  0.00    -0.001 A 
ENDROOT
TORSDOF 0
ENDMDL
