MODEL 1
REMARK minimizedAffinity -4.51789618
REMARK minimizedRMSD -1
REMARK  0 active torsions:
REMARK  status: ('A' for Active; 'I' for Inactive)
ROOT
ATOM      1  C   UNL d   1       0.971  -0.374  -1.295  0.00  0.00     0.077 C 
ATOM      2  C1  UNL d   1       0.078  -0.009  -0.146  0.00  0.00    -0.074 A 
ATOM      3  C2  UNL d   1      -1.313  -0.100  -0.260  0.00  0.00    -0.005 A 
ATOM      4  C3  UNL d   1      -2.130   0.234   0.820  0.00  0.00     0.006 A 
ATOM      5  C4  UNL d   1      -1.566   0.662   2.022  0.00  0.00    -0.005 A 
ATOM      6  C5  UNL d   1      -0.177   0.758   2.155  0.00  0.00    -0.074 A 
ATOM      7  C6  UNL d   1       0.446   1.207   3.443  0.00  0.00     0.077 C 
ATOM      8  C7  UNL d   1       0.638   0.414   1.067  0.00  0.00    -0.001 A 
ENDROOT
TORSDOF 0
ENDMDL
