MODEL 1
REMARK minimizedAffinity -5.17394209
REMARK minimizedRMSD -1
REMARK  0 active torsions:
REMARK  status: ('A' for Active; 'I' for Inactive)
ROOT
ATOM      1  C   UNL d   1       0.635   0.774   3.274  0.00  0.00     0.077 C 
ATOM      2  C1  UNL d   1      -0.107   0.553   1.989  0.00  0.00    -0.074 A 
ATOM      3  C2  UNL d   1      -1.484   0.784   1.905  0.00  0.00    -0.005 A 
ATOM      4  C3  UNL d   1      -2.158   0.583   0.701  0.00  0.00     0.006 A 
ATOM      5  C4  UNL d   1      -1.464   0.149  -0.429  0.00  0.00    -0.005 A 
ATOM      6  C5  UNL d   1      -0.087  -0.087  -0.364  0.00  0.00    -0.074 A 
ATOM      7  C6  UNL d   1       0.676  -0.544  -1.572  0.00  0.00     0.077 C 
ATOM      8  C7  UNL d   1       0.585   0.125   0.847  0.00  0.00    -0.001 A 
ENDROOT
TORSDOF 0
ENDMDL
