MODEL 1
REMARK minimizedAffinity -2.36381221
REMARK minimizedRMSD -1
REMARK  0 active torsions:
REMARK  status: ('A' for Active; 'I' for Inactive)
ROOT
ATOM      1  C   UNL d   1       0.866  -0.440  -1.611  0.00  0.00     0.077 C 
ATOM      2  C1  UNL d   1      -0.136  -0.150  -0.534  0.00  0.00    -0.074 A 
ATOM      3  C2  UNL d   1      -1.508  -0.198  -0.797  0.00  0.00    -0.005 A 
ATOM      4  C3  UNL d   1      -2.429   0.064   0.218  0.00  0.00     0.006 A 
ATOM      5  C4  UNL d   1      -1.986   0.377   1.504  0.00  0.00    -0.005 A 
ATOM      6  C5  UNL d   1      -0.618   0.428   1.786  0.00  0.00    -0.074 A 
ATOM      7  C6  UNL d   1      -0.125   0.752   3.166  0.00  0.00     0.077 C 
ATOM      8  C7  UNL d   1       0.301   0.156   0.763  0.00  0.00    -0.001 A 
ENDROOT
TORSDOF 0
ENDMDL
