MODEL 1
REMARK minimizedAffinity -3.6598897
REMARK minimizedRMSD -1
REMARK  0 active torsions:
REMARK  status: ('A' for Active; 'I' for Inactive)
ROOT
ATOM      1  C   UNL d   1       1.062  -0.864   3.679  0.00  0.00     0.077 C 
ATOM      2  C1  UNL d   1       0.322  -0.653   2.391  0.00  0.00    -0.074 A 
ATOM      3  C2  UNL d   1      -0.977  -0.136   2.385  0.00  0.00    -0.005 A 
ATOM      4  C3  UNL d   1      -1.649   0.063   1.178  0.00  0.00     0.006 A 
ATOM      5  C4  UNL d   1      -1.028  -0.252  -0.031  0.00  0.00    -0.005 A 
ATOM      6  C5  UNL d   1       0.271  -0.769  -0.044  0.00  0.00    -0.074 A 
ATOM      7  C6  UNL d   1       0.956  -1.103  -1.336  0.00  0.00     0.077 C 
ATOM      8  C7  UNL d   1       0.942  -0.960   1.172  0.00  0.00    -0.001 A 
ENDROOT
TORSDOF 0
ENDMDL
