MODEL 1
REMARK minimizedAffinity -4.48281813
REMARK minimizedRMSD -1
REMARK  0 active torsions:
REMARK  status: ('A' for Active; 'I' for Inactive)
ROOT
ATOM      1  C1  BNZ d   1       0.829  -0.239   1.364  0.00  0.00     0.000 A 
ATOM      2  C2  BNZ d   1       1.386  -0.892   2.431  0.00  0.00     0.000 A 
ATOM      3  C3  BNZ d   1       2.526  -1.630   2.282  0.00  0.00     0.000 A 
ATOM      4  C4  BNZ d   1       3.085  -1.748   1.061  0.00  0.00     0.000 A 
ATOM      5  C5  BNZ d   1       2.530  -1.104  -0.027  0.00  0.00     0.000 A 
ATOM      6  C6  BNZ d   1       1.404  -0.330   0.134  0.00  0.00     0.000 A 
ENDROOT
TORSDOF 0
ENDMDL
