MODEL 1
REMARK minimizedAffinity -3.84539127
REMARK minimizedRMSD -1
REMARK  0 active torsions:
REMARK  status: ('A' for Active; 'I' for Inactive)
ROOT
ATOM      1  C1  BNZ d   1       2.241  -1.036   0.051  0.00  0.00     0.000 A 
ATOM      2  C2  BNZ d   1       1.314  -0.579  -0.848  0.00  0.00     0.000 A 
ATOM      3  C3  BNZ d   1       0.230   0.140  -0.431  0.00  0.00     0.000 A 
ATOM      4  C4  BNZ d   1       0.051   0.368   0.886  0.00  0.00     0.000 A 
ATOM      5  C5  BNZ d   1       0.972  -0.094   1.806  0.00  0.00     0.000 A 
ATOM      6  C6  BNZ d   1       2.083  -0.784   1.379  0.00  0.00     0.000 A 
ENDROOT
TORSDOF 0
ENDMDL
