MODEL 1
REMARK minimizedAffinity -2.31837559
REMARK minimizedRMSD -1
REMARK  0 active torsions:
REMARK  status: ('A' for Active; 'I' for Inactive)
ROOT
ATOM      1  C1  BNZ d   1       1.802  -0.734   0.079  0.00  0.00     0.000 A 
ATOM      2  C2  BNZ d   1       1.286  -0.694  -1.189  0.00  0.00     0.000 A 
ATOM      3  C3  BNZ d   1      -0.034  -0.410  -1.399  0.00  0.00     0.000 A 
ATOM      4  C4  BNZ d   1      -0.845  -0.206  -0.341  0.00  0.00     0.000 A 
ATOM      5  C5  BNZ d   1      -0.343  -0.252   0.944  0.00  0.00     0.000 A 
ATOM      6  C6  BNZ d   1       0.995  -0.500   1.150  0.00  0.00     0.000 A 
ENDROOT
TORSDOF 0
ENDMDL
