MODEL 1
REMARK minimizedAffinity -3.93962884
REMARK minimizedRMSD -1
REMARK  0 active torsions:
REMARK  status: ('A' for Active; 'I' for Inactive)
ROOT
ATOM      1  C1  BNZ d   1      -1.014  -0.291   0.661  0.00  0.00     0.000 A 
ATOM      2  C2  BNZ d   1      -0.611  -0.266   1.969  0.00  0.00     0.000 A 
ATOM      3  C3  BNZ d   1       0.717  -0.280   2.293  0.00  0.00     0.000 A 
ATOM      4  C4  BNZ d   1       1.638  -0.359   1.311  0.00  0.00     0.000 A 
ATOM      5  C5  BNZ d   1       1.248  -0.394  -0.013  0.00  0.00     0.000 A 
ATOM      6  C6  BNZ d   1      -0.089  -0.341  -0.336  0.00  0.00     0.000 A 
ENDROOT
TORSDOF 0
ENDMDL
