MODEL 1
REMARK minimizedAffinity -3.90364552
REMARK minimizedRMSD -1
REMARK  0 active torsions:
REMARK  status: ('A' for Active; 'I' for Inactive)
ROOT
ATOM      1  C1  BNZ d   1       1.570  -1.388  -0.114  0.00  0.00     0.000 A 
ATOM      2  C2  BNZ d   1       1.131  -1.118   1.155  0.00  0.00     0.000 A 
ATOM      3  C3  BNZ d   1      -0.085  -0.531   1.365  0.00  0.00     0.000 A 
ATOM      4  C4  BNZ d   1      -0.843  -0.179   0.307  0.00  0.00     0.000 A 
ATOM      5  C5  BNZ d   1      -0.411  -0.437  -0.979  0.00  0.00     0.000 A 
ATOM      6  C6  BNZ d   1       0.797  -1.063  -1.185  0.00  0.00     0.000 A 
ENDROOT
TORSDOF 0
ENDMDL
