MODEL 1
REMARK minimizedAffinity -4.7907815
REMARK minimizedRMSD -1
REMARK  0 active torsions:
REMARK  status: ('A' for Active; 'I' for Inactive)
ROOT
ATOM      1  C1  BNZ d   1       1.683  -0.534   1.333  0.00  0.00     0.000 A 
ATOM      2  C2  BNZ d   1       1.010  -0.223   0.182  0.00  0.00     0.000 A 
ATOM      3  C3  BNZ d   1      -0.341  -0.407   0.090  0.00  0.00     0.000 A 
ATOM      4  C4  BNZ d   1      -1.011  -0.938   1.134  0.00  0.00     0.000 A 
ATOM      5  C5  BNZ d   1      -0.344  -1.265   2.298  0.00  0.00     0.000 A 
ATOM      6  C6  BNZ d   1       1.010  -1.043   2.400  0.00  0.00     0.000 A 
ENDROOT
TORSDOF 0
ENDMDL
