MODEL 1
REMARK minimizedAffinity -5.18580437
REMARK minimizedRMSD -1
REMARK  0 active torsions:
REMARK  status: ('A' for Active; 'I' for Inactive)
ROOT
ATOM      1  C1  BNZ d   1       1.158  -0.730   2.939  0.00  0.00     0.000 A 
ATOM      2  C2  BNZ d   1       1.677   0.335   2.253  0.00  0.00     0.000 A 
ATOM      3  C3  BNZ d   1       0.941   0.977   1.296  0.00  0.00     0.000 A 
ATOM      4  C4  BNZ d   1      -0.296   0.528   0.999  0.00  0.00     0.000 A 
ATOM      5  C5  BNZ d   1      -0.829  -0.551   1.676  0.00  0.00     0.000 A 
ATOM      6  C6  BNZ d   1      -0.100  -1.170   2.665  0.00  0.00     0.000 A 
ENDROOT
TORSDOF 0
ENDMDL
