MODEL 1
REMARK minimizedAffinity -3.79962921
REMARK minimizedRMSD -1
REMARK  1 active torsions:
REMARK  status: ('A' for Active; 'I' for Inactive)
REMARK    1  A    between atoms: C1_2  and  C2_3 
ROOT
ATOM      1  C2  UNL d   1       0.579  -0.405  -0.820  0.00  0.00    -0.081 A 
ATOM      2  C3  UNL d   1       1.647  -0.349   0.084  0.00  0.00     0.006 A 
ATOM      3  C4  UNL d   1       1.408  -0.240   1.456  0.00  0.00     0.002 A 
ATOM      4  C5  UNL d   1       0.099  -0.194   1.947  0.00  0.00    -0.080 A 
ATOM      5  C6  UNL d   1      -0.172  -0.108   3.420  0.00  0.00     0.076 C 
ATOM      6  C7  UNL d   1      -0.968  -0.232   1.042  0.00  0.00     0.002 A 
ATOM      7  C8  UNL d   1      -0.730  -0.340  -0.330  0.00  0.00     0.006 A 
ENDROOT
BRANCH   1   8
ATOM      8  C1  UNL d   1       0.833  -0.587  -2.295  0.00  0.00     0.054 C 
ATOM      9  C   UNL d   1       1.489  -1.930  -2.582  0.00  0.00     0.018 C 
ENDBRANCH   1   8
TORSDOF 1
ENDMDL
