MODEL 1
REMARK minimizedAffinity -0.153046802
REMARK minimizedRMSD -1
REMARK  1 active torsions:
REMARK  status: ('A' for Active; 'I' for Inactive)
REMARK    1  A    between atoms: C1_2  and  C2_3 
ROOT
ATOM      1  C2  UNL d   1       1.127   1.476  -0.783  0.00  0.00    -0.081 A 
ATOM      2  C3  UNL d   1       0.100   0.686  -1.313  0.00  0.00     0.006 A 
ATOM      3  C4  UNL d   1      -0.555  -0.254  -0.513  0.00  0.00     0.002 A 
ATOM      4  C5  UNL d   1      -0.200  -0.413   0.831  0.00  0.00    -0.080 A 
ATOM      5  C6  UNL d   1      -0.915  -1.397   1.709  0.00  0.00     0.076 C 
ATOM      6  C7  UNL d   1       0.838   0.365   1.356  0.00  0.00     0.002 A 
ATOM      7  C8  UNL d   1       1.494   1.304   0.556  0.00  0.00     0.006 A 
ENDROOT
BRANCH   1   8
ATOM      8  C1  UNL d   1       1.790   2.536  -1.625  0.00  0.00     0.054 C 
ATOM      9  C   UNL d   1       2.541   3.540  -0.762  0.00  0.00     0.018 C 
ENDBRANCH   1   8
TORSDOF 1
ENDMDL
