MODEL 1
REMARK minimizedAffinity -5.94862938
REMARK minimizedRMSD -1
REMARK  1 active torsions:
REMARK  status: ('A' for Active; 'I' for Inactive)
REMARK    1  A    between atoms: C1_2  and  C2_3 
ROOT
ATOM      1  C2  UNL d   1       1.146   1.085  -0.051  0.00  0.00    -0.081 A 
ATOM      2  C3  UNL d   1      -0.121   0.513  -0.217  0.00  0.00     0.006 A 
ATOM      3  C4  UNL d   1      -0.640  -0.351   0.750  0.00  0.00     0.002 A 
ATOM      4  C5  UNL d   1       0.095  -0.651   1.902  0.00  0.00    -0.080 A 
ATOM      5  C6  UNL d   1      -0.463  -1.553   2.962  0.00  0.00     0.076 C 
ATOM      6  C7  UNL d   1       1.369  -0.093   2.060  0.00  0.00     0.002 A 
ATOM      7  C8  UNL d   1       1.888   0.771   1.093  0.00  0.00     0.006 A 
ENDROOT
BRANCH   1   8
ATOM      8  C1  UNL d   1       1.681   2.068  -1.061  0.00  0.00     0.054 C 
ATOM      9  C   UNL d   1       2.413   3.217  -0.381  0.00  0.00     0.018 C 
ENDBRANCH   1   8
TORSDOF 1
ENDMDL
