MODEL 1
REMARK minimizedAffinity -3.34362078
REMARK minimizedRMSD -1
REMARK  1 active torsions:
REMARK  status: ('A' for Active; 'I' for Inactive)
REMARK    1  A    between atoms: C1_2  and  C2_3 
ROOT
ATOM      1  C2  UNL d   1       1.431   1.300   0.334  0.00  0.00    -0.081 A 
ATOM      2  C3  UNL d   1       0.249   0.653  -0.048  0.00  0.00     0.006 A 
ATOM      3  C4  UNL d   1      -0.435  -0.163   0.856  0.00  0.00     0.002 A 
ATOM      4  C5  UNL d   1       0.047  -0.340   2.158  0.00  0.00    -0.080 A 
ATOM      5  C6  UNL d   1      -0.694  -1.189   3.147  0.00  0.00     0.076 C 
ATOM      6  C7  UNL d   1       1.236   0.292   2.534  0.00  0.00     0.002 A 
ATOM      7  C8  UNL d   1       1.921   1.108   1.630  0.00  0.00     0.006 A 
ENDROOT
BRANCH   1   8
ATOM      8  C1  UNL d   1       2.136   2.232  -0.618  0.00  0.00     0.054 C 
ATOM      9  C   UNL d   1       2.852   3.348   0.129  0.00  0.00     0.018 C 
ENDBRANCH   1   8
TORSDOF 1
ENDMDL
