MODEL 1
REMARK minimizedAffinity -1.88015318
REMARK minimizedRMSD -1
REMARK  1 active torsions:
REMARK  status: ('A' for Active; 'I' for Inactive)
REMARK    1  A    between atoms: C1_2  and  C2_3 
ROOT
ATOM      1  C2  UNL d   1       1.823   1.717  -0.194  0.00  0.00    -0.081 A 
ATOM      2  C3  UNL d   1       0.520   1.223  -0.335  0.00  0.00     0.006 A 
ATOM      3  C4  UNL d   1       0.016   0.287   0.571  0.00  0.00     0.002 A 
ATOM      4  C5  UNL d   1       0.802  -0.164   1.637  0.00  0.00    -0.080 A 
ATOM      5  C6  UNL d   1       0.262  -1.146   2.634  0.00  0.00     0.076 C 
ATOM      6  C7  UNL d   1       2.109   0.316   1.768  0.00  0.00     0.002 A 
ATOM      7  C8  UNL d   1       2.614   1.251   0.862  0.00  0.00     0.006 A 
ENDROOT
BRANCH   1   8
ATOM      8  C1  UNL d   1       2.347   2.775  -1.131  0.00  0.00     0.054 C 
ATOM      9  C   UNL d   1       2.989   3.923  -0.366  0.00  0.00     0.018 C 
ENDBRANCH   1   8
TORSDOF 1
ENDMDL
