MODEL 1
REMARK minimizedAffinity 0.861501217
REMARK minimizedRMSD -1
REMARK  1 active torsions:
REMARK  status: ('A' for Active; 'I' for Inactive)
REMARK    1  A    between atoms: C1_2  and  C2_3 
ROOT
ATOM      1  C2  UNL d   1       2.169  -0.238  -2.444  0.00  0.00    -0.081 A 
ATOM      2  C3  UNL d   1       2.788  -1.273  -3.157  0.00  0.00     0.006 A 
ATOM      3  C4  UNL d   1       2.290  -2.576  -3.089  0.00  0.00     0.002 A 
ATOM      4  C5  UNL d   1       1.161  -2.865  -2.315  0.00  0.00    -0.080 A 
ATOM      5  C6  UNL d   1       0.598  -4.254  -2.258  0.00  0.00     0.076 C 
ATOM      6  C7  UNL d   1       0.553  -1.835  -1.589  0.00  0.00     0.002 A 
ATOM      7  C8  UNL d   1       1.051  -0.532  -1.655  0.00  0.00     0.006 A 
ENDROOT
BRANCH   1   8
ATOM      8  C1  UNL d   1       2.665   1.180  -2.566  0.00  0.00     0.054 C 
ATOM      9  C   UNL d   1       2.012   2.085  -1.531  0.00  0.00     0.018 C 
ENDBRANCH   1   8
TORSDOF 1
ENDMDL
