MODEL 1
REMARK minimizedAffinity 1.84335661
REMARK minimizedRMSD -1
REMARK  1 active torsions:
REMARK  status: ('A' for Active; 'I' for Inactive)
REMARK    1  A    between atoms: C1_2  and  C2_3 
ROOT
ATOM      1  C2  UNL d   1      -4.700   2.314   4.546  0.00  0.00    -0.081 A 
ATOM      2  C3  UNL d   1      -3.601   1.811   5.252  0.00  0.00     0.006 A 
ATOM      3  C4  UNL d   1      -2.391   1.565   4.598  0.00  0.00     0.002 A 
ATOM      4  C5  UNL d   1      -2.258   1.825   3.230  0.00  0.00    -0.080 A 
ATOM      5  C6  UNL d   1      -0.956   1.595   2.522  0.00  0.00     0.076 C 
ATOM      6  C7  UNL d   1      -3.362   2.312   2.521  0.00  0.00     0.002 A 
ATOM      7  C8  UNL d   1      -4.572   2.557   3.174  0.00  0.00     0.006 A 
ENDROOT
BRANCH   1   8
ATOM      8  C1  UNL d   1      -5.986   2.641   5.262  0.00  0.00     0.054 C 
ATOM      9  C   UNL d   1      -6.000   4.085   5.743  0.00  0.00     0.018 C 
ENDBRANCH   1   8
TORSDOF 1
ENDMDL
