MODEL 1
REMARK minimizedAffinity 0.775819719
REMARK minimizedRMSD -1
REMARK  1 active torsions:
REMARK  status: ('A' for Active; 'I' for Inactive)
REMARK    1  A    between atoms: C1_2  and  C2_3 
ROOT
ATOM      1  C2  UNL d   1       2.288  -1.049  -2.427  0.00  0.00    -0.081 A 
ATOM      2  C3  UNL d   1       3.185  -0.074  -2.880  0.00  0.00     0.006 A 
ATOM      3  C4  UNL d   1       3.201   1.197  -2.301  0.00  0.00     0.002 A 
ATOM      4  C5  UNL d   1       2.327   1.511  -1.255  0.00  0.00    -0.080 A 
ATOM      5  C6  UNL d   1       2.354   2.862  -0.603  0.00  0.00     0.076 C 
ATOM      6  C7  UNL d   1       1.419   0.542  -0.814  0.00  0.00     0.002 A 
ATOM      7  C8  UNL d   1       1.402  -0.728  -1.393  0.00  0.00     0.006 A 
ENDROOT
BRANCH   1   8
ATOM      8  C1  UNL d   1       2.313  -2.441  -3.006  0.00  0.00     0.054 C 
ATOM      9  C   UNL d   1       0.936  -2.857  -3.505  0.00  0.00     0.018 C 
ENDBRANCH   1   8
TORSDOF 1
ENDMDL
