MODEL 1
REMARK minimizedAffinity 9.60461044
REMARK minimizedRMSD -1
REMARK  1 active torsions:
REMARK  status: ('A' for Active; 'I' for Inactive)
REMARK    1  A    between atoms: C1_2  and  C2_3 
ROOT
ATOM      1  C2  UNL d   1       0.275  -2.266  -4.993  0.00  0.00    -0.081 A 
ATOM      2  C3  UNL d   1       0.338  -1.728  -3.702  0.00  0.00     0.006 A 
ATOM      3  C4  UNL d   1       1.486  -1.060  -3.269  0.00  0.00     0.002 A 
ATOM      4  C5  UNL d   1       2.586  -0.913  -4.121  0.00  0.00    -0.080 A 
ATOM      5  C6  UNL d   1       3.813  -0.173  -3.678  0.00  0.00     0.076 C 
ATOM      6  C7  UNL d   1       2.530  -1.467  -5.404  0.00  0.00     0.002 A 
ATOM      7  C8  UNL d   1       1.383  -2.135  -5.838  0.00  0.00     0.006 A 
ENDROOT
BRANCH   1   8
ATOM      8  C1  UNL d   1      -0.986  -2.930  -5.486  0.00  0.00     0.054 C 
ATOM      9  C   UNL d   1      -2.211  -2.403  -4.753  0.00  0.00     0.018 C 
ENDBRANCH   1   8
TORSDOF 1
ENDMDL
