MODEL 1
REMARK minimizedAffinity 0.779472709
REMARK minimizedRMSD -1
REMARK  1 active torsions:
REMARK  status: ('A' for Active; 'I' for Inactive)
REMARK    1  A    between atoms: C1_2  and  C2_3 
ROOT
ATOM      1  C2  UNL d   1       2.113   0.216  -1.710  0.00  0.00    -0.081 A 
ATOM      2  C3  UNL d   1       3.394  -0.235  -2.052  0.00  0.00     0.006 A 
ATOM      3  C4  UNL d   1       3.567  -1.480  -2.661  0.00  0.00     0.002 A 
ATOM      4  C5  UNL d   1       2.463  -2.291  -2.946  0.00  0.00    -0.080 A 
ATOM      5  C6  UNL d   1       2.633  -3.617  -3.627  0.00  0.00     0.076 C 
ATOM      6  C7  UNL d   1       1.185  -1.848  -2.589  0.00  0.00     0.002 A 
ATOM      7  C8  UNL d   1       1.011  -0.604  -1.979  0.00  0.00     0.006 A 
ENDROOT
BRANCH   1   8
ATOM      8  C1  UNL d   1       1.917   1.585  -1.112  0.00  0.00     0.054 C 
ATOM      9  C   UNL d   1       2.690   1.736   0.190  0.00  0.00     0.018 C 
ENDBRANCH   1   8
TORSDOF 1
ENDMDL
