MODEL 1
REMARK minimizedAffinity 1.11145425
REMARK minimizedRMSD -1
REMARK  1 active torsions:
REMARK  status: ('A' for Active; 'I' for Inactive)
REMARK    1  A    between atoms: C1_2  and  C2_3 
ROOT
ATOM      1  C2  UNL d   1       0.222  -4.920   2.724  0.00  0.00    -0.081 A 
ATOM      2  C3  UNL d   1       1.043  -5.661   1.865  0.00  0.00     0.006 A 
ATOM      3  C4  UNL d   1       2.343  -6.000   2.246  0.00  0.00     0.002 A 
ATOM      4  C5  UNL d   1       2.841  -5.610   3.494  0.00  0.00    -0.080 A 
ATOM      5  C6  UNL d   1       4.225  -5.994   3.928  0.00  0.00     0.076 C 
ATOM      6  C7  UNL d   1       2.027  -4.855   4.345  0.00  0.00     0.002 A 
ATOM      7  C8  UNL d   1       0.727  -4.515   3.964  0.00  0.00     0.006 A 
ENDROOT
BRANCH   1   8
ATOM      8  C1  UNL d   1      -1.203  -4.608   2.343  0.00  0.00     0.054 C 
ATOM      9  C   UNL d   1      -1.940  -5.860   1.888  0.00  0.00     0.018 C 
ENDBRANCH   1   8
TORSDOF 1
ENDMDL
