MODEL 1
REMARK minimizedAffinity 6.68989611
REMARK minimizedRMSD -1
REMARK  1 active torsions:
REMARK  status: ('A' for Active; 'I' for Inactive)
REMARK    1  A    between atoms: C1_2  and  C2_3 
ROOT
ATOM      1  C2  UNL d   1      -2.127   1.549   5.356  0.00  0.00    -0.081 A 
ATOM      2  C3  UNL d   1      -1.477   0.901   4.299  0.00  0.00     0.006 A 
ATOM      3  C4  UNL d   1      -0.242   1.363   3.837  0.00  0.00     0.002 A 
ATOM      4  C5  UNL d   1       0.365   2.476   4.429  0.00  0.00    -0.080 A 
ATOM      5  C6  UNL d   1       1.705   2.965   3.962  0.00  0.00     0.076 C 
ATOM      6  C7  UNL d   1      -0.293   3.135   5.473  0.00  0.00     0.002 A 
ATOM      7  C8  UNL d   1      -1.527   2.673   5.935  0.00  0.00     0.006 A 
ENDROOT
BRANCH   1   8
ATOM      8  C1  UNL d   1      -3.428   1.014   5.900  0.00  0.00     0.054 C 
ATOM      9  C   UNL d   1      -4.598   1.387   5.001  0.00  0.00     0.018 C 
ENDBRANCH   1   8
TORSDOF 1
ENDMDL
