MODEL 1
REMARK minimizedAffinity 2.5968914
REMARK minimizedRMSD -1
REMARK  1 active torsions:
REMARK  status: ('A' for Active; 'I' for Inactive)
REMARK    1  A    between atoms: C1_2  and  C2_3 
ROOT
ATOM      1  C2  UNL d   1      -3.502  -4.013   1.173  0.00  0.00    -0.081 A 
ATOM      2  C3  UNL d   1      -2.333  -3.262   1.350  0.00  0.00     0.006 A 
ATOM      3  C4  UNL d   1      -1.155  -3.877   1.780  0.00  0.00     0.002 A 
ATOM      4  C5  UNL d   1      -1.123  -5.253   2.031  0.00  0.00    -0.080 A 
ATOM      5  C6  UNL d   1       0.143  -5.930   2.463  0.00  0.00     0.076 C 
ATOM      6  C7  UNL d   1      -2.295  -6.000   1.871  0.00  0.00     0.002 A 
ATOM      7  C8  UNL d   1      -3.473  -5.385   1.442  0.00  0.00     0.006 A 
ENDROOT
BRANCH   1   8
ATOM      8  C1  UNL d   1      -4.757  -3.364   0.647  0.00  0.00     0.054 C 
ATOM      9  C   UNL d   1      -6.000  -4.116   1.101  0.00  0.00     0.018 C 
ENDBRANCH   1   8
TORSDOF 1
ENDMDL
