MODEL 1
REMARK minimizedAffinity -4.8277092
REMARK minimizedRMSD -1
REMARK  1 active torsions:
REMARK  status: ('A' for Active; 'I' for Inactive)
REMARK    1  A    between atoms: C1_2  and  C2_3 
ROOT
ATOM      1  C2  UNL d   1      -0.547  -0.924   0.965  0.00  0.00    -0.081 A 
ATOM      2  C3  UNL d   1       0.661  -0.633   0.318  0.00  0.00     0.006 A 
ATOM      3  C4  UNL d   1       1.018  -1.308  -0.851  0.00  0.00     0.002 A 
ATOM      4  C5  UNL d   1       0.171  -2.278  -1.398  0.00  0.00    -0.080 A 
ATOM      5  C6  UNL d   1       0.528  -2.988  -2.670  0.00  0.00     0.076 C 
ATOM      6  C7  UNL d   1      -1.027  -2.581  -0.743  0.00  0.00     0.002 A 
ATOM      7  C8  UNL d   1      -1.385  -1.907   0.427  0.00  0.00     0.006 A 
ENDROOT
BRANCH   1   8
ATOM      8  C1  UNL d   1      -0.965  -0.152   2.191  0.00  0.00     0.054 C 
ATOM      9  C   UNL d   1      -0.833   1.348   1.971  0.00  0.00     0.018 C 
ENDBRANCH   1   8
TORSDOF 1
ENDMDL
