MODEL 1
REMARK minimizedAffinity -2.36625028
REMARK minimizedRMSD -1
REMARK  1 active torsions:
REMARK  status: ('A' for Active; 'I' for Inactive)
REMARK    1  A    between atoms: C1_2  and  C2_3 
ROOT
ATOM      1  C2  UNL d   1       0.738  -1.919  -1.081  0.00  0.00    -0.081 A 
ATOM      2  C3  UNL d   1       1.679  -0.965  -0.674  0.00  0.00     0.006 A 
ATOM      3  C4  UNL d   1       1.317   0.055   0.209  0.00  0.00     0.002 A 
ATOM      4  C5  UNL d   1       0.012   0.134   0.705  0.00  0.00    -0.080 A 
ATOM      5  C6  UNL d   1      -0.382   1.206   1.677  0.00  0.00     0.076 C 
ATOM      6  C7  UNL d   1      -0.933  -0.808   0.285  0.00  0.00     0.002 A 
ATOM      7  C8  UNL d   1      -0.572  -1.828  -0.598  0.00  0.00     0.006 A 
ENDROOT
BRANCH   1   8
ATOM      8  C1  UNL d   1       1.142  -3.058  -1.982  0.00  0.00     0.054 C 
ATOM      9  C   UNL d   1       0.162  -3.225  -3.135  0.00  0.00     0.018 C 
ENDBRANCH   1   8
TORSDOF 1
ENDMDL
