MODEL 1
REMARK minimizedAffinity -4.5328064
REMARK minimizedRMSD -1
REMARK  1 active torsions:
REMARK  status: ('A' for Active; 'I' for Inactive)
REMARK    1  A    between atoms: C1_2  and  C2_3 
ROOT
ATOM      1  C2  UNL d   1       0.342  -1.708  -0.467  0.00  0.00    -0.081 A 
ATOM      2  C3  UNL d   1      -0.623  -1.940   0.521  0.00  0.00     0.006 A 
ATOM      3  C4  UNL d   1      -1.093  -0.890   1.313  0.00  0.00     0.002 A 
ATOM      4  C5  UNL d   1      -0.611   0.410   1.127  0.00  0.00    -0.080 A 
ATOM      5  C6  UNL d   1      -1.129   1.552   1.950  0.00  0.00     0.076 C 
ATOM      6  C7  UNL d   1       0.366   0.639   0.152  0.00  0.00     0.002 A 
ATOM      7  C8  UNL d   1       0.836  -0.411  -0.640  0.00  0.00     0.006 A 
ENDROOT
BRANCH   1   8
ATOM      8  C1  UNL d   1       0.802  -2.826  -1.366  0.00  0.00     0.054 C 
ATOM      9  C   UNL d   1       0.717  -2.428  -2.833  0.00  0.00     0.018 C 
ENDBRANCH   1   8
TORSDOF 1
ENDMDL
