MODEL 1
REMARK minimizedAffinity -4.54303694
REMARK minimizedRMSD -1
REMARK  1 active torsions:
REMARK  status: ('A' for Active; 'I' for Inactive)
REMARK    1  A    between atoms: C1_2  and  C2_3 
ROOT
ATOM      1  C2  UNL d   1      -0.256  -0.163   1.110  0.00  0.00    -0.081 A 
ATOM      2  C3  UNL d   1       0.980  -0.047   0.462  0.00  0.00     0.006 A 
ATOM      3  C4  UNL d   1       1.251  -0.797  -0.685  0.00  0.00     0.002 A 
ATOM      4  C5  UNL d   1       0.289  -1.668  -1.208  0.00  0.00    -0.080 A 
ATOM      5  C6  UNL d   1       0.556  -2.456  -2.456  0.00  0.00     0.076 C 
ATOM      6  C7  UNL d   1      -0.940  -1.796  -0.551  0.00  0.00     0.002 A 
ATOM      7  C8  UNL d   1      -1.211  -1.047   0.596  0.00  0.00     0.006 A 
ENDROOT
BRANCH   1   8
ATOM      8  C1  UNL d   1      -0.576   0.692   2.309  0.00  0.00     0.054 C 
ATOM      9  C   UNL d   1      -0.687   2.162   1.928  0.00  0.00     0.018 C 
ENDBRANCH   1   8
TORSDOF 1
ENDMDL
