MODEL 1
REMARK minimizedAffinity -0.890051663
REMARK minimizedRMSD -1
REMARK  1 active torsions:
REMARK  status: ('A' for Active; 'I' for Inactive)
REMARK    1  A    between atoms: C1_2  and  C2_3 
ROOT
ATOM      1  C2  UNL d   1       0.223  -1.444  -0.903  0.00  0.00    -0.081 A 
ATOM      2  C3  UNL d   1       1.157  -0.719  -0.153  0.00  0.00     0.006 A 
ATOM      3  C4  UNL d   1       0.744   0.057   0.933  0.00  0.00     0.002 A 
ATOM      4  C5  UNL d   1      -0.607   0.114   1.291  0.00  0.00    -0.080 A 
ATOM      5  C6  UNL d   1      -1.060   0.918   2.474  0.00  0.00     0.076 C 
ATOM      6  C7  UNL d   1      -1.542  -0.597   0.531  0.00  0.00     0.002 A 
ATOM      7  C8  UNL d   1      -1.130  -1.372  -0.555  0.00  0.00     0.006 A 
ENDROOT
BRANCH   1   8
ATOM      8  C1  UNL d   1       0.673  -2.332  -2.035  0.00  0.00     0.054 C 
ATOM      9  C   UNL d   1      -0.191  -3.581  -2.136  0.00  0.00     0.018 C 
ENDBRANCH   1   8
TORSDOF 1
ENDMDL
