MODEL 1
REMARK minimizedAffinity -2.05394602
REMARK minimizedRMSD -1
REMARK  1 active torsions:
REMARK  status: ('A' for Active; 'I' for Inactive)
REMARK    1  A    between atoms: C1_2  and  C2_3 
ROOT
ATOM      1  C2  UNL d   1       0.367  -1.957  -0.649  0.00  0.00    -0.081 A 
ATOM      2  C3  UNL d   1       0.748  -0.613  -0.744  0.00  0.00     0.006 A 
ATOM      3  C4  UNL d   1       0.144   0.353   0.065  0.00  0.00     0.002 A 
ATOM      4  C5  UNL d   1      -0.844  -0.009   0.986  0.00  0.00    -0.080 A 
ATOM      5  C6  UNL d   1      -1.479   1.013   1.881  0.00  0.00     0.076 C 
ATOM      6  C7  UNL d   1      -1.238  -1.349   1.068  0.00  0.00     0.002 A 
ATOM      7  C8  UNL d   1      -0.635  -2.315   0.260  0.00  0.00     0.006 A 
ENDROOT
BRANCH   1   8
ATOM      8  C1  UNL d   1       1.061  -3.010  -1.474  0.00  0.00     0.054 C 
ATOM      9  C   UNL d   1       0.061  -3.845  -2.262  0.00  0.00     0.018 C 
ENDBRANCH   1   8
TORSDOF 1
ENDMDL
