MODEL 1
REMARK minimizedAffinity -4.0930748
REMARK minimizedRMSD -1
REMARK  1 active torsions:
REMARK  status: ('A' for Active; 'I' for Inactive)
REMARK    1  A    between atoms: C1_2  and  C2_3 
ROOT
ATOM      1  C2  UNL d   1       0.426  -1.378  -0.935  0.00  0.00    -0.081 A 
ATOM      2  C3  UNL d   1       1.146  -0.284  -0.439  0.00  0.00     0.006 A 
ATOM      3  C4  UNL d   1       0.594   0.540   0.544  0.00  0.00     0.002 A 
ATOM      4  C5  UNL d   1      -0.682   0.280   1.054  0.00  0.00    -0.080 A 
ATOM      5  C6  UNL d   1      -1.274   1.139   2.132  0.00  0.00     0.076 C 
ATOM      6  C7  UNL d   1      -1.409  -0.802   0.547  0.00  0.00     0.002 A 
ATOM      7  C8  UNL d   1      -0.858  -1.626  -0.437  0.00  0.00     0.006 A 
ENDROOT
BRANCH   1   8
ATOM      8  C1  UNL d   1       1.044  -2.307  -1.949  0.00  0.00     0.054 C 
ATOM      9  C   UNL d   1       0.416  -3.692  -1.885  0.00  0.00     0.018 C 
ENDBRANCH   1   8
TORSDOF 1
ENDMDL
