MODEL 1
REMARK minimizedAffinity -5.16120052
REMARK minimizedRMSD -1
REMARK  1 active torsions:
REMARK  status: ('A' for Active; 'I' for Inactive)
REMARK    1  A    between atoms: C1_2  and  C2_3 
ROOT
ATOM      1  C2  UNL d   1       0.100   1.353   0.192  0.00  0.00    -0.081 A 
ATOM      2  C3  UNL d   1      -0.904   1.506   1.155  0.00  0.00     0.006 A 
ATOM      3  C4  UNL d   1      -1.229   0.452   2.012  0.00  0.00     0.002 A 
ATOM      4  C5  UNL d   1      -0.551  -0.769   1.926  0.00  0.00    -0.080 A 
ATOM      5  C6  UNL d   1      -0.869  -1.898   2.860  0.00  0.00     0.076 C 
ATOM      6  C7  UNL d   1       0.440  -0.927   0.951  0.00  0.00     0.002 A 
ATOM      7  C8  UNL d   1       0.765   0.126   0.094  0.00  0.00     0.006 A 
ENDROOT
BRANCH   1   8
ATOM      8  C1  UNL d   1       0.498   2.509  -0.691  0.00  0.00     0.054 C 
ATOM      9  C   UNL d   1       0.061   3.838  -0.092  0.00  0.00     0.018 C 
ENDBRANCH   1   8
TORSDOF 1
ENDMDL
