MODEL 1
REMARK minimizedAffinity -3.06654096
REMARK minimizedRMSD -1
REMARK  1 active torsions:
REMARK  status: ('A' for Active; 'I' for Inactive)
REMARK    1  A    between atoms: C1_2  and  C2_3 
ROOT
ATOM      1  C2  UNL d   1       0.924  -1.763  -0.833  0.00  0.00    -0.081 A 
ATOM      2  C3  UNL d   1      -0.404  -1.895  -0.410  0.00  0.00     0.006 A 
ATOM      3  C4  UNL d   1      -0.929  -1.033   0.556  0.00  0.00     0.002 A 
ATOM      4  C5  UNL d   1      -0.137  -0.021   1.109  0.00  0.00    -0.080 A 
ATOM      5  C6  UNL d   1      -0.697   0.931   2.124  0.00  0.00     0.076 C 
ATOM      6  C7  UNL d   1       1.195   0.100   0.700  0.00  0.00     0.002 A 
ATOM      7  C8  UNL d   1       1.720  -0.762  -0.266  0.00  0.00     0.006 A 
ENDROOT
BRANCH   1   8
ATOM      8  C1  UNL d   1       1.474  -2.649  -1.921  0.00  0.00     0.054 C 
ATOM      9  C   UNL d   1       0.360  -3.389  -2.648  0.00  0.00     0.018 C 
ENDBRANCH   1   8
TORSDOF 1
ENDMDL
