MODEL 1
REMARK minimizedAffinity -3.59660292
REMARK minimizedRMSD -1
REMARK  1 active torsions:
REMARK  status: ('A' for Active; 'I' for Inactive)
REMARK    1  A    between atoms: C1_2  and  C2_3 
ROOT
ATOM      1  C2  UNL d   1      -0.001  -2.387  -1.064  0.00  0.00    -0.081 A 
ATOM      2  C3  UNL d   1       1.013  -1.438  -0.888  0.00  0.00     0.006 A 
ATOM      3  C4  UNL d   1       0.885  -0.436   0.077  0.00  0.00     0.002 A 
ATOM      4  C5  UNL d   1      -0.254  -0.371   0.887  0.00  0.00    -0.080 A 
ATOM      5  C6  UNL d   1      -0.390   0.681   1.947  0.00  0.00     0.076 C 
ATOM      6  C7  UNL d   1      -1.275  -1.309   0.699  0.00  0.00     0.002 A 
ATOM      7  C8  UNL d   1      -1.148  -2.311  -0.267  0.00  0.00     0.006 A 
ENDROOT
BRANCH   1   8
ATOM      8  C1  UNL d   1       0.162  -3.507  -2.060  0.00  0.00     0.054 C 
ATOM      9  C   UNL d   1      -0.088  -3.025  -3.482  0.00  0.00     0.018 C 
ENDBRANCH   1   8
TORSDOF 1
ENDMDL
