MODEL 1
REMARK minimizedAffinity -0.718690753
REMARK minimizedRMSD -1
REMARK  1 active torsions:
REMARK  status: ('A' for Active; 'I' for Inactive)
REMARK    1  A    between atoms: C1_2  and  C2_3 
ROOT
ATOM      1  C2  UNL d   1       0.424  -1.488  -0.779  0.00  0.00    -0.081 A 
ATOM      2  C3  UNL d   1       0.691  -0.113  -0.783  0.00  0.00     0.006 A 
ATOM      3  C4  UNL d   1       0.211   0.704   0.244  0.00  0.00     0.002 A 
ATOM      4  C5  UNL d   1      -0.535   0.160   1.294  0.00  0.00    -0.080 A 
ATOM      5  C6  UNL d   1      -1.030   1.021   2.418  0.00  0.00     0.076 C 
ATOM      6  C7  UNL d   1      -0.816  -1.210   1.289  0.00  0.00     0.002 A 
ATOM      7  C8  UNL d   1      -0.338  -2.028   0.263  0.00  0.00     0.006 A 
ENDROOT
BRANCH   1   8
ATOM      8  C1  UNL d   1       0.994  -2.382  -1.850  0.00  0.00     0.054 C 
ATOM      9  C   UNL d   1       0.395  -3.779  -1.781  0.00  0.00     0.018 C 
ENDBRANCH   1   8
TORSDOF 1
ENDMDL
