MODEL 1
REMARK minimizedAffinity -4.72270918
REMARK minimizedRMSD -1
REMARK  1 active torsions:
REMARK  status: ('A' for Active; 'I' for Inactive)
REMARK    1  A    between atoms: C1_2  and  C2_3 
ROOT
ATOM      1  C2  UNL d   1       0.604  -1.894  -1.106  0.00  0.00    -0.081 A 
ATOM      2  C3  UNL d   1       1.419  -0.859  -0.632  0.00  0.00     0.006 A 
ATOM      3  C4  UNL d   1       0.956   0.009   0.360  0.00  0.00     0.002 A 
ATOM      4  C5  UNL d   1      -0.325  -0.148   0.899  0.00  0.00    -0.080 A 
ATOM      5  C6  UNL d   1      -0.823   0.759   1.985  0.00  0.00     0.076 C 
ATOM      6  C7  UNL d   1      -1.146  -1.171   0.413  0.00  0.00     0.002 A 
ATOM      7  C8  UNL d   1      -0.684  -2.039  -0.579  0.00  0.00     0.006 A 
ENDROOT
BRANCH   1   8
ATOM      8  C1  UNL d   1       1.124  -2.871  -2.129  0.00  0.00     0.054 C 
ATOM      9  C   UNL d   1       0.396  -2.721  -3.458  0.00  0.00     0.018 C 
ENDBRANCH   1   8
TORSDOF 1
ENDMDL
