MODEL 1
REMARK minimizedAffinity -2.20001197
REMARK minimizedRMSD -1
REMARK  1 active torsions:
REMARK  status: ('A' for Active; 'I' for Inactive)
REMARK    1  A    between atoms: C1_2  and  C2_3 
ROOT
ATOM      1  C2  UNL d   1       0.846  -1.038  -0.541  0.00  0.00    -0.081 A 
ATOM      2  C3  UNL d   1       0.299  -1.593   0.623  0.00  0.00     0.006 A 
ATOM      3  C4  UNL d   1      -0.297  -0.775   1.585  0.00  0.00     0.002 A 
ATOM      4  C5  UNL d   1      -0.363   0.610   1.397  0.00  0.00    -0.080 A 
ATOM      5  C6  UNL d   1      -1.026   1.497   2.409  0.00  0.00     0.076 C 
ATOM      6  C7  UNL d   1       0.199   1.166   0.243  0.00  0.00     0.002 A 
ATOM      7  C8  UNL d   1       0.796   0.348  -0.719  0.00  0.00     0.006 A 
ENDROOT
BRANCH   1   8
ATOM      8  C1  UNL d   1       1.431  -1.925  -1.611  0.00  0.00     0.054 C 
ATOM      9  C   UNL d   1       1.333  -3.394  -1.227  0.00  0.00     0.018 C 
ENDBRANCH   1   8
TORSDOF 1
ENDMDL
