MODEL 1
REMARK minimizedAffinity -2.76904583
REMARK minimizedRMSD -1
REMARK  1 active torsions:
REMARK  status: ('A' for Active; 'I' for Inactive)
REMARK    1  A    between atoms: C1_2  and  C2_3 
ROOT
ATOM      1  C2  UNL d   1      -0.484   1.333   0.769  0.00  0.00    -0.081 A 
ATOM      2  C3  UNL d   1      -0.674   0.066   1.334  0.00  0.00     0.006 A 
ATOM      3  C4  UNL d   1      -0.286  -1.083   0.641  0.00  0.00     0.002 A 
ATOM      4  C5  UNL d   1       0.304  -0.985  -0.623  0.00  0.00    -0.080 A 
ATOM      5  C6  UNL d   1       0.752  -2.209  -1.365  0.00  0.00     0.076 C 
ATOM      6  C7  UNL d   1       0.478   0.280  -1.195  0.00  0.00     0.002 A 
ATOM      7  C8  UNL d   1       0.090   1.430  -0.503  0.00  0.00     0.006 A 
ENDROOT
BRANCH   1   8
ATOM      8  C1  UNL d   1      -0.842   2.578   1.541  0.00  0.00     0.054 C 
ATOM      9  C   UNL d   1      -0.298   3.826   0.861  0.00  0.00     0.018 C 
ENDBRANCH   1   8
TORSDOF 1
ENDMDL
