MODEL 1
REMARK minimizedAffinity -3.0209446
REMARK minimizedRMSD -1
REMARK  1 active torsions:
REMARK  status: ('A' for Active; 'I' for Inactive)
REMARK    1  A    between atoms: C1_2  and  C2_3 
ROOT
ATOM      1  C2  UNL d   1       0.131  -0.412  -0.551  0.00  0.00    -0.073 A 
ATOM      2  C3  UNL d   1       0.027   0.269  -1.769  0.00  0.00    -0.002 A 
ATOM      3  C4  UNL d   1      -0.405   1.596  -1.801  0.00  0.00     0.004 A 
ATOM      4  C5  UNL d   1      -0.729   2.257  -0.616  0.00  0.00    -0.004 A 
ATOM      5  C6  UNL d   1      -0.620   1.597   0.612  0.00  0.00    -0.075 A 
ATOM      6  C7  UNL d   1      -0.968   2.293   1.896  0.00  0.00     0.076 C 
ATOM      7  C8  UNL d   1      -0.189   0.264   0.636  0.00  0.00     0.001 A 
ENDROOT
BRANCH   1   8
ATOM      8  C1  UNL d   1       0.602  -1.843  -0.511  0.00  0.00     0.053 C 
ATOM      9  C   UNL d   1      -0.101  -2.703  -1.549  0.00  0.00     0.018 C 
ENDBRANCH   1   8
TORSDOF 1
ENDMDL
