MODEL 1
REMARK minimizedAffinity -4.39040709
REMARK minimizedRMSD -1
REMARK  1 active torsions:
REMARK  status: ('A' for Active; 'I' for Inactive)
REMARK    1  A    between atoms: C1_2  and  C2_3 
ROOT
ATOM      1  C2  UNL d   1      -0.171   2.085   1.350  0.00  0.00    -0.073 A 
ATOM      2  C3  UNL d   1      -1.281   1.856   0.529  0.00  0.00    -0.002 A 
ATOM      3  C4  UNL d   1      -1.333   0.726  -0.288  0.00  0.00     0.004 A 
ATOM      4  C5  UNL d   1      -0.280  -0.189  -0.289  0.00  0.00    -0.004 A 
ATOM      5  C6  UNL d   1       0.833   0.016   0.533  0.00  0.00    -0.075 A 
ATOM      6  C7  UNL d   1       1.974  -0.958   0.543  0.00  0.00     0.076 C 
ATOM      7  C8  UNL d   1       0.879   1.154   1.349  0.00  0.00     0.001 A 
ENDROOT
BRANCH   1   8
ATOM      8  C1  UNL d   1      -0.113   3.300   2.239  0.00  0.00     0.053 C 
ATOM      9  C   UNL d   1       1.299   3.850   2.361  0.00  0.00     0.018 C 
ENDBRANCH   1   8
TORSDOF 1
ENDMDL
