MODEL 1
REMARK minimizedAffinity -1.66818643
REMARK minimizedRMSD -1
REMARK  1 active torsions:
REMARK  status: ('A' for Active; 'I' for Inactive)
REMARK    1  A    between atoms: C1_2  and  C2_3 
ROOT
ATOM      1  C2  UNL d   1       0.720   0.035   0.073  0.00  0.00    -0.073 A 
ATOM      2  C3  UNL d   1       0.857   0.463  -1.253  0.00  0.00    -0.002 A 
ATOM      3  C4  UNL d   1      -0.053   1.368  -1.800  0.00  0.00     0.004 A 
ATOM      4  C5  UNL d   1      -1.105   1.859  -1.026  0.00  0.00    -0.004 A 
ATOM      5  C6  UNL d   1      -1.252   1.453   0.304  0.00  0.00    -0.075 A 
ATOM      6  C7  UNL d   1      -2.379   1.971   1.149  0.00  0.00     0.076 C 
ATOM      7  C8  UNL d   1      -0.335   0.542   0.845  0.00  0.00     0.001 A 
ENDROOT
BRANCH   1   8
ATOM      8  C1  UNL d   1       1.704  -0.937   0.669  0.00  0.00     0.053 C 
ATOM      9  C   UNL d   1       2.176  -0.498   2.046  0.00  0.00     0.018 C 
ENDBRANCH   1   8
TORSDOF 1
ENDMDL
