MODEL 1
REMARK minimizedAffinity -4.26634216
REMARK minimizedRMSD -1
REMARK  1 active torsions:
REMARK  status: ('A' for Active; 'I' for Inactive)
REMARK    1  A    between atoms: C1_2  and  C2_3 
ROOT
ATOM      1  C2  UNL d   1      -0.005  -0.960  -0.353  0.00  0.00    -0.073 A 
ATOM      2  C3  UNL d   1       0.083  -0.238  -1.548  0.00  0.00    -0.002 A 
ATOM      3  C4  UNL d   1       0.023   1.156  -1.536  0.00  0.00     0.004 A 
ATOM      4  C5  UNL d   1      -0.117   1.842  -0.330  0.00  0.00    -0.004 A 
ATOM      5  C6  UNL d   1      -0.194   1.139   0.877  0.00  0.00    -0.075 A 
ATOM      6  C7  UNL d   1      -0.348   1.862   2.183  0.00  0.00     0.076 C 
ATOM      7  C8  UNL d   1      -0.136  -0.261   0.856  0.00  0.00     0.001 A 
ENDROOT
BRANCH   1   8
ATOM      8  C1  UNL d   1       0.066  -2.465  -0.361  0.00  0.00     0.053 C 
ATOM      9  C   UNL d   1      -1.034  -3.083  -1.209  0.00  0.00     0.018 C 
ENDBRANCH   1   8
TORSDOF 1
ENDMDL
