MODEL 1
REMARK minimizedAffinity -1.71808946
REMARK minimizedRMSD -1
REMARK  1 active torsions:
REMARK  status: ('A' for Active; 'I' for Inactive)
REMARK    1  A    between atoms: C1_2  and  C2_3 
ROOT
ATOM      1  C2  UNL d   1       0.447  -1.173  -0.727  0.00  0.00    -0.073 A 
ATOM      2  C3  UNL d   1       0.701  -0.975   0.634  0.00  0.00    -0.002 A 
ATOM      3  C4  UNL d   1       0.541   0.289   1.205  0.00  0.00     0.004 A 
ATOM      4  C5  UNL d   1       0.119   1.363   0.423  0.00  0.00    -0.004 A 
ATOM      5  C6  UNL d   1      -0.152   1.183  -0.938  0.00  0.00    -0.075 A 
ATOM      6  C7  UNL d   1      -0.605   2.329  -1.793  0.00  0.00     0.076 C 
ATOM      7  C8  UNL d   1       0.014  -0.089  -1.504  0.00  0.00     0.001 A 
ENDROOT
BRANCH   1   8
ATOM      8  C1  UNL d   1       0.613  -2.537  -1.346  0.00  0.00     0.053 C 
ATOM      9  C   UNL d   1      -0.705  -3.092  -1.863  0.00  0.00     0.018 C 
ENDBRANCH   1   8
TORSDOF 1
ENDMDL
