MODEL 1
REMARK minimizedAffinity -1.09339917
REMARK minimizedRMSD -1
REMARK  1 active torsions:
REMARK  status: ('A' for Active; 'I' for Inactive)
REMARK    1  A    between atoms: C1_2  and  C2_3 
ROOT
ATOM      1  C2  UNL d   1       0.606   0.292   0.607  0.00  0.00    -0.073 A 
ATOM      2  C3  UNL d   1       0.659   1.010   1.807  0.00  0.00    -0.002 A 
ATOM      3  C4  UNL d   1      -0.015   2.225   1.932  0.00  0.00     0.004 A 
ATOM      4  C5  UNL d   1      -0.754   2.731   0.863  0.00  0.00    -0.004 A 
ATOM      5  C6  UNL d   1      -0.828   2.023  -0.341  0.00  0.00    -0.075 A 
ATOM      6  C7  UNL d   1      -1.617   2.555  -1.501  0.00  0.00     0.076 C 
ATOM      7  C8  UNL d   1      -0.146   0.804  -0.459  0.00  0.00     0.001 A 
ENDROOT
BRANCH   1   8
ATOM      8  C1  UNL d   1       1.327  -1.024   0.470  0.00  0.00     0.053 C 
ATOM      9  C   UNL d   1       0.764  -1.868  -0.663  0.00  0.00     0.018 C 
ENDBRANCH   1   8
TORSDOF 1
ENDMDL
