MODEL 1
REMARK minimizedAffinity -1.40457058
REMARK minimizedRMSD -1
REMARK  1 active torsions:
REMARK  status: ('A' for Active; 'I' for Inactive)
REMARK    1  A    between atoms: C1_2  and  C2_3 
ROOT
ATOM      1  C2  UNL d   1      -0.303  -0.208  -0.182  0.00  0.00    -0.073 A 
ATOM      2  C3  UNL d   1       0.362  -0.851   0.868  0.00  0.00    -0.002 A 
ATOM      3  C4  UNL d   1       0.585  -0.185   2.074  0.00  0.00     0.004 A 
ATOM      4  C5  UNL d   1       0.139   1.126   2.245  0.00  0.00    -0.004 A 
ATOM      5  C6  UNL d   1      -0.538   1.781   1.211  0.00  0.00    -0.075 A 
ATOM      6  C7  UNL d   1      -1.021   3.192   1.379  0.00  0.00     0.076 C 
ATOM      7  C8  UNL d   1      -0.755   1.107   0.002  0.00  0.00     0.001 A 
ENDROOT
BRANCH   1   8
ATOM      8  C1  UNL d   1      -0.552  -0.925  -1.484  0.00  0.00     0.053 C 
ATOM      9  C   UNL d   1       0.088  -2.304  -1.506  0.00  0.00     0.018 C 
ENDBRANCH   1   8
TORSDOF 1
ENDMDL
