MODEL 1
REMARK minimizedAffinity -4.54766989
REMARK minimizedRMSD -1
REMARK  1 active torsions:
REMARK  status: ('A' for Active; 'I' for Inactive)
REMARK    1  A    between atoms: C1_2  and  C2_3 
ROOT
ATOM      1  C2  UNL d   1      -0.845   1.497   0.654  0.00  0.00    -0.073 A 
ATOM      2  C3  UNL d   1      -0.055   1.540   1.809  0.00  0.00    -0.002 A 
ATOM      3  C4  UNL d   1       0.782   0.471   2.130  0.00  0.00     0.004 A 
ATOM      4  C5  UNL d   1       0.844  -0.647   1.299  0.00  0.00    -0.004 A 
ATOM      5  C6  UNL d   1       0.072  -0.704   0.134  0.00  0.00    -0.075 A 
ATOM      6  C7  UNL d   1       0.125  -1.901  -0.769  0.00  0.00     0.076 C 
ATOM      7  C8  UNL d   1      -0.769   0.372  -0.181  0.00  0.00     0.001 A 
ENDROOT
BRANCH   1   8
ATOM      8  C1  UNL d   1      -1.746   2.651   0.299  0.00  0.00     0.053 C 
ATOM      9  C   UNL d   1      -2.271   3.365   1.534  0.00  0.00     0.018 C 
ENDBRANCH   1   8
TORSDOF 1
ENDMDL
