MODEL 1
REMARK minimizedAffinity -4.09365225
REMARK minimizedRMSD -1
REMARK  1 active torsions:
REMARK  status: ('A' for Active; 'I' for Inactive)
REMARK    1  A    between atoms: C1_2  and  C2_3 
ROOT
ATOM      1  C2  UNL d   1      -0.725   1.156  -1.915  0.00  0.00    -0.081 A 
ATOM      2  C3  UNL d   1      -0.301  -0.178  -1.954  0.00  0.00     0.006 A 
ATOM      3  C4  UNL d   1       0.026  -0.851  -0.775  0.00  0.00     0.002 A 
ATOM      4  C5  UNL d   1      -0.073  -0.206   0.462  0.00  0.00    -0.080 A 
ATOM      5  C6  UNL d   1       0.246  -0.927   1.738  0.00  0.00     0.076 C 
ATOM      6  C7  UNL d   1      -0.479   1.133   0.500  0.00  0.00     0.002 A 
ATOM      7  C8  UNL d   1      -0.805   1.807  -0.679  0.00  0.00     0.006 A 
ENDROOT
BRANCH   1   8
ATOM      8  C1  UNL d   1      -1.140   1.866  -3.179  0.00  0.00     0.054 C 
ATOM      9  C   UNL d   1      -1.764   3.220  -2.873  0.00  0.00     0.018 C 
ENDBRANCH   1   8
TORSDOF 1
ENDMDL
