MODEL 1
REMARK minimizedAffinity -3.91143394
REMARK minimizedRMSD -1
REMARK  1 active torsions:
REMARK  status: ('A' for Active; 'I' for Inactive)
REMARK    1  A    between atoms: C1_2  and  C2_3 
ROOT
ATOM      1  C2  UNL d   1      -0.770   0.481  -1.088  0.00  0.00    -0.081 A 
ATOM      2  C3  UNL d   1      -1.562   0.579   0.062  0.00  0.00     0.006 A 
ATOM      3  C4  UNL d   1      -1.102   0.081   1.283  0.00  0.00     0.002 A 
ATOM      4  C5  UNL d   1       0.160  -0.516   1.376  0.00  0.00    -0.080 A 
ATOM      5  C6  UNL d   1       0.678  -1.027   2.688  0.00  0.00     0.076 C 
ATOM      6  C7  UNL d   1       0.944  -0.630   0.224  0.00  0.00     0.002 A 
ATOM      7  C8  UNL d   1       0.485  -0.133  -0.998  0.00  0.00     0.006 A 
ENDROOT
BRANCH   1   8
ATOM      8  C1  UNL d   1      -1.236   1.075  -2.393  0.00  0.00     0.054 C 
ATOM      9  C   UNL d   1      -0.862   2.547  -2.496  0.00  0.00     0.018 C 
ENDBRANCH   1   8
TORSDOF 1
ENDMDL
