MODEL 1
REMARK minimizedAffinity -4.00874043
REMARK minimizedRMSD -1
REMARK  1 active torsions:
REMARK  status: ('A' for Active; 'I' for Inactive)
REMARK    1  A    between atoms: C1_2  and  C2_3 
ROOT
ATOM      1  C2  UNL d   1      -0.500   0.640  -1.379  0.00  0.00    -0.081 A 
ATOM      2  C3  UNL d   1       0.283  -0.519  -1.308  0.00  0.00     0.006 A 
ATOM      3  C4  UNL d   1       0.784  -0.962  -0.081  0.00  0.00     0.002 A 
ATOM      4  C5  UNL d   1       0.504  -0.258   1.095  0.00  0.00    -0.080 A 
ATOM      5  C6  UNL d   1       1.010  -0.738   2.422  0.00  0.00     0.076 C 
ATOM      6  C7  UNL d   1      -0.263   0.910   1.022  0.00  0.00     0.002 A 
ATOM      7  C8  UNL d   1      -0.763   1.353  -0.204  0.00  0.00     0.006 A 
ENDROOT
BRANCH   1   8
ATOM      8  C1  UNL d   1      -1.095   1.083  -2.691  0.00  0.00     0.054 C 
ATOM      9  C   UNL d   1      -1.044   2.597  -2.838  0.00  0.00     0.018 C 
ENDBRANCH   1   8
TORSDOF 1
ENDMDL
