MODEL 1
REMARK minimizedAffinity -4.60605669
REMARK minimizedRMSD -1
REMARK  1 active torsions:
REMARK  status: ('A' for Active; 'I' for Inactive)
REMARK    1  A    between atoms: C1_2  and  C2_3 
ROOT
ATOM      1  C2  UNL d   1       0.130  -0.782   0.275  0.00  0.00    -0.081 A 
ATOM      2  C3  UNL d   1       1.383  -1.288  -0.091  0.00  0.00     0.006 A 
ATOM      3  C4  UNL d   1       2.288  -1.714   0.885  0.00  0.00     0.002 A 
ATOM      4  C5  UNL d   1       1.951  -1.647   2.242  0.00  0.00    -0.080 A 
ATOM      5  C6  UNL d   1       2.901  -2.128   3.298  0.00  0.00     0.076 C 
ATOM      6  C7  UNL d   1       0.707  -1.124   2.608  0.00  0.00     0.002 A 
ATOM      7  C8  UNL d   1      -0.198  -0.698   1.632  0.00  0.00     0.006 A 
ENDROOT
BRANCH   1   8
ATOM      8  C1  UNL d   1      -0.872  -0.383  -0.778  0.00  0.00     0.054 C 
ATOM      9  C   UNL d   1      -0.417   0.858  -1.533  0.00  0.00     0.018 C 
ENDBRANCH   1   8
TORSDOF 1
ENDMDL
