MODEL 1
REMARK minimizedAffinity -3.0269928
REMARK minimizedRMSD -1
REMARK  1 active torsions:
REMARK  status: ('A' for Active; 'I' for Inactive)
REMARK    1  A    between atoms: C1_2  and  C2_3 
ROOT
ATOM      1  C2  UNL d   1      -0.388   0.145  -0.357  0.00  0.00    -0.081 A 
ATOM      2  C3  UNL d   1      -1.160  -0.092   0.787  0.00  0.00     0.006 A 
ATOM      3  C4  UNL d   1      -0.546  -0.383   2.008  0.00  0.00     0.002 A 
ATOM      4  C5  UNL d   1       0.849  -0.433   2.107  0.00  0.00    -0.080 A 
ATOM      5  C6  UNL d   1       1.521  -0.714   3.418  0.00  0.00     0.076 C 
ATOM      6  C7  UNL d   1       1.619  -0.213   0.960  0.00  0.00     0.002 A 
ATOM      7  C8  UNL d   1       1.006   0.077  -0.260  0.00  0.00     0.006 A 
ENDROOT
BRANCH   1   8
ATOM      8  C1  UNL d   1      -1.045   0.523  -1.660  0.00  0.00     0.054 C 
ATOM      9  C   UNL d   1      -0.592   1.897  -2.130  0.00  0.00     0.018 C 
ENDBRANCH   1   8
TORSDOF 1
ENDMDL
