MODEL 1
REMARK minimizedAffinity -4.24562979
REMARK minimizedRMSD -1
REMARK  1 active torsions:
REMARK  status: ('A' for Active; 'I' for Inactive)
REMARK    1  A    between atoms: C3_4  and  O_7 
ROOT
ATOM      1  C   UNL d   1      -0.761   0.445   1.706  0.00  0.00    -0.033 A 
ATOM      2  C1  UNL d   1      -1.031   1.778   2.019  0.00  0.00     0.039 A 
ATOM      3  C2  UNL d   1      -0.582   2.799   1.179  0.00  0.00    -0.080 A 
ATOM      4  C3  UNL d   1       0.135   2.473   0.030  0.00  0.00     0.150 A 
ATOM      5  C4  UNL d   1       0.404   1.146  -0.289  0.00  0.00    -0.007 A 
ATOM      6  C5  UNL d   1      -0.045   0.129   0.551  0.00  0.00     0.039 A 
ENDROOT
BRANCH   4   7
ATOM      7  O   UNL d   1       0.598   3.435  -0.817  0.00  0.00    -0.526 OA
ATOM      8  H5  UNL d   1       0.362   4.305  -0.454  0.00  0.00     0.418 HD
ENDBRANCH   4   7
TORSDOF 1
ENDMDL
