MODEL 1
REMARK minimizedAffinity -2.52677202
REMARK minimizedRMSD -1
REMARK  1 active torsions:
REMARK  status: ('A' for Active; 'I' for Inactive)
REMARK    1  A    between atoms: C3_4  and  O_7 
ROOT
ATOM      1  C   UNL d   1      -0.361  -0.045   1.379  0.00  0.00    -0.033 A 
ATOM      2  C1  UNL d   1      -0.800   1.258   1.624  0.00  0.00     0.039 A 
ATOM      3  C2  UNL d   1      -0.493   2.280   0.725  0.00  0.00    -0.080 A 
ATOM      4  C3  UNL d   1       0.250   1.988  -0.415  0.00  0.00     0.150 A 
ATOM      5  C4  UNL d   1       0.687   0.692  -0.668  0.00  0.00    -0.007 A 
ATOM      6  C5  UNL d   1       0.381  -0.328   0.232  0.00  0.00     0.039 A 
ENDROOT
BRANCH   4   7
ATOM      7  O   UNL d   1       0.578   2.954  -1.320  0.00  0.00    -0.526 OA
ATOM      8  H5  UNL d   1       0.233   3.804  -1.000  0.00  0.00     0.418 HD
ENDBRANCH   4   7
TORSDOF 1
ENDMDL
