MODEL 1
REMARK minimizedAffinity -3.07355404
REMARK minimizedRMSD -1
REMARK  1 active torsions:
REMARK  status: ('A' for Active; 'I' for Inactive)
REMARK    1  A    between atoms: C3_4  and  O_7 
ROOT
ATOM      1  C   UNL d   1      -0.838   1.896   1.603  0.00  0.00    -0.033 A 
ATOM      2  C1  UNL d   1      -0.627   0.718   2.321  0.00  0.00     0.039 A 
ATOM      3  C2  UNL d   1      -0.136  -0.418   1.674  0.00  0.00    -0.080 A 
ATOM      4  C3  UNL d   1       0.141  -0.362   0.311  0.00  0.00     0.150 A 
ATOM      5  C4  UNL d   1      -0.062   0.810  -0.410  0.00  0.00    -0.007 A 
ATOM      6  C5  UNL d   1      -0.554   1.943   0.238  0.00  0.00     0.039 A 
ENDROOT
BRANCH   4   7
ATOM      7  O   UNL d   1       0.618  -1.445  -0.365  0.00  0.00    -0.526 OA
ATOM      8  H5  UNL d   1       0.681  -2.191   0.256  0.00  0.00     0.418 HD
ENDBRANCH   4   7
TORSDOF 1
ENDMDL
