MODEL 1
REMARK minimizedAffinity -3.96204329
REMARK minimizedRMSD -1
REMARK  1 active torsions:
REMARK  status: ('A' for Active; 'I' for Inactive)
REMARK    1  A    between atoms: C3_4  and  O_7 
ROOT
ATOM      1  C   UNL d   1       0.459   0.621  -0.117  0.00  0.00    -0.033 A 
ATOM      2  C1  UNL d   1      -0.314   0.590  -1.279  0.00  0.00     0.039 A 
ATOM      3  C2  UNL d   1      -0.298  -0.539  -2.100  0.00  0.00    -0.080 A 
ATOM      4  C3  UNL d   1       0.493  -1.629  -1.748  0.00  0.00     0.150 A 
ATOM      5  C4  UNL d   1       1.262  -1.606  -0.589  0.00  0.00    -0.007 A 
ATOM      6  C5  UNL d   1       1.246  -0.478   0.229  0.00  0.00     0.039 A 
ENDROOT
BRANCH   4   7
ATOM      7  O   UNL d   1       0.544  -2.751  -2.520  0.00  0.00    -0.526 OA
ATOM      8  H5  UNL d   1      -0.015  -2.612  -3.303  0.00  0.00     0.418 HD
ENDBRANCH   4   7
TORSDOF 1
ENDMDL
