MODEL 1
REMARK minimizedAffinity -3.84737062
REMARK minimizedRMSD -1
REMARK  1 active torsions:
REMARK  status: ('A' for Active; 'I' for Inactive)
REMARK    1  A    between atoms: C3_4  and  O_7 
ROOT
ATOM      1  C   UNL d   1       0.194  -3.573  -2.913  0.00  0.00    -0.033 A 
ATOM      2  C1  UNL d   1       0.169  -2.262  -3.394  0.00  0.00     0.039 A 
ATOM      3  C2  UNL d   1       0.627  -1.214  -2.594  0.00  0.00    -0.080 A 
ATOM      4  C3  UNL d   1       1.108  -1.489  -1.317  0.00  0.00     0.150 A 
ATOM      5  C4  UNL d   1       1.139  -2.792  -0.833  0.00  0.00    -0.007 A 
ATOM      6  C5  UNL d   1       0.680  -3.838  -1.633  0.00  0.00     0.039 A 
ENDROOT
BRANCH   4   7
ATOM      7  O   UNL d   1       1.561  -0.498  -0.497  0.00  0.00    -0.526 OA
ATOM      8  H5  UNL d   1       1.452   0.353  -0.954  0.00  0.00     0.418 HD
ENDBRANCH   4   7
TORSDOF 1
ENDMDL
