MODEL 1
REMARK minimizedAffinity -2.68554616
REMARK minimizedRMSD -1
REMARK  1 active torsions:
REMARK  status: ('A' for Active; 'I' for Inactive)
REMARK    1  A    between atoms: C3_4  and  O_7 
ROOT
ATOM      1  C   UNL d   1       0.663  -0.897   1.934  0.00  0.00    -0.033 A 
ATOM      2  C1  UNL d   1       0.253  -0.330   3.142  0.00  0.00     0.039 A 
ATOM      3  C2  UNL d   1      -0.868   0.502   3.180  0.00  0.00    -0.080 A 
ATOM      4  C3  UNL d   1      -1.569   0.757   2.005  0.00  0.00     0.150 A 
ATOM      5  C4  UNL d   1      -1.168   0.192   0.798  0.00  0.00    -0.007 A 
ATOM      6  C5  UNL d   1      -0.048  -0.637   0.763  0.00  0.00     0.039 A 
ENDROOT
BRANCH   4   7
ATOM      7  O   UNL d   1      -2.666   1.566   1.991  0.00  0.00    -0.526 OA
ATOM      8  H5  UNL d   1      -2.807   1.908   2.890  0.00  0.00     0.418 HD
ENDBRANCH   4   7
TORSDOF 1
ENDMDL
