MODEL 1
REMARK minimizedAffinity 0.391979873
REMARK minimizedRMSD -1
REMARK  1 active torsions:
REMARK  status: ('A' for Active; 'I' for Inactive)
REMARK    1  A    between atoms: C3_4  and  O_7 
ROOT
ATOM      1  C   UNL d   1       1.012   5.690   1.892  0.00  0.00    -0.033 A 
ATOM      2  C1  UNL d   1       1.008   4.858   3.013  0.00  0.00     0.039 A 
ATOM      3  C2  UNL d   1       0.277   3.669   3.000  0.00  0.00    -0.080 A 
ATOM      4  C3  UNL d   1      -0.444   3.322   1.861  0.00  0.00     0.150 A 
ATOM      5  C4  UNL d   1      -0.441   4.144   0.738  0.00  0.00    -0.007 A 
ATOM      6  C5  UNL d   1       0.289   5.331   0.753  0.00  0.00     0.039 A 
ENDROOT
BRANCH   4   7
ATOM      7  O   UNL d   1      -1.176   2.174   1.802  0.00  0.00    -0.526 OA
ATOM      8  H5  UNL d   1      -1.107   1.721   2.660  0.00  0.00     0.418 HD
ENDBRANCH   4   7
TORSDOF 1
ENDMDL
