MODEL 1
REMARK minimizedAffinity -3.18576384
REMARK minimizedRMSD -1
REMARK  1 active torsions:
REMARK  status: ('A' for Active; 'I' for Inactive)
REMARK    1  A    between atoms: C3_4  and  O_7 
ROOT
ATOM      1  C   UNL d   1       0.474  -0.598   0.686  0.00  0.00    -0.033 A 
ATOM      2  C1  UNL d   1       0.022  -0.395   1.991  0.00  0.00     0.039 A 
ATOM      3  C2  UNL d   1      -0.785   0.706   2.289  0.00  0.00    -0.080 A 
ATOM      4  C3  UNL d   1      -1.132   1.593   1.274  0.00  0.00     0.150 A 
ATOM      5  C4  UNL d   1      -0.688   1.394  -0.030  0.00  0.00    -0.007 A 
ATOM      6  C5  UNL d   1       0.118   0.295  -0.325  0.00  0.00     0.039 A 
ENDROOT
BRANCH   4   7
ATOM      7  O   UNL d   1      -1.913   2.683   1.517  0.00  0.00    -0.526 OA
ATOM      8  H5  UNL d   1      -2.120   2.708   2.466  0.00  0.00     0.418 HD
ENDBRANCH   4   7
TORSDOF 1
ENDMDL
