MODEL 1
REMARK minimizedAffinity -2.714993
REMARK minimizedRMSD -1
REMARK  1 active torsions:
REMARK  status: ('A' for Active; 'I' for Inactive)
REMARK    1  A    between atoms: C3_4  and  O_7 
ROOT
ATOM      1  C   UNL d   1      -0.554  -0.478   1.269  0.00  0.00    -0.033 A 
ATOM      2  C1  UNL d   1       0.112  -0.411   0.044  0.00  0.00     0.039 A 
ATOM      3  C2  UNL d   1       0.420   0.830  -0.518  0.00  0.00    -0.080 A 
ATOM      4  C3  UNL d   1       0.058   1.993   0.155  0.00  0.00     0.150 A 
ATOM      5  C4  UNL d   1      -0.602   1.934   1.378  0.00  0.00    -0.007 A 
ATOM      6  C5  UNL d   1      -0.910   0.694   1.937  0.00  0.00     0.039 A 
ENDROOT
BRANCH   4   7
ATOM      7  O   UNL d   1       0.332   3.227  -0.356  0.00  0.00    -0.526 OA
ATOM      8  H5  UNL d   1       0.765   3.113  -1.219  0.00  0.00     0.418 HD
ENDBRANCH   4   7
TORSDOF 1
ENDMDL
