MODEL 1
REMARK minimizedAffinity -3.89483595
REMARK minimizedRMSD -1
REMARK  1 active torsions:
REMARK  status: ('A' for Active; 'I' for Inactive)
REMARK    1  A    between atoms: C3_4  and  O_7 
ROOT
ATOM      1  C   UNL d   1       0.836  -0.935   0.547  0.00  0.00    -0.033 A 
ATOM      2  C1  UNL d   1       0.087  -0.256  -0.417  0.00  0.00     0.039 A 
ATOM      3  C2  UNL d   1      -1.039   0.477  -0.039  0.00  0.00    -0.080 A 
ATOM      4  C3  UNL d   1      -1.405   0.525   1.304  0.00  0.00     0.150 A 
ATOM      5  C4  UNL d   1      -0.661  -0.146   2.269  0.00  0.00    -0.007 A 
ATOM      6  C5  UNL d   1       0.463  -0.878   1.890  0.00  0.00     0.039 A 
ENDROOT
BRANCH   4   7
ATOM      7  O   UNL d   1      -2.499   1.224   1.720  0.00  0.00    -0.526 OA
ATOM      8  H5  UNL d   1      -2.931   1.611   0.941  0.00  0.00     0.418 HD
ENDBRANCH   4   7
TORSDOF 1
ENDMDL
