MODEL 1
REMARK minimizedAffinity -2.7087636
REMARK minimizedRMSD -1
REMARK  1 active torsions:
REMARK  status: ('A' for Active; 'I' for Inactive)
REMARK    1  A    between atoms: C3_4  and  O_7 
ROOT
ATOM      1  C   UNL d   1      -0.028  -0.072  -2.538  0.00  0.00    -0.033 A 
ATOM      2  C1  UNL d   1       0.602  -0.235  -1.302  0.00  0.00     0.039 A 
ATOM      3  C2  UNL d   1       0.952  -1.512  -0.859  0.00  0.00    -0.080 A 
ATOM      4  C3  UNL d   1       0.668  -2.615  -1.659  0.00  0.00     0.150 A 
ATOM      5  C4  UNL d   1       0.045  -2.459  -2.893  0.00  0.00    -0.007 A 
ATOM      6  C5  UNL d   1      -0.305  -1.184  -3.334  0.00  0.00     0.039 A 
ENDROOT
BRANCH   4   7
ATOM      7  O   UNL d   1       0.987  -3.881  -1.266  0.00  0.00    -0.526 OA
ATOM      8  H5  UNL d   1       1.386  -3.837  -0.381  0.00  0.00     0.418 HD
ENDBRANCH   4   7
TORSDOF 1
ENDMDL
