MODEL 1
REMARK minimizedAffinity -4.35309172
REMARK minimizedRMSD -1
REMARK  1 active torsions:
REMARK  status: ('A' for Active; 'I' for Inactive)
REMARK    1  A    between atoms: C3_4  and  O_7 
ROOT
ATOM      1  C   UNL d   1      -0.259   1.482   0.383  0.00  0.00    -0.033 A 
ATOM      2  C1  UNL d   1       0.243   0.231   0.019  0.00  0.00     0.039 A 
ATOM      3  C2  UNL d   1       0.260  -0.813   0.946  0.00  0.00    -0.080 A 
ATOM      4  C3  UNL d   1      -0.228  -0.594   2.231  0.00  0.00     0.150 A 
ATOM      5  C4  UNL d   1      -0.733   0.649   2.599  0.00  0.00    -0.007 A 
ATOM      6  C5  UNL d   1      -0.748   1.690   1.672  0.00  0.00     0.039 A 
ENDROOT
BRANCH   4   7
ATOM      7  O   UNL d   1      -0.228  -1.581   3.172  0.00  0.00    -0.526 OA
ATOM      8  H5  UNL d   1       0.177  -2.375   2.784  0.00  0.00     0.418 HD
ENDBRANCH   4   7
TORSDOF 1
ENDMDL
