MODEL 1
REMARK minimizedAffinity -3.58930087
REMARK minimizedRMSD -1
REMARK  1 active torsions:
REMARK  status: ('A' for Active; 'I' for Inactive)
REMARK    1  A    between atoms: C3_4  and  O_7 
ROOT
ATOM      1  C   UNL d   1       0.504  -3.130  -2.391  0.00  0.00    -0.033 A 
ATOM      2  C1  UNL d   1       0.016  -2.203  -3.314  0.00  0.00     0.039 A 
ATOM      3  C2  UNL d   1       0.089  -0.836  -3.038  0.00  0.00    -0.080 A 
ATOM      4  C3  UNL d   1       0.652  -0.410  -1.838  0.00  0.00     0.150 A 
ATOM      5  C4  UNL d   1       1.145  -1.328  -0.917  0.00  0.00    -0.007 A 
ATOM      6  C5  UNL d   1       1.070  -2.692  -1.193  0.00  0.00     0.039 A 
ENDROOT
BRANCH   4   7
ATOM      7  O   UNL d   1       0.741   0.913  -1.523  0.00  0.00    -0.526 OA
ATOM      8  H5  UNL d   1       0.336   1.429  -2.240  0.00  0.00     0.418 HD
ENDBRANCH   4   7
TORSDOF 1
ENDMDL
