MODEL 1
REMARK minimizedAffinity -3.63276172
REMARK minimizedRMSD -1
REMARK  1 active torsions:
REMARK  status: ('A' for Active; 'I' for Inactive)
REMARK    1  A    between atoms: N_2  and  C1_3 
ROOT
ATOM      1  C1  UNL d   1      -0.098   0.776   0.800  0.00  0.00     0.143 A 
ATOM      2  C2  UNL d   1      -0.152   1.826   1.723  0.00  0.00    -0.057 A 
ATOM      3  C3  UNL d   1      -0.296   3.154   1.304  0.00  0.00     0.033 A 
ATOM      4  C4  UNL d   1      -0.361   3.459  -0.052  0.00  0.00    -0.042 A 
ATOM      5  C5  UNL d   1      -0.285   2.433  -0.988  0.00  0.00     0.033 A 
ATOM      6  C6  UNL d   1      -0.147   1.108  -0.562  0.00  0.00    -0.057 A 
ENDROOT
BRANCH   1   7
ATOM      7  N   UNL d   1       0.143  -0.555   1.150  0.00  0.00    -0.732 N 
ATOM      8  C   UNL d   1       0.105  -1.599   0.149  0.00  0.00     0.284 C 
ATOM      9  H3  UNL d   1       0.904  -0.649   1.819  0.00  0.00     0.395 HD
ENDBRANCH   1   7
TORSDOF 1
ENDMDL
