MODEL 1
REMARK minimizedAffinity 1.15274882
REMARK minimizedRMSD -1
REMARK  1 active torsions:
REMARK  status: ('A' for Active; 'I' for Inactive)
REMARK    1  A    between atoms: N_2  and  C1_3 
ROOT
ATOM      1  C1  UNL d   1       1.177  -0.319   0.729  0.00  0.00     0.143 A 
ATOM      2  C2  UNL d   1       1.042   1.061   0.543  0.00  0.00    -0.057 A 
ATOM      3  C3  UNL d   1       0.332   1.851   1.456  0.00  0.00     0.033 A 
ATOM      4  C4  UNL d   1      -0.283   1.267   2.559  0.00  0.00    -0.042 A 
ATOM      5  C5  UNL d   1      -0.182  -0.106   2.751  0.00  0.00     0.033 A 
ATOM      6  C6  UNL d   1       0.534  -0.888   1.839  0.00  0.00    -0.057 A 
ENDROOT
BRANCH   1   7
ATOM      7  N   UNL d   1       1.787  -1.172  -0.194  0.00  0.00    -0.732 N 
ATOM      8  C   UNL d   1       1.201  -2.457  -0.508  0.00  0.00     0.284 C 
ATOM      9  H3  UNL d   1       2.153  -0.673  -1.001  0.00  0.00     0.395 HD
ENDBRANCH   1   7
TORSDOF 1
ENDMDL
