MODEL 1
REMARK minimizedAffinity -3.41550517
REMARK minimizedRMSD -1
REMARK  1 active torsions:
REMARK  status: ('A' for Active; 'I' for Inactive)
REMARK    1  A    between atoms: N_2  and  C1_3 
ROOT
ATOM      1  C1  UNL d   1      -0.256   0.255   0.228  0.00  0.00     0.143 A 
ATOM      2  C2  UNL d   1       0.351   0.779   1.374  0.00  0.00    -0.057 A 
ATOM      3  C3  UNL d   1       0.002   2.042   1.867  0.00  0.00     0.033 A 
ATOM      4  C4  UNL d   1      -0.944   2.817   1.204  0.00  0.00    -0.042 A 
ATOM      5  C5  UNL d   1      -1.543   2.326   0.049  0.00  0.00     0.033 A 
ATOM      6  C6  UNL d   1      -1.194   1.062  -0.435  0.00  0.00    -0.057 A 
ENDROOT
BRANCH   1   7
ATOM      7  N   UNL d   1       0.119  -0.952  -0.369  0.00  0.00    -0.732 N 
ATOM      8  C   UNL d   1      -0.868  -1.799  -1.002  0.00  0.00     0.284 C 
ATOM      9  H3  UNL d   1       0.993  -0.875  -0.884  0.00  0.00     0.395 HD
ENDBRANCH   1   7
TORSDOF 1
ENDMDL
