MODEL 1
REMARK minimizedAffinity -3.73745441
REMARK minimizedRMSD -1
REMARK  1 active torsions:
REMARK  status: ('A' for Active; 'I' for Inactive)
REMARK    1  A    between atoms: N_2  and  C1_3 
ROOT
ATOM      1  C1  UNL d   1       0.310  -0.976  -0.511  0.00  0.00     0.143 A 
ATOM      2  C2  UNL d   1      -0.506  -0.052  -1.173  0.00  0.00    -0.057 A 
ATOM      3  C3  UNL d   1      -1.006   1.077  -0.515  0.00  0.00     0.033 A 
ATOM      4  C4  UNL d   1      -0.722   1.288   0.830  0.00  0.00    -0.042 A 
ATOM      5  C5  UNL d   1       0.066   0.370   1.515  0.00  0.00     0.033 A 
ATOM      6  C6  UNL d   1       0.568  -0.753   0.850  0.00  0.00    -0.057 A 
ENDROOT
BRANCH   1   7
ATOM      7  N   UNL d   1       0.757  -2.170  -1.084  0.00  0.00    -0.732 N 
ATOM      8  C   UNL d   1      -0.173  -3.236  -1.386  0.00  0.00     0.284 C 
ATOM      9  H3  UNL d   1       1.461  -2.016  -1.802  0.00  0.00     0.395 HD
ENDBRANCH   1   7
TORSDOF 1
ENDMDL
