MODEL 1
REMARK minimizedAffinity 18.8392639
REMARK minimizedRMSD -1
REMARK  3 active torsions:
REMARK  status: ('A' for Active; 'I' for Inactive)
REMARK    1  A    between atoms: C3'_2  and  C2'_3 
REMARK    2  A    between atoms: C2'_3  and  C1'_4 
REMARK    3  A    between atoms: C1'_4  and  C1_5 
ROOT
ATOM      1  C1  N4B d   1       1.482  -3.343  -3.927  0.00  0.00    -0.075 A 
ATOM      2  C2  N4B d   1       0.533  -3.094  -4.942  0.00  0.00     0.002 A 
ATOM      3  C3  N4B d   1       0.839  -2.240  -5.974  0.00  0.00     0.002 A 
ATOM      4  C4  N4B d   1       2.075  -1.612  -6.000  0.00  0.00    -0.004 A 
ATOM      5  C5  N4B d   1       2.996  -1.877  -5.029  0.00  0.00     0.002 A 
ATOM      6  C6  N4B d   1       2.703  -2.736  -3.988  0.00  0.00     0.002 A 
ENDROOT
BRANCH   1   7
ATOM      7  C1' N4B d   1       1.161  -4.201  -2.734  0.00  0.00     0.057 C 
BRANCH   7   8
ATOM      8  C2' N4B d   1       1.990  -3.732  -1.542  0.00  0.00     0.009 C 
BRANCH   8   9
ATOM      9  C3' N4B d   1       1.146  -2.992  -0.519  0.00  0.00     0.004 C 
ATOM     10  C4' N4B d   1       1.971  -2.331   0.545  0.00  0.00     0.003 C 
ENDBRANCH   8   9
ENDBRANCH   7   8
ENDBRANCH   1   7
TORSDOF 3
ENDMDL
