MODEL 1
REMARK minimizedAffinity 16.4916573
REMARK minimizedRMSD -1
REMARK  3 active torsions:
REMARK  status: ('A' for Active; 'I' for Inactive)
REMARK    1  A    between atoms: C3'_2  and  C2'_3 
REMARK    2  A    between atoms: C2'_3  and  C1'_4 
REMARK    3  A    between atoms: C1'_4  and  C1_5 
ROOT
ATOM      1  C1  N4B d   1       0.454   4.592  -3.556  0.00  0.00    -0.075 A 
ATOM      2  C2  N4B d   1       1.683   5.271  -3.408  0.00  0.00     0.002 A 
ATOM      3  C3  N4B d   1       2.210   5.975  -4.462  0.00  0.00     0.002 A 
ATOM      4  C4  N4B d   1       1.538   5.999  -5.675  0.00  0.00    -0.004 A 
ATOM      5  C5  N4B d   1       0.339   5.363  -5.802  0.00  0.00     0.002 A 
ATOM      6  C6  N4B d   1      -0.205   4.654  -4.750  0.00  0.00     0.002 A 
ENDROOT
BRANCH   1   7
ATOM      7  C1' N4B d   1      -0.120   3.738  -2.458  0.00  0.00     0.057 C 
BRANCH   7   8
ATOM      8  C2' N4B d   1       0.915   3.589  -1.347  0.00  0.00     0.009 C 
BRANCH   8   9
ATOM      9  C3' N4B d   1       0.332   2.923  -0.113  0.00  0.00     0.004 C 
ATOM     10  C4' N4B d   1      -1.139   2.661  -0.235  0.00  0.00     0.003 C 
ENDBRANCH   8   9
ENDBRANCH   7   8
ENDBRANCH   1   7
TORSDOF 3
ENDMDL
