MODEL 1
REMARK minimizedAffinity 15.9641294
REMARK minimizedRMSD -1
REMARK  3 active torsions:
REMARK  status: ('A' for Active; 'I' for Inactive)
REMARK    1  A    between atoms: C3'_2  and  C2'_3 
REMARK    2  A    between atoms: C2'_3  and  C1'_4 
REMARK    3  A    between atoms: C1'_4  and  C1_5 
ROOT
ATOM      1  C1  N4B d   1      -0.567   2.947  -1.865  0.00  0.00    -0.075 A 
ATOM      2  C2  N4B d   1      -1.413   2.195  -1.021  0.00  0.00     0.002 A 
ATOM      3  C3  N4B d   1      -1.011   1.888   0.256  0.00  0.00     0.002 A 
ATOM      4  C4  N4B d   1       0.234   2.305   0.702  0.00  0.00    -0.004 A 
ATOM      5  C5  N4B d   1       1.035   3.052  -0.112  0.00  0.00     0.002 A 
ATOM      6  C6  N4B d   1       0.642   3.372  -1.396  0.00  0.00     0.002 A 
ENDROOT
BRANCH   1   7
ATOM      7  C1' N4B d   1      -0.927   3.234  -3.298  0.00  0.00     0.057 C 
BRANCH   7   8
ATOM      8  C2' N4B d   1      -2.444   3.343  -3.421  0.00  0.00     0.009 C 
BRANCH   8   9
ATOM      9  C3' N4B d   1      -3.067   2.052  -3.922  0.00  0.00     0.004 C 
ATOM     10  C4' N4B d   1      -4.559   2.138  -4.048  0.00  0.00     0.003 C 
ENDBRANCH   8   9
ENDBRANCH   7   8
ENDBRANCH   1   7
TORSDOF 3
ENDMDL
