MODEL 1
REMARK minimizedAffinity 11.0623608
REMARK minimizedRMSD -1
REMARK  3 active torsions:
REMARK  status: ('A' for Active; 'I' for Inactive)
REMARK    1  A    between atoms: C3'_2  and  C2'_3 
REMARK    2  A    between atoms: C2'_3  and  C1'_4 
REMARK    3  A    between atoms: C1'_4  and  C1_5 
ROOT
ATOM      1  C1  N4B d   1      -0.537   3.261  -3.085  0.00  0.00    -0.075 A 
ATOM      2  C2  N4B d   1       0.375   3.406  -2.017  0.00  0.00     0.002 A 
ATOM      3  C3  N4B d   1       0.046   2.944  -0.766  0.00  0.00     0.002 A 
ATOM      4  C4  N4B d   1      -1.191   2.354  -0.556  0.00  0.00    -0.004 A 
ATOM      5  C5  N4B d   1      -2.056   2.195  -1.599  0.00  0.00     0.002 A 
ATOM      6  C6  N4B d   1      -1.737   2.650  -2.862  0.00  0.00     0.002 A 
ENDROOT
BRANCH   1   7
ATOM      7  C1' N4B d   1      -0.257   3.826  -4.451  0.00  0.00     0.057 C 
BRANCH   7   8
ATOM      8  C2' N4B d   1      -0.299   5.350  -4.380  0.00  0.00     0.009 C 
BRANCH   8   9
ATOM      9  C3' N4B d   1       0.839   5.986  -5.158  0.00  0.00     0.004 C 
ATOM     10  C4' N4B d   1       2.131   5.994  -4.396  0.00  0.00     0.003 C 
ENDBRANCH   8   9
ENDBRANCH   7   8
ENDBRANCH   1   7
TORSDOF 3
ENDMDL
