MODEL 1
REMARK minimizedAffinity 20.3497295
REMARK minimizedRMSD -1
REMARK  3 active torsions:
REMARK  status: ('A' for Active; 'I' for Inactive)
REMARK    1  A    between atoms: C3'_2  and  C2'_3 
REMARK    2  A    between atoms: C2'_3  and  C1'_4 
REMARK    3  A    between atoms: C1'_4  and  C1_5 
ROOT
ATOM      1  C1  N4B d   1       1.782  -4.576  -3.282  0.00  0.00    -0.075 A 
ATOM      2  C2  N4B d   1       2.089  -3.551  -4.204  0.00  0.00     0.002 A 
ATOM      3  C3  N4B d   1       1.958  -3.779  -5.552  0.00  0.00     0.002 A 
ATOM      4  C4  N4B d   1       1.541  -5.024  -6.000  0.00  0.00    -0.004 A 
ATOM      5  C5  N4B d   1       1.222  -6.000  -5.102  0.00  0.00     0.002 A 
ATOM      6  C6  N4B d   1       1.346  -5.784  -3.744  0.00  0.00     0.002 A 
ENDROOT
BRANCH   1   7
ATOM      7  C1' N4B d   1       1.993  -4.402  -1.803  0.00  0.00     0.057 C 
BRANCH   7   8
ATOM      8  C2' N4B d   1       1.254  -3.152  -1.335  0.00  0.00     0.009 C 
BRANCH   8   9
ATOM      9  C3' N4B d   1       1.530  -2.841   0.126  0.00  0.00     0.004 C 
ATOM     10  C4' N4B d   1       2.886  -2.238   0.344  0.00  0.00     0.003 C 
ENDBRANCH   8   9
ENDBRANCH   7   8
ENDBRANCH   1   7
TORSDOF 3
ENDMDL
