MODEL 1
REMARK minimizedAffinity 18.7691116
REMARK minimizedRMSD -1
REMARK  3 active torsions:
REMARK  status: ('A' for Active; 'I' for Inactive)
REMARK    1  A    between atoms: C3'_2  and  C2'_3 
REMARK    2  A    between atoms: C2'_3  and  C1'_4 
REMARK    3  A    between atoms: C1'_4  and  C1_5 
ROOT
ATOM      1  C1  N4B d   1       1.138  -3.397   1.888  0.00  0.00    -0.075 A 
ATOM      2  C2  N4B d   1       0.874  -3.757   0.548  0.00  0.00     0.002 A 
ATOM      3  C3  N4B d   1       1.432  -3.037  -0.479  0.00  0.00     0.002 A 
ATOM      4  C4  N4B d   1       2.239  -1.946  -0.192  0.00  0.00    -0.004 A 
ATOM      5  C5  N4B d   1       2.510  -1.621   1.105  0.00  0.00     0.002 A 
ATOM      6  C6  N4B d   1       1.958  -2.338   2.147  0.00  0.00     0.002 A 
ENDROOT
BRANCH   1   7
ATOM      7  C1' N4B d   1       0.481  -4.102   3.044  0.00  0.00     0.057 C 
BRANCH   7   8
ATOM      8  C2' N4B d   1       0.004  -3.065   4.057  0.00  0.00     0.009 C 
BRANCH   8   9
ATOM      9  C3' N4B d   1      -1.266  -3.505   4.764  0.00  0.00     0.004 C 
ATOM     10  C4' N4B d   1      -2.412  -2.565   4.538  0.00  0.00     0.003 C 
ENDBRANCH   8   9
ENDBRANCH   7   8
ENDBRANCH   1   7
TORSDOF 3
ENDMDL
