MODEL 1
REMARK minimizedAffinity 13.8568172
REMARK minimizedRMSD -1
REMARK  3 active torsions:
REMARK  status: ('A' for Active; 'I' for Inactive)
REMARK    1  A    between atoms: C3'_2  and  C2'_3 
REMARK    2  A    between atoms: C2'_3  and  C1'_4 
REMARK    3  A    between atoms: C1'_4  and  C1_5 
ROOT
ATOM      1  C1  N4B d   1      -4.089   5.418  -1.076  0.00  0.00    -0.075 A 
ATOM      2  C2  N4B d   1      -3.292   5.374   0.089  0.00  0.00     0.002 A 
ATOM      3  C3  N4B d   1      -3.870   5.547   1.323  0.00  0.00     0.002 A 
ATOM      4  C4  N4B d   1      -5.233   5.782   1.415  0.00  0.00    -0.004 A 
ATOM      5  C5  N4B d   1      -6.000   5.797   0.286  0.00  0.00     0.002 A 
ATOM      6  C6  N4B d   1      -5.433   5.621  -0.960  0.00  0.00     0.002 A 
ENDROOT
BRANCH   1   7
ATOM      7  C1' N4B d   1      -3.489   5.320  -2.452  0.00  0.00     0.057 C 
BRANCH   7   8
ATOM      8  C2' N4B d   1      -3.895   3.991  -3.082  0.00  0.00     0.009 C 
BRANCH   8   9
ATOM      9  C3' N4B d   1      -2.689   3.136  -3.432  0.00  0.00     0.004 C 
ATOM     10  C4' N4B d   1      -1.391   3.774  -3.036  0.00  0.00     0.003 C 
ENDBRANCH   8   9
ENDBRANCH   7   8
ENDBRANCH   1   7
TORSDOF 3
ENDMDL
