MODEL 1
REMARK minimizedAffinity 9.62167168
REMARK minimizedRMSD -1
REMARK  3 active torsions:
REMARK  status: ('A' for Active; 'I' for Inactive)
REMARK    1  A    between atoms: C3'_2  and  C2'_3 
REMARK    2  A    between atoms: C2'_3  and  C1'_4 
REMARK    3  A    between atoms: C1'_4  and  C1_5 
ROOT
ATOM      1  C1  N4B d   1      -3.615  -3.054   5.284  0.00  0.00    -0.075 A 
ATOM      2  C2  N4B d   1      -4.832  -2.861   5.974  0.00  0.00     0.002 A 
ATOM      3  C3  N4B d   1      -5.998  -3.379   5.467  0.00  0.00     0.002 A 
ATOM      4  C4  N4B d   1      -5.975  -4.075   4.268  0.00  0.00    -0.004 A 
ATOM      5  C5  N4B d   1      -4.792  -4.279   3.621  0.00  0.00     0.002 A 
ATOM      6  C6  N4B d   1      -3.612  -3.767   4.121  0.00  0.00     0.002 A 
ENDROOT
BRANCH   1   7
ATOM      7  C1' N4B d   1      -2.328  -2.433   5.755  0.00  0.00     0.057 C 
BRANCH   7   8
ATOM      8  C2' N4B d   1      -1.273  -2.581   4.663  0.00  0.00     0.009 C 
BRANCH   8   9
ATOM      9  C3' N4B d   1      -0.691  -3.983   4.621  0.00  0.00     0.004 C 
ATOM     10  C4' N4B d   1      -0.533  -4.588   5.985  0.00  0.00     0.003 C 
ENDBRANCH   8   9
ENDBRANCH   7   8
ENDBRANCH   1   7
TORSDOF 3
ENDMDL
