MODEL 1
REMARK minimizedAffinity 18.3899784
REMARK minimizedRMSD -1
REMARK  3 active torsions:
REMARK  status: ('A' for Active; 'I' for Inactive)
REMARK    1  A    between atoms: C3'_2  and  C2'_3 
REMARK    2  A    between atoms: C2'_3  and  C1'_4 
REMARK    3  A    between atoms: C1'_4  and  C1_5 
ROOT
ATOM      1  C1  N4B d   1      -4.843   5.718  -1.004  0.00  0.00    -0.075 A 
ATOM      2  C2  N4B d   1      -3.548   5.691  -0.444  0.00  0.00     0.002 A 
ATOM      3  C3  N4B d   1      -3.384   5.823   0.913  0.00  0.00     0.002 A 
ATOM      4  C4  N4B d   1      -4.495   6.000   1.724  0.00  0.00    -0.004 A 
ATOM      5  C5  N4B d   1      -5.745   5.999   1.178  0.00  0.00     0.002 A 
ATOM      6  C6  N4B d   1      -5.925   5.864  -0.184  0.00  0.00     0.002 A 
ENDROOT
BRANCH   1   7
ATOM      7  C1' N4B d   1      -5.067   5.664  -2.491  0.00  0.00     0.057 C 
BRANCH   7   8
ATOM      8  C2' N4B d   1      -4.580   4.319  -3.022  0.00  0.00     0.009 C 
BRANCH   8   9
ATOM      9  C3' N4B d   1      -5.622   3.643  -3.897  0.00  0.00     0.004 C 
ATOM     10  C4' N4B d   1      -5.513   2.148  -3.880  0.00  0.00     0.003 C 
ENDBRANCH   8   9
ENDBRANCH   7   8
ENDBRANCH   1   7
TORSDOF 3
ENDMDL
