MODEL 1
REMARK minimizedAffinity 20.0197449
REMARK minimizedRMSD -1
REMARK  3 active torsions:
REMARK  status: ('A' for Active; 'I' for Inactive)
REMARK    1  A    between atoms: C3'_2  and  C2'_3 
REMARK    2  A    between atoms: C2'_3  and  C1'_4 
REMARK    3  A    between atoms: C1'_4  and  C1_5 
ROOT
ATOM      1  C1  N4B d   1      -4.799   5.658  -0.878  0.00  0.00    -0.075 A 
ATOM      2  C2  N4B d   1      -5.999   5.843  -0.157  0.00  0.00     0.002 A 
ATOM      3  C3  N4B d   1      -5.964   5.999   1.207  0.00  0.00     0.002 A 
ATOM      4  C4  N4B d   1      -4.747   5.956   1.871  0.00  0.00    -0.004 A 
ATOM      5  C5  N4B d   1      -3.590   5.802   1.164  0.00  0.00     0.002 A 
ATOM      6  C6  N4B d   1      -3.610   5.648  -0.207  0.00  0.00     0.002 A 
ENDROOT
BRANCH   1   7
ATOM      7  C1' N4B d   1      -4.795   5.397  -2.360  0.00  0.00     0.057 C 
BRANCH   7   8
ATOM      8  C2' N4B d   1      -3.374   5.065  -2.805  0.00  0.00     0.009 C 
BRANCH   8   9
ATOM      9  C3' N4B d   1      -3.233   3.610  -3.219  0.00  0.00     0.004 C 
ATOM     10  C4' N4B d   1      -1.826   3.243  -3.584  0.00  0.00     0.003 C 
ENDBRANCH   8   9
ENDBRANCH   7   8
ENDBRANCH   1   7
TORSDOF 3
ENDMDL
