MODEL 1
REMARK minimizedAffinity 14.9435501
REMARK minimizedRMSD -1
REMARK  3 active torsions:
REMARK  status: ('A' for Active; 'I' for Inactive)
REMARK    1  A    between atoms: C3'_2  and  C2'_3 
REMARK    2  A    between atoms: C2'_3  and  C1'_4 
REMARK    3  A    between atoms: C1'_4  and  C1_5 
ROOT
ATOM      1  C1  N4B d   1      -3.274   3.842   0.394  0.00  0.00    -0.075 A 
ATOM      2  C2  N4B d   1      -4.122   3.290   1.380  0.00  0.00     0.002 A 
ATOM      3  C3  N4B d   1      -4.945   4.109   2.114  0.00  0.00     0.002 A 
ATOM      4  C4  N4B d   1      -4.924   5.478   1.893  0.00  0.00    -0.004 A 
ATOM      5  C5  N4B d   1      -4.121   6.000   0.921  0.00  0.00     0.002 A 
ATOM      6  C6  N4B d   1      -3.292   5.189   0.173  0.00  0.00     0.002 A 
ENDROOT
BRANCH   1   7
ATOM      7  C1' N4B d   1      -2.295   2.997  -0.375  0.00  0.00     0.057 C 
BRANCH   7   8
ATOM      8  C2' N4B d   1      -1.875   1.809   0.486  0.00  0.00     0.009 C 
BRANCH   8   9
ATOM      9  C3' N4B d   1      -0.385   1.819   0.780  0.00  0.00     0.004 C 
ATOM     10  C4' N4B d   1      -0.026   1.006   1.988  0.00  0.00     0.003 C 
ENDBRANCH   8   9
ENDBRANCH   7   8
ENDBRANCH   1   7
TORSDOF 3
ENDMDL
