MODEL 1
REMARK minimizedAffinity 7.77270842
REMARK minimizedRMSD -1
REMARK  3 active torsions:
REMARK  status: ('A' for Active; 'I' for Inactive)
REMARK    1  A    between atoms: C3'_2  and  C2'_3 
REMARK    2  A    between atoms: C2'_3  and  C1'_4 
REMARK    3  A    between atoms: C1'_4  and  C1_5 
ROOT
ATOM      1  C1  N4B d   1      -1.082   3.909  -2.062  0.00  0.00    -0.075 A 
ATOM      2  C2  N4B d   1      -0.602   2.841  -1.272  0.00  0.00     0.002 A 
ATOM      3  C3  N4B d   1       0.159   3.098  -0.159  0.00  0.00     0.002 A 
ATOM      4  C4  N4B d   1       0.469   4.409   0.173  0.00  0.00    -0.004 A 
ATOM      5  C5  N4B d   1      -0.019   5.436  -0.581  0.00  0.00     0.002 A 
ATOM      6  C6  N4B d   1      -0.789   5.192  -1.701  0.00  0.00     0.002 A 
ENDROOT
BRANCH   1   7
ATOM      7  C1' N4B d   1      -1.845   3.674  -3.336  0.00  0.00     0.057 C 
BRANCH   7   8
ATOM      8  C2' N4B d   1      -2.026   2.173  -3.543  0.00  0.00     0.009 C 
BRANCH   8   9
ATOM      9  C3' N4B d   1      -3.492   1.779  -3.603  0.00  0.00     0.004 C 
ATOM     10  C4' N4B d   1      -3.865   0.768  -2.561  0.00  0.00     0.003 C 
ENDBRANCH   8   9
ENDBRANCH   7   8
ENDBRANCH   1   7
TORSDOF 3
ENDMDL
