MODEL 1
REMARK minimizedAffinity 1.7866627
REMARK minimizedRMSD -1
REMARK  0 active torsions:
REMARK  status: ('A' for Active; 'I' for Inactive)
ROOT
ATOM      1  C   UNL d   1       2.458   1.850   0.879  0.00  0.00     0.023 A 
ATOM      2  C1  UNL d   1       2.553   0.810   1.804  0.00  0.00     0.003 A 
ATOM      3  C2  UNL d   1       1.623  -0.232   1.783  0.00  0.00     0.048 A 
ATOM      4  C3  UNL d   1       0.602  -0.228   0.834  0.00  0.00     0.023 A 
ATOM      5  C4  UNL d   1       0.504   0.809  -0.095  0.00  0.00     0.048 A 
ATOM      6  C5  UNL d   1       1.435   1.849  -0.069  0.00  0.00     0.003 A 
ATOM      7  I   UNL d   1      -0.782  -1.778   0.801  0.00  0.00    -0.146 I 
ENDROOT
TORSDOF 0
ENDMDL
