MODEL 1
REMARK minimizedAffinity 11.8849573
REMARK minimizedRMSD -1
REMARK  0 active torsions:
REMARK  status: ('A' for Active; 'I' for Inactive)
ROOT
ATOM      1  C   UNL d   1      -1.294  -1.748   1.008  0.00  0.00     0.023 A 
ATOM      2  C1  UNL d   1      -0.009  -1.282   1.287  0.00  0.00     0.003 A 
ATOM      3  C2  UNL d   1       1.062  -2.176   1.346  0.00  0.00     0.048 A 
ATOM      4  C3  UNL d   1       0.841  -3.535   1.122  0.00  0.00     0.023 A 
ATOM      5  C4  UNL d   1      -0.443  -4.005   0.842  0.00  0.00     0.048 A 
ATOM      6  C5  UNL d   1      -1.511  -3.108   0.785  0.00  0.00     0.003 A 
ATOM      7  I   UNL d   1       2.433  -4.867   1.208  0.00  0.00    -0.146 I 
ENDROOT
TORSDOF 0
ENDMDL
