MODEL 1
REMARK minimizedAffinity 5.28677702
REMARK minimizedRMSD -1
REMARK  0 active torsions:
REMARK  status: ('A' for Active; 'I' for Inactive)
ROOT
ATOM      1  C   UNL d   1       2.932   2.547   0.241  0.00  0.00     0.023 A 
ATOM      2  C1  UNL d   1       1.541   2.483   0.148  0.00  0.00     0.003 A 
ATOM      3  C2  UNL d   1       0.869   1.313   0.507  0.00  0.00     0.048 A 
ATOM      4  C3  UNL d   1       1.593   0.211   0.959  0.00  0.00     0.023 A 
ATOM      5  C4  UNL d   1       2.984   0.270   1.054  0.00  0.00     0.048 A 
ATOM      6  C5  UNL d   1       3.652   1.441   0.693  0.00  0.00     0.003 A 
ATOM      7  I   UNL d   1       0.594  -1.532   1.495  0.00  0.00    -0.146 I 
ENDROOT
TORSDOF 0
ENDMDL
