MODEL 1
REMARK minimizedAffinity -1.07391667
REMARK minimizedRMSD -1
REMARK  0 active torsions:
REMARK  status: ('A' for Active; 'I' for Inactive)
ROOT
ATOM      1  C   UNL d   1       0.264   3.734  -0.850  0.00  0.00     0.023 A 
ATOM      2  C1  UNL d   1      -0.459   2.987   0.079  0.00  0.00     0.003 A 
ATOM      3  C2  UNL d   1       0.188   2.029   0.863  0.00  0.00     0.048 A 
ATOM      4  C3  UNL d   1       1.559   1.825   0.714  0.00  0.00     0.023 A 
ATOM      5  C4  UNL d   1       2.287   2.571  -0.214  0.00  0.00     0.048 A 
ATOM      6  C5  UNL d   1       1.636   3.527  -0.996  0.00  0.00     0.003 A 
ATOM      7  I   UNL d   1       2.524   0.401   1.879  0.00  0.00    -0.146 I 
ENDROOT
TORSDOF 0
ENDMDL
