MODEL 1
REMARK minimizedAffinity 3.14459801
REMARK minimizedRMSD -1
REMARK  0 active torsions:
REMARK  status: ('A' for Active; 'I' for Inactive)
ROOT
ATOM      1  C   UNL d   1      -2.626  -3.410  -1.646  0.00  0.00     0.023 A 
ATOM      2  C1  UNL d   1      -1.860  -2.246  -1.587  0.00  0.00     0.003 A 
ATOM      3  C2  UNL d   1      -0.473  -2.328  -1.446  0.00  0.00     0.048 A 
ATOM      4  C3  UNL d   1       0.141  -3.577  -1.365  0.00  0.00     0.023 A 
ATOM      5  C4  UNL d   1      -0.621  -4.745  -1.425  0.00  0.00     0.048 A 
ATOM      6  C5  UNL d   1      -2.008  -4.658  -1.566  0.00  0.00     0.003 A 
ATOM      7  I   UNL d   1       2.205  -3.701  -1.155  0.00  0.00    -0.146 I 
ENDROOT
TORSDOF 0
ENDMDL
