MODEL 1
REMARK minimizedAffinity 0.171405643
REMARK minimizedRMSD -1
REMARK  0 active torsions:
REMARK  status: ('A' for Active; 'I' for Inactive)
ROOT
ATOM      1  C   UNL d   1      -0.178   4.444  -0.462  0.00  0.00     0.023 A 
ATOM      2  C1  UNL d   1      -0.850   3.399   0.171  0.00  0.00     0.003 A 
ATOM      3  C2  UNL d   1      -0.151   2.260   0.575  0.00  0.00     0.048 A 
ATOM      4  C3  UNL d   1       1.222   2.173   0.343  0.00  0.00     0.023 A 
ATOM      5  C4  UNL d   1       1.899   3.217  -0.289  0.00  0.00     0.048 A 
ATOM      6  C5  UNL d   1       1.195   4.353  -0.692  0.00  0.00     0.003 A 
ATOM      7  I   UNL d   1       2.266   0.479   0.944  0.00  0.00    -0.146 I 
ENDROOT
TORSDOF 0
ENDMDL
