MODEL 1
REMARK minimizedAffinity 12.40942
REMARK minimizedRMSD -1
REMARK  0 active torsions:
REMARK  status: ('A' for Active; 'I' for Inactive)
ROOT
ATOM      1  C   UNL d   1       3.435  -0.738   0.949  0.00  0.00     0.023 A 
ATOM      2  C1  UNL d   1       2.879   0.106   1.910  0.00  0.00     0.003 A 
ATOM      3  C2  UNL d   1       2.506   1.407   1.567  0.00  0.00     0.048 A 
ATOM      4  C3  UNL d   1       2.691   1.857   0.260  0.00  0.00     0.023 A 
ATOM      5  C4  UNL d   1       3.247   1.016  -0.705  0.00  0.00     0.048 A 
ATOM      6  C5  UNL d   1       3.619  -0.283  -0.357  0.00  0.00     0.003 A 
ATOM      7  I   UNL d   1       2.136   3.794  -0.253  0.00  0.00    -0.146 I 
ENDROOT
TORSDOF 0
ENDMDL
