MODEL 1
REMARK minimizedAffinity 1.41035748
REMARK minimizedRMSD -1
REMARK  0 active torsions:
REMARK  status: ('A' for Active; 'I' for Inactive)
ROOT
ATOM      1  C   UNL d   1       2.726   0.561   1.675  0.00  0.00     0.023 A 
ATOM      2  C1  UNL d   1       2.625  -0.764   2.099  0.00  0.00     0.003 A 
ATOM      3  C2  UNL d   1       1.431  -1.466   1.921  0.00  0.00     0.048 A 
ATOM      4  C3  UNL d   1       0.343  -0.837   1.317  0.00  0.00     0.023 A 
ATOM      5  C4  UNL d   1       0.440   0.488   0.890  0.00  0.00     0.048 A 
ATOM      6  C5  UNL d   1       1.635   1.186   1.072  0.00  0.00     0.003 A 
ATOM      7  I   UNL d   1      -1.435  -1.880   1.050  0.00  0.00    -0.146 I 
ENDROOT
TORSDOF 0
ENDMDL
