MODEL 1
REMARK minimizedAffinity 3.98704576
REMARK minimizedRMSD -1
REMARK  0 active torsions:
REMARK  status: ('A' for Active; 'I' for Inactive)
ROOT
ATOM      1  C   UNL d   1       1.529   1.316  -0.314  0.00  0.00     0.023 A 
ATOM      2  C1  UNL d   1       2.059   0.053  -0.576  0.00  0.00     0.003 A 
ATOM      3  C2  UNL d   1       1.927  -0.970   0.366  0.00  0.00     0.048 A 
ATOM      4  C3  UNL d   1       1.261  -0.724   1.566  0.00  0.00     0.023 A 
ATOM      5  C4  UNL d   1       0.728   0.539   1.832  0.00  0.00     0.048 A 
ATOM      6  C5  UNL d   1       0.864   1.559   0.888  0.00  0.00     0.003 A 
ATOM      7  I   UNL d   1       1.063  -2.245   2.968  0.00  0.00    -0.146 I 
ENDROOT
TORSDOF 0
ENDMDL
