MODEL 1
REMARK minimizedAffinity 4.64226246
REMARK minimizedRMSD -1
REMARK  0 active torsions:
REMARK  status: ('A' for Active; 'I' for Inactive)
ROOT
ATOM      1  C   UNL d   1       0.717  -2.909   3.288  0.00  0.00     0.023 A 
ATOM      2  C1  UNL d   1       0.163  -2.718   2.022  0.00  0.00     0.003 A 
ATOM      3  C2  UNL d   1       0.557  -1.628   1.243  0.00  0.00     0.048 A 
ATOM      4  C3  UNL d   1       1.506  -0.732   1.737  0.00  0.00     0.023 A 
ATOM      5  C4  UNL d   1       2.063  -0.920   3.003  0.00  0.00     0.048 A 
ATOM      6  C5  UNL d   1       1.665  -2.011   3.778  0.00  0.00     0.003 A 
ATOM      7  I   UNL d   1       2.094   0.891   0.580  0.00  0.00    -0.146 I 
ENDROOT
TORSDOF 0
ENDMDL
