MODEL 1
REMARK minimizedAffinity 4.43677139
REMARK minimizedRMSD -1
REMARK  0 active torsions:
REMARK  status: ('A' for Active; 'I' for Inactive)
ROOT
ATOM      1  C   UNL d   1       1.717  -4.358   5.570  0.00  0.00     0.023 A 
ATOM      2  C1  UNL d   1       0.607  -4.208   4.739  0.00  0.00     0.003 A 
ATOM      3  C2  UNL d   1       0.368  -2.988   4.104  0.00  0.00     0.048 A 
ATOM      4  C3  UNL d   1       1.244  -1.921   4.304  0.00  0.00     0.023 A 
ATOM      5  C4  UNL d   1       2.357  -2.067   5.134  0.00  0.00     0.048 A 
ATOM      6  C5  UNL d   1       2.591  -3.289   5.768  0.00  0.00     0.003 A 
ATOM      7  I   UNL d   1       0.891  -0.104   3.360  0.00  0.00    -0.146 I 
ENDROOT
TORSDOF 0
ENDMDL
