MODEL 1
REMARK minimizedAffinity 1.95525897
REMARK minimizedRMSD -1
REMARK  0 active torsions:
REMARK  status: ('A' for Active; 'I' for Inactive)
ROOT
ATOM      1  C   UNL d   1       3.535  -3.614   4.881  0.00  0.00     0.023 A 
ATOM      2  C1  UNL d   1       4.318  -3.055   3.871  0.00  0.00     0.003 A 
ATOM      3  C2  UNL d   1       3.734  -2.226   2.910  0.00  0.00     0.048 A 
ATOM      4  C3  UNL d   1       2.367  -1.960   2.967  0.00  0.00     0.023 A 
ATOM      5  C4  UNL d   1       1.579  -2.516   3.976  0.00  0.00     0.048 A 
ATOM      6  C5  UNL d   1       2.167  -3.345   4.933  0.00  0.00     0.003 A 
ATOM      7  I   UNL d   1       1.495  -0.726   1.539  0.00  0.00    -0.146 I 
ENDROOT
TORSDOF 0
ENDMDL
