MODEL 1
REMARK minimizedAffinity 15.8450241
REMARK minimizedRMSD -1
REMARK  2 active torsions:
REMARK  status: ('A' for Active; 'I' for Inactive)
REMARK    1  A    between atoms: C2'_3  and  C1'_4 
REMARK    2  A    between atoms: C1'_4  and  C1_5 
ROOT
ATOM      1  C1  I4B d   1      -2.055  -5.898  -4.533  0.00  0.00    -0.075 A 
ATOM      2  C2  I4B d   1      -2.871  -5.883  -3.429  0.00  0.00     0.003 A 
ATOM      3  C3  I4B d   1      -4.278  -5.939  -3.582  0.00  0.00     0.002 A 
ATOM      4  C4  I4B d   1      -4.824  -5.959  -4.849  0.00  0.00    -0.004 A 
ATOM      5  C5  I4B d   1      -3.994  -5.997  -5.966  0.00  0.00     0.002 A 
ATOM      6  C6  I4B d   1      -2.601  -5.979  -5.807  0.00  0.00     0.003 A 
ENDROOT
BRANCH   1   7
ATOM      7  C1' I4B d   1      -0.575  -5.803  -4.336  0.00  0.00     0.060 C 
BRANCH   7   8
ATOM      8  C2' I4B d   1      -0.237  -4.359  -4.026  0.00  0.00    -0.013 C 
ATOM      9  C4' I4B d   1      -1.350  -3.690  -3.265  0.00  0.00     0.013 C 
ATOM     10  C3' I4B d   1       1.042  -4.342  -3.244  0.00  0.00     0.013 C 
ENDBRANCH   7   8
ENDBRANCH   1   7
TORSDOF 2
ENDMDL
