MODEL 1
REMARK minimizedAffinity 12.1204386
REMARK minimizedRMSD -1
REMARK  2 active torsions:
REMARK  status: ('A' for Active; 'I' for Inactive)
REMARK    1  A    between atoms: C2'_3  and  C1'_4 
REMARK    2  A    between atoms: C1'_4  and  C1_5 
ROOT
ATOM      1  C1  I4B d   1      -4.262   0.347   1.562  0.00  0.00    -0.075 A 
ATOM      2  C2  I4B d   1      -4.106   1.126   2.682  0.00  0.00     0.003 A 
ATOM      3  C3  I4B d   1      -2.899   1.078   3.421  0.00  0.00     0.002 A 
ATOM      4  C4  I4B d   1      -1.901   0.206   3.036  0.00  0.00    -0.004 A 
ATOM      5  C5  I4B d   1      -2.052  -0.565   1.887  0.00  0.00     0.002 A 
ATOM      6  C6  I4B d   1      -3.235  -0.485   1.138  0.00  0.00     0.003 A 
ENDROOT
BRANCH   1   7
ATOM      7  C1' I4B d   1      -5.562   0.399   0.824  0.00  0.00     0.060 C 
BRANCH   7   8
ATOM      8  C2' I4B d   1      -5.266   0.744  -0.621  0.00  0.00    -0.013 C 
ATOM      9  C4' I4B d   1      -5.996  -0.177  -1.563  0.00  0.00     0.013 C 
ATOM     10  C3' I4B d   1      -5.662   2.173  -0.845  0.00  0.00     0.013 C 
ENDBRANCH   7   8
ENDBRANCH   1   7
TORSDOF 2
ENDMDL
