MODEL 1
REMARK minimizedAffinity 10.2158728
REMARK minimizedRMSD -1
REMARK  2 active torsions:
REMARK  status: ('A' for Active; 'I' for Inactive)
REMARK    1  A    between atoms: C2'_3  and  C1'_4 
REMARK    2  A    between atoms: C1'_4  and  C1_5 
ROOT
ATOM      1  C1  I4B d   1      -4.284  -4.072   3.468  0.00  0.00    -0.075 A 
ATOM      2  C2  I4B d   1      -4.362  -3.251   4.565  0.00  0.00     0.003 A 
ATOM      3  C3  I4B d   1      -4.540  -3.802   5.857  0.00  0.00     0.002 A 
ATOM      4  C4  I4B d   1      -4.685  -5.167   5.999  0.00  0.00    -0.004 A 
ATOM      5  C5  I4B d   1      -4.583  -6.000   4.888  0.00  0.00     0.002 A 
ATOM      6  C6  I4B d   1      -4.368  -5.450   3.616  0.00  0.00     0.003 A 
ENDROOT
BRANCH   1   7
ATOM      7  C1' I4B d   1      -4.128  -3.453   2.115  0.00  0.00     0.060 C 
BRANCH   7   8
ATOM      8  C2' I4B d   1      -2.654  -3.184   1.891  0.00  0.00    -0.013 C 
ATOM      9  C4' I4B d   1      -2.132  -3.956   0.709  0.00  0.00     0.013 C 
ATOM     10  C3' I4B d   1      -2.478  -1.708   1.695  0.00  0.00     0.013 C 
ENDBRANCH   7   8
ENDBRANCH   1   7
TORSDOF 2
ENDMDL
