MODEL 1
REMARK minimizedAffinity 15.4579172
REMARK minimizedRMSD -1
REMARK  2 active torsions:
REMARK  status: ('A' for Active; 'I' for Inactive)
REMARK    1  A    between atoms: C2'_3  and  C1'_4 
REMARK    2  A    between atoms: C1'_4  and  C1_5 
ROOT
ATOM      1  C1  I4B d   1       4.058   2.194   0.692  0.00  0.00    -0.075 A 
ATOM      2  C2  I4B d   1       4.995   2.491  -0.266  0.00  0.00     0.003 A 
ATOM      3  C3  I4B d   1       6.000   3.454  -0.007  0.00  0.00     0.002 A 
ATOM      4  C4  I4B d   1       5.999   4.129   1.197  0.00  0.00    -0.004 A 
ATOM      5  C5  I4B d   1       5.062   3.811   2.176  0.00  0.00     0.002 A 
ATOM      6  C6  I4B d   1       4.093   2.829   1.927  0.00  0.00     0.003 A 
ENDROOT
BRANCH   1   7
ATOM      7  C1' I4B d   1       2.992   1.195   0.372  0.00  0.00     0.060 C 
BRANCH   7   8
ATOM      8  C2' I4B d   1       1.751   1.955  -0.051  0.00  0.00    -0.013 C 
ATOM      9  C4' I4B d   1       1.525   1.846  -1.536  0.00  0.00     0.013 C 
ATOM     10  C3' I4B d   1       0.587   1.405   0.717  0.00  0.00     0.013 C 
ENDBRANCH   7   8
ENDBRANCH   1   7
TORSDOF 2
ENDMDL
