MODEL 1
REMARK minimizedAffinity 16.2489357
REMARK minimizedRMSD -1
REMARK  2 active torsions:
REMARK  status: ('A' for Active; 'I' for Inactive)
REMARK    1  A    between atoms: C2'_3  and  C1'_4 
REMARK    2  A    between atoms: C1'_4  and  C1_5 
ROOT
ATOM      1  C1  I4B d   1      -2.646   1.648   4.203  0.00  0.00    -0.075 A 
ATOM      2  C2  I4B d   1      -2.122   1.183   5.384  0.00  0.00     0.003 A 
ATOM      3  C3  I4B d   1      -1.131   0.172   5.375  0.00  0.00     0.002 A 
ATOM      4  C4  I4B d   1      -0.732  -0.378   4.174  0.00  0.00    -0.004 A 
ATOM      5  C5  I4B d   1      -1.248   0.110   2.977  0.00  0.00     0.002 A 
ATOM      6  C6  I4B d   1      -2.201   1.139   2.990  0.00  0.00     0.003 A 
ENDROOT
BRANCH   1   7
ATOM      7  C1' I4B d   1      -3.714   2.694   4.251  0.00  0.00     0.060 C 
BRANCH   7   8
ATOM      8  C2' I4B d   1      -4.058   2.944   5.705  0.00  0.00    -0.013 C 
ATOM      9  C4' I4B d   1      -4.147   4.419   5.998  0.00  0.00     0.013 C 
ATOM     10  C3' I4B d   1      -5.357   2.254   5.999  0.00  0.00     0.013 C 
ENDBRANCH   7   8
ENDBRANCH   1   7
TORSDOF 2
ENDMDL
