MODEL 1
REMARK minimizedAffinity 4.71039057
REMARK minimizedRMSD -1
REMARK  2 active torsions:
REMARK  status: ('A' for Active; 'I' for Inactive)
REMARK    1  A    between atoms: C2'_3  and  C1'_4 
REMARK    2  A    between atoms: C1'_4  and  C1_5 
ROOT
ATOM      1  C1  I4B d   1      -3.394  -0.437   1.507  0.00  0.00    -0.075 A 
ATOM      2  C2  I4B d   1      -3.124   0.532   2.441  0.00  0.00     0.003 A 
ATOM      3  C3  I4B d   1      -1.902   0.511   3.157  0.00  0.00     0.002 A 
ATOM      4  C4  I4B d   1      -1.008  -0.518   2.944  0.00  0.00    -0.004 A 
ATOM      5  C5  I4B d   1      -1.273  -1.487   1.981  0.00  0.00     0.002 A 
ATOM      6  C6  I4B d   1      -2.468  -1.439   1.248  0.00  0.00     0.003 A 
ENDROOT
BRANCH   1   7
ATOM      7  C1' I4B d   1      -4.708  -0.403   0.793  0.00  0.00     0.060 C 
BRANCH   7   8
ATOM      8  C2' I4B d   1      -4.566   0.519  -0.402  0.00  0.00    -0.013 C 
ATOM      9  C4' I4B d   1      -4.787  -0.224  -1.693  0.00  0.00     0.013 C 
ATOM     10  C3' I4B d   1      -5.554   1.636  -0.244  0.00  0.00     0.013 C 
ENDBRANCH   7   8
ENDBRANCH   1   7
TORSDOF 2
ENDMDL
