MODEL 1
REMARK minimizedAffinity 16.7805977
REMARK minimizedRMSD -1
REMARK  2 active torsions:
REMARK  status: ('A' for Active; 'I' for Inactive)
REMARK    1  A    between atoms: C2'_3  and  C1'_4 
REMARK    2  A    between atoms: C1'_4  and  C1_5 
ROOT
ATOM      1  C1  I4B d   1       2.514   2.343  -1.870  0.00  0.00    -0.075 A 
ATOM      2  C2  I4B d   1       3.360   1.267  -1.770  0.00  0.00     0.003 A 
ATOM      3  C3  I4B d   1       3.504   0.585  -0.538  0.00  0.00     0.002 A 
ATOM      4  C4  I4B d   1       2.827   1.041   0.575  0.00  0.00    -0.004 A 
ATOM      5  C5  I4B d   1       1.952   2.118   0.466  0.00  0.00     0.002 A 
ATOM      6  C6  I4B d   1       1.785   2.766  -0.766  0.00  0.00     0.003 A 
ENDROOT
BRANCH   1   7
ATOM      7  C1' I4B d   1       2.411   3.060  -3.179  0.00  0.00     0.060 C 
BRANCH   7   8
ATOM      8  C2' I4B d   1       3.801   3.144  -3.776  0.00  0.00    -0.013 C 
ATOM      9  C4' I4B d   1       3.743   3.268  -5.275  0.00  0.00     0.013 C 
ATOM     10  C3' I4B d   1       4.498   4.321  -3.161  0.00  0.00     0.013 C 
ENDBRANCH   7   8
ENDBRANCH   1   7
TORSDOF 2
ENDMDL
