MODEL 1
REMARK minimizedAffinity 17.3614845
REMARK minimizedRMSD -1
REMARK  2 active torsions:
REMARK  status: ('A' for Active; 'I' for Inactive)
REMARK    1  A    between atoms: C2'_3  and  C1'_4 
REMARK    2  A    between atoms: C1'_4  and  C1_5 
ROOT
ATOM      1  C1  I4B d   1      -3.008   5.561  -3.818  0.00  0.00    -0.075 A 
ATOM      2  C2  I4B d   1      -3.092   5.494  -5.187  0.00  0.00     0.003 A 
ATOM      3  C3  I4B d   1      -1.940   5.205  -5.958  0.00  0.00     0.002 A 
ATOM      4  C4  I4B d   1      -0.724   5.042  -5.328  0.00  0.00    -0.004 A 
ATOM      5  C5  I4B d   1      -0.645   5.087  -3.939  0.00  0.00     0.002 A 
ATOM      6  C6  I4B d   1      -1.796   5.336  -3.178  0.00  0.00     0.003 A 
ENDROOT
BRANCH   1   7
ATOM      7  C1' I4B d   1      -4.238   5.900  -3.037  0.00  0.00     0.060 C 
BRANCH   7   8
ATOM      8  C2' I4B d   1      -4.088   5.306  -1.651  0.00  0.00    -0.013 C 
ATOM      9  C4' I4B d   1      -2.745   5.639  -1.057  0.00  0.00     0.013 C 
ATOM     10  C3' I4B d   1      -5.203   5.834  -0.798  0.00  0.00     0.013 C 
ENDBRANCH   7   8
ENDBRANCH   1   7
TORSDOF 2
ENDMDL
