MODEL 1
REMARK minimizedAffinity 16.7200947
REMARK minimizedRMSD -1
REMARK  2 active torsions:
REMARK  status: ('A' for Active; 'I' for Inactive)
REMARK    1  A    between atoms: C2'_3  and  C1'_4 
REMARK    2  A    between atoms: C1'_4  and  C1_5 
ROOT
ATOM      1  C1  I4B d   1      -0.573  -1.099   2.235  0.00  0.00    -0.075 A 
ATOM      2  C2  I4B d   1      -1.501  -1.082   1.223  0.00  0.00     0.003 A 
ATOM      3  C3  I4B d   1      -2.623  -0.223   1.300  0.00  0.00     0.002 A 
ATOM      4  C4  I4B d   1      -2.804   0.561   2.421  0.00  0.00    -0.004 A 
ATOM      5  C5  I4B d   1      -1.851   0.560   3.435  0.00  0.00     0.002 A 
ATOM      6  C6  I4B d   1      -0.722  -0.266   3.337  0.00  0.00     0.003 A 
ENDROOT
BRANCH   1   7
ATOM      7  C1' I4B d   1       0.583  -2.043   2.137  0.00  0.00     0.060 C 
BRANCH   7   8
ATOM      8  C2' I4B d   1       1.576  -1.679   3.223  0.00  0.00    -0.013 C 
ATOM      9  C4' I4B d   1       1.924  -2.876   4.067  0.00  0.00     0.013 C 
ATOM     10  C3' I4B d   1       2.796  -1.109   2.562  0.00  0.00     0.013 C 
ENDBRANCH   7   8
ENDBRANCH   1   7
TORSDOF 2
ENDMDL
