MODEL 1
REMARK minimizedAffinity 13.5995369
REMARK minimizedRMSD -1
REMARK  2 active torsions:
REMARK  status: ('A' for Active; 'I' for Inactive)
REMARK    1  A    between atoms: C2'_3  and  C1'_4 
REMARK    2  A    between atoms: C1'_4  and  C1_5 
ROOT
ATOM      1  C1  I4B d   1       5.716   4.328  -2.111  0.00  0.00    -0.075 A 
ATOM      2  C2  I4B d   1       5.906   3.338  -1.179  0.00  0.00     0.003 A 
ATOM      3  C3  I4B d   1       6.000   3.662   0.196  0.00  0.00     0.002 A 
ATOM      4  C4  I4B d   1       5.949   4.984   0.588  0.00  0.00    -0.004 A 
ATOM      5  C5  I4B d   1       5.734   5.984  -0.356  0.00  0.00     0.002 A 
ATOM      6  C6  I4B d   1       5.604   5.653  -1.713  0.00  0.00     0.003 A 
ENDROOT
BRANCH   1   7
ATOM      7  C1' I4B d   1       5.654   3.953  -3.558  0.00  0.00     0.060 C 
BRANCH   7   8
ATOM      8  C2' I4B d   1       4.573   2.904  -3.723  0.00  0.00    -0.013 C 
ATOM      9  C4' I4B d   1       3.369   3.225  -2.877  0.00  0.00     0.013 C 
ATOM     10  C3' I4B d   1       4.211   2.837  -5.177  0.00  0.00     0.013 C 
ENDBRANCH   7   8
ENDBRANCH   1   7
TORSDOF 2
ENDMDL
