MODEL 1
REMARK minimizedAffinity 18.7439575
REMARK minimizedRMSD -1
REMARK  2 active torsions:
REMARK  status: ('A' for Active; 'I' for Inactive)
REMARK    1  A    between atoms: C2'_3  and  C1'_4 
REMARK    2  A    between atoms: C1'_4  and  C1_5 
ROOT
ATOM      1  C1  I4B d   1       4.617   3.851  -3.263  0.00  0.00    -0.075 A 
ATOM      2  C2  I4B d   1       4.633   4.024  -1.901  0.00  0.00     0.003 A 
ATOM      3  C3  I4B d   1       5.312   5.128  -1.330  0.00  0.00     0.002 A 
ATOM      4  C4  I4B d   1       6.000   6.000  -2.149  0.00  0.00    -0.004 A 
ATOM      5  C5  I4B d   1       5.964   5.836  -3.531  0.00  0.00     0.002 A 
ATOM      6  C6  I4B d   1       5.258   4.762  -4.092  0.00  0.00     0.003 A 
ENDROOT
BRANCH   1   7
ATOM      7  C1' I4B d   1       3.918   2.657  -3.830  0.00  0.00     0.060 C 
BRANCH   7   8
ATOM      8  C2' I4B d   1       2.654   2.430  -3.026  0.00  0.00    -0.013 C 
ATOM      9  C4' I4B d   1       2.930   1.602  -1.799  0.00  0.00     0.013 C 
ATOM     10  C3' I4B d   1       2.092   3.771  -2.659  0.00  0.00     0.013 C 
ENDBRANCH   7   8
ENDBRANCH   1   7
TORSDOF 2
ENDMDL
