MODEL 1
REMARK minimizedAffinity 16.7154503
REMARK minimizedRMSD -1
REMARK  2 active torsions:
REMARK  status: ('A' for Active; 'I' for Inactive)
REMARK    1  A    between atoms: C2'_3  and  C1'_4 
REMARK    2  A    between atoms: C1'_4  and  C1_5 
ROOT
ATOM      1  C1  I4B d   1      -3.222  -5.029  -5.255  0.00  0.00    -0.075 A 
ATOM      2  C2  I4B d   1      -3.955  -5.970  -5.933  0.00  0.00     0.003 A 
ATOM      3  C3  I4B d   1      -5.366  -6.000  -5.809  0.00  0.00     0.002 A 
ATOM      4  C4  I4B d   1      -5.992  -5.109  -4.962  0.00  0.00    -0.004 A 
ATOM      5  C5  I4B d   1      -5.249  -4.141  -4.293  0.00  0.00     0.002 A 
ATOM      6  C6  I4B d   1      -3.856  -4.092  -4.450  0.00  0.00     0.003 A 
ENDROOT
BRANCH   1   7
ATOM      7  C1' I4B d   1      -1.731  -5.047  -5.383  0.00  0.00     0.060 C 
BRANCH   7   8
ATOM      8  C2' I4B d   1      -1.150  -5.364  -4.020  0.00  0.00    -0.013 C 
ATOM      9  C4' I4B d   1      -0.590  -4.128  -3.366  0.00  0.00     0.013 C 
ATOM     10  C3' I4B d   1      -2.234  -5.975  -3.184  0.00  0.00     0.013 C 
ENDBRANCH   7   8
ENDBRANCH   1   7
TORSDOF 2
ENDMDL
