MODEL 1
REMARK minimizedAffinity 11.8466663
REMARK minimizedRMSD -1
REMARK  2 active torsions:
REMARK  status: ('A' for Active; 'I' for Inactive)
REMARK    1  A    between atoms: C2'_3  and  C1'_4 
REMARK    2  A    between atoms: C1'_4  and  C1_5 
ROOT
ATOM      1  C1  I4B d   1      -3.353   0.351   0.811  0.00  0.00    -0.075 A 
ATOM      2  C2  I4B d   1      -4.367   0.036   1.681  0.00  0.00     0.003 A 
ATOM      3  C3  I4B d   1      -5.715   0.272   1.319  0.00  0.00     0.002 A 
ATOM      4  C4  I4B d   1      -5.999   0.868   0.107  0.00  0.00    -0.004 A 
ATOM      5  C5  I4B d   1      -4.971   1.166  -0.783  0.00  0.00     0.002 A 
ATOM      6  C6  I4B d   1      -3.640   0.894  -0.434  0.00  0.00     0.003 A 
ENDROOT
BRANCH   1   7
ATOM      7  C1' I4B d   1      -1.938   0.118   1.239  0.00  0.00     0.060 C 
BRANCH   7   8
ATOM      8  C2' I4B d   1      -1.945  -0.955   2.309  0.00  0.00    -0.013 C 
ATOM      9  C4' I4B d   1      -0.668  -1.753   2.288  0.00  0.00     0.013 C 
ATOM     10  C3' I4B d   1      -2.143  -0.284   3.636  0.00  0.00     0.013 C 
ENDBRANCH   7   8
ENDBRANCH   1   7
TORSDOF 2
ENDMDL
