MODEL 1
REMARK minimizedAffinity 5.94596481
REMARK minimizedRMSD -1
REMARK  3 active torsions:
REMARK  status: ('A' for Active; 'I' for Inactive)
REMARK    1  A    between atoms: C3'_2  and  C2'_3 
REMARK    2  A    between atoms: C2'_3  and  C1'_4 
REMARK    3  A    between atoms: C1'_4  and  C1_5 
ROOT
ATOM      1  C1  N4B d   1       0.553   1.065   0.273  0.00  0.00    -0.075 A 
ATOM      2  C2  N4B d   1       1.379   1.535  -0.771  0.00  0.00     0.002 A 
ATOM      3  C3  N4B d   1       2.739   1.604  -0.592  0.00  0.00     0.002 A 
ATOM      4  C4  N4B d   1       3.291   1.227   0.623  0.00  0.00    -0.004 A 
ATOM      5  C5  N4B d   1       2.488   0.750   1.617  0.00  0.00     0.002 A 
ATOM      6  C6  N4B d   1       1.120   0.671   1.450  0.00  0.00     0.002 A 
ENDROOT
BRANCH   1   7
ATOM      7  C1' N4B d   1      -0.947   1.052   0.155  0.00  0.00     0.057 C 
BRANCH   7   8
ATOM      8  C2' N4B d   1      -1.335   1.194  -1.314  0.00  0.00     0.009 C 
BRANCH   8   9
ATOM      9  C3' N4B d   1      -2.841   1.166  -1.510  0.00  0.00     0.004 C 
ATOM     10  C4' N4B d   1      -3.258   1.626  -2.875  0.00  0.00     0.003 C 
ENDBRANCH   8   9
ENDBRANCH   7   8
ENDBRANCH   1   7
TORSDOF 3
ENDMDL
