MODEL 1
REMARK minimizedAffinity -1.65760565
REMARK minimizedRMSD -1
REMARK  3 active torsions:
REMARK  status: ('A' for Active; 'I' for Inactive)
REMARK    1  A    between atoms: C3'_2  and  C2'_3 
REMARK    2  A    between atoms: C2'_3  and  C1'_4 
REMARK    3  A    between atoms: C1'_4  and  C1_5 
ROOT
ATOM      1  C1  N4B d   1       0.415   0.243   0.025  0.00  0.00    -0.075 A 
ATOM      2  C2  N4B d   1       0.684  -1.062   0.494  0.00  0.00     0.002 A 
ATOM      3  C3  N4B d   1       1.946  -1.388   0.928  0.00  0.00     0.002 A 
ATOM      4  C4  N4B d   1       2.953  -0.436   0.886  0.00  0.00    -0.004 A 
ATOM      5  C5  N4B d   1       2.679   0.829   0.456  0.00  0.00     0.002 A 
ATOM      6  C6  N4B d   1       1.415   1.172   0.020  0.00  0.00     0.002 A 
ENDROOT
BRANCH   1   7
ATOM      7  C1' N4B d   1      -0.926   0.622  -0.541  0.00  0.00     0.057 C 
BRANCH   7   8
ATOM      8  C2' N4B d   1      -1.210  -0.233  -1.772  0.00  0.00     0.009 C 
BRANCH   8   9
ATOM      9  C3' N4B d   1      -2.538   0.125  -2.418  0.00  0.00     0.004 C 
ATOM     10  C4' N4B d   1      -2.409   0.431  -3.880  0.00  0.00     0.003 C 
ENDBRANCH   8   9
ENDBRANCH   7   8
ENDBRANCH   1   7
TORSDOF 3
ENDMDL
