MODEL 1
REMARK minimizedAffinity 14.8896151
REMARK minimizedRMSD -1
REMARK  1 active torsions:
REMARK  status: ('A' for Active; 'I' for Inactive)
REMARK    1  A    between atoms: C1_2  and  C2_3 
ROOT
ATOM      1  C2  UNL d   1      -0.005   3.551  -5.160  0.00  0.00    -0.073 A 
ATOM      2  C3  UNL d   1       0.918   4.185  -5.999  0.00  0.00    -0.002 A 
ATOM      3  C4  UNL d   1       2.260   3.804  -5.986  0.00  0.00     0.004 A 
ATOM      4  C5  UNL d   1       2.692   2.783  -5.140  0.00  0.00    -0.004 A 
ATOM      5  C6  UNL d   1       1.783   2.129  -4.302  0.00  0.00    -0.075 A 
ATOM      6  C7  UNL d   1       2.232   1.030  -3.384  0.00  0.00     0.076 C 
ATOM      7  C8  UNL d   1       0.437   2.519  -4.319  0.00  0.00     0.001 A 
ENDROOT
BRANCH   1   8
ATOM      8  C1  UNL d   1      -1.457   3.953  -5.176  0.00  0.00     0.053 C 
ATOM      9  C   UNL d   1      -1.691   5.209  -6.000  0.00  0.00     0.018 C 
ENDBRANCH   1   8
TORSDOF 1
ENDMDL
