MODEL 1
REMARK minimizedAffinity -1.88828862
REMARK minimizedRMSD -1
REMARK  1 active torsions:
REMARK  status: ('A' for Active; 'I' for Inactive)
REMARK    1  A    between atoms: C1_2  and  C2_3 
ROOT
ATOM      1  C2  UNL d   1      -5.249   5.379  -3.509  0.00  0.00    -0.073 A 
ATOM      2  C3  UNL d   1      -4.066   5.906  -4.040  0.00  0.00    -0.002 A 
ATOM      3  C4  UNL d   1      -3.508   5.358  -5.196  0.00  0.00     0.004 A 
ATOM      4  C5  UNL d   1      -4.129   4.285  -5.835  0.00  0.00    -0.004 A 
ATOM      5  C6  UNL d   1      -5.318   3.753  -5.326  0.00  0.00    -0.075 A 
ATOM      6  C7  UNL d   1      -5.998   2.597  -6.000  0.00  0.00     0.076 C 
ATOM      7  C8  UNL d   1      -5.871   4.307  -4.163  0.00  0.00     0.001 A 
ENDROOT
BRANCH   1   8
ATOM      8  C1  UNL d   1      -5.858   5.972  -2.264  0.00  0.00     0.053 C 
ATOM      9  C   UNL d   1      -5.956   4.955  -1.138  0.00  0.00     0.018 C 
ENDBRANCH   1   8
TORSDOF 1
ENDMDL
