MODEL 1
REMARK minimizedAffinity 13.9621019
REMARK minimizedRMSD -1
REMARK  1 active torsions:
REMARK  status: ('A' for Active; 'I' for Inactive)
REMARK    1  A    between atoms: C1_2  and  C2_3 
ROOT
ATOM      1  C2  UNL d   1      -4.838  -2.968  -2.181  0.00  0.00    -0.073 A 
ATOM      2  C3  UNL d   1      -5.998  -3.374  -1.512  0.00  0.00    -0.002 A 
ATOM      3  C4  UNL d   1      -5.995  -4.536  -0.738  0.00  0.00     0.004 A 
ATOM      4  C5  UNL d   1      -4.833  -5.298  -0.621  0.00  0.00    -0.004 A 
ATOM      5  C6  UNL d   1      -3.661  -4.902  -1.273  0.00  0.00    -0.075 A 
ATOM      6  C7  UNL d   1      -2.403  -5.712  -1.159  0.00  0.00     0.076 C 
ATOM      7  C8  UNL d   1      -3.672  -3.736  -2.050  0.00  0.00     0.001 A 
ENDROOT
BRANCH   1   8
ATOM      8  C1  UNL d   1      -4.835  -1.710  -3.012  0.00  0.00     0.053 C 
ATOM      9  C   UNL d   1      -3.696  -0.778  -2.630  0.00  0.00     0.018 C 
ENDBRANCH   1   8
TORSDOF 1
ENDMDL
