MODEL 1
REMARK minimizedAffinity -3.98154593
REMARK minimizedRMSD -1
REMARK  1 active torsions:
REMARK  status: ('A' for Active; 'I' for Inactive)
REMARK    1  A    between atoms: C1_2  and  C2_3 
ROOT
ATOM      1  C2  UNL d   1      -5.223   3.304  -2.222  0.00  0.00    -0.073 A 
ATOM      2  C3  UNL d   1      -4.417   2.271  -2.715  0.00  0.00    -0.002 A 
ATOM      3  C4  UNL d   1      -3.695   2.442  -3.897  0.00  0.00     0.004 A 
ATOM      4  C5  UNL d   1      -3.766   3.649  -4.593  0.00  0.00    -0.004 A 
ATOM      5  C6  UNL d   1      -4.556   4.697  -4.111  0.00  0.00    -0.075 A 
ATOM      6  C7  UNL d   1      -4.644   6.000  -4.850  0.00  0.00     0.076 C 
ATOM      7  C8  UNL d   1      -5.280   4.516  -2.925  0.00  0.00     0.001 A 
ENDROOT
BRANCH   1   8
ATOM      8  C1  UNL d   1      -5.999   3.126  -0.943  0.00  0.00     0.053 C 
ATOM      9  C   UNL d   1      -5.611   1.850  -0.214  0.00  0.00     0.018 C 
ENDBRANCH   1   8
TORSDOF 1
ENDMDL
