MODEL 1
REMARK minimizedAffinity 2.6422298
REMARK minimizedRMSD -1
REMARK  1 active torsions:
REMARK  status: ('A' for Active; 'I' for Inactive)
REMARK    1  A    between atoms: C1_2  and  C2_3 
ROOT
ATOM      1  C2  UNL d   1      -2.326  -3.204  -0.040  0.00  0.00    -0.073 A 
ATOM      2  C3  UNL d   1      -1.991  -3.034  -1.388  0.00  0.00    -0.002 A 
ATOM      3  C4  UNL d   1      -2.673  -3.742  -2.379  0.00  0.00     0.004 A 
ATOM      4  C5  UNL d   1      -3.699  -4.621  -2.033  0.00  0.00    -0.004 A 
ATOM      5  C6  UNL d   1      -4.056  -4.796  -0.692  0.00  0.00    -0.075 A 
ATOM      6  C7  UNL d   1      -5.156  -5.740  -0.304  0.00  0.00     0.076 C 
ATOM      7  C8  UNL d   1      -3.365  -4.084   0.297  0.00  0.00     0.001 A 
ENDROOT
BRANCH   1   8
ATOM      8  C1  UNL d   1      -1.597  -2.437   1.033  0.00  0.00     0.053 C 
ATOM      9  C   UNL d   1      -2.062  -0.991   1.115  0.00  0.00     0.018 C 
ENDBRANCH   1   8
TORSDOF 1
ENDMDL
