MODEL 1
REMARK minimizedAffinity 8.96593285
REMARK minimizedRMSD -1
REMARK  1 active torsions:
REMARK  status: ('A' for Active; 'I' for Inactive)
REMARK    1  A    between atoms: C1_2  and  C2_3 
ROOT
ATOM      1  C2  UNL d   1       5.214   4.743   1.225  0.00  0.00    -0.073 A 
ATOM      2  C3  UNL d   1       4.863   5.967   0.644  0.00  0.00    -0.002 A 
ATOM      3  C4  UNL d   1       4.166   5.999  -0.565  0.00  0.00     0.004 A 
ATOM      4  C5  UNL d   1       3.807   4.810  -1.200  0.00  0.00    -0.004 A 
ATOM      5  C6  UNL d   1       4.138   3.577  -0.629  0.00  0.00    -0.075 A 
ATOM      6  C7  UNL d   1       3.762   2.290  -1.301  0.00  0.00     0.076 C 
ATOM      7  C8  UNL d   1       4.841   3.553   0.583  0.00  0.00     0.001 A 
ENDROOT
BRANCH   1   8
ATOM      8  C1  UNL d   1       5.962   4.703   2.533  0.00  0.00     0.053 C 
ATOM      9  C   UNL d   1       5.980   3.307   3.136  0.00  0.00     0.018 C 
ENDBRANCH   1   8
TORSDOF 1
ENDMDL
