MODEL 1
REMARK minimizedAffinity -0.602554023
REMARK minimizedRMSD -1
REMARK  1 active torsions:
REMARK  status: ('A' for Active; 'I' for Inactive)
REMARK    1  A    between atoms: C1_2  and  C2_3 
ROOT
ATOM      1  C2  UNL d   1      -3.184   5.822  -4.810  0.00  0.00    -0.073 A 
ATOM      2  C3  UNL d   1      -3.904   6.000  -5.996  0.00  0.00    -0.002 A 
ATOM      3  C4  UNL d   1      -5.295   5.888  -6.000  0.00  0.00     0.004 A 
ATOM      4  C5  UNL d   1      -5.979   5.604  -4.818  0.00  0.00    -0.004 A 
ATOM      5  C6  UNL d   1      -5.278   5.434  -3.620  0.00  0.00    -0.075 A 
ATOM      6  C7  UNL d   1      -5.999   5.126  -2.340  0.00  0.00     0.076 C 
ATOM      7  C8  UNL d   1      -3.881   5.546  -3.625  0.00  0.00     0.001 A 
ENDROOT
BRANCH   1   8
ATOM      8  C1  UNL d   1      -1.682   5.948  -4.800  0.00  0.00     0.053 C 
ATOM      9  C   UNL d   1      -1.037   5.170  -5.936  0.00  0.00     0.018 C 
ENDBRANCH   1   8
TORSDOF 1
ENDMDL
