MODEL 1
REMARK minimizedAffinity 14.5204573
REMARK minimizedRMSD -1
REMARK  1 active torsions:
REMARK  status: ('A' for Active; 'I' for Inactive)
REMARK    1  A    between atoms: C1_2  and  C2_3 
ROOT
ATOM      1  C2  UNL d   1      -0.030   3.808  -5.455  0.00  0.00    -0.073 A 
ATOM      2  C3  UNL d   1      -1.098   2.954  -5.753  0.00  0.00    -0.002 A 
ATOM      3  C4  UNL d   1      -1.122   1.653  -5.249  0.00  0.00     0.004 A 
ATOM      4  C5  UNL d   1      -0.084   1.195  -4.437  0.00  0.00    -0.004 A 
ATOM      5  C6  UNL d   1       0.986   2.038  -4.118  0.00  0.00    -0.075 A 
ATOM      6  C7  UNL d   1       2.111   1.560  -3.248  0.00  0.00     0.076 C 
ATOM      7  C8  UNL d   1       1.004   3.342  -4.631  0.00  0.00     0.001 A 
ENDROOT
BRANCH   1   8
ATOM      8  C1  UNL d   1      -0.003   5.215  -5.993  0.00  0.00     0.053 C 
ATOM      9  C   UNL d   1      -1.244   6.000  -5.598  0.00  0.00     0.018 C 
ENDBRANCH   1   8
TORSDOF 1
ENDMDL
