MODEL 1
REMARK minimizedAffinity 14.5791206
REMARK minimizedRMSD -1
REMARK  1 active torsions:
REMARK  status: ('A' for Active; 'I' for Inactive)
REMARK    1  A    between atoms: C1_2  and  C2_3 
ROOT
ATOM      1  C2  UNL d   1      -0.714   3.348  -5.984  0.00  0.00    -0.073 A 
ATOM      2  C3  UNL d   1      -1.533   4.482  -5.988  0.00  0.00    -0.002 A 
ATOM      3  C4  UNL d   1      -0.970   5.759  -5.986  0.00  0.00     0.004 A 
ATOM      4  C5  UNL d   1       0.416   5.914  -5.988  0.00  0.00    -0.004 A 
ATOM      5  C6  UNL d   1       1.252   4.793  -5.997  0.00  0.00    -0.075 A 
ATOM      6  C7  UNL d   1       2.745   4.943  -5.997  0.00  0.00     0.076 C 
ATOM      7  C8  UNL d   1       0.678   3.514  -5.995  0.00  0.00     0.001 A 
ENDROOT
BRANCH   1   8
ATOM      8  C1  UNL d   1      -1.318   1.967  -5.992  0.00  0.00     0.053 C 
ATOM      9  C   UNL d   1      -1.053   1.221  -4.694  0.00  0.00     0.018 C 
ENDBRANCH   1   8
TORSDOF 1
ENDMDL
