MODEL 1
REMARK minimizedAffinity 14.7049227
REMARK minimizedRMSD -1
REMARK  1 active torsions:
REMARK  status: ('A' for Active; 'I' for Inactive)
REMARK    1  A    between atoms: C1_2  and  C2_3 
ROOT
ATOM      1  C2  UNL d   1      -2.768  -3.292   0.413  0.00  0.00    -0.073 A 
ATOM      2  C3  UNL d   1      -2.031  -3.898   1.437  0.00  0.00    -0.002 A 
ATOM      3  C4  UNL d   1      -1.631  -3.158   2.551  0.00  0.00     0.004 A 
ATOM      4  C5  UNL d   1      -1.970  -1.809   2.655  0.00  0.00    -0.004 A 
ATOM      5  C6  UNL d   1      -2.716  -1.188   1.648  0.00  0.00    -0.075 A 
ATOM      6  C7  UNL d   1      -3.086   0.262   1.744  0.00  0.00     0.076 C 
ATOM      7  C8  UNL d   1      -3.111  -1.938   0.532  0.00  0.00     0.001 A 
ENDROOT
BRANCH   1   8
ATOM      8  C1  UNL d   1      -3.207  -4.089  -0.788  0.00  0.00     0.053 C 
ATOM      9  C   UNL d   1      -4.630  -4.602  -0.642  0.00  0.00     0.018 C 
ENDBRANCH   1   8
TORSDOF 1
ENDMDL
