MODEL 1
REMARK minimizedAffinity 8.83047581
REMARK minimizedRMSD -1
REMARK  1 active torsions:
REMARK  status: ('A' for Active; 'I' for Inactive)
REMARK    1  A    between atoms: C1_2  and  C2_3 
ROOT
ATOM      1  C2  UNL d   1      -0.112   0.354   0.504  0.00  0.00    -0.073 A 
ATOM      2  C3  UNL d   1       0.398  -0.944   0.619  0.00  0.00    -0.002 A 
ATOM      3  C4  UNL d   1      -0.204  -1.863   1.479  0.00  0.00     0.004 A 
ATOM      4  C5  UNL d   1      -1.325  -1.498   2.225  0.00  0.00    -0.004 A 
ATOM      5  C6  UNL d   1      -1.856  -0.209   2.114  0.00  0.00    -0.075 A 
ATOM      6  C7  UNL d   1      -3.059   0.201   2.911  0.00  0.00     0.076 C 
ATOM      7  C8  UNL d   1      -1.244   0.710   1.251  0.00  0.00     0.001 A 
ENDROOT
BRANCH   1   8
ATOM      8  C1  UNL d   1       0.531   1.349  -0.428  0.00  0.00     0.053 C 
ATOM      9  C   UNL d   1       0.506   2.760   0.139  0.00  0.00     0.018 C 
ENDBRANCH   1   8
TORSDOF 1
ENDMDL
