MODEL 1
REMARK minimizedAffinity 4.22724962
REMARK minimizedRMSD -1
REMARK  1 active torsions:
REMARK  status: ('A' for Active; 'I' for Inactive)
REMARK    1  A    between atoms: C1_2  and  C2_3 
ROOT
ATOM      1  C2  UNL d   1      -1.958   4.323  -5.887  0.00  0.00    -0.073 A 
ATOM      2  C3  UNL d   1      -2.354   5.665  -5.925  0.00  0.00    -0.002 A 
ATOM      3  C4  UNL d   1      -3.707   5.999  -5.983  0.00  0.00     0.004 A 
ATOM      4  C5  UNL d   1      -4.678   4.998  -5.996  0.00  0.00    -0.004 A 
ATOM      5  C6  UNL d   1      -4.303   3.651  -5.947  0.00  0.00    -0.075 A 
ATOM      6  C7  UNL d   1      -5.335   2.562  -5.963  0.00  0.00     0.076 C 
ATOM      7  C8  UNL d   1      -2.942   3.323  -5.892  0.00  0.00     0.001 A 
ENDROOT
BRANCH   1   8
ATOM      8  C1  UNL d   1      -0.498   3.957  -5.818  0.00  0.00     0.053 C 
ATOM      9  C   UNL d   1       0.402   5.173  -5.970  0.00  0.00     0.018 C 
ENDBRANCH   1   8
TORSDOF 1
ENDMDL
