MODEL 1
REMARK minimizedAffinity 8.10481548
REMARK minimizedRMSD -1
REMARK  1 active torsions:
REMARK  status: ('A' for Active; 'I' for Inactive)
REMARK    1  A    between atoms: C1_2  and  C2_3 
ROOT
ATOM      1  C2  UNL d   1       1.042  -0.840   0.220  0.00  0.00    -0.073 A 
ATOM      2  C3  UNL d   1       2.162  -1.642   0.469  0.00  0.00    -0.002 A 
ATOM      3  C4  UNL d   1       2.988  -2.044  -0.581  0.00  0.00     0.004 A 
ATOM      4  C5  UNL d   1       2.709  -1.643  -1.888  0.00  0.00    -0.004 A 
ATOM      5  C6  UNL d   1       1.601  -0.831  -2.154  0.00  0.00    -0.075 A 
ATOM      6  C7  UNL d   1       1.286  -0.392  -3.554  0.00  0.00     0.076 C 
ATOM      7  C8  UNL d   1       0.775  -0.434  -1.095  0.00  0.00     0.001 A 
ENDROOT
BRANCH   1   8
ATOM      8  C1  UNL d   1       0.151  -0.399   1.352  0.00  0.00     0.053 C 
ATOM      9  C   UNL d   1      -1.240  -1.005   1.252  0.00  0.00     0.018 C 
ENDBRANCH   1   8
TORSDOF 1
ENDMDL
