MODEL 1
REMARK minimizedAffinity 19.3347607
REMARK minimizedRMSD -1
REMARK  0 active torsions:
REMARK  status: ('A' for Active; 'I' for Inactive)
ROOT
ATOM      1  C   UNL d   1      -4.833   5.064  -0.726  0.00  0.00    -0.002 A 
ATOM      2  C1  UNL d   1      -4.281   5.855   0.271  0.00  0.00     0.010 A 
ATOM      3  C2  UNL d   1      -3.085   5.486   0.890  0.00  0.00     0.041 A 
ATOM      4  C3  UNL d   1      -2.447   4.297   0.485  0.00  0.00    -0.075 A 
ATOM      5  S   UNL d   1      -0.974   3.647   1.102  0.00  0.00     0.015 SA
ATOM      6  C4  UNL d   1      -1.043   2.303   0.056  0.00  0.00     0.022 A 
ATOM      7  C5  UNL d   1      -2.155   2.334  -0.751  0.00  0.00     0.026 A 
ATOM      8  C6  UNL d   1      -2.983   3.484  -0.517  0.00  0.00    -0.082 A 
ATOM      9  C7  UNL d   1      -4.197   3.885  -1.125  0.00  0.00     0.045 A 
ENDROOT
TORSDOF 0
ENDMDL
