MODEL 1
REMARK minimizedAffinity 16.9743958
REMARK minimizedRMSD -1
REMARK  0 active torsions:
REMARK  status: ('A' for Active; 'I' for Inactive)
ROOT
ATOM      1  C   UNL d   1      -5.996   2.232   5.969  0.00  0.00    -0.002 A 
ATOM      2  C1  UNL d   1      -5.587   3.326   5.219  0.00  0.00     0.010 A 
ATOM      3  C2  UNL d   1      -4.399   3.281   4.488  0.00  0.00     0.041 A 
ATOM      4  C3  UNL d   1      -3.622   2.107   4.521  0.00  0.00    -0.075 A 
ATOM      5  S   UNL d   1      -2.131   1.823   3.703  0.00  0.00     0.015 SA
ATOM      6  C4  UNL d   1      -2.002   0.243   4.329  0.00  0.00     0.022 A 
ATOM      7  C5  UNL d   1      -3.062  -0.076   5.144  0.00  0.00     0.026 A 
ATOM      8  C6  UNL d   1      -4.013   0.992   5.268  0.00  0.00    -0.082 A 
ATOM      9  C7  UNL d   1      -5.223   1.069   6.000  0.00  0.00     0.045 A 
ENDROOT
TORSDOF 0
ENDMDL
