MODEL 1
REMARK minimizedAffinity 18.296917
REMARK minimizedRMSD -1
REMARK  0 active torsions:
REMARK  status: ('A' for Active; 'I' for Inactive)
ROOT
ATOM      1  C   UNL d   1      -2.843  -1.861   4.991  0.00  0.00    -0.002 A 
ATOM      2  C1  UNL d   1      -2.555  -0.560   5.379  0.00  0.00     0.010 A 
ATOM      3  C2  UNL d   1      -2.214   0.405   4.430  0.00  0.00     0.041 A 
ATOM      4  C3  UNL d   1      -2.170   0.038   3.070  0.00  0.00    -0.075 A 
ATOM      5  S   UNL d   1      -1.779   1.053   1.732  0.00  0.00     0.015 SA
ATOM      6  C4  UNL d   1      -1.987  -0.217   0.614  0.00  0.00     0.022 A 
ATOM      7  C5  UNL d   1      -2.345  -1.393   1.229  0.00  0.00     0.026 A 
ATOM      8  C6  UNL d   1      -2.458  -1.265   2.655  0.00  0.00    -0.082 A 
ATOM      9  C7  UNL d   1      -2.798  -2.221   3.642  0.00  0.00     0.045 A 
ENDROOT
TORSDOF 0
ENDMDL
