MODEL 1
REMARK minimizedAffinity 11.7890692
REMARK minimizedRMSD -1
REMARK  0 active torsions:
REMARK  status: ('A' for Active; 'I' for Inactive)
ROOT
ATOM      1  C   UNL d   1       3.483  -1.497   4.264  0.00  0.00    -0.002 A 
ATOM      2  C1  UNL d   1       2.602  -2.470   3.814  0.00  0.00     0.010 A 
ATOM      3  C2  UNL d   1       2.847  -3.821   4.065  0.00  0.00     0.041 A 
ATOM      4  C3  UNL d   1       4.003  -4.182   4.784  0.00  0.00    -0.075 A 
ATOM      5  S   UNL d   1       4.508  -5.775   5.210  0.00  0.00     0.015 SA
ATOM      6  C4  UNL d   1       5.905  -5.202   6.000  0.00  0.00     0.022 A 
ATOM      7  C5  UNL d   1       6.000  -3.832   5.949  0.00  0.00     0.026 A 
ATOM      8  C6  UNL d   1       4.905  -3.221   5.249  0.00  0.00    -0.082 A 
ATOM      9  C7  UNL d   1       4.629  -1.859   4.977  0.00  0.00     0.045 A 
ENDROOT
TORSDOF 0
ENDMDL
