MODEL 1
REMARK minimizedAffinity 0.830797732
REMARK minimizedRMSD -1
REMARK  0 active torsions:
REMARK  status: ('A' for Active; 'I' for Inactive)
ROOT
ATOM      1  C   UNL d   1       1.476  -3.262   5.381  0.00  0.00    -0.002 A 
ATOM      2  C1  UNL d   1       1.926  -2.102   5.995  0.00  0.00     0.010 A 
ATOM      3  C2  UNL d   1       3.265  -1.718   5.892  0.00  0.00     0.041 A 
ATOM      4  C3  UNL d   1       4.151  -2.527   5.153  0.00  0.00    -0.075 A 
ATOM      5  S   UNL d   1       5.833  -2.254   4.891  0.00  0.00     0.015 SA
ATOM      6  C4  UNL d   1       5.993  -3.671   3.957  0.00  0.00     0.022 A 
ATOM      7  C5  UNL d   1       4.802  -4.347   3.838  0.00  0.00     0.026 A 
ATOM      8  C6  UNL d   1       3.720  -3.699   4.526  0.00  0.00    -0.082 A 
ATOM      9  C7  UNL d   1       2.358  -4.062   4.649  0.00  0.00     0.045 A 
ENDROOT
TORSDOF 0
ENDMDL
