MODEL 1
REMARK minimizedAffinity 16.739212
REMARK minimizedRMSD -1
REMARK  0 active torsions:
REMARK  status: ('A' for Active; 'I' for Inactive)
ROOT
ATOM      1  C   UNL d   1       4.470  -0.744   4.729  0.00  0.00    -0.002 A 
ATOM      2  C1  UNL d   1       5.766  -1.212   4.894  0.00  0.00     0.010 A 
ATOM      3  C2  UNL d   1       6.000  -2.531   5.287  0.00  0.00     0.041 A 
ATOM      4  C3  UNL d   1       4.899  -3.381   5.513  0.00  0.00    -0.075 A 
ATOM      5  S   UNL d   1       4.944  -5.034   6.000  0.00  0.00     0.015 SA
ATOM      6  C4  UNL d   1       3.244  -5.158   6.000  0.00  0.00     0.022 A 
ATOM      7  C5  UNL d   1       2.641  -3.976   5.640  0.00  0.00     0.026 A 
ATOM      8  C6  UNL d   1       3.584  -2.932   5.353  0.00  0.00    -0.082 A 
ATOM      9  C7  UNL d   1       3.380  -1.589   4.954  0.00  0.00     0.045 A 
ENDROOT
TORSDOF 0
ENDMDL
