MODEL 1
REMARK minimizedAffinity 6.29773331
REMARK minimizedRMSD -1
REMARK  0 active torsions:
REMARK  status: ('A' for Active; 'I' for Inactive)
ROOT
ATOM      1  C   UNL d   1       5.217  -4.944  -6.000  0.00  0.00    -0.002 A 
ATOM      2  C1  UNL d   1       3.832  -4.855  -5.967  0.00  0.00     0.010 A 
ATOM      3  C2  UNL d   1       3.202  -3.884  -5.187  0.00  0.00     0.041 A 
ATOM      4  C3  UNL d   1       3.993  -2.993  -4.435  0.00  0.00    -0.075 A 
ATOM      5  S   UNL d   1       3.440  -1.723  -3.409  0.00  0.00     0.015 SA
ATOM      6  C4  UNL d   1       5.029  -1.268  -2.991  0.00  0.00     0.022 A 
ATOM      7  C5  UNL d   1       5.971  -2.055  -3.610  0.00  0.00     0.026 A 
ATOM      8  C6  UNL d   1       5.389  -3.063  -4.453  0.00  0.00    -0.082 A 
ATOM      9  C7  UNL d   1       5.999  -4.059  -5.253  0.00  0.00     0.045 A 
ENDROOT
TORSDOF 0
ENDMDL
