MODEL 1
REMARK minimizedAffinity 13.6643429
REMARK minimizedRMSD -1
REMARK  0 active torsions:
REMARK  status: ('A' for Active; 'I' for Inactive)
ROOT
ATOM      1  C   UNL d   1      -1.645  -1.158   5.024  0.00  0.00    -0.002 A 
ATOM      2  C1  UNL d   1      -2.411  -2.255   5.393  0.00  0.00     0.010 A 
ATOM      3  C2  UNL d   1      -3.761  -2.103   5.713  0.00  0.00     0.041 A 
ATOM      4  C3  UNL d   1      -4.336  -0.818   5.653  0.00  0.00    -0.075 A 
ATOM      5  S   UNL d   1      -5.970  -0.393   6.000  0.00  0.00     0.015 SA
ATOM      6  C4  UNL d   1      -5.691   1.255   5.665  0.00  0.00     0.022 A 
ATOM      7  C5  UNL d   1      -4.388   1.492   5.297  0.00  0.00     0.026 A 
ATOM      8  C6  UNL d   1      -3.586   0.302   5.283  0.00  0.00    -0.082 A 
ATOM      9  C7  UNL d   1      -2.219   0.115   4.966  0.00  0.00     0.045 A 
ENDROOT
TORSDOF 0
ENDMDL
