MODEL 1
REMARK minimizedAffinity 9.5688715
REMARK minimizedRMSD -1
REMARK  0 active torsions:
REMARK  status: ('A' for Active; 'I' for Inactive)
ROOT
ATOM      1  C   UNL d   1      -1.747  -5.524  -5.997  0.00  0.00    -0.002 A 
ATOM      2  C1  UNL d   1      -3.019  -6.000  -5.713  0.00  0.00     0.010 A 
ATOM      3  C2  UNL d   1      -3.736  -5.503  -4.623  0.00  0.00     0.041 A 
ATOM      4  C3  UNL d   1      -3.148  -4.509  -3.816  0.00  0.00    -0.075 A 
ATOM      5  S   UNL d   1      -3.839  -3.752  -2.430  0.00  0.00     0.015 SA
ATOM      6  C4  UNL d   1      -2.462  -2.779  -2.182  0.00  0.00     0.022 A 
ATOM      7  C5  UNL d   1      -1.489  -3.013  -3.125  0.00  0.00     0.026 A 
ATOM      8  C6  UNL d   1      -1.869  -4.014  -4.082  0.00  0.00    -0.082 A 
ATOM      9  C7  UNL d   1      -1.167  -4.538  -5.194  0.00  0.00     0.045 A 
ENDROOT
TORSDOF 0
ENDMDL
