MODEL 1
REMARK minimizedAffinity -4.67919588
REMARK minimizedRMSD -1
REMARK  1 active torsions:
REMARK  status: ('A' for Active; 'I' for Inactive)
REMARK    1  A    between atoms: C1_2  and  C2_3 
ROOT
ATOM      1  C2  UNL d   1       0.781  -0.551  -0.383  0.00  0.00    -0.081 A 
ATOM      2  C3  UNL d   1      -0.054   0.111   0.526  0.00  0.00     0.006 A 
ATOM      3  C4  UNL d   1       0.366   1.290   1.145  0.00  0.00     0.002 A 
ATOM      4  C5  UNL d   1       1.624   1.832   0.860  0.00  0.00    -0.080 A 
ATOM      5  C6  UNL d   1       2.075   3.114   1.495  0.00  0.00     0.076 C 
ATOM      6  C7  UNL d   1       2.466   1.162  -0.034  0.00  0.00     0.002 A 
ATOM      7  C8  UNL d   1       2.046  -0.018  -0.653  0.00  0.00     0.006 A 
ENDROOT
BRANCH   1   8
ATOM      8  C1  UNL d   1       0.306  -1.788  -1.101  0.00  0.00     0.054 C 
ATOM      9  C   UNL d   1      -1.201  -1.757  -1.318  0.00  0.00     0.018 C 
ENDBRANCH   1   8
TORSDOF 1
ENDMDL
