MODEL 1
REMARK minimizedAffinity -2.47860909
REMARK minimizedRMSD -1
REMARK  1 active torsions:
REMARK  status: ('A' for Active; 'I' for Inactive)
REMARK    1  A    between atoms: C1_2  and  C2_3 
ROOT
ATOM      1  C2  UNL d   1      -0.495  -1.101  -0.789  0.00  0.00    -0.081 A 
ATOM      2  C3  UNL d   1      -0.888  -1.097   0.555  0.00  0.00     0.006 A 
ATOM      3  C4  UNL d   1      -0.486  -0.065   1.407  0.00  0.00     0.002 A 
ATOM      4  C5  UNL d   1       0.307   0.983   0.928  0.00  0.00    -0.080 A 
ATOM      5  C6  UNL d   1       0.720   2.112   1.825  0.00  0.00     0.076 C 
ATOM      6  C7  UNL d   1       0.714   0.969  -0.410  0.00  0.00     0.002 A 
ATOM      7  C8  UNL d   1       0.314  -0.062  -1.262  0.00  0.00     0.006 A 
ENDROOT
BRANCH   1   8
ATOM      8  C1  UNL d   1      -0.980  -2.178  -1.725  0.00  0.00     0.054 C 
ATOM      9  C   UNL d   1      -1.812  -1.593  -2.858  0.00  0.00     0.018 C 
ENDBRANCH   1   8
TORSDOF 1
ENDMDL
