MODEL 1
REMARK minimizedAffinity -5.08401155
REMARK minimizedRMSD -1
REMARK  1 active torsions:
REMARK  status: ('A' for Active; 'I' for Inactive)
REMARK    1  A    between atoms: C1_2  and  C2_3 
ROOT
ATOM      1  C2  UNL d   1      -0.801  -0.722  -0.472  0.00  0.00    -0.081 A 
ATOM      2  C3  UNL d   1      -1.024  -0.771   0.909  0.00  0.00     0.006 A 
ATOM      3  C4  UNL d   1      -0.491   0.211   1.748  0.00  0.00     0.002 A 
ATOM      4  C5  UNL d   1       0.266   1.261   1.218  0.00  0.00    -0.080 A 
ATOM      5  C6  UNL d   1       0.819   2.339   2.103  0.00  0.00     0.076 C 
ATOM      6  C7  UNL d   1       0.504   1.300  -0.160  0.00  0.00     0.002 A 
ATOM      7  C8  UNL d   1      -0.029   0.318  -0.999  0.00  0.00     0.006 A 
ENDROOT
BRANCH   1   8
ATOM      8  C1  UNL d   1      -1.429  -1.744  -1.386  0.00  0.00     0.054 C 
ATOM      9  C   UNL d   1      -1.591  -1.198  -2.798  0.00  0.00     0.018 C 
ENDBRANCH   1   8
TORSDOF 1
ENDMDL
