MODEL 1
REMARK minimizedAffinity -2.02178097
REMARK minimizedRMSD -1
REMARK  1 active torsions:
REMARK  status: ('A' for Active; 'I' for Inactive)
REMARK    1  A    between atoms: C1_2  and  C2_3 
ROOT
ATOM      1  C2  UNL d   1       0.528   0.934   1.073  0.00  0.00    -0.081 A 
ATOM      2  C3  UNL d   1      -0.793   0.481   1.182  0.00  0.00     0.006 A 
ATOM      3  C4  UNL d   1      -1.318  -0.403   0.237  0.00  0.00     0.002 A 
ATOM      4  C5  UNL d   1      -0.530  -0.854  -0.828  0.00  0.00    -0.080 A 
ATOM      5  C6  UNL d   1      -1.073  -1.827  -1.833  0.00  0.00     0.076 C 
ATOM      6  C7  UNL d   1       0.783  -0.388  -0.947  0.00  0.00     0.002 A 
ATOM      7  C8  UNL d   1       1.309   0.497  -0.002  0.00  0.00     0.006 A 
ENDROOT
BRANCH   1   8
ATOM      8  C1  UNL d   1       1.117   1.837   2.127  0.00  0.00     0.054 C 
ATOM      9  C   UNL d   1       2.627   1.951   1.975  0.00  0.00     0.018 C 
ENDBRANCH   1   8
TORSDOF 1
ENDMDL
