MODEL 1
REMARK minimizedAffinity -2.86654067
REMARK minimizedRMSD -1
REMARK  1 active torsions:
REMARK  status: ('A' for Active; 'I' for Inactive)
REMARK    1  A    between atoms: C1_2  and  C2_3 
ROOT
ATOM      1  C2  UNL d   1      -0.920  -2.160  -1.667  0.00  0.00    -0.081 A 
ATOM      2  C3  UNL d   1      -0.625  -1.681  -2.950  0.00  0.00     0.006 A 
ATOM      3  C4  UNL d   1      -1.502  -1.914  -4.012  0.00  0.00     0.002 A 
ATOM      4  C5  UNL d   1      -2.692  -2.621  -3.807  0.00  0.00    -0.080 A 
ATOM      5  C6  UNL d   1      -3.657  -2.851  -4.932  0.00  0.00     0.076 C 
ATOM      6  C7  UNL d   1      -2.978  -3.114  -2.530  0.00  0.00     0.002 A 
ATOM      7  C8  UNL d   1      -2.101  -2.883  -1.468  0.00  0.00     0.006 A 
ENDROOT
BRANCH   1   8
ATOM      8  C1  UNL d   1      -0.007  -1.855  -0.507  0.00  0.00     0.054 C 
ATOM      9  C   UNL d   1      -0.213  -0.435   0.001  0.00  0.00     0.018 C 
ENDBRANCH   1   8
TORSDOF 1
ENDMDL
