MODEL 1
REMARK minimizedAffinity -2.09827781
REMARK minimizedRMSD -1
REMARK  1 active torsions:
REMARK  status: ('A' for Active; 'I' for Inactive)
REMARK    1  A    between atoms: C1_2  and  C2_3 
ROOT
ATOM      1  C2  UNL d   1      -1.009  -1.124  -0.442  0.00  0.00    -0.081 A 
ATOM      2  C3  UNL d   1       0.210  -0.675  -0.965  0.00  0.00     0.006 A 
ATOM      3  C4  UNL d   1       0.996   0.232  -0.251  0.00  0.00     0.002 A 
ATOM      4  C5  UNL d   1       0.582   0.698   1.001  0.00  0.00    -0.080 A 
ATOM      5  C6  UNL d   1       1.432   1.648   1.792  0.00  0.00     0.076 C 
ATOM      6  C7  UNL d   1      -0.643   0.263   1.517  0.00  0.00     0.002 A 
ATOM      7  C8  UNL d   1      -1.430  -0.644   0.803  0.00  0.00     0.006 A 
ENDROOT
BRANCH   1   8
ATOM      8  C1  UNL d   1      -1.828  -2.152  -1.180  0.00  0.00     0.054 C 
ATOM      9  C   UNL d   1      -2.222  -1.654  -2.563  0.00  0.00     0.018 C 
ENDBRANCH   1   8
TORSDOF 1
ENDMDL
