MODEL 1
REMARK minimizedAffinity -1.96287489
REMARK minimizedRMSD -1
REMARK  1 active torsions:
REMARK  status: ('A' for Active; 'I' for Inactive)
REMARK    1  A    between atoms: C1_2  and  C2_3 
ROOT
ATOM      1  C2  UNL d   1      -0.297  -0.687  -0.886  0.00  0.00    -0.081 A 
ATOM      2  C3  UNL d   1      -1.067  -0.656   0.283  0.00  0.00     0.006 A 
ATOM      3  C4  UNL d   1      -0.732   0.206   1.330  0.00  0.00     0.002 A 
ATOM      4  C5  UNL d   1       0.374   1.055   1.223  0.00  0.00    -0.080 A 
ATOM      5  C6  UNL d   1       0.727   2.007   2.327  0.00  0.00     0.076 C 
ATOM      6  C7  UNL d   1       1.155   1.012   0.063  0.00  0.00     0.002 A 
ATOM      7  C8  UNL d   1       0.820   0.150  -0.984  0.00  0.00     0.006 A 
ENDROOT
BRANCH   1   8
ATOM      8  C1  UNL d   1      -0.693  -1.569  -2.042  0.00  0.00     0.054 C 
ATOM      9  C   UNL d   1      -2.197  -1.804  -2.068  0.00  0.00     0.018 C 
ENDBRANCH   1   8
TORSDOF 1
ENDMDL
