MODEL 1
REMARK minimizedAffinity -2.0275445
REMARK minimizedRMSD -1
REMARK  1 active torsions:
REMARK  status: ('A' for Active; 'I' for Inactive)
REMARK    1  A    between atoms: C1_2  and  C2_3 
ROOT
ATOM      1  C2  UNL d   1      -4.875  -3.406  -0.955  0.00  0.00    -0.081 A 
ATOM      2  C3  UNL d   1      -3.543  -3.786  -0.751  0.00  0.00     0.006 A 
ATOM      3  C4  UNL d   1      -2.508  -3.126  -1.417  0.00  0.00     0.002 A 
ATOM      4  C5  UNL d   1      -2.786  -2.069  -2.291  0.00  0.00    -0.080 A 
ATOM      5  C6  UNL d   1      -1.682  -1.332  -2.989  0.00  0.00     0.076 C 
ATOM      6  C7  UNL d   1      -4.118  -1.701  -2.508  0.00  0.00     0.002 A 
ATOM      7  C8  UNL d   1      -5.153  -2.361  -1.844  0.00  0.00     0.006 A 
ENDROOT
BRANCH   1   8
ATOM      8  C1  UNL d   1      -5.989  -4.073  -0.190  0.00  0.00     0.054 C 
ATOM      9  C   UNL d   1      -5.947  -5.585  -0.358  0.00  0.00     0.018 C 
ENDBRANCH   1   8
TORSDOF 1
ENDMDL
