MODEL 1
REMARK minimizedAffinity -4.96324348
REMARK minimizedRMSD -1
REMARK  1 active torsions:
REMARK  status: ('A' for Active; 'I' for Inactive)
REMARK    1  A    between atoms: C1_2  and  C2_3 
ROOT
ATOM      1  C2  UNL d   1      -4.372  -4.055  -1.574  0.00  0.00    -0.081 A 
ATOM      2  C3  UNL d   1      -4.737  -3.367  -2.738  0.00  0.00     0.006 A 
ATOM      3  C4  UNL d   1      -3.859  -2.453  -3.324  0.00  0.00     0.002 A 
ATOM      4  C5  UNL d   1      -2.600  -2.217  -2.762  0.00  0.00    -0.080 A 
ATOM      5  C6  UNL d   1      -1.636  -1.261  -3.399  0.00  0.00     0.076 C 
ATOM      6  C7  UNL d   1      -2.242  -2.891  -1.589  0.00  0.00     0.002 A 
ATOM      7  C8  UNL d   1      -3.120  -3.805  -1.002  0.00  0.00     0.006 A 
ENDROOT
BRANCH   1   8
ATOM      8  C1  UNL d   1      -5.291  -5.090  -0.975  0.00  0.00     0.054 C 
ATOM      9  C   UNL d   1      -5.666  -4.735   0.456  0.00  0.00     0.018 C 
ENDBRANCH   1   8
TORSDOF 1
ENDMDL
