MODEL 1
REMARK minimizedAffinity -6.14793444
REMARK minimizedRMSD -1
REMARK  1 active torsions:
REMARK  status: ('A' for Active; 'I' for Inactive)
REMARK    1  A    between atoms: C1_2  and  C2_3 
ROOT
ATOM      1  C2  UNL d   1       1.690   1.476   0.708  0.00  0.00    -0.081 A 
ATOM      2  C3  UNL d   1       0.989   2.307   1.590  0.00  0.00     0.006 A 
ATOM      3  C4  UNL d   1      -0.303   1.972   2.002  0.00  0.00     0.002 A 
ATOM      4  C5  UNL d   1      -0.912   0.798   1.546  0.00  0.00    -0.080 A 
ATOM      5  C6  UNL d   1      -2.287   0.411   2.004  0.00  0.00     0.076 C 
ATOM      6  C7  UNL d   1      -0.218  -0.024   0.651  0.00  0.00     0.002 A 
ATOM      7  C8  UNL d   1       1.074   0.311   0.238  0.00  0.00     0.006 A 
ENDROOT
BRANCH   1   8
ATOM      8  C1  UNL d   1       3.108   1.801   0.312  0.00  0.00     0.054 C 
ATOM      9  C   UNL d   1       3.954   0.541   0.201  0.00  0.00     0.018 C 
ENDBRANCH   1   8
TORSDOF 1
ENDMDL
