MODEL 1
REMARK minimizedAffinity -4.14703655
REMARK minimizedRMSD -1
REMARK  1 active torsions:
REMARK  status: ('A' for Active; 'I' for Inactive)
REMARK    1  A    between atoms: C1_2  and  C2_3 
ROOT
ATOM      1  C2  UNL d   1      -1.025  -1.079  -0.526  0.00  0.00    -0.081 A 
ATOM      2  C3  UNL d   1      -1.616  -0.233   0.420  0.00  0.00     0.006 A 
ATOM      3  C4  UNL d   1      -0.834   0.658   1.159  0.00  0.00     0.002 A 
ATOM      4  C5  UNL d   1       0.549   0.724   0.958  0.00  0.00    -0.080 A 
ATOM      5  C6  UNL d   1       1.396   1.698   1.722  0.00  0.00     0.076 C 
ATOM      6  C7  UNL d   1       1.142  -0.133   0.025  0.00  0.00     0.002 A 
ATOM      7  C8  UNL d   1       0.361  -1.025  -0.713  0.00  0.00     0.006 A 
ENDROOT
BRANCH   1   8
ATOM      8  C1  UNL d   1      -1.873  -1.996  -1.370  0.00  0.00     0.054 C 
ATOM      9  C   UNL d   1      -1.879  -1.559  -2.828  0.00  0.00     0.018 C 
ENDBRANCH   1   8
TORSDOF 1
ENDMDL
