MODEL 1
REMARK minimizedAffinity -3.28493977
REMARK minimizedRMSD -1
REMARK  2 active torsions:
REMARK  status: ('A' for Active; 'I' for Inactive)
REMARK    1  A    between atoms: C2'_3  and  C1'_4 
REMARK    2  A    between atoms: C1'_4  and  C1_5 
ROOT
ATOM      1  C1  I4B d   1       0.047  -0.132   0.277  0.00  0.00    -0.075 A 
ATOM      2  C2  I4B d   1       0.133   1.227   0.101  0.00  0.00     0.003 A 
ATOM      3  C3  I4B d   1       1.013   1.766  -0.868  0.00  0.00     0.002 A 
ATOM      4  C4  I4B d   1       1.821   0.919  -1.599  0.00  0.00    -0.004 A 
ATOM      5  C5  I4B d   1       1.716  -0.459  -1.436  0.00  0.00     0.002 A 
ATOM      6  C6  I4B d   1       0.815  -0.989  -0.501  0.00  0.00     0.003 A 
ENDROOT
BRANCH   1   7
ATOM      7  C1' I4B d   1      -0.869  -0.665   1.332  0.00  0.00     0.060 C 
BRANCH   7   8
ATOM      8  C2' I4B d   1      -2.059   0.267   1.432  0.00  0.00    -0.013 C 
ATOM      9  C4' I4B d   1      -3.265  -0.313   0.742  0.00  0.00     0.013 C 
ATOM     10  C3' I4B d   1      -2.334   0.513   2.886  0.00  0.00     0.013 C 
ENDBRANCH   7   8
ENDBRANCH   1   7
TORSDOF 2
ENDMDL
