MODEL 1
REMARK minimizedAffinity -2.54226375
REMARK minimizedRMSD -1
REMARK  2 active torsions:
REMARK  status: ('A' for Active; 'I' for Inactive)
REMARK    1  A    between atoms: C2'_3  and  C1'_4 
REMARK    2  A    between atoms: C1'_4  and  C1_5 
ROOT
ATOM      1  C1  I4B d   1      -3.603   2.159   3.225  0.00  0.00    -0.075 A 
ATOM      2  C2  I4B d   1      -2.678   1.181   3.493  0.00  0.00     0.003 A 
ATOM      3  C3  I4B d   1      -2.655  -0.008   2.724  0.00  0.00     0.002 A 
ATOM      4  C4  I4B d   1      -3.601  -0.198   1.737  0.00  0.00    -0.004 A 
ATOM      5  C5  I4B d   1      -4.523   0.805   1.452  0.00  0.00     0.002 A 
ATOM      6  C6  I4B d   1      -4.517   1.996   2.192  0.00  0.00     0.003 A 
ENDROOT
BRANCH   1   7
ATOM      7  C1' I4B d   1      -3.620   3.388   4.078  0.00  0.00     0.060 C 
BRANCH   7   8
ATOM      8  C2' I4B d   1      -2.384   3.365   4.954  0.00  0.00    -0.013 C 
ATOM      9  C4' I4B d   1      -2.139   4.710   5.586  0.00  0.00     0.013 C 
ATOM     10  C3' I4B d   1      -2.575   2.304   5.997  0.00  0.00     0.013 C 
ENDBRANCH   7   8
ENDBRANCH   1   7
TORSDOF 2
ENDMDL
