MODEL 1
REMARK minimizedAffinity -4.26919985
REMARK minimizedRMSD -1
REMARK  2 active torsions:
REMARK  status: ('A' for Active; 'I' for Inactive)
REMARK    1  A    between atoms: C2'_3  and  C1'_4 
REMARK    2  A    between atoms: C1'_4  and  C1_5 
ROOT
ATOM      1  C1  I4B d   1       1.489   1.297  -1.272  0.00  0.00    -0.075 A 
ATOM      2  C2  I4B d   1       1.607   0.874  -2.572  0.00  0.00     0.003 A 
ATOM      3  C3  I4B d   1       0.746  -0.131  -3.076  0.00  0.00     0.002 A 
ATOM      4  C4  I4B d   1      -0.180  -0.716  -2.236  0.00  0.00    -0.004 A 
ATOM      5  C5  I4B d   1      -0.314  -0.269  -0.925  0.00  0.00     0.002 A 
ATOM      6  C6  I4B d   1       0.517   0.753  -0.443  0.00  0.00     0.003 A 
ENDROOT
BRANCH   1   7
ATOM      7  C1' I4B d   1       2.437   2.337  -0.764  0.00  0.00     0.060 C 
BRANCH   7   8
ATOM      8  C2' I4B d   1       1.757   3.072   0.373  0.00  0.00    -0.013 C 
ATOM      9  C4' I4B d   1       2.384   2.727   1.698  0.00  0.00     0.013 C 
ATOM     10  C3' I4B d   1       1.853   4.543   0.096  0.00  0.00     0.013 C 
ENDBRANCH   7   8
ENDBRANCH   1   7
TORSDOF 2
ENDMDL
