MODEL 1
REMARK minimizedAffinity -2.65951777
REMARK minimizedRMSD -1
REMARK  2 active torsions:
REMARK  status: ('A' for Active; 'I' for Inactive)
REMARK    1  A    between atoms: C2'_3  and  C1'_4 
REMARK    2  A    between atoms: C1'_4  and  C1_5 
ROOT
ATOM      1  C1  I4B d   1       0.315   0.379  -1.033  0.00  0.00    -0.075 A 
ATOM      2  C2  I4B d   1       0.204  -0.631  -1.956  0.00  0.00     0.003 A 
ATOM      3  C3  I4B d   1       1.321  -1.006  -2.740  0.00  0.00     0.002 A 
ATOM      4  C4  I4B d   1       2.509  -0.316  -2.605  0.00  0.00    -0.004 A 
ATOM      5  C5  I4B d   1       2.626   0.693  -1.653  0.00  0.00     0.002 A 
ATOM      6  C6  I4B d   1       1.526   1.034  -0.853  0.00  0.00     0.003 A 
ENDROOT
BRANCH   1   7
ATOM      7  C1' I4B d   1      -0.894   0.772  -0.244  0.00  0.00     0.060 C 
BRANCH   7   8
ATOM      8  C2' I4B d   1      -0.598   0.522   1.220  0.00  0.00    -0.013 C 
ATOM      9  C4' I4B d   1      -1.818   0.758   2.071  0.00  0.00     0.013 C 
ATOM     10  C3' I4B d   1      -0.106  -0.888   1.359  0.00  0.00     0.013 C 
ENDBRANCH   7   8
ENDBRANCH   1   7
TORSDOF 2
ENDMDL
