MODEL 1
REMARK minimizedAffinity -3.64186573
REMARK minimizedRMSD -1
REMARK  2 active torsions:
REMARK  status: ('A' for Active; 'I' for Inactive)
REMARK    1  A    between atoms: C2'_3  and  C1'_4 
REMARK    2  A    between atoms: C1'_4  and  C1_5 
ROOT
ATOM      1  C1  I4B d   1      -0.560   0.417   0.375  0.00  0.00    -0.075 A 
ATOM      2  C2  I4B d   1       0.104  -0.660   0.907  0.00  0.00     0.003 A 
ATOM      3  C3  I4B d   1      -0.429  -1.345   2.026  0.00  0.00     0.002 A 
ATOM      4  C4  I4B d   1      -1.595  -0.891   2.608  0.00  0.00    -0.004 A 
ATOM      5  C5  I4B d   1      -2.279   0.187   2.054  0.00  0.00     0.002 A 
ATOM      6  C6  I4B d   1      -1.765   0.838   0.923  0.00  0.00     0.003 A 
ENDROOT
BRANCH   1   7
ATOM      7  C1' I4B d   1       0.048   1.137  -0.786  0.00  0.00     0.060 C 
BRANCH   7   8
ATOM      8  C2' I4B d   1       1.488   1.453  -0.437  0.00  0.00    -0.013 C 
ATOM      9  C4' I4B d   1       2.412   1.113  -1.577  0.00  0.00     0.013 C 
ATOM     10  C3' I4B d   1       1.572   2.909  -0.088  0.00  0.00     0.013 C 
ENDBRANCH   7   8
ENDBRANCH   1   7
TORSDOF 2
ENDMDL
