MODEL 1
REMARK minimizedAffinity -5.95243883
REMARK minimizedRMSD -1
REMARK  2 active torsions:
REMARK  status: ('A' for Active; 'I' for Inactive)
REMARK    1  A    between atoms: C2'_3  and  C1'_4 
REMARK    2  A    between atoms: C1'_4  and  C1_5 
ROOT
ATOM      1  C1  I4B d   1       0.728  -0.067  -1.173  0.00  0.00    -0.075 A 
ATOM      2  C2  I4B d   1       1.368   0.422  -2.285  0.00  0.00     0.003 A 
ATOM      3  C3  I4B d   1       2.012  -0.463  -3.183  0.00  0.00     0.002 A 
ATOM      4  C4  I4B d   1       2.036  -1.815  -2.906  0.00  0.00    -0.004 A 
ATOM      5  C5  I4B d   1       1.367  -2.311  -1.790  0.00  0.00     0.002 A 
ATOM      6  C6  I4B d   1       0.699  -1.433  -0.924  0.00  0.00     0.003 A 
ENDROOT
BRANCH   1   7
ATOM      7  C1' I4B d   1       0.086   0.899  -0.228  0.00  0.00     0.060 C 
BRANCH   7   8
ATOM      8  C2' I4B d   1       0.819   0.815   1.095  0.00  0.00    -0.013 C 
ATOM      9  C4' I4B d   1       1.398   2.150   1.484  0.00  0.00     0.013 C 
ATOM     10  C3' I4B d   1      -0.148   0.323   2.130  0.00  0.00     0.013 C 
ENDBRANCH   7   8
ENDBRANCH   1   7
TORSDOF 2
ENDMDL
