MODEL 1
REMARK minimizedAffinity -3.02236843
REMARK minimizedRMSD -1
REMARK  2 active torsions:
REMARK  status: ('A' for Active; 'I' for Inactive)
REMARK    1  A    between atoms: C2'_3  and  C1'_4 
REMARK    2  A    between atoms: C1'_4  and  C1_5 
ROOT
ATOM      1  C1  I4B d   1      -0.252   0.190   0.424  0.00  0.00    -0.075 A 
ATOM      2  C2  I4B d   1       0.259   1.367  -0.063  0.00  0.00     0.003 A 
ATOM      3  C3  I4B d   1       1.262   1.349  -1.062  0.00  0.00     0.002 A 
ATOM      4  C4  I4B d   1       1.758   0.140  -1.506  0.00  0.00    -0.004 A 
ATOM      5  C5  I4B d   1       1.222  -1.052  -1.027  0.00  0.00     0.002 A 
ATOM      6  C6  I4B d   1       0.202  -1.028  -0.065  0.00  0.00     0.003 A 
ENDROOT
BRANCH   1   7
ATOM      7  C1' I4B d   1      -1.288   0.245   1.502  0.00  0.00     0.060 C 
BRANCH   7   8
ATOM      8  C2' I4B d   1      -2.603   0.645   0.866  0.00  0.00    -0.013 C 
ATOM      9  C4' I4B d   1      -3.560  -0.516   0.815  0.00  0.00     0.013 C 
ATOM     10  C3' I4B d   1      -3.174   1.783   1.659  0.00  0.00     0.013 C 
ENDBRANCH   7   8
ENDBRANCH   1   7
TORSDOF 2
ENDMDL
