MODEL 1
REMARK minimizedAffinity -4.88509321
REMARK minimizedRMSD -1
REMARK  2 active torsions:
REMARK  status: ('A' for Active; 'I' for Inactive)
REMARK    1  A    between atoms: C2'_3  and  C1'_4 
REMARK    2  A    between atoms: C1'_4  and  C1_5 
ROOT
ATOM      1  C1  I4B d   1       0.507  -0.254   0.315  0.00  0.00    -0.075 A 
ATOM      2  C2  I4B d   1       1.071  -1.153  -0.555  0.00  0.00     0.003 A 
ATOM      3  C3  I4B d   1       1.914  -0.701  -1.599  0.00  0.00     0.002 A 
ATOM      4  C4  I4B d   1       2.125   0.652  -1.765  0.00  0.00    -0.004 A 
ATOM      5  C5  I4B d   1       1.571   1.561  -0.867  0.00  0.00     0.002 A 
ATOM      6  C6  I4B d   1       0.767   1.104   0.187  0.00  0.00     0.003 A 
ENDROOT
BRANCH   1   7
ATOM      7  C1' I4B d   1      -0.405  -0.763   1.386  0.00  0.00     0.060 C 
BRANCH   7   8
ATOM      8  C2' I4B d   1      -1.576   0.192   1.494  0.00  0.00    -0.013 C 
ATOM      9  C4' I4B d   1      -2.819  -0.398   0.882  0.00  0.00     0.013 C 
ATOM     10  C3' I4B d   1      -1.785   0.506   2.946  0.00  0.00     0.013 C 
ENDBRANCH   7   8
ENDBRANCH   1   7
TORSDOF 2
ENDMDL
