MODEL 1
REMARK minimizedAffinity -2.7160058
REMARK minimizedRMSD -1
REMARK  2 active torsions:
REMARK  status: ('A' for Active; 'I' for Inactive)
REMARK    1  A    between atoms: C2'_3  and  C1'_4 
REMARK    2  A    between atoms: C1'_4  and  C1_5 
ROOT
ATOM      1  C1  I4B d   1      -1.451   0.439   1.634  0.00  0.00    -0.075 A 
ATOM      2  C2  I4B d   1      -1.477   1.390   2.624  0.00  0.00     0.003 A 
ATOM      3  C3  I4B d   1      -2.617   2.213   2.792  0.00  0.00     0.002 A 
ATOM      4  C4  I4B d   1      -3.681   2.086   1.922  0.00  0.00    -0.004 A 
ATOM      5  C5  I4B d   1      -3.662   1.106   0.934  0.00  0.00     0.002 A 
ATOM      6  C6  I4B d   1      -2.545   0.269   0.796  0.00  0.00     0.003 A 
ENDROOT
BRANCH   1   7
ATOM      7  C1' I4B d   1      -0.218  -0.390   1.464  0.00  0.00     0.060 C 
BRANCH   7   8
ATOM      8  C2' I4B d   1       0.256  -0.234   0.033  0.00  0.00    -0.013 C 
ATOM      9  C4' I4B d   1       1.339   0.808  -0.072  0.00  0.00     0.013 C 
ATOM     10  C3' I4B d   1       0.742  -1.570  -0.442  0.00  0.00     0.013 C 
ENDBRANCH   7   8
ENDBRANCH   1   7
TORSDOF 2
ENDMDL
