MODEL 1
REMARK minimizedAffinity -3.28482747
REMARK minimizedRMSD -1
REMARK  2 active torsions:
REMARK  status: ('A' for Active; 'I' for Inactive)
REMARK    1  A    between atoms: C2'_3  and  C1'_4 
REMARK    2  A    between atoms: C1'_4  and  C1_5 
ROOT
ATOM      1  C1  I4B d   1      -1.835   0.256   1.807  0.00  0.00    -0.075 A 
ATOM      2  C2  I4B d   1      -1.991   1.556   2.219  0.00  0.00     0.003 A 
ATOM      3  C3  I4B d   1      -3.276   2.150   2.232  0.00  0.00     0.002 A 
ATOM      4  C4  I4B d   1      -4.363   1.429   1.780  0.00  0.00    -0.004 A 
ATOM      5  C5  I4B d   1      -4.206   0.104   1.384  0.00  0.00     0.002 A 
ATOM      6  C6  I4B d   1      -2.936  -0.491   1.409  0.00  0.00     0.003 A 
ENDROOT
BRANCH   1   7
ATOM      7  C1' I4B d   1      -0.459  -0.330   1.774  0.00  0.00     0.060 C 
BRANCH   7   8
ATOM      8  C2' I4B d   1       0.036  -0.281   0.343  0.00  0.00    -0.013 C 
ATOM      9  C4' I4B d   1       1.156   0.713   0.186  0.00  0.00     0.013 C 
ATOM     10  C3' I4B d   1       0.479  -1.661  -0.041  0.00  0.00     0.013 C 
ENDBRANCH   7   8
ENDBRANCH   1   7
TORSDOF 2
ENDMDL
