MODEL 1
REMARK minimizedAffinity -5.45647478
REMARK minimizedRMSD -1
REMARK  2 active torsions:
REMARK  status: ('A' for Active; 'I' for Inactive)
REMARK    1  A    between atoms: C2'_3  and  C1'_4 
REMARK    2  A    between atoms: C1'_4  and  C1_5 
ROOT
ATOM      1  C1  I4B d   1      -0.968   0.054   0.496  0.00  0.00    -0.075 A 
ATOM      2  C2  I4B d   1      -1.044   0.267   1.850  0.00  0.00     0.003 A 
ATOM      3  C3  I4B d   1      -2.303   0.412   2.480  0.00  0.00     0.002 A 
ATOM      4  C4  I4B d   1      -3.452   0.389   1.715  0.00  0.00    -0.004 A 
ATOM      5  C5  I4B d   1      -3.375   0.150   0.346  0.00  0.00     0.002 A 
ATOM      6  C6  I4B d   1      -2.126  -0.031  -0.266  0.00  0.00     0.003 A 
ENDROOT
BRANCH   1   7
ATOM      7  C1' I4B d   1       0.380  -0.062  -0.142  0.00  0.00     0.060 C 
BRANCH   7   8
ATOM      8  C2' I4B d   1       0.915   1.338  -0.362  0.00  0.00    -0.013 C 
ATOM      9  C4' I4B d   1       2.167   1.576   0.441  0.00  0.00     0.013 C 
ATOM     10  C3' I4B d   1       1.171   1.511  -1.829  0.00  0.00     0.013 C 
ENDBRANCH   7   8
ENDBRANCH   1   7
TORSDOF 2
ENDMDL
