MODEL 1
REMARK minimizedAffinity 3.9798944
REMARK minimizedRMSD -1
REMARK  0 active torsions:
REMARK  status: ('A' for Active; 'I' for Inactive)
ROOT
ATOM      1  O1  BZF d   1       3.771   3.637   3.592  0.00  0.00    -0.204 OA
ATOM      2  C2  BZF d   1       3.143   2.999   2.540  0.00  0.00     0.174 A 
ATOM      3  C3  BZF d   1       1.842   3.350   2.475  0.00  0.00    -0.012 A 
ATOM      4  C3A BZF d   1       1.667   4.336   3.497  0.00  0.00    -0.107 A 
ATOM      5  C4  BZF d   1       0.598   5.076   3.915  0.00  0.00     0.055 A 
ATOM      6  C5  BZF d   1       0.742   5.897   4.988  0.00  0.00    -0.016 A 
ATOM      7  C6  BZF d   1       1.937   6.000   5.669  0.00  0.00     0.022 A 
ATOM      8  C7  BZF d   1       3.027   5.290   5.288  0.00  0.00     0.029 A 
ATOM      9  C7A BZF d   1       2.894   4.484   4.184  0.00  0.00     0.058 A 
ENDROOT
TORSDOF 0
ENDMDL
