MODEL 1
REMARK minimizedAffinity 6.81521654
REMARK minimizedRMSD -1
REMARK  0 active torsions:
REMARK  status: ('A' for Active; 'I' for Inactive)
ROOT
ATOM      1  O1  BZF d   1       3.895   3.880   4.226  0.00  0.00    -0.204 OA
ATOM      2  C2  BZF d   1       3.570   3.351   2.992  0.00  0.00     0.174 A 
ATOM      3  C3  BZF d   1       2.316   3.699   2.637  0.00  0.00    -0.012 A 
ATOM      4  C3A BZF d   1       1.860   4.572   3.675  0.00  0.00    -0.107 A 
ATOM      5  C4  BZF d   1       0.697   5.256   3.882  0.00  0.00     0.055 A 
ATOM      6  C5  BZF d   1       0.541   5.962   5.034  0.00  0.00    -0.016 A 
ATOM      7  C6  BZF d   1       1.525   6.000   6.000  0.00  0.00     0.022 A 
ATOM      8  C7  BZF d   1       2.698   5.341   5.837  0.00  0.00     0.029 A 
ATOM      9  C7A BZF d   1       2.871   4.654   4.660  0.00  0.00     0.058 A 
ENDROOT
TORSDOF 0
ENDMDL
