MODEL 1
REMARK minimizedAffinity 9.56551933
REMARK minimizedRMSD -1
REMARK  0 active torsions:
REMARK  status: ('A' for Active; 'I' for Inactive)
ROOT
ATOM      1  O1  BZF d   1       4.464   5.152   3.920  0.00  0.00    -0.204 OA
ATOM      2  C2  BZF d   1       5.148   5.555   5.051  0.00  0.00     0.174 A 
ATOM      3  C3  BZF d   1       4.293   5.999   5.994  0.00  0.00    -0.012 A 
ATOM      4  C3A BZF d   1       2.987   5.778   5.452  0.00  0.00    -0.107 A 
ATOM      5  C4  BZF d   1       1.725   6.000   5.924  0.00  0.00     0.055 A 
ATOM      6  C5  BZF d   1       0.663   5.742   5.116  0.00  0.00    -0.016 A 
ATOM      7  C6  BZF d   1       0.827   5.267   3.831  0.00  0.00     0.022 A 
ATOM      8  C7  BZF d   1       2.059   5.027   3.321  0.00  0.00     0.029 A 
ATOM      9  C7A BZF d   1       3.133   5.256   4.146  0.00  0.00     0.058 A 
ENDROOT
TORSDOF 0
ENDMDL
