MODEL 1
REMARK minimizedAffinity 2.61687446
REMARK minimizedRMSD -1
REMARK  0 active torsions:
REMARK  status: ('A' for Active; 'I' for Inactive)
ROOT
ATOM      1  O1  BZF d   1       3.008   3.257   3.740  0.00  0.00    -0.204 OA
ATOM      2  C2  BZF d   1       2.352   2.624   2.702  0.00  0.00     0.174 A 
ATOM      3  C3  BZF d   1       1.116   3.136   2.533  0.00  0.00    -0.012 A 
ATOM      4  C3A BZF d   1       1.025   4.216   3.467  0.00  0.00    -0.107 A 
ATOM      5  C4  BZF d   1       0.046   5.120   3.764  0.00  0.00     0.055 A 
ATOM      6  C5  BZF d   1       0.246   6.000   4.781  0.00  0.00    -0.016 A 
ATOM      7  C6  BZF d   1       1.409   6.000   5.523  0.00  0.00     0.022 A 
ATOM      8  C7  BZF d   1       2.411   5.125   5.262  0.00  0.00     0.029 A 
ATOM      9  C7A BZF d   1       2.225   4.257   4.214  0.00  0.00     0.058 A 
ENDROOT
TORSDOF 0
ENDMDL
