MODEL 1
REMARK minimizedAffinity -1.78033018
REMARK minimizedRMSD -1
REMARK  0 active torsions:
REMARK  status: ('A' for Active; 'I' for Inactive)
ROOT
ATOM      1  O1  BZF d   1       2.354   4.127   1.870  0.00  0.00    -0.204 OA
ATOM      2  C2  BZF d   1       3.449   3.321   1.623  0.00  0.00     0.174 A 
ATOM      3  C3  BZF d   1       4.335   3.394   2.637  0.00  0.00    -0.012 A 
ATOM      4  C3A BZF d   1       3.716   4.231   3.618  0.00  0.00    -0.107 A 
ATOM      5  C4  BZF d   1       4.096   4.667   4.856  0.00  0.00     0.055 A 
ATOM      6  C5  BZF d   1       3.294   5.535   5.526  0.00  0.00    -0.016 A 
ATOM      7  C6  BZF d   1       2.108   5.991   4.987  0.00  0.00     0.022 A 
ATOM      8  C7  BZF d   1       1.687   5.584   3.765  0.00  0.00     0.029 A 
ATOM      9  C7A BZF d   1       2.480   4.681   3.100  0.00  0.00     0.058 A 
ENDROOT
TORSDOF 0
ENDMDL
