MODEL 1
REMARK minimizedAffinity -0.862489045
REMARK minimizedRMSD -1
REMARK  0 active torsions:
REMARK  status: ('A' for Active; 'I' for Inactive)
ROOT
ATOM      1  O1  BZF d   1       2.851   1.936  -5.960  0.00  0.00    -0.204 OA
ATOM      2  C2  BZF d   1       4.184   1.575  -5.948  0.00  0.00     0.174 A 
ATOM      3  C3  BZF d   1       4.975   2.666  -5.999  0.00  0.00    -0.012 A 
ATOM      4  C3A BZF d   1       4.080   3.782  -5.953  0.00  0.00    -0.107 A 
ATOM      5  C4  BZF d   1       4.266   5.135  -5.955  0.00  0.00     0.055 A 
ATOM      6  C5  BZF d   1       3.179   5.951  -5.976  0.00  0.00    -0.016 A 
ATOM      7  C6  BZF d   1       1.895   5.448  -6.000  0.00  0.00     0.022 A 
ATOM      8  C7  BZF d   1       1.660   4.113  -5.993  0.00  0.00     0.029 A 
ATOM      9  C7A BZF d   1       2.756   3.287  -5.939  0.00  0.00     0.058 A 
ENDROOT
TORSDOF 0
ENDMDL
