MODEL 1
REMARK minimizedAffinity -4.22758293
REMARK minimizedRMSD -1
REMARK  3 active torsions:
REMARK  status: ('A' for Active; 'I' for Inactive)
REMARK    1  A    between atoms: C3'_2  and  C2'_3 
REMARK    2  A    between atoms: C2'_3  and  C1'_4 
REMARK    3  A    between atoms: C1'_4  and  C1_5 
ROOT
ATOM      1  C1  N4B d   1       0.105   0.496   0.142  0.00  0.00    -0.075 A 
ATOM      2  C2  N4B d   1      -1.161   0.248   0.716  0.00  0.00     0.002 A 
ATOM      3  C3  N4B d   1      -1.273   0.048   2.070  0.00  0.00     0.002 A 
ATOM      4  C4  N4B d   1      -0.136   0.072   2.864  0.00  0.00    -0.004 A 
ATOM      5  C5  N4B d   1       1.080   0.338   2.305  0.00  0.00     0.002 A 
ATOM      6  C6  N4B d   1       1.207   0.545   0.946  0.00  0.00     0.002 A 
ENDROOT
BRANCH   1   7
ATOM      7  C1' N4B d   1       0.289   0.635  -1.345  0.00  0.00     0.057 C 
BRANCH   7   8
ATOM      8  C2' N4B d   1      -0.041  -0.694  -2.017  0.00  0.00     0.009 C 
BRANCH   8   9
ATOM      9  C3' N4B d   1       1.045  -1.126  -2.987  0.00  0.00     0.004 C 
ATOM     10  C4' N4B d   1       0.680  -2.360  -3.756  0.00  0.00     0.003 C 
ENDBRANCH   8   9
ENDBRANCH   7   8
ENDBRANCH   1   7
TORSDOF 3
ENDMDL
