MODEL 1
REMARK minimizedAffinity -6.12526131
REMARK minimizedRMSD -1
REMARK  3 active torsions:
REMARK  status: ('A' for Active; 'I' for Inactive)
REMARK    1  A    between atoms: C3'_2  and  C2'_3 
REMARK    2  A    between atoms: C2'_3  and  C1'_4 
REMARK    3  A    between atoms: C1'_4  and  C1_5 
ROOT
ATOM      1  C1  N4B d   1      -0.203   0.040   0.611  0.00  0.00    -0.075 A 
ATOM      2  C2  N4B d   1      -1.543  -0.351   0.826  0.00  0.00     0.002 A 
ATOM      3  C3  N4B d   1      -1.959  -0.713   2.084  0.00  0.00     0.002 A 
ATOM      4  C4  N4B d   1      -1.052  -0.709   3.134  0.00  0.00    -0.004 A 
ATOM      5  C5  N4B d   1       0.234  -0.306   2.923  0.00  0.00     0.002 A 
ATOM      6  C6  N4B d   1       0.665   0.064   1.665  0.00  0.00     0.002 A 
ENDROOT
BRANCH   1   7
ATOM      7  C1' N4B d   1       0.320   0.361  -0.762  0.00  0.00     0.057 C 
BRANCH   7   8
ATOM      8  C2' N4B d   1       0.018  -0.805  -1.699  0.00  0.00     0.009 C 
BRANCH   8   9
ATOM      9  C3' N4B d   1       1.151  -1.055  -2.679  0.00  0.00     0.004 C 
ATOM     10  C4' N4B d   1       0.824  -2.117  -3.686  0.00  0.00     0.003 C 
ENDBRANCH   8   9
ENDBRANCH   7   8
ENDBRANCH   1   7
TORSDOF 3
ENDMDL
