MODEL 1
REMARK minimizedAffinity -4.78788185
REMARK minimizedRMSD -1
REMARK  3 active torsions:
REMARK  status: ('A' for Active; 'I' for Inactive)
REMARK    1  A    between atoms: C3'_2  and  C2'_3 
REMARK    2  A    between atoms: C2'_3  and  C1'_4 
REMARK    3  A    between atoms: C1'_4  and  C1_5 
ROOT
ATOM      1  C1  N4B d   1       0.462   0.399   0.337  0.00  0.00    -0.075 A 
ATOM      2  C2  N4B d   1       1.397   0.721   1.345  0.00  0.00     0.002 A 
ATOM      3  C3  N4B d   1       1.071   0.542   2.666  0.00  0.00     0.002 A 
ATOM      4  C4  N4B d   1      -0.186   0.062   3.004  0.00  0.00    -0.004 A 
ATOM      5  C5  N4B d   1      -1.074  -0.271   2.023  0.00  0.00     0.002 A 
ATOM      6  C6  N4B d   1      -0.758  -0.100   0.690  0.00  0.00     0.002 A 
ENDROOT
BRANCH   1   7
ATOM      7  C1' N4B d   1       0.742   0.658  -1.119  0.00  0.00     0.057 C 
BRANCH   7   8
ATOM      8  C2' N4B d   1       0.301  -0.552  -1.937  0.00  0.00     0.009 C 
BRANCH   8   9
ATOM      9  C3' N4B d   1       1.286  -0.877  -3.047  0.00  0.00     0.004 C 
ATOM     10  C4' N4B d   1       0.933  -2.132  -3.788  0.00  0.00     0.003 C 
ENDBRANCH   8   9
ENDBRANCH   7   8
ENDBRANCH   1   7
TORSDOF 3
ENDMDL
