MODEL 1
REMARK minimizedAffinity -6.4862752
REMARK minimizedRMSD -1
REMARK  3 active torsions:
REMARK  status: ('A' for Active; 'I' for Inactive)
REMARK    1  A    between atoms: C3'_2  and  C2'_3 
REMARK    2  A    between atoms: C2'_3  and  C1'_4 
REMARK    3  A    between atoms: C1'_4  and  C1_5 
ROOT
ATOM      1  C1  N4B d   1      -0.391   0.079   0.634  0.00  0.00    -0.075 A 
ATOM      2  C2  N4B d   1       0.011  -0.174   1.963  0.00  0.00     0.002 A 
ATOM      3  C3  N4B d   1      -0.933  -0.379   2.939  0.00  0.00     0.002 A 
ATOM      4  C4  N4B d   1      -2.280  -0.316   2.615  0.00  0.00    -0.004 A 
ATOM      5  C5  N4B d   1      -2.660  -0.096   1.323  0.00  0.00     0.002 A 
ATOM      6  C6  N4B d   1      -1.722   0.107   0.331  0.00  0.00     0.002 A 
ENDROOT
BRANCH   1   7
ATOM      7  C1' N4B d   1       0.603   0.394  -0.451  0.00  0.00     0.057 C 
BRANCH   7   8
ATOM      8  C2' N4B d   1      -0.026   0.095  -1.808  0.00  0.00     0.009 C 
BRANCH   8   9
ATOM      9  C3' N4B d   1       0.971  -0.524  -2.772  0.00  0.00     0.004 C 
ATOM     10  C4' N4B d   1       0.397  -1.677  -3.540  0.00  0.00     0.003 C 
ENDBRANCH   8   9
ENDBRANCH   7   8
ENDBRANCH   1   7
TORSDOF 3
ENDMDL
