MODEL 1
REMARK minimizedAffinity -5.75393963
REMARK minimizedRMSD -1
REMARK  3 active torsions:
REMARK  status: ('A' for Active; 'I' for Inactive)
REMARK    1  A    between atoms: C3'_2  and  C2'_3 
REMARK    2  A    between atoms: C2'_3  and  C1'_4 
REMARK    3  A    between atoms: C1'_4  and  C1_5 
ROOT
ATOM      1  C1  N4B d   1       0.148   0.604   0.479  0.00  0.00    -0.075 A 
ATOM      2  C2  N4B d   1       0.827   0.567   1.716  0.00  0.00     0.002 A 
ATOM      3  C3  N4B d   1       0.194   0.079   2.833  0.00  0.00     0.002 A 
ATOM      4  C4  N4B d   1      -1.119  -0.358   2.740  0.00  0.00    -0.004 A 
ATOM      5  C5  N4B d   1      -1.760  -0.343   1.536  0.00  0.00     0.002 A 
ATOM      6  C6  N4B d   1      -1.134   0.141   0.405  0.00  0.00     0.002 A 
ENDROOT
BRANCH   1   7
ATOM      7  C1' N4B d   1       0.770   1.208  -0.751  0.00  0.00     0.057 C 
BRANCH   7   8
ATOM      8  C2' N4B d   1      -0.095   0.878  -1.963  0.00  0.00     0.009 C 
BRANCH   8   9
ATOM      9  C3' N4B d   1       0.730   0.351  -3.124  0.00  0.00     0.004 C 
ATOM     10  C4' N4B d   1       0.753  -1.147  -3.188  0.00  0.00     0.003 C 
ENDBRANCH   8   9
ENDBRANCH   7   8
ENDBRANCH   1   7
TORSDOF 3
ENDMDL
