MODEL 1
REMARK minimizedAffinity -5.09487152
REMARK minimizedRMSD -1
REMARK  3 active torsions:
REMARK  status: ('A' for Active; 'I' for Inactive)
REMARK    1  A    between atoms: C3'_2  and  C2'_3 
REMARK    2  A    between atoms: C2'_3  and  C1'_4 
REMARK    3  A    between atoms: C1'_4  and  C1_5 
ROOT
ATOM      1  C1  N4B d   1       0.027   0.412   0.655  0.00  0.00    -0.075 A 
ATOM      2  C2  N4B d   1      -1.155  -0.355   0.569  0.00  0.00     0.002 A 
ATOM      3  C3  N4B d   1      -1.660  -0.966   1.691  0.00  0.00     0.002 A 
ATOM      4  C4  N4B d   1      -0.993  -0.840   2.900  0.00  0.00    -0.004 A 
ATOM      5  C5  N4B d   1       0.135  -0.076   2.979  0.00  0.00     0.002 A 
ATOM      6  C6  N4B d   1       0.652   0.546   1.861  0.00  0.00     0.002 A 
ENDROOT
BRANCH   1   7
ATOM      7  C1' N4B d   1       0.664   1.027  -0.561  0.00  0.00     0.057 C 
BRANCH   7   8
ATOM      8  C2' N4B d   1      -0.032   0.500  -1.812  0.00  0.00     0.009 C 
BRANCH   8   9
ATOM      9  C3' N4B d   1       0.958  -0.062  -2.819  0.00  0.00     0.004 C 
ATOM     10  C4' N4B d   1       0.541  -1.397  -3.361  0.00  0.00     0.003 C 
ENDBRANCH   8   9
ENDBRANCH   7   8
ENDBRANCH   1   7
TORSDOF 3
ENDMDL
