MODEL 1
REMARK minimizedAffinity -4.17479038
REMARK minimizedRMSD -1
REMARK  2 active torsions:
REMARK  status: ('A' for Active; 'I' for Inactive)
REMARK    1  A    between atoms: C2'_3  and  C1'_4 
REMARK    2  A    between atoms: C1'_4  and  C1_5 
ROOT
ATOM      1  C1  I4B d   1      -3.526  -3.766  -4.724  0.00  0.00    -0.075 A 
ATOM      2  C2  I4B d   1      -2.162  -3.918  -4.733  0.00  0.00     0.003 A 
ATOM      3  C3  I4B d   1      -1.573  -5.021  -5.396  0.00  0.00     0.002 A 
ATOM      4  C4  I4B d   1      -2.381  -5.969  -5.990  0.00  0.00    -0.004 A 
ATOM      5  C5  I4B d   1      -3.763  -5.800  -6.000  0.00  0.00     0.002 A 
ATOM      6  C6  I4B d   1      -4.339  -4.686  -5.374  0.00  0.00     0.003 A 
ENDROOT
BRANCH   1   7
ATOM      7  C1' I4B d   1      -4.118  -2.607  -3.986  0.00  0.00     0.060 C 
BRANCH   7   8
ATOM      8  C2' I4B d   1      -4.532  -1.566  -5.006  0.00  0.00    -0.013 C 
ATOM      9  C4' I4B d   1      -5.978  -1.181  -4.835  0.00  0.00     0.013 C 
ATOM     10  C3' I4B d   1      -3.633  -0.377  -4.847  0.00  0.00     0.013 C 
ENDBRANCH   7   8
ENDBRANCH   1   7
TORSDOF 2
ENDMDL
