MODEL 1
REMARK minimizedAffinity 3.09082866
REMARK minimizedRMSD -1
REMARK  2 active torsions:
REMARK  status: ('A' for Active; 'I' for Inactive)
REMARK    1  A    between atoms: C2'_3  and  C1'_4 
REMARK    2  A    between atoms: C1'_4  and  C1_5 
ROOT
ATOM      1  C1  I4B d   1      -3.146  -3.903  -2.374  0.00  0.00    -0.075 A 
ATOM      2  C2  I4B d   1      -4.259  -3.241  -2.829  0.00  0.00     0.003 A 
ATOM      3  C3  I4B d   1      -5.102  -3.843  -3.795  0.00  0.00     0.002 A 
ATOM      4  C4  I4B d   1      -4.768  -5.077  -4.313  0.00  0.00    -0.004 A 
ATOM      5  C5  I4B d   1      -3.651  -5.757  -3.835  0.00  0.00     0.002 A 
ATOM      6  C6  I4B d   1      -2.842  -5.172  -2.850  0.00  0.00     0.003 A 
ENDROOT
BRANCH   1   7
ATOM      7  C1' I4B d   1      -2.260  -3.225  -1.378  0.00  0.00     0.060 C 
BRANCH   7   8
ATOM      8  C2' I4B d   1      -3.140  -2.416  -0.446  0.00  0.00    -0.013 C 
ATOM      9  C4' I4B d   1      -2.867  -2.759   0.995  0.00  0.00     0.013 C 
ATOM     10  C3' I4B d   1      -2.886  -0.963  -0.714  0.00  0.00     0.013 C 
ENDBRANCH   7   8
ENDBRANCH   1   7
TORSDOF 2
ENDMDL
