MODEL 1
REMARK minimizedAffinity 2.41961074
REMARK minimizedRMSD -1
REMARK  2 active torsions:
REMARK  status: ('A' for Active; 'I' for Inactive)
REMARK    1  A    between atoms: C2'_3  and  C1'_4 
REMARK    2  A    between atoms: C1'_4  and  C1_5 
ROOT
ATOM      1  C1  I4B d   1      -2.958  -4.275  -5.609  0.00  0.00    -0.075 A 
ATOM      2  C2  I4B d   1      -2.889  -3.013  -5.071  0.00  0.00     0.003 A 
ATOM      3  C3  I4B d   1      -4.076  -2.311  -4.750  0.00  0.00     0.002 A 
ATOM      4  C4  I4B d   1      -5.301  -2.883  -5.026  0.00  0.00    -0.004 A 
ATOM      5  C5  I4B d   1      -5.368  -4.171  -5.550  0.00  0.00     0.002 A 
ATOM      6  C6  I4B d   1      -4.189  -4.876  -5.831  0.00  0.00     0.003 A 
ENDROOT
BRANCH   1   7
ATOM      7  C1' I4B d   1      -1.685  -4.975  -5.967  0.00  0.00     0.060 C 
BRANCH   7   8
ATOM      8  C2' I4B d   1      -1.238  -5.776  -4.761  0.00  0.00    -0.013 C 
ATOM      9  C4' I4B d   1      -0.122  -5.080  -4.028  0.00  0.00     0.013 C 
ATOM     10  C3' I4B d   1      -2.428  -5.977  -3.871  0.00  0.00     0.013 C 
ENDBRANCH   7   8
ENDBRANCH   1   7
TORSDOF 2
ENDMDL
