MODEL 1
REMARK minimizedAffinity -1.83622098
REMARK minimizedRMSD -1
REMARK  2 active torsions:
REMARK  status: ('A' for Active; 'I' for Inactive)
REMARK    1  A    between atoms: C2'_3  and  C1'_4 
REMARK    2  A    between atoms: C1'_4  and  C1_5 
ROOT
ATOM      1  C1  I4B d   1      -5.001  -3.633  -5.290  0.00  0.00    -0.075 A 
ATOM      2  C2  I4B d   1      -3.869  -3.946  -5.999  0.00  0.00     0.003 A 
ATOM      3  C3  I4B d   1      -2.899  -4.817  -5.446  0.00  0.00     0.002 A 
ATOM      4  C4  I4B d   1      -3.076  -5.308  -4.169  0.00  0.00    -0.004 A 
ATOM      5  C5  I4B d   1      -4.236  -5.007  -3.460  0.00  0.00     0.002 A 
ATOM      6  C6  I4B d   1      -5.211  -4.175  -4.028  0.00  0.00     0.003 A 
ENDROOT
BRANCH   1   7
ATOM      7  C1' I4B d   1      -5.989  -2.684  -5.891  0.00  0.00     0.060 C 
BRANCH   7   8
ATOM      8  C2' I4B d   1      -5.925  -1.387  -5.111  0.00  0.00    -0.013 C 
ATOM      9  C4' I4B d   1      -5.994  -1.639  -3.628  0.00  0.00     0.013 C 
ATOM     10  C3' I4B d   1      -4.653  -0.686  -5.483  0.00  0.00     0.013 C 
ENDBRANCH   7   8
ENDBRANCH   1   7
TORSDOF 2
ENDMDL
