MODEL 1
REMARK minimizedAffinity 0.625285149
REMARK minimizedRMSD -1
REMARK  2 active torsions:
REMARK  status: ('A' for Active; 'I' for Inactive)
REMARK    1  A    between atoms: C2'_3  and  C1'_4 
REMARK    2  A    between atoms: C1'_4  and  C1_5 
ROOT
ATOM      1  C1  I4B d   1      -3.907  -4.670  -5.243  0.00  0.00    -0.075 A 
ATOM      2  C2  I4B d   1      -2.974  -4.005  -5.999  0.00  0.00     0.003 A 
ATOM      3  C3  I4B d   1      -1.602  -4.339  -5.895  0.00  0.00     0.002 A 
ATOM      4  C4  I4B d   1      -1.204  -5.305  -4.992  0.00  0.00    -0.004 A 
ATOM      5  C5  I4B d   1      -2.154  -5.994  -4.244  0.00  0.00     0.002 A 
ATOM      6  C6  I4B d   1      -3.515  -5.684  -4.378  0.00  0.00     0.003 A 
ENDROOT
BRANCH   1   7
ATOM      7  C1' I4B d   1      -5.343  -4.268  -5.354  0.00  0.00     0.060 C 
BRANCH   7   8
ATOM      8  C2' I4B d   1      -5.663  -3.355  -4.188  0.00  0.00    -0.013 C 
ATOM      9  C4' I4B d   1      -4.511  -3.281  -3.221  0.00  0.00     0.013 C 
ATOM     10  C3' I4B d   1      -5.996  -2.001  -4.739  0.00  0.00     0.013 C 
ENDBRANCH   7   8
ENDBRANCH   1   7
TORSDOF 2
ENDMDL
