MODEL 1
REMARK minimizedAffinity 8.17408752
REMARK minimizedRMSD -1
REMARK  2 active torsions:
REMARK  status: ('A' for Active; 'I' for Inactive)
REMARK    1  A    between atoms: C2'_3  and  C1'_4 
REMARK    2  A    between atoms: C1'_4  and  C1_5 
ROOT
ATOM      1  C1  I4B d   1      -3.987  -4.575  -4.459  0.00  0.00    -0.075 A 
ATOM      2  C2  I4B d   1      -3.021  -4.638  -3.486  0.00  0.00     0.003 A 
ATOM      3  C3  I4B d   1      -1.765  -5.228  -3.764  0.00  0.00     0.002 A 
ATOM      4  C4  I4B d   1      -1.536  -5.785  -5.006  0.00  0.00    -0.004 A 
ATOM      5  C5  I4B d   1      -2.508  -5.700  -5.999  0.00  0.00     0.002 A 
ATOM      6  C6  I4B d   1      -3.736  -5.081  -5.728  0.00  0.00     0.003 A 
ENDROOT
BRANCH   1   7
ATOM      7  C1' I4B d   1      -5.314  -3.975  -4.121  0.00  0.00     0.060 C 
BRANCH   7   8
ATOM      8  C2' I4B d   1      -5.307  -2.533  -4.588  0.00  0.00    -0.013 C 
ATOM      9  C4' I4B d   1      -5.979  -2.392  -5.929  0.00  0.00     0.013 C 
ATOM     10  C3' I4B d   1      -5.999  -1.705  -3.547  0.00  0.00     0.013 C 
ENDBRANCH   7   8
ENDBRANCH   1   7
TORSDOF 2
ENDMDL
