MODEL 1
REMARK minimizedAffinity 1.85329437
REMARK minimizedRMSD -1
REMARK  2 active torsions:
REMARK  status: ('A' for Active; 'I' for Inactive)
REMARK    1  A    between atoms: C2'_3  and  C1'_4 
REMARK    2  A    between atoms: C1'_4  and  C1_5 
ROOT
ATOM      1  C1  I4B d   1      -4.080  -5.076  -4.402  0.00  0.00    -0.075 A 
ATOM      2  C2  I4B d   1      -4.212  -3.745  -4.094  0.00  0.00     0.003 A 
ATOM      3  C3  I4B d   1      -5.202  -2.960  -4.733  0.00  0.00     0.002 A 
ATOM      4  C4  I4B d   1      -6.000  -3.531  -5.704  0.00  0.00    -0.004 A 
ATOM      5  C5  I4B d   1      -5.880  -4.887  -5.998  0.00  0.00     0.002 A 
ATOM      6  C6  I4B d   1      -4.922  -5.667  -5.335  0.00  0.00     0.003 A 
ENDROOT
BRANCH   1   7
ATOM      7  C1' I4B d   1      -3.001  -5.867  -3.732  0.00  0.00     0.060 C 
BRANCH   7   8
ATOM      8  C2' I4B d   1      -2.160  -4.909  -2.914  0.00  0.00    -0.013 C 
ATOM      9  C4' I4B d   1      -2.594  -4.897  -1.472  0.00  0.00     0.013 C 
ATOM     10  C3' I4B d   1      -0.725  -5.326  -3.043  0.00  0.00     0.013 C 
ENDBRANCH   7   8
ENDBRANCH   1   7
TORSDOF 2
ENDMDL
