MODEL 1
REMARK minimizedAffinity 9.30532265
REMARK minimizedRMSD -1
REMARK  2 active torsions:
REMARK  status: ('A' for Active; 'I' for Inactive)
REMARK    1  A    between atoms: C2'_3  and  C1'_4 
REMARK    2  A    between atoms: C1'_4  and  C1_5 
ROOT
ATOM      1  C1  I4B d   1       0.012  -2.547   1.865  0.00  0.00    -0.075 A 
ATOM      2  C2  I4B d   1      -0.885  -3.458   1.365  0.00  0.00     0.003 A 
ATOM      3  C3  I4B d   1      -2.078  -3.015   0.744  0.00  0.00     0.002 A 
ATOM      4  C4  I4B d   1      -2.355  -1.665   0.689  0.00  0.00    -0.004 A 
ATOM      5  C5  I4B d   1      -1.434  -0.742   1.175  0.00  0.00     0.002 A 
ATOM      6  C6  I4B d   1      -0.236  -1.185   1.756  0.00  0.00     0.003 A 
ENDROOT
BRANCH   1   7
ATOM      7  C1' I4B d   1       1.247  -3.050   2.544  0.00  0.00     0.060 C 
BRANCH   7   8
ATOM      8  C2' I4B d   1       1.251  -2.514   3.961  0.00  0.00    -0.013 C 
ATOM      9  C4' I4B d   1      -0.081  -1.908   4.319  0.00  0.00     0.013 C 
ATOM     10  C3' I4B d   1       1.596  -3.645   4.883  0.00  0.00     0.013 C 
ENDBRANCH   7   8
ENDBRANCH   1   7
TORSDOF 2
ENDMDL
