MODEL 1
REMARK minimizedAffinity 4.83162451
REMARK minimizedRMSD -1
REMARK  2 active torsions:
REMARK  status: ('A' for Active; 'I' for Inactive)
REMARK    1  A    between atoms: C2'_3  and  C1'_4 
REMARK    2  A    between atoms: C1'_4  and  C1_5 
ROOT
ATOM      1  C1  I4B d   1       1.003  -2.288   2.804  0.00  0.00    -0.075 A 
ATOM      2  C2  I4B d   1       0.168  -1.852   3.802  0.00  0.00     0.003 A 
ATOM      3  C3  I4B d   1       0.384  -2.261   5.141  0.00  0.00     0.002 A 
ATOM      4  C4  I4B d   1       1.409  -3.140   5.426  0.00  0.00    -0.004 A 
ATOM      5  C5  I4B d   1       2.268  -3.563   4.416  0.00  0.00     0.002 A 
ATOM      6  C6  I4B d   1       2.072  -3.124   3.098  0.00  0.00     0.003 A 
ENDROOT
BRANCH   1   7
ATOM      7  C1' I4B d   1       0.726  -1.863   1.396  0.00  0.00     0.060 C 
BRANCH   7   8
ATOM      8  C2' I4B d   1      -0.459  -0.919   1.418  0.00  0.00    -0.013 C 
ATOM      9  C4' I4B d   1      -0.088   0.435   0.873  0.00  0.00     0.013 C 
ATOM     10  C3' I4B d   1      -1.562  -1.543   0.615  0.00  0.00     0.013 C 
ENDBRANCH   7   8
ENDBRANCH   1   7
TORSDOF 2
ENDMDL
