MODEL 1
REMARK minimizedAffinity 2.09751511
REMARK minimizedRMSD -1
REMARK  2 active torsions:
REMARK  status: ('A' for Active; 'I' for Inactive)
REMARK    1  A    between atoms: C2'_3  and  C1'_4 
REMARK    2  A    between atoms: C1'_4  and  C1_5 
ROOT
ATOM      1  C1  I4B d   1      -3.531  -4.858  -4.051  0.00  0.00    -0.075 A 
ATOM      2  C2  I4B d   1      -3.718  -5.524  -5.237  0.00  0.00     0.003 A 
ATOM      3  C3  I4B d   1      -2.604  -5.972  -5.986  0.00  0.00     0.002 A 
ATOM      4  C4  I4B d   1      -1.328  -5.691  -5.541  0.00  0.00    -0.004 A 
ATOM      5  C5  I4B d   1      -1.140  -5.037  -4.327  0.00  0.00     0.002 A 
ATOM      6  C6  I4B d   1      -2.249  -4.628  -3.571  0.00  0.00     0.003 A 
ENDROOT
BRANCH   1   7
ATOM      7  C1' I4B d   1      -4.730  -4.370  -3.302  0.00  0.00     0.060 C 
BRANCH   7   8
ATOM      8  C2' I4B d   1      -5.908  -4.368  -4.255  0.00  0.00    -0.013 C 
ATOM      9  C4' I4B d   1      -5.863  -3.176  -5.175  0.00  0.00     0.013 C 
ATOM     10  C3' I4B d   1      -5.878  -5.651  -5.030  0.00  0.00     0.013 C 
ENDBRANCH   7   8
ENDBRANCH   1   7
TORSDOF 2
ENDMDL
