MODEL 1
REMARK minimizedAffinity -3.03668833
REMARK minimizedRMSD -1
REMARK  2 active torsions:
REMARK  status: ('A' for Active; 'I' for Inactive)
REMARK    1  A    between atoms: C2'_3  and  C1'_4 
REMARK    2  A    between atoms: C1'_4  and  C1_5 
ROOT
ATOM      1  C1  I4B d   1      -2.638  -4.690  -4.457  0.00  0.00    -0.075 A 
ATOM      2  C2  I4B d   1      -1.359  -4.814  -4.940  0.00  0.00     0.003 A 
ATOM      3  C3  I4B d   1      -0.376  -5.500  -4.186  0.00  0.00     0.002 A 
ATOM      4  C4  I4B d   1      -0.700  -6.000  -2.941  0.00  0.00    -0.004 A 
ATOM      5  C5  I4B d   1      -2.003  -5.893  -2.464  0.00  0.00     0.002 A 
ATOM      6  C6  I4B d   1      -2.981  -5.245  -3.231  0.00  0.00     0.003 A 
ENDROOT
BRANCH   1   7
ATOM      7  C1' I4B d   1      -3.642  -3.930  -5.264  0.00  0.00     0.060 C 
BRANCH   7   8
ATOM      8  C2' I4B d   1      -5.018  -4.248  -4.715  0.00  0.00    -0.013 C 
ATOM      9  C4' I4B d   1      -5.839  -2.997  -4.544  0.00  0.00     0.013 C 
ATOM     10  C3' I4B d   1      -5.682  -5.206  -5.659  0.00  0.00     0.013 C 
ENDBRANCH   7   8
ENDBRANCH   1   7
TORSDOF 2
ENDMDL
