MODEL 1
REMARK minimizedAffinity -5.03635836
REMARK minimizedRMSD -1
REMARK  2 active torsions:
REMARK  status: ('A' for Active; 'I' for Inactive)
REMARK    1  A    between atoms: C2'_3  and  C1'_4 
REMARK    2  A    between atoms: C1'_4  and  C1_5 
ROOT
ATOM      1  C1  I4B d   1      -2.884  -4.119  -5.083  0.00  0.00    -0.075 A 
ATOM      2  C2  I4B d   1      -1.984  -4.867  -5.802  0.00  0.00     0.003 A 
ATOM      3  C3  I4B d   1      -1.094  -5.744  -5.138  0.00  0.00     0.002 A 
ATOM      4  C4  I4B d   1      -1.103  -5.806  -3.759  0.00  0.00    -0.004 A 
ATOM      5  C5  I4B d   1      -2.030  -5.065  -3.033  0.00  0.00     0.002 A 
ATOM      6  C6  I4B d   1      -2.935  -4.225  -3.699  0.00  0.00     0.003 A 
ENDROOT
BRANCH   1   7
ATOM      7  C1' I4B d   1      -3.787  -3.178  -5.815  0.00  0.00     0.060 C 
BRANCH   7   8
ATOM      8  C2' I4B d   1      -5.159  -3.256  -5.176  0.00  0.00    -0.013 C 
ATOM      9  C4' I4B d   1      -5.878  -1.936  -5.265  0.00  0.00     0.013 C 
ATOM     10  C3' I4B d   1      -5.930  -4.341  -5.866  0.00  0.00     0.013 C 
ENDBRANCH   7   8
ENDBRANCH   1   7
TORSDOF 2
ENDMDL
