MODEL 1
REMARK minimizedAffinity -1.25867414
REMARK minimizedRMSD -1
REMARK  2 active torsions:
REMARK  status: ('A' for Active; 'I' for Inactive)
REMARK    1  A    between atoms: C2'_3  and  C1'_4 
REMARK    2  A    between atoms: C1'_4  and  C1_5 
ROOT
ATOM      1  C1  I4B d   1      -3.905  -5.243  -4.488  0.00  0.00    -0.075 A 
ATOM      2  C2  I4B d   1      -4.137  -3.967  -4.037  0.00  0.00     0.003 A 
ATOM      3  C3  I4B d   1      -5.216  -3.212  -4.559  0.00  0.00     0.002 A 
ATOM      4  C4  I4B d   1      -6.000  -3.749  -5.559  0.00  0.00    -0.004 A 
ATOM      5  C5  I4B d   1      -5.777  -5.051  -5.999  0.00  0.00     0.002 A 
ATOM      6  C6  I4B d   1      -4.731  -5.808  -5.451  0.00  0.00     0.003 A 
ENDROOT
BRANCH   1   7
ATOM      7  C1' I4B d   1      -2.737  -6.000  -3.939  0.00  0.00     0.060 C 
BRANCH   7   8
ATOM      8  C2' I4B d   1      -1.514  -5.624  -4.750  0.00  0.00    -0.013 C 
ATOM      9  C4' I4B d   1      -1.892  -4.815  -5.963  0.00  0.00     0.013 C 
ATOM     10  C3' I4B d   1      -0.583  -4.859  -3.857  0.00  0.00     0.013 C 
ENDBRANCH   7   8
ENDBRANCH   1   7
TORSDOF 2
ENDMDL
