MODEL 1
REMARK minimizedAffinity 16.268631
REMARK minimizedRMSD -1
REMARK  0 active torsions:
REMARK  status: ('A' for Active; 'I' for Inactive)
ROOT
ATOM      1  C   UNL d   1       5.779   3.431  -5.251  0.00  0.00    -0.002 A 
ATOM      2  C1  UNL d   1       6.000   4.491  -4.383  0.00  0.00     0.010 A 
ATOM      3  C2  UNL d   1       5.077   4.791  -3.379  0.00  0.00     0.041 A 
ATOM      4  C3  UNL d   1       3.918   3.998  -3.259  0.00  0.00    -0.075 A 
ATOM      5  S   UNL d   1       2.651   4.178  -2.105  0.00  0.00     0.015 SA
ATOM      6  C4  UNL d   1       1.786   2.851  -2.736  0.00  0.00     0.022 A 
ATOM      7  C5  UNL d   1       2.435   2.274  -3.802  0.00  0.00     0.026 A 
ATOM      8  C6  UNL d   1       3.674   2.925  -4.121  0.00  0.00    -0.082 A 
ATOM      9  C7  UNL d   1       4.628   2.647  -5.130  0.00  0.00     0.045 A 
ENDROOT
TORSDOF 0
ENDMDL
