MODEL 1
REMARK minimizedAffinity 6.47097206
REMARK minimizedRMSD -1
REMARK  0 active torsions:
REMARK  status: ('A' for Active; 'I' for Inactive)
ROOT
ATOM      1  C   UNL d   1      -2.873  -5.084  -4.374  0.00  0.00    -0.002 A 
ATOM      2  C1  UNL d   1      -2.601  -5.683  -5.595  0.00  0.00     0.010 A 
ATOM      3  C2  UNL d   1      -1.290  -5.999  -5.955  0.00  0.00     0.041 A 
ATOM      4  C3  UNL d   1      -0.246  -5.702  -5.057  0.00  0.00    -0.075 A 
ATOM      5  S   UNL d   1       1.437  -5.999  -5.283  0.00  0.00     0.015 SA
ATOM      6  C4  UNL d   1       1.834  -5.339  -3.763  0.00  0.00     0.022 A 
ATOM      7  C5  UNL d   1       0.722  -4.897  -3.086  0.00  0.00     0.026 A 
ATOM      8  C6  UNL d   1      -0.495  -5.099  -3.820  0.00  0.00    -0.082 A 
ATOM      9  C7  UNL d   1      -1.835  -4.790  -3.485  0.00  0.00     0.045 A 
ENDROOT
TORSDOF 0
ENDMDL
