MODEL 1
REMARK minimizedAffinity 15.1731281
REMARK minimizedRMSD -1
REMARK  0 active torsions:
REMARK  status: ('A' for Active; 'I' for Inactive)
ROOT
ATOM      1  C   UNL d   1       3.783   0.233   1.417  0.00  0.00    -0.002 A 
ATOM      2  C1  UNL d   1       4.099   0.107   0.072  0.00  0.00     0.010 A 
ATOM      3  C2  UNL d   1       4.784   1.125  -0.595  0.00  0.00     0.041 A 
ATOM      4  C3  UNL d   1       5.151   2.281   0.121  0.00  0.00    -0.075 A 
ATOM      5  S   UNL d   1       5.995   3.656  -0.488  0.00  0.00     0.015 SA
ATOM      6  C4  UNL d   1       5.956   4.442   1.024  0.00  0.00     0.022 A 
ATOM      7  C5  UNL d   1       5.318   3.689   1.981  0.00  0.00     0.026 A 
ATOM      8  C6  UNL d   1       4.844   2.431   1.476  0.00  0.00    -0.082 A 
ATOM      9  C7  UNL d   1       4.148   1.382   2.123  0.00  0.00     0.045 A 
ENDROOT
TORSDOF 0
ENDMDL
