MODEL 1
REMARK minimizedAffinity 13.2181702
REMARK minimizedRMSD -1
REMARK  0 active torsions:
REMARK  status: ('A' for Active; 'I' for Inactive)
ROOT
ATOM      1  C   UNL d   1       4.050   4.501  -3.118  0.00  0.00    -0.002 A 
ATOM      2  C1  UNL d   1       3.441   3.749  -4.113  0.00  0.00     0.010 A 
ATOM      3  C2  UNL d   1       2.052   3.751  -4.256  0.00  0.00     0.041 A 
ATOM      4  C3  UNL d   1       1.278   4.531  -3.374  0.00  0.00    -0.075 A 
ATOM      5  S   UNL d   1      -0.439   4.689  -3.361  0.00  0.00     0.015 SA
ATOM      6  C4  UNL d   1      -0.405   5.758  -2.034  0.00  0.00     0.022 A 
ATOM      7  C5  UNL d   1       0.877   6.000  -1.599  0.00  0.00     0.026 A 
ATOM      8  C6  UNL d   1       1.868   5.297  -2.365  0.00  0.00    -0.082 A 
ATOM      9  C7  UNL d   1       3.278   5.273  -2.245  0.00  0.00     0.045 A 
ENDROOT
TORSDOF 0
ENDMDL
