MODEL 1
REMARK minimizedAffinity 23.9501801
REMARK minimizedRMSD -1
REMARK  0 active torsions:
REMARK  status: ('A' for Active; 'I' for Inactive)
ROOT
ATOM      1  C   UNL d   1       5.304   4.102  -4.170  0.00  0.00    -0.002 A 
ATOM      2  C1  UNL d   1       5.334   4.855  -3.004  0.00  0.00     0.010 A 
ATOM      3  C2  UNL d   1       4.183   5.010  -2.229  0.00  0.00     0.041 A 
ATOM      4  C3  UNL d   1       2.991   4.387  -2.648  0.00  0.00    -0.075 A 
ATOM      5  S   UNL d   1       1.459   4.437  -1.857  0.00  0.00     0.015 SA
ATOM      6  C4  UNL d   1       0.729   3.460  -3.047  0.00  0.00     0.022 A 
ATOM      7  C5  UNL d   1       1.618   3.095  -4.031  0.00  0.00     0.026 A 
ATOM      8  C6  UNL d   1       2.936   3.623  -3.817  0.00  0.00    -0.082 A 
ATOM      9  C7  UNL d   1       4.119   3.486  -4.582  0.00  0.00     0.045 A 
ENDROOT
TORSDOF 0
ENDMDL
