MODEL 1
REMARK minimizedAffinity 24.2514153
REMARK minimizedRMSD -1
REMARK  0 active torsions:
REMARK  status: ('A' for Active; 'I' for Inactive)
ROOT
ATOM      1  C   UNL d   1      -2.186   0.078   2.692  0.00  0.00    -0.002 A 
ATOM      2  C1  UNL d   1      -2.276  -0.773   1.599  0.00  0.00     0.010 A 
ATOM      3  C2  UNL d   1      -1.334  -1.785   1.408  0.00  0.00     0.041 A 
ATOM      4  C3  UNL d   1      -0.291  -1.932   2.344  0.00  0.00    -0.075 A 
ATOM      5  S   UNL d   1       0.976  -3.101   2.315  0.00  0.00     0.015 SA
ATOM      6  C4  UNL d   1       1.665  -2.500   3.753  0.00  0.00     0.022 A 
ATOM      7  C5  UNL d   1       0.959  -1.433   4.256  0.00  0.00     0.026 A 
ATOM      8  C6  UNL d   1      -0.180  -1.088   3.453  0.00  0.00    -0.082 A 
ATOM      9  C7  UNL d   1      -1.150  -0.070   3.618  0.00  0.00     0.045 A 
ENDROOT
TORSDOF 0
ENDMDL
