MODEL 1
REMARK minimizedAffinity 21.5824184
REMARK minimizedRMSD -1
REMARK  0 active torsions:
REMARK  status: ('A' for Active; 'I' for Inactive)
ROOT
ATOM      1  C   UNL d   1      -2.732  -0.118   1.614  0.00  0.00    -0.002 A 
ATOM      2  C1  UNL d   1      -2.530   0.620   2.771  0.00  0.00     0.010 A 
ATOM      3  C2  UNL d   1      -1.485   0.306   3.642  0.00  0.00     0.041 A 
ATOM      4  C3  UNL d   1      -0.636  -0.773   3.325  0.00  0.00    -0.075 A 
ATOM      5  S   UNL d   1       0.710  -1.340   4.241  0.00  0.00     0.015 SA
ATOM      6  C4  UNL d   1       1.050  -2.576   3.117  0.00  0.00     0.022 A 
ATOM      7  C5  UNL d   1       0.168  -2.570   2.063  0.00  0.00     0.026 A 
ATOM      8  C6  UNL d   1      -0.818  -1.531   2.165  0.00  0.00    -0.082 A 
ATOM      9  C7  UNL d   1      -1.887  -1.187   1.303  0.00  0.00     0.045 A 
ENDROOT
TORSDOF 0
ENDMDL
