MODEL 1
REMARK minimizedAffinity 11.7401247
REMARK minimizedRMSD -1
REMARK  0 active torsions:
REMARK  status: ('A' for Active; 'I' for Inactive)
ROOT
ATOM      1  C   UNL d   1       3.059   5.274  -1.793  0.00  0.00    -0.002 A 
ATOM      2  C1  UNL d   1       2.125   4.496  -2.462  0.00  0.00     0.010 A 
ATOM      3  C2  UNL d   1       2.450   3.878  -3.671  0.00  0.00     0.041 A 
ATOM      4  C3  UNL d   1       3.743   4.056  -4.201  0.00  0.00    -0.075 A 
ATOM      5  S   UNL d   1       4.366   3.396  -5.667  0.00  0.00     0.015 SA
ATOM      6  C4  UNL d   1       5.887   4.130  -5.439  0.00  0.00     0.022 A 
ATOM      7  C5  UNL d   1       5.936   4.865  -4.278  0.00  0.00     0.026 A 
ATOM      8  C6  UNL d   1       4.702   4.834  -3.545  0.00  0.00    -0.082 A 
ATOM      9  C7  UNL d   1       4.341   5.448  -2.322  0.00  0.00     0.045 A 
ENDROOT
TORSDOF 0
ENDMDL
