MODEL 1
REMARK minimizedAffinity 17.2721272
REMARK minimizedRMSD -1
REMARK  0 active torsions:
REMARK  status: ('A' for Active; 'I' for Inactive)
ROOT
ATOM      1  C   UNL d   1       2.367   0.749   0.730  0.00  0.00    -0.002 A 
ATOM      2  C1  UNL d   1       2.848   0.674  -0.569  0.00  0.00     0.010 A 
ATOM      3  C2  UNL d   1       3.971   1.410  -0.954  0.00  0.00     0.041 A 
ATOM      4  C3  UNL d   1       4.609   2.228  -0.001  0.00  0.00    -0.075 A 
ATOM      5  S   UNL d   1       5.999   3.218  -0.246  0.00  0.00     0.015 SA
ATOM      6  C4  UNL d   1       5.988   3.763   1.369  0.00  0.00     0.022 A 
ATOM      7  C5  UNL d   1       4.955   3.214   2.091  0.00  0.00     0.026 A 
ATOM      8  C6  UNL d   1       4.143   2.320   1.313  0.00  0.00    -0.082 A 
ATOM      9  C7  UNL d   1       3.002   1.562   1.672  0.00  0.00     0.045 A 
ENDROOT
TORSDOF 0
ENDMDL
