MODEL 1
REMARK minimizedAffinity 6.28016949
REMARK minimizedRMSD -1
REMARK  0 active torsions:
REMARK  status: ('A' for Active; 'I' for Inactive)
ROOT
ATOM      1  C   UNL d   1      -2.028  -0.473   2.130  0.00  0.00    -0.002 A 
ATOM      2  C1  UNL d   1      -3.160  -0.651   1.347  0.00  0.00     0.010 A 
ATOM      3  C2  UNL d   1      -4.370  -0.050   1.702  0.00  0.00     0.041 A 
ATOM      4  C3  UNL d   1      -4.422   0.741   2.866  0.00  0.00    -0.075 A 
ATOM      5  S   UNL d   1      -5.794   1.575   3.495  0.00  0.00     0.015 SA
ATOM      6  C4  UNL d   1      -4.909   2.187   4.817  0.00  0.00     0.022 A 
ATOM      7  C5  UNL d   1      -3.598   1.775   4.795  0.00  0.00     0.026 A 
ATOM      8  C6  UNL d   1      -3.295   0.936   3.670  0.00  0.00    -0.082 A 
ATOM      9  C7  UNL d   1      -2.084   0.312   3.284  0.00  0.00     0.045 A 
ENDROOT
TORSDOF 0
ENDMDL
