MODEL 1
REMARK minimizedAffinity 18.930851
REMARK minimizedRMSD -1
REMARK  0 active torsions:
REMARK  status: ('A' for Active; 'I' for Inactive)
ROOT
ATOM      1  C   UNL d   1      -1.500  -6.000  -5.888  0.00  0.00    -0.002 A 
ATOM      2  C1  UNL d   1      -2.864  -5.772  -6.000  0.00  0.00     0.010 A 
ATOM      3  C2  UNL d   1      -3.502  -4.854  -5.163  0.00  0.00     0.041 A 
ATOM      4  C3  UNL d   1      -2.738  -4.161  -4.204  0.00  0.00    -0.075 A 
ATOM      5  S   UNL d   1      -3.304  -2.989  -3.072  0.00  0.00     0.015 SA
ATOM      6  C4  UNL d   1      -1.748  -2.763  -2.414  0.00  0.00     0.022 A 
ATOM      7  C5  UNL d   1      -0.807  -3.554  -3.031  0.00  0.00     0.026 A 
ATOM      8  C6  UNL d   1      -1.362  -4.372  -4.073  0.00  0.00    -0.082 A 
ATOM      9  C7  UNL d   1      -0.745  -5.310  -4.935  0.00  0.00     0.045 A 
ENDROOT
TORSDOF 0
ENDMDL
