MODEL 1
REMARK minimizedAffinity -4.08423662
REMARK minimizedRMSD -1
REMARK  3 active torsions:
REMARK  status: ('A' for Active; 'I' for Inactive)
REMARK    1  A    between atoms: C3'_2  and  C2'_3 
REMARK    2  A    between atoms: C2'_3  and  C1'_4 
REMARK    3  A    between atoms: C1'_4  and  C1_5 
ROOT
ATOM      1  C1  N4B d   1      -0.328   0.832   0.123  0.00  0.00    -0.075 A 
ATOM      2  C2  N4B d   1      -0.568   1.497   1.345  0.00  0.00     0.002 A 
ATOM      3  C3  N4B d   1      -0.995   2.803   1.344  0.00  0.00     0.002 A 
ATOM      4  C4  N4B d   1      -1.170   3.466   0.139  0.00  0.00    -0.004 A 
ATOM      5  C5  N4B d   1      -0.961   2.809  -1.038  0.00  0.00     0.002 A 
ATOM      6  C6  N4B d   1      -0.535   1.495  -1.052  0.00  0.00     0.002 A 
ENDROOT
BRANCH   1   7
ATOM      7  C1' N4B d   1       0.222  -0.567   0.075  0.00  0.00     0.057 C 
BRANCH   7   8
ATOM      8  C2' N4B d   1       0.299  -1.025  -1.379  0.00  0.00     0.009 C 
BRANCH   8   9
ATOM      9  C3' N4B d   1       0.459  -2.532  -1.492  0.00  0.00     0.004 C 
ATOM     10  C4' N4B d   1      -0.712  -3.192  -2.157  0.00  0.00     0.003 C 
ENDBRANCH   8   9
ENDBRANCH   7   8
ENDBRANCH   1   7
TORSDOF 3
ENDMDL
