MODEL 1
REMARK minimizedAffinity 1.72230387
REMARK minimizedRMSD -1
REMARK  3 active torsions:
REMARK  status: ('A' for Active; 'I' for Inactive)
REMARK    1  A    between atoms: C3'_2  and  C2'_3 
REMARK    2  A    between atoms: C2'_3  and  C1'_4 
REMARK    3  A    between atoms: C1'_4  and  C1_5 
ROOT
ATOM      1  C1  N4B d   1      -0.095  -0.257  -0.453  0.00  0.00    -0.075 A 
ATOM      2  C2  N4B d   1       0.604   0.884  -0.904  0.00  0.00     0.002 A 
ATOM      3  C3  N4B d   1      -0.045   1.836  -1.651  0.00  0.00     0.002 A 
ATOM      4  C4  N4B d   1      -1.382   1.661  -1.973  0.00  0.00    -0.004 A 
ATOM      5  C5  N4B d   1      -2.057   0.569  -1.512  0.00  0.00     0.002 A 
ATOM      6  C6  N4B d   1      -1.418  -0.395  -0.757  0.00  0.00     0.002 A 
ENDROOT
BRANCH   1   7
ATOM      7  C1' N4B d   1       0.594  -1.367   0.293  0.00  0.00     0.057 C 
BRANCH   7   8
ATOM      8  C2' N4B d   1       0.906  -2.503  -0.676  0.00  0.00     0.009 C 
BRANCH   8   9
ATOM      9  C3' N4B d   1       0.052  -3.731  -0.408  0.00  0.00     0.004 C 
ATOM     10  C4' N4B d   1      -1.142  -3.816  -1.311  0.00  0.00     0.003 C 
ENDBRANCH   8   9
ENDBRANCH   7   8
ENDBRANCH   1   7
TORSDOF 3
ENDMDL
