MODEL 1
REMARK minimizedAffinity 9.37739658
REMARK minimizedRMSD -1
REMARK  1 active torsions:
REMARK  status: ('A' for Active; 'I' for Inactive)
REMARK    1  A    between atoms: C1_2  and  C2_3 
ROOT
ATOM      1  C2  UNL d   1       0.175   3.214  -0.177  0.00  0.00    -0.076 A 
ATOM      2  C3  UNL d   1       1.318   3.917   0.241  0.00  0.00     0.004 A 
ATOM      3  C4  UNL d   1       1.769   3.834   1.557  0.00  0.00    -0.003 A 
ATOM      4  C5  UNL d   1       1.085   3.045   2.476  0.00  0.00     0.000 A 
ATOM      5  C6  UNL d   1      -0.041   2.327   2.074  0.00  0.00     0.000 A 
ATOM      6  C7  UNL d   1      -0.500   2.388   0.747  0.00  0.00    -0.073 A 
ATOM      7  C8  UNL d   1      -1.722   1.597   0.369  0.00  0.00     0.078 C 
ENDROOT
BRANCH   1   8
ATOM      8  C1  UNL d   1      -0.284   3.364  -1.610  0.00  0.00     0.053 C 
ATOM      9  C   UNL d   1      -1.475   4.300  -1.746  0.00  0.00     0.018 C 
ENDBRANCH   1   8
TORSDOF 1
ENDMDL
