MODEL 1
REMARK minimizedAffinity 7.09141731
REMARK minimizedRMSD -1
REMARK  1 active torsions:
REMARK  status: ('A' for Active; 'I' for Inactive)
REMARK    1  A    between atoms: C1_2  and  C2_3 
ROOT
ATOM      1  C2  UNL d   1      -0.625   3.253  -0.838  0.00  0.00    -0.076 A 
ATOM      2  C3  UNL d   1      -0.793   3.670   0.494  0.00  0.00     0.004 A 
ATOM      3  C4  UNL d   1       0.049   3.206   1.503  0.00  0.00    -0.003 A 
ATOM      4  C5  UNL d   1       1.074   2.317   1.196  0.00  0.00     0.000 A 
ATOM      5  C6  UNL d   1       1.266   1.907  -0.122  0.00  0.00     0.000 A 
ATOM      6  C7  UNL d   1       0.436   2.378  -1.154  0.00  0.00    -0.073 A 
ATOM      7  C8  UNL d   1       0.685   1.897  -2.557  0.00  0.00     0.078 C 
ENDROOT
BRANCH   1   8
ATOM      8  C1  UNL d   1      -1.586   3.769  -1.885  0.00  0.00     0.053 C 
ATOM      9  C   UNL d   1      -1.971   5.222  -1.657  0.00  0.00     0.018 C 
ENDBRANCH   1   8
TORSDOF 1
ENDMDL
