MODEL 1
REMARK minimizedAffinity 4.01267815
REMARK minimizedRMSD -1
REMARK  1 active torsions:
REMARK  status: ('A' for Active; 'I' for Inactive)
REMARK    1  A    between atoms: C1_2  and  C2_3 
ROOT
ATOM      1  C2  UNL d   1       0.762   3.836   0.999  0.00  0.00    -0.076 A 
ATOM      2  C3  UNL d   1       1.201   2.585   1.467  0.00  0.00     0.004 A 
ATOM      3  C4  UNL d   1       0.367   1.773   2.233  0.00  0.00    -0.003 A 
ATOM      4  C5  UNL d   1      -0.920   2.198   2.544  0.00  0.00     0.000 A 
ATOM      5  C6  UNL d   1      -1.378   3.428   2.073  0.00  0.00     0.000 A 
ATOM      6  C7  UNL d   1      -0.556   4.252   1.286  0.00  0.00    -0.073 A 
ATOM      7  C8  UNL d   1      -1.099   5.572   0.810  0.00  0.00     0.078 C 
ENDROOT
BRANCH   1   8
ATOM      8  C1  UNL d   1       1.720   4.685   0.195  0.00  0.00     0.053 C 
ATOM      9  C   UNL d   1       2.945   5.100   0.996  0.00  0.00     0.018 C 
ENDBRANCH   1   8
TORSDOF 1
ENDMDL
