MODEL 1
REMARK minimizedAffinity 6.96492434
REMARK minimizedRMSD -1
REMARK  1 active torsions:
REMARK  status: ('A' for Active; 'I' for Inactive)
REMARK    1  A    between atoms: C1_2  and  C2_3 
ROOT
ATOM      1  C2  UNL d   1       0.442   3.453   0.607  0.00  0.00    -0.076 A 
ATOM      2  C3  UNL d   1       1.174   2.290   0.904  0.00  0.00     0.004 A 
ATOM      3  C4  UNL d   1       1.003   1.625   2.116  0.00  0.00    -0.003 A 
ATOM      4  C5  UNL d   1       0.096   2.111   3.052  0.00  0.00     0.000 A 
ATOM      5  C6  UNL d   1      -0.651   3.253   2.767  0.00  0.00     0.000 A 
ATOM      6  C7  UNL d   1      -0.503   3.927   1.542  0.00  0.00    -0.073 A 
ATOM      7  C8  UNL d   1      -1.330   5.157   1.290  0.00  0.00     0.078 C 
ENDROOT
BRANCH   1   8
ATOM      8  C1  UNL d   1       0.690   4.148  -0.713  0.00  0.00     0.053 C 
ATOM      9  C   UNL d   1       1.783   5.201  -0.621  0.00  0.00     0.018 C 
ENDBRANCH   1   8
TORSDOF 1
ENDMDL
