MODEL 1
REMARK minimizedAffinity 1.88429952
REMARK minimizedRMSD -1
REMARK  1 active torsions:
REMARK  status: ('A' for Active; 'I' for Inactive)
REMARK    1  A    between atoms: C1_2  and  C2_3 
ROOT
ATOM      1  C2  UNL d   1      -0.807   4.414  -1.254  0.00  0.00    -0.076 A 
ATOM      2  C3  UNL d   1      -1.257   3.495  -0.290  0.00  0.00     0.004 A 
ATOM      3  C4  UNL d   1      -0.355   2.798   0.513  0.00  0.00    -0.003 A 
ATOM      4  C5  UNL d   1       1.011   3.010   0.366  0.00  0.00     0.000 A 
ATOM      5  C6  UNL d   1       1.474   3.932  -0.572  0.00  0.00     0.000 A 
ATOM      6  C7  UNL d   1       0.578   4.654  -1.379  0.00  0.00    -0.073 A 
ATOM      7  C8  UNL d   1       1.133   5.631  -2.379  0.00  0.00     0.078 C 
ENDROOT
BRANCH   1   8
ATOM      8  C1  UNL d   1      -1.830   5.119  -2.115  0.00  0.00     0.053 C 
ATOM      9  C   UNL d   1      -3.251   4.656  -1.830  0.00  0.00     0.018 C 
ENDBRANCH   1   8
TORSDOF 1
ENDMDL
