MODEL 1
REMARK minimizedAffinity 0.113652922
REMARK minimizedRMSD -1
REMARK  1 active torsions:
REMARK  status: ('A' for Active; 'I' for Inactive)
REMARK    1  A    between atoms: C1_2  and  C2_3 
ROOT
ATOM      1  C2  UNL d   1      -0.631   2.837   1.362  0.00  0.00    -0.076 A 
ATOM      2  C3  UNL d   1      -1.119   4.056   1.865  0.00  0.00     0.004 A 
ATOM      3  C4  UNL d   1      -1.147   5.201   1.069  0.00  0.00    -0.003 A 
ATOM      4  C5  UNL d   1      -0.689   5.145  -0.242  0.00  0.00     0.000 A 
ATOM      5  C6  UNL d   1      -0.219   3.940  -0.763  0.00  0.00     0.000 A 
ATOM      6  C7  UNL d   1      -0.198   2.773   0.020  0.00  0.00    -0.073 A 
ATOM      7  C8  UNL d   1       0.325   1.502  -0.591  0.00  0.00     0.078 C 
ENDROOT
BRANCH   1   8
ATOM      8  C1  UNL d   1      -0.600   1.636   2.279  0.00  0.00     0.053 C 
ATOM      9  C   UNL d   1       0.682   1.559   3.094  0.00  0.00     0.018 C 
ENDBRANCH   1   8
TORSDOF 1
ENDMDL
