MODEL 1
REMARK minimizedAffinity 3.56138086
REMARK minimizedRMSD -1
REMARK  1 active torsions:
REMARK  status: ('A' for Active; 'I' for Inactive)
REMARK    1  A    between atoms: C1_2  and  C2_3 
ROOT
ATOM      1  C2  UNL d   1      -5.216   2.987  -3.493  0.00  0.00    -0.076 A 
ATOM      2  C3  UNL d   1      -5.011   1.597  -3.442  0.00  0.00     0.004 A 
ATOM      3  C4  UNL d   1      -5.286   0.874  -2.282  0.00  0.00    -0.003 A 
ATOM      4  C5  UNL d   1      -5.773   1.528  -1.156  0.00  0.00     0.000 A 
ATOM      5  C6  UNL d   1      -5.999   2.904  -1.195  0.00  0.00     0.000 A 
ATOM      6  C7  UNL d   1      -5.742   3.645  -2.361  0.00  0.00    -0.073 A 
ATOM      7  C8  UNL d   1      -5.998   5.127  -2.346  0.00  0.00     0.078 C 
ENDROOT
BRANCH   1   8
ATOM      8  C1  UNL d   1      -4.873   3.723  -4.769  0.00  0.00     0.053 C 
ATOM      9  C   UNL d   1      -5.940   3.559  -5.841  0.00  0.00     0.018 C 
ENDBRANCH   1   8
TORSDOF 1
ENDMDL
