MODEL 1
REMARK minimizedAffinity -1.10328341
REMARK minimizedRMSD -1
REMARK  0 active torsions:
REMARK  status: ('A' for Active; 'I' for Inactive)
ROOT
ATOM      1  C   UNL d   1      -0.717   3.934  -2.591  0.00  0.00     0.124 A 
ATOM      2  C1  UNL d   1      -1.516   2.807  -2.464  0.00  0.00     0.062 A 
ATOM      3  C2  UNL d   1      -1.147   1.781  -1.599  0.00  0.00     0.162 A 
ATOM      4  C3  UNL d   1       0.029   1.877  -0.854  0.00  0.00    -0.034 A 
ATOM      5  C4  UNL d   1       0.828   3.014  -0.988  0.00  0.00     0.162 A 
ATOM      6  C5  UNL d   1       0.454   4.037  -1.854  0.00  0.00     0.062 A 
ATOM      7  F   UNL d   1       1.228   5.125  -1.976  0.00  0.00    -0.097 F 
ATOM      8  F1  UNL d   1       1.964   3.139  -0.287  0.00  0.00    -0.096 F 
ATOM      9  I   UNL d   1       0.585   0.345   0.440  0.00  0.00    -0.060 I 
ATOM     10  F2  UNL d   1      -1.938   0.703  -1.496  0.00  0.00    -0.096 F 
ATOM     11  F3  UNL d   1      -2.648   2.705  -3.176  0.00  0.00    -0.097 F 
ATOM     12  F4  UNL d   1      -1.074   4.920  -3.425  0.00  0.00    -0.092 F 
ENDROOT
TORSDOF 0
ENDMDL
