MODEL 1
REMARK minimizedAffinity 3.2780056
REMARK minimizedRMSD -1
REMARK  0 active torsions:
REMARK  status: ('A' for Active; 'I' for Inactive)
ROOT
ATOM      1  C   UNL d   1      -2.301   3.275  -3.385  0.00  0.00     0.124 A 
ATOM      2  C1  UNL d   1      -2.777   2.142  -2.740  0.00  0.00     0.062 A 
ATOM      3  C2  UNL d   1      -1.887   1.203  -2.226  0.00  0.00     0.162 A 
ATOM      4  C3  UNL d   1      -0.512   1.393  -2.355  0.00  0.00    -0.034 A 
ATOM      5  C4  UNL d   1      -0.040   2.534  -3.005  0.00  0.00     0.162 A 
ATOM      6  C5  UNL d   1      -0.933   3.470  -3.517  0.00  0.00     0.062 A 
ATOM      7  F   UNL d   1      -0.471   4.564  -4.140  0.00  0.00    -0.097 F 
ATOM      8  F1  UNL d   1       1.277   2.748  -3.146  0.00  0.00    -0.096 F 
ATOM      9  I   UNL d   1       0.822  -0.009  -1.588  0.00  0.00    -0.060 I 
ATOM     10  F2  UNL d   1      -2.376   0.117  -1.608  0.00  0.00    -0.096 F 
ATOM     11  F3  UNL d   1      -4.098   1.951  -2.611  0.00  0.00    -0.097 F 
ATOM     12  F4  UNL d   1      -3.159   4.176  -3.878  0.00  0.00    -0.092 F 
ENDROOT
TORSDOF 0
ENDMDL
