MODEL 1
REMARK minimizedAffinity -3.14154792
REMARK minimizedRMSD -1
REMARK  0 active torsions:
REMARK  status: ('A' for Active; 'I' for Inactive)
ROOT
ATOM      1  C   UNL d   1       2.029  -0.497   0.111  0.00  0.00     0.124 A 
ATOM      2  C1  UNL d   1       1.614  -1.246  -0.981  0.00  0.00     0.062 A 
ATOM      3  C2  UNL d   1       0.257  -1.390  -1.256  0.00  0.00     0.162 A 
ATOM      4  C3  UNL d   1      -0.695  -0.781  -0.439  0.00  0.00    -0.034 A 
ATOM      5  C4  UNL d   1      -0.270  -0.030   0.658  0.00  0.00     0.162 A 
ATOM      6  C5  UNL d   1       1.087   0.110   0.930  0.00  0.00     0.062 A 
ATOM      7  F   UNL d   1       1.486   0.835   1.985  0.00  0.00    -0.097 F 
ATOM      8  F1  UNL d   1      -1.159   0.568   1.465  0.00  0.00    -0.096 F 
ATOM      9  I   UNL d   1      -2.725  -0.993  -0.847  0.00  0.00    -0.060 I 
ATOM     10  F2  UNL d   1      -0.115  -2.120  -2.318  0.00  0.00    -0.096 F 
ATOM     11  F3  UNL d   1       2.522  -1.835  -1.773  0.00  0.00    -0.097 F 
ATOM     12  F4  UNL d   1       3.335  -0.362   0.375  0.00  0.00    -0.092 F 
ENDROOT
TORSDOF 0
ENDMDL
