MODEL 1
REMARK minimizedAffinity 11.5864544
REMARK minimizedRMSD -1
REMARK  0 active torsions:
REMARK  status: ('A' for Active; 'I' for Inactive)
ROOT
ATOM      1  C   UNL d   1      -4.868  -2.296  -0.725  0.00  0.00     0.124 A 
ATOM      2  C1  UNL d   1      -4.633  -1.590   0.447  0.00  0.00     0.062 A 
ATOM      3  C2  UNL d   1      -3.489  -0.808   0.576  0.00  0.00     0.162 A 
ATOM      4  C3  UNL d   1      -2.570  -0.727  -0.471  0.00  0.00    -0.034 A 
ATOM      5  C4  UNL d   1      -2.813  -1.440  -1.646  0.00  0.00     0.162 A 
ATOM      6  C5  UNL d   1      -3.958  -2.220  -1.770  0.00  0.00     0.062 A 
ATOM      7  F   UNL d   1      -4.184  -2.901  -2.903  0.00  0.00    -0.097 F 
ATOM      8  F1  UNL d   1      -1.951  -1.384  -2.672  0.00  0.00    -0.096 F 
ATOM      9  I   UNL d   1      -0.858   0.441  -0.282  0.00  0.00    -0.060 I 
ATOM     10  F2  UNL d   1      -3.287  -0.137   1.720  0.00  0.00    -0.096 F 
ATOM     11  F3  UNL d   1      -5.510  -1.662   1.459  0.00  0.00    -0.097 F 
ATOM     12  F4  UNL d   1      -5.970  -3.048  -0.846  0.00  0.00    -0.092 F 
ENDROOT
TORSDOF 0
ENDMDL
