MODEL 1
REMARK minimizedAffinity 3.90648293
REMARK minimizedRMSD -1
REMARK  0 active torsions:
REMARK  status: ('A' for Active; 'I' for Inactive)
ROOT
ATOM      1  C   UNL d   1       1.338  -0.527   1.521  0.00  0.00     0.124 A 
ATOM      2  C1  UNL d   1       1.037   0.251   0.412  0.00  0.00     0.062 A 
ATOM      3  C2  UNL d   1      -0.232   0.198  -0.157  0.00  0.00     0.162 A 
ATOM      4  C3  UNL d   1      -1.211  -0.635   0.385  0.00  0.00    -0.034 A 
ATOM      5  C4  UNL d   1      -0.901  -1.415   1.500  0.00  0.00     0.162 A 
ATOM      6  C5  UNL d   1       0.369  -1.358   2.064  0.00  0.00     0.062 A 
ATOM      7  F   UNL d   1       0.658  -2.110   3.136  0.00  0.00    -0.097 F 
ATOM      8  F1  UNL d   1      -1.819  -2.227   2.046  0.00  0.00    -0.096 F 
ATOM      9  I   UNL d   1      -3.111  -0.717  -0.462  0.00  0.00    -0.060 I 
ATOM     10  F2  UNL d   1      -0.495   0.961  -1.228  0.00  0.00    -0.096 F 
ATOM     11  F3  UNL d   1       1.972   1.055  -0.115  0.00  0.00    -0.097 F 
ATOM     12  F4  UNL d   1       2.561  -0.475   2.066  0.00  0.00    -0.092 F 
ENDROOT
TORSDOF 0
ENDMDL
