MODEL 1
REMARK minimizedAffinity -2.47208691
REMARK minimizedRMSD -1
REMARK  1 active torsions:
REMARK  status: ('A' for Active; 'I' for Inactive)
REMARK    1  A    between atoms: C1_2  and  C2_3 
ROOT
ATOM      1  C2  UNL d   1      -0.119  -0.393  -0.142  0.00  0.00    -0.073 A 
ATOM      2  C3  UNL d   1      -1.054   0.122   0.763  0.00  0.00    -0.002 A 
ATOM      3  C4  UNL d   1      -1.088  -0.338   2.080  0.00  0.00     0.004 A 
ATOM      4  C5  UNL d   1      -0.184  -1.310   2.507  0.00  0.00    -0.004 A 
ATOM      5  C6  UNL d   1       0.766  -1.828   1.621  0.00  0.00    -0.075 A 
ATOM      6  C7  UNL d   1       1.744  -2.876   2.065  0.00  0.00     0.076 C 
ATOM      7  C8  UNL d   1       0.792  -1.363   0.299  0.00  0.00     0.001 A 
ENDROOT
BRANCH   1   8
ATOM      8  C1  UNL d   1      -0.075   0.105  -1.563  0.00  0.00     0.053 C 
ATOM      9  C   UNL d   1      -0.419   1.583  -1.660  0.00  0.00     0.018 C 
ENDBRANCH   1   8
TORSDOF 1
ENDMDL
