MODEL 1
REMARK minimizedAffinity -3.09584475
REMARK minimizedRMSD -1
REMARK  1 active torsions:
REMARK  status: ('A' for Active; 'I' for Inactive)
REMARK    1  A    between atoms: C1_2  and  C2_3 
ROOT
ATOM      1  C2  UNL d   1      -0.477  -0.002  -0.840  0.00  0.00    -0.073 A 
ATOM      2  C3  UNL d   1       0.629  -0.714  -1.318  0.00  0.00    -0.002 A 
ATOM      3  C4  UNL d   1       1.439  -1.432  -0.437  0.00  0.00     0.004 A 
ATOM      4  C5  UNL d   1       1.149  -1.450   0.927  0.00  0.00    -0.004 A 
ATOM      5  C6  UNL d   1       0.041  -0.755   1.422  0.00  0.00    -0.075 A 
ATOM      6  C7  UNL d   1      -0.284  -0.763   2.887  0.00  0.00     0.076 C 
ATOM      7  C8  UNL d   1      -0.767  -0.034   0.531  0.00  0.00     0.001 A 
ENDROOT
BRANCH   1   8
ATOM      8  C1  UNL d   1      -1.359   0.769  -1.788  0.00  0.00     0.053 C 
ATOM      9  C   UNL d   1      -0.655   1.992  -2.355  0.00  0.00     0.018 C 
ENDBRANCH   1   8
TORSDOF 1
ENDMDL
