MODEL 1
REMARK minimizedAffinity -5.16666651
REMARK minimizedRMSD -1
REMARK  1 active torsions:
REMARK  status: ('A' for Active; 'I' for Inactive)
REMARK    1  A    between atoms: C1_2  and  C2_3 
ROOT
ATOM      1  C2  UNL d   1      -0.023   0.088  -0.934  0.00  0.00    -0.073 A 
ATOM      2  C3  UNL d   1       0.605  -0.876  -1.730  0.00  0.00    -0.002 A 
ATOM      3  C4  UNL d   1       1.510  -1.776  -1.165  0.00  0.00     0.004 A 
ATOM      4  C5  UNL d   1       1.790  -1.726   0.200  0.00  0.00    -0.004 A 
ATOM      5  C6  UNL d   1       1.164  -0.777   1.014  0.00  0.00    -0.075 A 
ATOM      6  C7  UNL d   1       1.456  -0.709   2.485  0.00  0.00     0.076 C 
ATOM      7  C8  UNL d   1       0.259   0.125   0.440  0.00  0.00     0.001 A 
ENDROOT
BRANCH   1   8
ATOM      8  C1  UNL d   1      -1.005   1.058  -1.538  0.00  0.00     0.053 C 
ATOM      9  C   UNL d   1      -0.316   2.105  -2.400  0.00  0.00     0.018 C 
ENDBRANCH   1   8
TORSDOF 1
ENDMDL
