MODEL 1
REMARK minimizedAffinity 27.7976913
REMARK minimizedRMSD -1
REMARK  0 active torsions:
REMARK  status: ('A' for Active; 'I' for Inactive)
ROOT
ATOM      1  C   UNL d   1       1.100  -1.519   2.298  0.00  0.00     0.124 A 
ATOM      2  C1  UNL d   1       1.970  -0.968   1.367  0.00  0.00     0.062 A 
ATOM      3  C2  UNL d   1       3.342  -1.162   1.491  0.00  0.00     0.162 A 
ATOM      4  C3  UNL d   1       3.854  -1.913   2.550  0.00  0.00    -0.034 A 
ATOM      5  C4  UNL d   1       2.972  -2.463   3.482  0.00  0.00     0.162 A 
ATOM      6  C5  UNL d   1       1.602  -2.265   3.354  0.00  0.00     0.062 A 
ATOM      7  F   UNL d   1       0.762  -2.799   4.254  0.00  0.00    -0.097 F 
ATOM      8  F1  UNL d   1       3.430  -3.190   4.512  0.00  0.00    -0.096 F 
ATOM      9  I   UNL d   1       5.905  -2.206   2.739  0.00  0.00    -0.060 I 
ATOM     10  F2  UNL d   1       4.160  -0.618   0.577  0.00  0.00    -0.096 F 
ATOM     11  F3  UNL d   1       1.487  -0.245   0.346  0.00  0.00    -0.097 F 
ATOM     12  F4  UNL d   1      -0.221  -1.329   2.176  0.00  0.00    -0.092 F 
ENDROOT
TORSDOF 0
ENDMDL
