MODEL 1
REMARK minimizedAffinity 21.1410446
REMARK minimizedRMSD -1
REMARK  0 active torsions:
REMARK  status: ('A' for Active; 'I' for Inactive)
ROOT
ATOM      1  C   UNL d   1       1.204  -0.491   1.476  0.00  0.00     0.124 A 
ATOM      2  C1  UNL d   1       0.013  -1.156   1.220  0.00  0.00     0.062 A 
ATOM      3  C2  UNL d   1      -1.152  -0.436   0.970  0.00  0.00     0.162 A 
ATOM      4  C3  UNL d   1      -1.130   0.959   0.973  0.00  0.00    -0.034 A 
ATOM      5  C4  UNL d   1       0.071   1.621   1.233  0.00  0.00     0.162 A 
ATOM      6  C5  UNL d   1       1.232   0.896   1.482  0.00  0.00     0.062 A 
ATOM      7  F   UNL d   1       2.382   1.540   1.729  0.00  0.00    -0.097 F 
ATOM      8  F1  UNL d   1       0.127   2.961   1.244  0.00  0.00    -0.096 F 
ATOM      9  I   UNL d   1      -2.869   2.040   0.600  0.00  0.00    -0.060 I 
ATOM     10  F2  UNL d   1      -2.288  -1.104   0.726  0.00  0.00    -0.096 F 
ATOM     11  F3  UNL d   1      -0.017  -2.497   1.214  0.00  0.00    -0.097 F 
ATOM     12  F4  UNL d   1       2.323  -1.187   1.717  0.00  0.00    -0.092 F 
ENDROOT
TORSDOF 0
ENDMDL
