MODEL 1
REMARK minimizedAffinity 11.6433134
REMARK minimizedRMSD -1
REMARK  0 active torsions:
REMARK  status: ('A' for Active; 'I' for Inactive)
ROOT
ATOM      1  C   UNL d   1       1.970  -2.677  -0.997  0.00  0.00     0.124 A 
ATOM      2  C1  UNL d   1       2.657  -1.486  -0.808  0.00  0.00     0.062 A 
ATOM      3  C2  UNL d   1       3.413  -0.943  -1.843  0.00  0.00     0.162 A 
ATOM      4  C3  UNL d   1       3.485  -1.590  -3.076  0.00  0.00    -0.034 A 
ATOM      5  C4  UNL d   1       2.792  -2.788  -3.258  0.00  0.00     0.162 A 
ATOM      6  C5  UNL d   1       2.038  -3.327  -2.221  0.00  0.00     0.062 A 
ATOM      7  F   UNL d   1       1.375  -4.478  -2.405  0.00  0.00    -0.097 F 
ATOM      8  F1  UNL d   1       2.840  -3.436  -4.431  0.00  0.00    -0.096 F 
ATOM      9  I   UNL d   1       4.615  -0.781  -4.626  0.00  0.00    -0.060 I 
ATOM     10  F2  UNL d   1       4.067   0.210  -1.633  0.00  0.00    -0.096 F 
ATOM     11  F3  UNL d   1       2.593  -0.857   0.374  0.00  0.00    -0.097 F 
ATOM     12  F4  UNL d   1       1.244  -3.198   0.001  0.00  0.00    -0.092 F 
ENDROOT
TORSDOF 0
ENDMDL
