MODEL 1
REMARK minimizedAffinity 15.2182302
REMARK minimizedRMSD -1
REMARK  0 active torsions:
REMARK  status: ('A' for Active; 'I' for Inactive)
ROOT
ATOM      1  C   UNL d   1       2.546  -1.210   1.830  0.00  0.00     0.124 A 
ATOM      2  C1  UNL d   1       3.647  -2.000   2.134  0.00  0.00     0.062 A 
ATOM      3  C2  UNL d   1       3.510  -3.095   2.982  0.00  0.00     0.162 A 
ATOM      4  C3  UNL d   1       2.266  -3.408   3.532  0.00  0.00    -0.034 A 
ATOM      5  C4  UNL d   1       1.165  -2.609   3.222  0.00  0.00     0.162 A 
ATOM      6  C5  UNL d   1       1.307  -1.515   2.374  0.00  0.00     0.062 A 
ATOM      7  F   UNL d   1       0.243  -0.754   2.081  0.00  0.00    -0.097 F 
ATOM      8  F1  UNL d   1      -0.045  -2.881   3.733  0.00  0.00    -0.096 F 
ATOM      9  I   UNL d   1       2.057  -5.044   4.801  0.00  0.00    -0.060 I 
ATOM     10  F2  UNL d   1       4.590  -3.840   3.259  0.00  0.00    -0.096 F 
ATOM     11  F3  UNL d   1       4.846  -1.707   1.610  0.00  0.00    -0.097 F 
ATOM     12  F4  UNL d   1       2.681  -0.157   1.014  0.00  0.00    -0.092 F 
ENDROOT
TORSDOF 0
ENDMDL
