MODEL 1
REMARK minimizedAffinity 11.6093779
REMARK minimizedRMSD -1
REMARK  0 active torsions:
REMARK  status: ('A' for Active; 'I' for Inactive)
ROOT
ATOM      1  C   UNL d   1       3.074  -2.403  -3.745  0.00  0.00     0.124 A 
ATOM      2  C1  UNL d   1       4.149  -2.719  -4.565  0.00  0.00     0.062 A 
ATOM      3  C2  UNL d   1       4.857  -1.709  -5.210  0.00  0.00     0.162 A 
ATOM      4  C3  UNL d   1       4.494  -0.374  -5.037  0.00  0.00    -0.034 A 
ATOM      5  C4  UNL d   1       3.411  -0.064  -4.212  0.00  0.00     0.162 A 
ATOM      6  C5  UNL d   1       2.706  -1.077  -3.570  0.00  0.00     0.062 A 
ATOM      7  F   UNL d   1       1.667  -0.770  -2.779  0.00  0.00    -0.097 F 
ATOM      8  F1  UNL d   1       3.034   1.209  -4.024  0.00  0.00    -0.096 F 
ATOM      9  I   UNL d   1       5.550   1.139  -6.000  0.00  0.00    -0.060 I 
ATOM     10  F2  UNL d   1       5.892  -2.043  -5.995  0.00  0.00    -0.096 F 
ATOM     11  F3  UNL d   1       4.506  -4.000  -4.737  0.00  0.00    -0.097 F 
ATOM     12  F4  UNL d   1       2.393  -3.377  -3.127  0.00  0.00    -0.092 F 
ENDROOT
TORSDOF 0
ENDMDL
