MODEL 1
REMARK minimizedAffinity 11.2778931
REMARK minimizedRMSD -1
REMARK  0 active torsions:
REMARK  status: ('A' for Active; 'I' for Inactive)
ROOT
ATOM      1  C   UNL d   1       1.411  -1.721   2.622  0.00  0.00     0.124 A 
ATOM      2  C1  UNL d   1       2.465  -1.375   1.788  0.00  0.00     0.062 A 
ATOM      3  C2  UNL d   1       3.776  -1.653   2.164  0.00  0.00     0.162 A 
ATOM      4  C3  UNL d   1       4.040  -2.282   3.380  0.00  0.00    -0.034 A 
ATOM      5  C4  UNL d   1       2.975  -2.627   4.214  0.00  0.00     0.162 A 
ATOM      6  C5  UNL d   1       1.667  -2.347   3.834  0.00  0.00     0.062 A 
ATOM      7  F   UNL d   1       0.650  -2.683   4.641  0.00  0.00    -0.097 F 
ATOM      8  F1  UNL d   1       3.194  -3.233   5.391  0.00  0.00    -0.096 F 
ATOM      9  I   UNL d   1       5.999  -2.700   3.946  0.00  0.00    -0.060 I 
ATOM     10  F2  UNL d   1       4.774  -1.306   1.338  0.00  0.00    -0.096 F 
ATOM     11  F3  UNL d   1       2.220  -0.769   0.617  0.00  0.00    -0.097 F 
ATOM     12  F4  UNL d   1       0.150  -1.452   2.258  0.00  0.00    -0.092 F 
ENDROOT
TORSDOF 0
ENDMDL
