MODEL 1
REMARK minimizedAffinity 18.509325
REMARK minimizedRMSD -1
REMARK  0 active torsions:
REMARK  status: ('A' for Active; 'I' for Inactive)
ROOT
ATOM      1  C   UNL d   1       1.403  -3.085   3.230  0.00  0.00     0.124 A 
ATOM      2  C1  UNL d   1       1.666  -4.075   4.167  0.00  0.00     0.062 A 
ATOM      3  C2  UNL d   1       2.978  -4.461   4.428  0.00  0.00     0.162 A 
ATOM      4  C3  UNL d   1       4.037  -3.856   3.751  0.00  0.00    -0.034 A 
ATOM      5  C4  UNL d   1       3.765  -2.862   2.809  0.00  0.00     0.162 A 
ATOM      6  C5  UNL d   1       2.452  -2.480   2.552  0.00  0.00     0.062 A 
ATOM      7  F   UNL d   1       2.200  -1.524   1.647  0.00  0.00    -0.097 F 
ATOM      8  F1  UNL d   1       4.759  -2.260   2.141  0.00  0.00    -0.096 F 
ATOM      9  I   UNL d   1       6.000  -4.430   4.138  0.00  0.00    -0.060 I 
ATOM     10  F2  UNL d   1       3.203  -5.419   5.339  0.00  0.00    -0.096 F 
ATOM     11  F3  UNL d   1       0.655  -4.661   4.823  0.00  0.00    -0.097 F 
ATOM     12  F4  UNL d   1       0.140  -2.716   2.980  0.00  0.00    -0.092 F 
ENDROOT
TORSDOF 0
ENDMDL
