MODEL 1
REMARK minimizedAffinity 26.8064976
REMARK minimizedRMSD -1
REMARK  0 active torsions:
REMARK  status: ('A' for Active; 'I' for Inactive)
ROOT
ATOM      1  C   UNL d   1      -3.038   1.482  -2.251  0.00  0.00     0.124 A 
ATOM      2  C1  UNL d   1      -2.804   1.847  -0.932  0.00  0.00     0.062 A 
ATOM      3  C2  UNL d   1      -3.648   2.752  -0.296  0.00  0.00     0.162 A 
ATOM      4  C3  UNL d   1      -4.736   3.300  -0.978  0.00  0.00    -0.034 A 
ATOM      5  C4  UNL d   1      -4.964   2.929  -2.304  0.00  0.00     0.162 A 
ATOM      6  C5  UNL d   1      -4.117   2.023  -2.935  0.00  0.00     0.062 A 
ATOM      7  F   UNL d   1      -4.345   1.672  -4.209  0.00  0.00    -0.097 F 
ATOM      8  F1  UNL d   1      -6.000   3.435  -2.989  0.00  0.00    -0.096 F 
ATOM      9  I   UNL d   1      -6.000   4.654  -0.030  0.00  0.00    -0.060 I 
ATOM     10  F2  UNL d   1      -3.398   3.087   0.978  0.00  0.00    -0.096 F 
ATOM     11  F3  UNL d   1      -1.762   1.326  -0.269  0.00  0.00    -0.097 F 
ATOM     12  F4  UNL d   1      -2.224   0.611  -2.861  0.00  0.00    -0.092 F 
ENDROOT
TORSDOF 0
ENDMDL
