MODEL 1
REMARK minimizedAffinity 19.527195
REMARK minimizedRMSD -1
REMARK  0 active torsions:
REMARK  status: ('A' for Active; 'I' for Inactive)
ROOT
ATOM      1  C   UNL d   1      -3.207   1.297  -2.575  0.00  0.00     0.124 A 
ATOM      2  C1  UNL d   1      -2.977   1.527  -1.226  0.00  0.00     0.062 A 
ATOM      3  C2  UNL d   1      -3.767   2.436  -0.526  0.00  0.00     0.162 A 
ATOM      4  C3  UNL d   1      -4.795   3.120  -1.174  0.00  0.00    -0.034 A 
ATOM      5  C4  UNL d   1      -5.019   2.884  -2.532  0.00  0.00     0.162 A 
ATOM      6  C5  UNL d   1      -4.228   1.975  -3.226  0.00  0.00     0.062 A 
ATOM      7  F   UNL d   1      -4.452   1.754  -4.530  0.00  0.00    -0.097 F 
ATOM      8  F1  UNL d   1      -6.000   3.524  -3.186  0.00  0.00    -0.096 F 
ATOM      9  I   UNL d   1      -5.977   4.479  -0.132  0.00  0.00    -0.060 I 
ATOM     10  F2  UNL d   1      -3.522   2.638   0.777  0.00  0.00    -0.096 F 
ATOM     11  F3  UNL d   1      -1.991   0.874  -0.594  0.00  0.00    -0.097 F 
ATOM     12  F4  UNL d   1      -2.446   0.423  -3.246  0.00  0.00    -0.092 F 
ENDROOT
TORSDOF 0
ENDMDL
