MODEL 1
REMARK minimizedAffinity 3.01340246
REMARK minimizedRMSD -1
REMARK  0 active torsions:
REMARK  status: ('A' for Active; 'I' for Inactive)
ROOT
ATOM      1  C   UNL d   1       5.825  -4.506   1.738  0.00  0.00     0.023 A 
ATOM      2  C1  UNL d   1       6.000  -3.220   2.249  0.00  0.00     0.003 A 
ATOM      3  C2  UNL d   1       5.052  -2.678   3.120  0.00  0.00     0.048 A 
ATOM      4  C3  UNL d   1       3.932  -3.428   3.476  0.00  0.00     0.023 A 
ATOM      5  C4  UNL d   1       3.754  -4.716   2.969  0.00  0.00     0.048 A 
ATOM      6  C5  UNL d   1       4.703  -5.253   2.097  0.00  0.00     0.003 A 
ATOM      7  I   UNL d   1       2.521  -2.624   4.773  0.00  0.00    -0.146 I 
ENDROOT
TORSDOF 0
ENDMDL
