MODEL 1
REMARK minimizedAffinity -3.65065098
REMARK minimizedRMSD -1
REMARK  0 active torsions:
REMARK  status: ('A' for Active; 'I' for Inactive)
ROOT
ATOM      1  C   UNL d   1       4.173  -5.686  -5.027  0.00  0.00     0.023 A 
ATOM      2  C1  UNL d   1       4.908  -5.837  -3.852  0.00  0.00     0.003 A 
ATOM      3  C2  UNL d   1       4.252  -5.927  -2.623  0.00  0.00     0.048 A 
ATOM      4  C3  UNL d   1       2.859  -5.866  -2.577  0.00  0.00     0.023 A 
ATOM      5  C4  UNL d   1       2.119  -5.716  -3.751  0.00  0.00     0.048 A 
ATOM      6  C5  UNL d   1       2.781  -5.625  -4.977  0.00  0.00     0.003 A 
ATOM      7  I   UNL d   1       1.879  -5.999  -0.749  0.00  0.00    -0.146 I 
ENDROOT
TORSDOF 0
ENDMDL
