MODEL 1
REMARK minimizedAffinity 4.80210829
REMARK minimizedRMSD -1
REMARK  0 active torsions:
REMARK  status: ('A' for Active; 'I' for Inactive)
ROOT
ATOM      1  C   UNL d   1      -4.614   3.045   1.974  0.00  0.00     0.023 A 
ATOM      2  C1  UNL d   1      -5.670   2.645   1.156  0.00  0.00     0.003 A 
ATOM      3  C2  UNL d   1      -5.449   2.392  -0.200  0.00  0.00     0.048 A 
ATOM      4  C3  UNL d   1      -4.168   2.540  -0.730  0.00  0.00     0.023 A 
ATOM      5  C4  UNL d   1      -3.107   2.940   0.085  0.00  0.00     0.048 A 
ATOM      6  C5  UNL d   1      -3.334   3.192   1.439  0.00  0.00     0.003 A 
ATOM      7  I   UNL d   1      -3.835   2.164  -2.747  0.00  0.00    -0.146 I 
ENDROOT
TORSDOF 0
ENDMDL
