MODEL 1
REMARK minimizedAffinity 4.49387598
REMARK minimizedRMSD -1
REMARK  0 active torsions:
REMARK  status: ('A' for Active; 'I' for Inactive)
ROOT
ATOM      1  C   UNL d   1       2.280  -3.612   5.173  0.00  0.00     0.023 A 
ATOM      2  C1  UNL d   1       1.023  -3.052   4.943  0.00  0.00     0.003 A 
ATOM      3  C2  UNL d   1       0.899  -1.919   4.137  0.00  0.00     0.048 A 
ATOM      4  C3  UNL d   1       2.035  -1.351   3.563  0.00  0.00     0.023 A 
ATOM      5  C4  UNL d   1       3.295  -1.907   3.790  0.00  0.00     0.048 A 
ATOM      6  C5  UNL d   1       3.415  -3.040   4.597  0.00  0.00     0.003 A 
ATOM      7  I   UNL d   1       1.852   0.336   2.362  0.00  0.00    -0.146 I 
ENDROOT
TORSDOF 0
ENDMDL
