MODEL 1
REMARK minimizedAffinity 1.92989516
REMARK minimizedRMSD -1
REMARK  0 active torsions:
REMARK  status: ('A' for Active; 'I' for Inactive)
ROOT
ATOM      1  C   UNL d   1       0.609  -1.139   2.299  0.00  0.00     0.023 A 
ATOM      2  C1  UNL d   1       0.636  -2.182   3.225  0.00  0.00     0.003 A 
ATOM      3  C2  UNL d   1       1.852  -2.765   3.587  0.00  0.00     0.048 A 
ATOM      4  C3  UNL d   1       3.038  -2.300   3.020  0.00  0.00     0.023 A 
ATOM      5  C4  UNL d   1       3.016  -1.256   2.094  0.00  0.00     0.048 A 
ATOM      6  C5  UNL d   1       1.798  -0.676   1.734  0.00  0.00     0.003 A 
ATOM      7  I   UNL d   1       4.849  -3.166   3.557  0.00  0.00    -0.146 I 
ENDROOT
TORSDOF 0
ENDMDL
