MODEL 1
REMARK minimizedAffinity -1.88090277
REMARK minimizedRMSD -1
REMARK  1 active torsions:
REMARK  status: ('A' for Active; 'I' for Inactive)
REMARK    1  A    between atoms: C3_4  and  O_7 
ROOT
ATOM      1  C   UNL d   1       1.175  -0.721  -0.190  0.00  0.00    -0.033 A 
ATOM      2  C1  UNL d   1       0.763   0.209  -1.147  0.00  0.00     0.039 A 
ATOM      3  C2  UNL d   1      -0.265   1.107  -0.853  0.00  0.00    -0.080 A 
ATOM      4  C3  UNL d   1      -0.870   1.067   0.400  0.00  0.00     0.150 A 
ATOM      5  C4  UNL d   1      -0.461   0.147   1.360  0.00  0.00    -0.007 A 
ATOM      6  C5  UNL d   1       0.564  -0.750   1.064  0.00  0.00     0.039 A 
ENDROOT
BRANCH   4   7
ATOM      7  O   UNL d   1      -1.880   1.921   0.732  0.00  0.00    -0.526 OA
ATOM      8  H5  UNL d   1      -2.075   2.480  -0.038  0.00  0.00     0.418 HD
ENDBRANCH   4   7
TORSDOF 1
ENDMDL
