MODEL 1
REMARK minimizedAffinity -2.78633666
REMARK minimizedRMSD -1
REMARK  1 active torsions:
REMARK  status: ('A' for Active; 'I' for Inactive)
REMARK    1  A    between atoms: C3_4  and  O_7 
ROOT
ATOM      1  C   UNL d   1       0.225  -0.237   0.174  0.00  0.00    -0.033 A 
ATOM      2  C1  UNL d   1      -0.472  -0.609   1.325  0.00  0.00     0.039 A 
ATOM      3  C2  UNL d   1      -1.478   0.216   1.831  0.00  0.00    -0.080 A 
ATOM      4  C3  UNL d   1      -1.777   1.408   1.177  0.00  0.00     0.150 A 
ATOM      5  C4  UNL d   1      -1.089   1.783   0.028  0.00  0.00    -0.007 A 
ATOM      6  C5  UNL d   1      -0.084   0.958  -0.475  0.00  0.00     0.039 A 
ENDROOT
BRANCH   4   7
ATOM      7  O   UNL d   1      -2.748   2.249   1.636  0.00  0.00    -0.526 OA
ATOM      8  H5  UNL d   1      -3.118   1.874   2.453  0.00  0.00     0.418 HD
ENDBRANCH   4   7
TORSDOF 1
ENDMDL
