MODEL 1
REMARK minimizedAffinity -4.9328742
REMARK minimizedRMSD -1
REMARK  1 active torsions:
REMARK  status: ('A' for Active; 'I' for Inactive)
REMARK    1  A    between atoms: C3_4  and  O_7 
ROOT
ATOM      1  C   UNL d   1      -0.639   2.146   0.115  0.00  0.00    -0.033 A 
ATOM      2  C1  UNL d   1      -1.279   2.138   1.356  0.00  0.00     0.039 A 
ATOM      3  C2  UNL d   1      -1.300   0.973   2.125  0.00  0.00    -0.080 A 
ATOM      4  C3  UNL d   1      -0.677  -0.176   1.643  0.00  0.00     0.150 A 
ATOM      5  C4  UNL d   1      -0.034  -0.174   0.410  0.00  0.00    -0.007 A 
ATOM      6  C5  UNL d   1      -0.015   0.990  -0.358  0.00  0.00     0.039 A 
ENDROOT
BRANCH   4   7
ATOM      7  O   UNL d   1      -0.676  -1.338   2.356  0.00  0.00    -0.526 OA
ATOM      8  H5  UNL d   1      -1.181  -1.198   3.174  0.00  0.00     0.418 HD
ENDBRANCH   4   7
TORSDOF 1
ENDMDL
