MODEL 1
REMARK minimizedAffinity -3.64654803
REMARK minimizedRMSD -1
REMARK  1 active torsions:
REMARK  status: ('A' for Active; 'I' for Inactive)
REMARK    1  A    between atoms: C3_4  and  O_7 
ROOT
ATOM      1  C   UNL d   1       0.849   0.074  -0.296  0.00  0.00    -0.033 A 
ATOM      2  C1  UNL d   1       0.566   1.279  -0.943  0.00  0.00     0.039 A 
ATOM      3  C2  UNL d   1      -0.570   2.011  -0.593  0.00  0.00    -0.080 A 
ATOM      4  C3  UNL d   1      -1.414   1.529   0.404  0.00  0.00     0.150 A 
ATOM      5  C4  UNL d   1      -1.137   0.331   1.055  0.00  0.00    -0.007 A 
ATOM      6  C5  UNL d   1      -0.002  -0.399   0.704  0.00  0.00     0.039 A 
ENDROOT
BRANCH   4   7
ATOM      7  O   UNL d   1      -2.537   2.206   0.775  0.00  0.00    -0.526 OA
ATOM      8  H5  UNL d   1      -2.616   3.000   0.221  0.00  0.00     0.418 HD
ENDBRANCH   4   7
TORSDOF 1
ENDMDL
