MODEL 1
REMARK minimizedAffinity -3.44394493
REMARK minimizedRMSD -1
REMARK  1 active torsions:
REMARK  status: ('A' for Active; 'I' for Inactive)
REMARK    1  A    between atoms: C3_4  and  O_7 
ROOT
ATOM      1  C   UNL d   1       0.529   0.003  -0.062  0.00  0.00    -0.033 A 
ATOM      2  C1  UNL d   1       0.169   1.169  -0.741  0.00  0.00     0.039 A 
ATOM      3  C2  UNL d   1      -0.857   1.978  -0.249  0.00  0.00    -0.080 A 
ATOM      4  C3  UNL d   1      -1.513   1.612   0.923  0.00  0.00     0.150 A 
ATOM      5  C4  UNL d   1      -1.157   0.454   1.607  0.00  0.00    -0.007 A 
ATOM      6  C5  UNL d   1      -0.133  -0.353   1.113  0.00  0.00     0.039 A 
ENDROOT
BRANCH   4   7
ATOM      7  O   UNL d   1      -2.523   2.367   1.440  0.00  0.00    -0.526 OA
ATOM      8  H5  UNL d   1      -2.679   3.120   0.847  0.00  0.00     0.418 HD
ENDBRANCH   4   7
TORSDOF 1
ENDMDL
