MODEL 1
REMARK minimizedAffinity -5.27505827
REMARK minimizedRMSD -1
REMARK  1 active torsions:
REMARK  status: ('A' for Active; 'I' for Inactive)
REMARK    1  A    between atoms: C3_4  and  O_7 
ROOT
ATOM      1  C   UNL d   1       0.462  -0.257   0.426  0.00  0.00    -0.033 A 
ATOM      2  C1  UNL d   1      -0.167   0.466  -0.590  0.00  0.00     0.039 A 
ATOM      3  C2  UNL d   1      -1.243   1.303  -0.289  0.00  0.00    -0.080 A 
ATOM      4  C3  UNL d   1      -1.679   1.409   1.029  0.00  0.00     0.150 A 
ATOM      5  C4  UNL d   1      -1.054   0.694   2.046  0.00  0.00    -0.007 A 
ATOM      6  C5  UNL d   1       0.020  -0.142   1.744  0.00  0.00     0.039 A 
ENDROOT
BRANCH   4   7
ATOM      7  O   UNL d   1      -2.728   2.209   1.371  0.00  0.00    -0.526 OA
ATOM      8  H5  UNL d   1      -3.079   2.618   0.562  0.00  0.00     0.418 HD
ENDBRANCH   4   7
TORSDOF 1
ENDMDL
