MODEL 1
REMARK minimizedAffinity -3.8639667
REMARK minimizedRMSD -1
REMARK  1 active torsions:
REMARK  status: ('A' for Active; 'I' for Inactive)
REMARK    1  A    between atoms: C3_4  and  O_7 
ROOT
ATOM      1  C   UNL d   1       0.155  -0.283   0.611  0.00  0.00    -0.033 A 
ATOM      2  C1  UNL d   1      -0.239  -0.119   1.940  0.00  0.00     0.039 A 
ATOM      3  C2  UNL d   1      -1.329   0.697   2.252  0.00  0.00    -0.080 A 
ATOM      4  C3  UNL d   1      -2.015   1.341   1.226  0.00  0.00     0.150 A 
ATOM      5  C4  UNL d   1      -1.630   1.179  -0.101  0.00  0.00    -0.007 A 
ATOM      6  C5  UNL d   1      -0.542   0.365  -0.410  0.00  0.00     0.039 A 
ENDROOT
BRANCH   4   7
ATOM      7  O   UNL d   1      -3.081   2.151   1.482  0.00  0.00    -0.526 OA
ATOM      8  H5  UNL d   1      -3.214   2.191   2.444  0.00  0.00     0.418 HD
ENDBRANCH   4   7
TORSDOF 1
ENDMDL
