MODEL 1
REMARK minimizedAffinity -3.20075274
REMARK minimizedRMSD -1
REMARK  1 active torsions:
REMARK  status: ('A' for Active; 'I' for Inactive)
REMARK    1  A    between atoms: C3_4  and  O_7 
ROOT
ATOM      1  C   UNL d   1       0.744  -2.995  -2.415  0.00  0.00    -0.033 A 
ATOM      2  C1  UNL d   1       0.250  -4.295  -2.543  0.00  0.00     0.039 A 
ATOM      3  C2  UNL d   1       0.751  -5.317  -1.734  0.00  0.00    -0.080 A 
ATOM      4  C3  UNL d   1       1.743  -5.026  -0.801  0.00  0.00     0.150 A 
ATOM      5  C4  UNL d   1       2.237  -3.733  -0.666  0.00  0.00    -0.007 A 
ATOM      6  C5  UNL d   1       1.736  -2.714  -1.475  0.00  0.00     0.039 A 
ENDROOT
BRANCH   4   7
ATOM      7  O   UNL d   1       2.266  -5.991   0.007  0.00  0.00    -0.526 OA
ATOM      8  H5  UNL d   1       1.850  -6.840  -0.218  0.00  0.00     0.418 HD
ENDBRANCH   4   7
TORSDOF 1
ENDMDL
