MODEL 1
REMARK minimizedAffinity -5.43877554
REMARK minimizedRMSD -1
REMARK  1 active torsions:
REMARK  status: ('A' for Active; 'I' for Inactive)
REMARK    1  A    between atoms: C3_4  and  O_7 
ROOT
ATOM      1  C   UNL d   1       0.635  -0.307   0.341  0.00  0.00    -0.033 A 
ATOM      2  C1  UNL d   1       0.148   0.680  -0.518  0.00  0.00     0.039 A 
ATOM      3  C2  UNL d   1      -0.846   1.558  -0.082  0.00  0.00    -0.080 A 
ATOM      4  C3  UNL d   1      -1.342   1.441   1.213  0.00  0.00     0.150 A 
ATOM      5  C4  UNL d   1      -0.858   0.462   2.076  0.00  0.00    -0.007 A 
ATOM      6  C5  UNL d   1       0.133  -0.415   1.638  0.00  0.00     0.039 A 
ENDROOT
BRANCH   4   7
ATOM      7  O   UNL d   1      -2.315   2.272   1.682  0.00  0.00    -0.526 OA
ATOM      8  H5  UNL d   1      -2.572   2.878   0.967  0.00  0.00     0.418 HD
ENDBRANCH   4   7
TORSDOF 1
ENDMDL
