MODEL 1
REMARK minimizedAffinity -4.21026325
REMARK minimizedRMSD -1
REMARK  1 active torsions:
REMARK  status: ('A' for Active; 'I' for Inactive)
REMARK    1  A    between atoms: C3_4  and  O_7 
ROOT
ATOM      1  C   UNL d   1       0.277  -0.025   0.329  0.00  0.00    -0.033 A 
ATOM      2  C1  UNL d   1      -0.159   1.023  -0.484  0.00  0.00     0.039 A 
ATOM      3  C2  UNL d   1      -1.109   1.929  -0.008  0.00  0.00    -0.080 A 
ATOM      4  C3  UNL d   1      -1.614   1.776   1.280  0.00  0.00     0.150 A 
ATOM      5  C4  UNL d   1      -1.182   0.736   2.097  0.00  0.00    -0.007 A 
ATOM      6  C5  UNL d   1      -0.233  -0.168   1.620  0.00  0.00     0.039 A 
ENDROOT
BRANCH   4   7
ATOM      7  O   UNL d   1      -2.547   2.632   1.786  0.00  0.00    -0.526 OA
ATOM      8  H5  UNL d   1      -2.772   3.282   1.099  0.00  0.00     0.418 HD
ENDBRANCH   4   7
TORSDOF 1
ENDMDL
