MODEL 1
REMARK minimizedAffinity -4.82688332
REMARK minimizedRMSD -1
REMARK  1 active torsions:
REMARK  status: ('A' for Active; 'I' for Inactive)
REMARK    1  A    between atoms: C3_4  and  O_7 
ROOT
ATOM      1  C   UNL d   1      -1.689   1.902   1.575  0.00  0.00    -0.033 A 
ATOM      2  C1  UNL d   1      -1.220   0.780   2.261  0.00  0.00     0.039 A 
ATOM      3  C2  UNL d   1      -0.395  -0.142   1.614  0.00  0.00    -0.080 A 
ATOM      4  C3  UNL d   1      -0.046   0.070   0.283  0.00  0.00     0.150 A 
ATOM      5  C4  UNL d   1      -0.506   1.188  -0.406  0.00  0.00    -0.007 A 
ATOM      6  C5  UNL d   1      -1.331   2.107   0.242  0.00  0.00     0.039 A 
ENDROOT
BRANCH   4   7
ATOM      7  O   UNL d   1       0.752  -0.805  -0.392  0.00  0.00    -0.526 OA
ATOM      8  H5  UNL d   1       0.970  -1.543   0.200  0.00  0.00     0.418 HD
ENDBRANCH   4   7
TORSDOF 1
ENDMDL
