MODEL 1
REMARK minimizedAffinity -4.76423168
REMARK minimizedRMSD -1
REMARK  1 active torsions:
REMARK  status: ('A' for Active; 'I' for Inactive)
REMARK    1  A    between atoms: C3_4  and  O_7 
ROOT
ATOM      1  C   UNL d   1      -0.056   3.464  -0.339  0.00  0.00    -0.033 A 
ATOM      2  C1  UNL d   1      -0.801   4.175   0.604  0.00  0.00     0.039 A 
ATOM      3  C2  UNL d   1      -1.788   3.527   1.349  0.00  0.00    -0.080 A 
ATOM      4  C3  UNL d   1      -2.018   2.169   1.144  0.00  0.00     0.150 A 
ATOM      5  C4  UNL d   1      -1.276   1.454   0.209  0.00  0.00    -0.007 A 
ATOM      6  C5  UNL d   1      -0.292   2.103  -0.535  0.00  0.00     0.039 A 
ENDROOT
BRANCH   4   7
ATOM      7  O   UNL d   1      -2.974   1.495   1.844  0.00  0.00    -0.526 OA
ATOM      8  H5  UNL d   1      -3.425   2.123   2.432  0.00  0.00     0.418 HD
ENDBRANCH   4   7
TORSDOF 1
ENDMDL
