MODEL 1
REMARK minimizedAffinity -1.47663081
REMARK minimizedRMSD -1
REMARK  1 active torsions:
REMARK  status: ('A' for Active; 'I' for Inactive)
REMARK    1  A    between atoms: C3_4  and  O_7 
ROOT
ATOM      1  C   UNL d   1      -1.446   0.748   2.696  0.00  0.00    -0.033 A 
ATOM      2  C1  UNL d   1      -0.609  -0.318   2.360  0.00  0.00     0.039 A 
ATOM      3  C2  UNL d   1       0.083  -0.308   1.147  0.00  0.00    -0.080 A 
ATOM      4  C3  UNL d   1      -0.069   0.772   0.282  0.00  0.00     0.150 A 
ATOM      5  C4  UNL d   1      -0.898   1.839   0.613  0.00  0.00    -0.007 A 
ATOM      6  C5  UNL d   1      -1.589   1.827   1.823  0.00  0.00     0.039 A 
ENDROOT
BRANCH   4   7
ATOM      7  O   UNL d   1       0.583   0.824  -0.914  0.00  0.00    -0.526 OA
ATOM      8  H5  UNL d   1       1.097   0.006  -1.020  0.00  0.00     0.418 HD
ENDBRANCH   4   7
TORSDOF 1
ENDMDL
