MODEL 1
REMARK minimizedAffinity -4.95299244
REMARK minimizedRMSD -1
REMARK  1 active torsions:
REMARK  status: ('A' for Active; 'I' for Inactive)
REMARK    1  A    between atoms: C3_4  and  O_7 
ROOT
ATOM      1  C   UNL d   1      -1.354   0.754   1.988  0.00  0.00    -0.033 A 
ATOM      2  C1  UNL d   1      -1.337   1.874   1.154  0.00  0.00     0.039 A 
ATOM      3  C2  UNL d   1      -0.400   1.964   0.122  0.00  0.00    -0.080 A 
ATOM      4  C3  UNL d   1       0.512   0.929  -0.064  0.00  0.00     0.150 A 
ATOM      5  C4  UNL d   1       0.498  -0.191   0.761  0.00  0.00    -0.007 A 
ATOM      6  C5  UNL d   1      -0.437  -0.279   1.791  0.00  0.00     0.039 A 
ENDROOT
BRANCH   4   7
ATOM      7  O   UNL d   1       1.449   0.974  -1.054  0.00  0.00    -0.526 OA
ATOM      8  H5  UNL d   1       1.357   1.818  -1.526  0.00  0.00     0.418 HD
ENDBRANCH   4   7
TORSDOF 1
ENDMDL
