MODEL 1
REMARK minimizedAffinity -3.30559897
REMARK minimizedRMSD -1
REMARK  1 active torsions:
REMARK  status: ('A' for Active; 'I' for Inactive)
REMARK    1  A    between atoms: C3_4  and  O_7 
ROOT
ATOM      1  C   UNL d   1       0.137   0.395  -0.114  0.00  0.00    -0.033 A 
ATOM      2  C1  UNL d   1       0.019   0.298  -1.501  0.00  0.00     0.039 A 
ATOM      3  C2  UNL d   1       0.417  -0.869  -2.158  0.00  0.00    -0.080 A 
ATOM      4  C3  UNL d   1       0.929  -1.929  -1.416  0.00  0.00     0.150 A 
ATOM      5  C4  UNL d   1       1.046  -1.841  -0.033  0.00  0.00    -0.007 A 
ATOM      6  C5  UNL d   1       0.649  -0.675   0.621  0.00  0.00     0.039 A 
ENDROOT
BRANCH   4   7
ATOM      7  O   UNL d   1       1.335  -3.086  -2.013  0.00  0.00    -0.526 OA
ATOM      8  H5  UNL d   1       1.222  -2.993  -2.973  0.00  0.00     0.418 HD
ENDBRANCH   4   7
TORSDOF 1
ENDMDL
