MODEL 1
REMARK minimizedAffinity -3.60059881
REMARK minimizedRMSD -1
REMARK  1 active torsions:
REMARK  status: ('A' for Active; 'I' for Inactive)
REMARK    1  A    between atoms: C3_4  and  O_7 
ROOT
ATOM      1  C   UNL d   1       0.818  -4.538  -2.830  0.00  0.00    -0.033 A 
ATOM      2  C1  UNL d   1       1.097  -4.585  -1.463  0.00  0.00     0.039 A 
ATOM      3  C2  UNL d   1       1.175  -3.403  -0.724  0.00  0.00    -0.080 A 
ATOM      4  C3  UNL d   1       0.970  -2.183  -1.362  0.00  0.00     0.150 A 
ATOM      5  C4  UNL d   1       0.688  -2.129  -2.723  0.00  0.00    -0.007 A 
ATOM      6  C5  UNL d   1       0.611  -3.310  -3.460  0.00  0.00     0.039 A 
ENDROOT
BRANCH   4   7
ATOM      7  O   UNL d   1       1.041  -1.003  -0.683  0.00  0.00    -0.526 OA
ATOM      8  H5  UNL d   1       1.272  -1.194   0.241  0.00  0.00     0.418 HD
ENDBRANCH   4   7
TORSDOF 1
ENDMDL
