MODEL 1
REMARK minimizedAffinity -3.29026508
REMARK minimizedRMSD -1
REMARK  1 active torsions:
REMARK  status: ('A' for Active; 'I' for Inactive)
REMARK    1  A    between atoms: C3_4  and  O_7 
ROOT
ATOM      1  C   UNL d   1       0.315  -4.359  -2.250  0.00  0.00    -0.033 A 
ATOM      2  C1  UNL d   1      -0.381  -3.241  -2.713  0.00  0.00     0.039 A 
ATOM      3  C2  UNL d   1      -0.055  -1.968  -2.241  0.00  0.00    -0.080 A 
ATOM      4  C3  UNL d   1       0.969  -1.827  -1.308  0.00  0.00     0.150 A 
ATOM      5  C4  UNL d   1       1.669  -2.936  -0.845  0.00  0.00    -0.007 A 
ATOM      6  C5  UNL d   1       1.341  -4.207  -1.317  0.00  0.00     0.039 A 
ENDROOT
BRANCH   4   7
ATOM      7  O   UNL d   1       1.320  -0.606  -0.815  0.00  0.00    -0.526 OA
ATOM      8  H5  UNL d   1       0.732   0.063  -1.203  0.00  0.00     0.418 HD
ENDBRANCH   4   7
TORSDOF 1
ENDMDL
