MODEL 1
REMARK minimizedAffinity -1.66769016
REMARK minimizedRMSD -1
REMARK  1 active torsions:
REMARK  status: ('A' for Active; 'I' for Inactive)
REMARK    1  A    between atoms: C1_2  and  C2_3 
ROOT
ATOM      1  C2  UNL d   1       0.999  -1.688   3.288  0.00  0.00    -0.077 A 
ATOM      2  C3  UNL d   1       0.413  -1.967   2.046  0.00  0.00     0.002 A 
ATOM      3  C4  UNL d   1       0.567  -1.082   0.977  0.00  0.00     0.002 A 
ATOM      4  C5  UNL d   1       1.309   0.086   1.139  0.00  0.00    -0.004 A 
ATOM      5  C6  UNL d   1       1.894   0.374   2.371  0.00  0.00     0.002 A 
ATOM      6  C7  UNL d   1       1.741  -0.509   3.441  0.00  0.00     0.002 A 
ENDROOT
BRANCH   1   7
ATOM      7  C1  UNL d   1       0.876  -2.665   4.428  0.00  0.00     0.055 C 
ATOM      8  C   UNL d   1       2.239  -3.019   5.003  0.00  0.00     0.019 C 
ENDBRANCH   1   7
TORSDOF 1
ENDMDL
