MODEL 1
REMARK minimizedAffinity -0.65475142
REMARK minimizedRMSD -1
REMARK  1 active torsions:
REMARK  status: ('A' for Active; 'I' for Inactive)
REMARK    1  A    between atoms: C1_2  and  C2_3 
ROOT
ATOM      1  C2  UNL d   1       1.009  -3.143   0.911  0.00  0.00    -0.077 A 
ATOM      2  C3  UNL d   1       0.722  -1.780   1.063  0.00  0.00     0.002 A 
ATOM      3  C4  UNL d   1       0.995  -1.130   2.268  0.00  0.00     0.002 A 
ATOM      4  C5  UNL d   1       1.559  -1.835   3.329  0.00  0.00    -0.004 A 
ATOM      5  C6  UNL d   1       1.846  -3.192   3.189  0.00  0.00     0.002 A 
ATOM      6  C7  UNL d   1       1.573  -3.843   1.985  0.00  0.00     0.002 A 
ENDROOT
BRANCH   1   7
ATOM      7  C1  UNL d   1       0.762  -3.834  -0.404  0.00  0.00     0.055 C 
ATOM      8  C   UNL d   1       1.197  -2.966  -1.576  0.00  0.00     0.019 C 
ENDBRANCH   1   7
TORSDOF 1
ENDMDL
