MODEL 1
REMARK minimizedAffinity -0.875177741
REMARK minimizedRMSD -1
REMARK  1 active torsions:
REMARK  status: ('A' for Active; 'I' for Inactive)
REMARK    1  A    between atoms: C1_2  and  C2_3 
ROOT
ATOM      1  C2  UNL d   1      -5.282   1.323  -0.863  0.00  0.00    -0.077 A 
ATOM      2  C3  UNL d   1      -5.994   0.532   0.050  0.00  0.00     0.002 A 
ATOM      3  C4  UNL d   1      -5.912   0.789   1.420  0.00  0.00     0.002 A 
ATOM      4  C5  UNL d   1      -5.123   1.837   1.888  0.00  0.00    -0.004 A 
ATOM      5  C6  UNL d   1      -4.410   2.628   0.988  0.00  0.00     0.002 A 
ATOM      6  C7  UNL d   1      -4.489   2.372  -0.381  0.00  0.00     0.002 A 
ENDROOT
BRANCH   1   7
ATOM      7  C1  UNL d   1      -5.407   1.079  -2.345  0.00  0.00     0.055 C 
ATOM      8  C   UNL d   1      -4.284   1.758  -3.115  0.00  0.00     0.019 C 
ENDBRANCH   1   7
TORSDOF 1
ENDMDL
