MODEL 1
REMARK minimizedAffinity 5.76880789
REMARK minimizedRMSD -1
REMARK  1 active torsions:
REMARK  status: ('A' for Active; 'I' for Inactive)
REMARK    1  A    between atoms: C1_2  and  C2_3 
ROOT
ATOM      1  C2  UNL d   1       0.917  -1.905  -0.282  0.00  0.00    -0.077 A 
ATOM      2  C3  UNL d   1       0.129  -2.891  -0.892  0.00  0.00     0.002 A 
ATOM      3  C4  UNL d   1       0.617  -3.608  -1.986  0.00  0.00     0.002 A 
ATOM      4  C5  UNL d   1       1.895  -3.350  -2.477  0.00  0.00    -0.004 A 
ATOM      5  C6  UNL d   1       2.686  -2.369  -1.878  0.00  0.00     0.002 A 
ATOM      6  C7  UNL d   1       2.199  -1.651  -0.785  0.00  0.00     0.002 A 
ENDROOT
BRANCH   1   7
ATOM      7  C1  UNL d   1       0.411  -1.165   0.928  0.00  0.00     0.055 C 
ATOM      8  C   UNL d   1       1.125  -1.618   2.193  0.00  0.00     0.019 C 
ENDBRANCH   1   7
TORSDOF 1
ENDMDL
