MODEL 1
REMARK minimizedAffinity -0.519290864
REMARK minimizedRMSD -1
REMARK  1 active torsions:
REMARK  status: ('A' for Active; 'I' for Inactive)
REMARK    1  A    between atoms: C1_2  and  C2_3 
ROOT
ATOM      1  C2  UNL d   1       2.403  -1.981   3.242  0.00  0.00    -0.077 A 
ATOM      2  C3  UNL d   1       1.092  -2.225   2.811  0.00  0.00     0.002 A 
ATOM      3  C4  UNL d   1       0.478  -1.369   1.895  0.00  0.00     0.002 A 
ATOM      4  C5  UNL d   1       1.170  -0.266   1.398  0.00  0.00    -0.004 A 
ATOM      5  C6  UNL d   1       2.474  -0.014   1.821  0.00  0.00     0.002 A 
ATOM      6  C7  UNL d   1       3.088  -0.867   2.738  0.00  0.00     0.002 A 
ENDROOT
BRANCH   1   7
ATOM      7  C1  UNL d   1       3.084  -2.930   4.192  0.00  0.00     0.055 C 
ATOM      8  C   UNL d   1       4.585  -2.979   3.946  0.00  0.00     0.019 C 
ENDBRANCH   1   7
TORSDOF 1
ENDMDL
