MODEL 1
REMARK minimizedAffinity 5.40435982
REMARK minimizedRMSD -1
REMARK  1 active torsions:
REMARK  status: ('A' for Active; 'I' for Inactive)
REMARK    1  A    between atoms: C1_2  and  C2_3 
ROOT
ATOM      1  C2  UNL d   1       0.842  -2.943   0.820  0.00  0.00    -0.077 A 
ATOM      2  C3  UNL d   1       0.765  -1.564   0.579  0.00  0.00     0.002 A 
ATOM      3  C4  UNL d   1       1.066  -0.652   1.592  0.00  0.00     0.002 A 
ATOM      4  C5  UNL d   1       1.450  -1.108   2.851  0.00  0.00    -0.004 A 
ATOM      5  C6  UNL d   1       1.528  -2.477   3.102  0.00  0.00     0.002 A 
ATOM      6  C7  UNL d   1       1.226  -3.391   2.091  0.00  0.00     0.002 A 
ENDROOT
BRANCH   1   7
ATOM      7  C1  UNL d   1       0.565  -3.929  -0.285  0.00  0.00     0.055 C 
ATOM      8  C   UNL d   1       0.859  -3.325  -1.651  0.00  0.00     0.019 C 
ENDBRANCH   1   7
TORSDOF 1
ENDMDL
