MODEL 1
REMARK minimizedAffinity 0.360302806
REMARK minimizedRMSD -1
REMARK  1 active torsions:
REMARK  status: ('A' for Active; 'I' for Inactive)
REMARK    1  A    between atoms: C1_2  and  C2_3 
ROOT
ATOM      1  C2  UNL d   1      -5.203   2.356  -0.124  0.00  0.00    -0.077 A 
ATOM      2  C3  UNL d   1      -3.976   1.863   0.344  0.00  0.00     0.002 A 
ATOM      3  C4  UNL d   1      -3.263   2.559   1.322  0.00  0.00     0.002 A 
ATOM      4  C5  UNL d   1      -3.769   3.748   1.842  0.00  0.00    -0.004 A 
ATOM      5  C6  UNL d   1      -4.987   4.247   1.381  0.00  0.00     0.002 A 
ATOM      6  C7  UNL d   1      -5.701   3.554   0.403  0.00  0.00     0.002 A 
ENDROOT
BRANCH   1   7
ATOM      7  C1  UNL d   1      -5.997   1.581  -1.143  0.00  0.00     0.055 C 
ATOM      8  C   UNL d   1      -6.000   0.092  -0.828  0.00  0.00     0.019 C 
ENDBRANCH   1   7
TORSDOF 1
ENDMDL
