MODEL 1
REMARK minimizedAffinity -0.713509977
REMARK minimizedRMSD -1
REMARK  1 active torsions:
REMARK  status: ('A' for Active; 'I' for Inactive)
REMARK    1  A    between atoms: C1_2  and  C2_3 
ROOT
ATOM      1  C2  UNL d   1      -5.156   2.329  -1.036  0.00  0.00    -0.077 A 
ATOM      2  C3  UNL d   1      -5.996   3.429  -0.813  0.00  0.00     0.002 A 
ATOM      3  C4  UNL d   1      -5.935   4.131   0.392  0.00  0.00     0.002 A 
ATOM      4  C5  UNL d   1      -5.033   3.744   1.381  0.00  0.00    -0.004 A 
ATOM      5  C6  UNL d   1      -4.194   2.650   1.169  0.00  0.00     0.002 A 
ATOM      6  C7  UNL d   1      -4.255   1.946  -0.034  0.00  0.00     0.002 A 
ENDROOT
BRANCH   1   7
ATOM      7  C1  UNL d   1      -5.186   1.600  -2.354  0.00  0.00     0.055 C 
ATOM      8  C   UNL d   1      -4.007   1.996  -3.232  0.00  0.00     0.019 C 
ENDBRANCH   1   7
TORSDOF 1
ENDMDL
