MODEL 1
REMARK minimizedAffinity -0.476062894
REMARK minimizedRMSD -1
REMARK  0 active torsions:
REMARK  status: ('A' for Active; 'I' for Inactive)
ROOT
ATOM      1  C1  BNZ d   1       2.972  -2.482  -1.206  0.00  0.00     0.000 A 
ATOM      2  C2  BNZ d   1       3.807  -1.685  -1.942  0.00  0.00     0.000 A 
ATOM      3  C3  BNZ d   1       3.993  -0.372  -1.611  0.00  0.00     0.000 A 
ATOM      4  C4  BNZ d   1       3.315   0.152  -0.569  0.00  0.00     0.000 A 
ATOM      5  C5  BNZ d   1       2.463  -0.637   0.177  0.00  0.00     0.000 A 
ATOM      6  C6  BNZ d   1       2.308  -1.968  -0.135  0.00  0.00     0.000 A 
ENDROOT
TORSDOF 0
ENDMDL
