MODEL 1
REMARK minimizedAffinity 0.685650408
REMARK minimizedRMSD -1
REMARK  0 active torsions:
REMARK  status: ('A' for Active; 'I' for Inactive)
ROOT
ATOM      1  C1  BNZ d   1       0.948   1.284   0.677  0.00  0.00     0.000 A 
ATOM      2  C2  BNZ d   1       1.041   1.244   2.043  0.00  0.00     0.000 A 
ATOM      3  C3  BNZ d   1      -0.082   1.261   2.821  0.00  0.00     0.000 A 
ATOM      4  C4  BNZ d   1      -1.293   1.359   2.236  0.00  0.00     0.000 A 
ATOM      5  C5  BNZ d   1      -1.403   1.409   0.860  0.00  0.00     0.000 A 
ATOM      6  C6  BNZ d   1      -0.272   1.352   0.079  0.00  0.00     0.000 A 
ENDROOT
TORSDOF 0
ENDMDL
