MODEL 1
REMARK minimizedAffinity 1.5113132
REMARK minimizedRMSD -1
REMARK  0 active torsions:
REMARK  status: ('A' for Active; 'I' for Inactive)
ROOT
ATOM      1  C1  BNZ d   1      -3.487  -0.139  -2.909  0.00  0.00     0.000 A 
ATOM      2  C2  BNZ d   1      -4.464   0.228  -3.796  0.00  0.00     0.000 A 
ATOM      3  C3  BNZ d   1      -4.166   0.998  -4.886  0.00  0.00     0.000 A 
ATOM      4  C4  BNZ d   1      -2.902   1.433  -5.065  0.00  0.00     0.000 A 
ATOM      5  C5  BNZ d   1      -1.908   1.079  -4.174  0.00  0.00     0.000 A 
ATOM      6  C6  BNZ d   1      -2.204   0.272  -3.099  0.00  0.00     0.000 A 
ENDROOT
TORSDOF 0
ENDMDL
