MODEL 1
REMARK minimizedAffinity 4.6498127
REMARK minimizedRMSD -1
REMARK  0 active torsions:
REMARK  status: ('A' for Active; 'I' for Inactive)
ROOT
ATOM      1  C1  BNZ d   1       2.753  -1.481  -0.034  0.00  0.00     0.000 A 
ATOM      2  C2  BNZ d   1       3.776  -0.731  -0.550  0.00  0.00     0.000 A 
ATOM      3  C3  BNZ d   1       3.840   0.615  -0.324  0.00  0.00     0.000 A 
ATOM      4  C4  BNZ d   1       2.860   1.216   0.382  0.00  0.00     0.000 A 
ATOM      5  C5  BNZ d   1       1.817   0.475   0.901  0.00  0.00     0.000 A 
ATOM      6  C6  BNZ d   1       1.778  -0.886   0.705  0.00  0.00     0.000 A 
ENDROOT
TORSDOF 0
ENDMDL
