MODEL 1
REMARK minimizedAffinity 18.8420887
REMARK minimizedRMSD -1
REMARK  1 active torsions:
REMARK  status: ('A' for Active; 'I' for Inactive)
REMARK    1  A    between atoms: C1_2  and  C2_3 
ROOT
ATOM      1  C2  UNL d   1      -1.004   0.422   2.024  0.00  0.00    -0.077 A 
ATOM      2  C3  UNL d   1      -1.060  -0.531   0.997  0.00  0.00     0.002 A 
ATOM      3  C4  UNL d   1      -2.095  -0.500   0.060  0.00  0.00     0.002 A 
ATOM      4  C5  UNL d   1      -3.078   0.484   0.138  0.00  0.00    -0.004 A 
ATOM      5  C6  UNL d   1      -3.033   1.435   1.157  0.00  0.00     0.002 A 
ATOM      6  C7  UNL d   1      -2.000   1.405   2.095  0.00  0.00     0.002 A 
ENDROOT
BRANCH   1   7
ATOM      7  C1  UNL d   1       0.138   0.421   3.006  0.00  0.00     0.055 C 
ATOM      8  C   UNL d   1       0.880   1.749   2.994  0.00  0.00     0.019 C 
ENDBRANCH   1   7
TORSDOF 1
ENDMDL
