MODEL 1
REMARK minimizedAffinity 5.20509052
REMARK minimizedRMSD -1
REMARK  1 active torsions:
REMARK  status: ('A' for Active; 'I' for Inactive)
REMARK    1  A    between atoms: C1_2  and  C2_3 
ROOT
ATOM      1  C2  UNL d   1      -1.976  -0.266  -0.556  0.00  0.00    -0.077 A 
ATOM      2  C3  UNL d   1      -2.912  -0.249  -1.599  0.00  0.00     0.002 A 
ATOM      3  C4  UNL d   1      -3.644  -1.396  -1.910  0.00  0.00     0.002 A 
ATOM      4  C5  UNL d   1      -3.450  -2.567  -1.181  0.00  0.00    -0.004 A 
ATOM      5  C6  UNL d   1      -2.520  -2.595  -0.143  0.00  0.00     0.002 A 
ATOM      6  C7  UNL d   1      -1.787  -1.450   0.169  0.00  0.00     0.002 A 
ENDROOT
BRANCH   1   7
ATOM      7  C1  UNL d   1      -1.221   0.984  -0.186  0.00  0.00     0.055 C 
ATOM      8  C   UNL d   1      -1.288   1.249   1.311  0.00  0.00     0.019 C 
ENDBRANCH   1   7
TORSDOF 1
ENDMDL
