MODEL 1
REMARK minimizedAffinity 6.45006561
REMARK minimizedRMSD -1
REMARK  1 active torsions:
REMARK  status: ('A' for Active; 'I' for Inactive)
REMARK    1  A    between atoms: C1_2  and  C2_3 
ROOT
ATOM      1  C2  UNL d   1      -5.798  -3.087  -3.844  0.00  0.00    -0.077 A 
ATOM      2  C3  UNL d   1      -5.530  -3.939  -2.763  0.00  0.00     0.002 A 
ATOM      3  C4  UNL d   1      -5.441  -3.429  -1.466  0.00  0.00     0.002 A 
ATOM      4  C5  UNL d   1      -5.623  -2.067  -1.238  0.00  0.00    -0.004 A 
ATOM      5  C6  UNL d   1      -5.889  -1.211  -2.306  0.00  0.00     0.002 A 
ATOM      6  C7  UNL d   1      -5.977  -1.719  -3.603  0.00  0.00     0.002 A 
ENDROOT
BRANCH   1   7
ATOM      7  C1  UNL d   1      -5.943  -3.642  -5.236  0.00  0.00     0.055 C 
ATOM      8  C   UNL d   1      -4.628  -3.573  -5.999  0.00  0.00     0.019 C 
ENDBRANCH   1   7
TORSDOF 1
ENDMDL
