MODEL 1
REMARK minimizedAffinity 3.40312243
REMARK minimizedRMSD -1
REMARK  1 active torsions:
REMARK  status: ('A' for Active; 'I' for Inactive)
REMARK    1  A    between atoms: C1_2  and  C2_3 
ROOT
ATOM      1  C2  UNL d   1      -5.364  -2.529  -4.259  0.00  0.00    -0.077 A 
ATOM      2  C3  UNL d   1      -5.999  -3.779  -4.275  0.00  0.00     0.002 A 
ATOM      3  C4  UNL d   1      -5.563  -4.782  -5.144  0.00  0.00     0.002 A 
ATOM      4  C5  UNL d   1      -4.489  -4.546  -6.000  0.00  0.00    -0.004 A 
ATOM      5  C6  UNL d   1      -3.853  -3.305  -5.993  0.00  0.00     0.002 A 
ATOM      6  C7  UNL d   1      -4.288  -2.302  -5.126  0.00  0.00     0.002 A 
ENDROOT
BRANCH   1   7
ATOM      7  C1  UNL d   1      -5.801  -1.464  -3.288  0.00  0.00     0.055 C 
ATOM      8  C   UNL d   1      -5.997  -2.035  -1.891  0.00  0.00     0.019 C 
ENDBRANCH   1   7
TORSDOF 1
ENDMDL
