MODEL 1
REMARK minimizedAffinity 10.195673
REMARK minimizedRMSD -1
REMARK  1 active torsions:
REMARK  status: ('A' for Active; 'I' for Inactive)
REMARK    1  A    between atoms: C1_2  and  C2_3 
ROOT
ATOM      1  C2  UNL d   1      -5.374  -3.210   2.255  0.00  0.00    -0.077 A 
ATOM      2  C3  UNL d   1      -6.000  -1.996   1.937  0.00  0.00     0.002 A 
ATOM      3  C4  UNL d   1      -5.900  -1.466   0.649  0.00  0.00     0.002 A 
ATOM      4  C5  UNL d   1      -5.179  -2.145  -0.331  0.00  0.00    -0.004 A 
ATOM      5  C6  UNL d   1      -4.552  -3.352  -0.024  0.00  0.00     0.002 A 
ATOM      6  C7  UNL d   1      -4.650  -3.882   1.263  0.00  0.00     0.002 A 
ENDROOT
BRANCH   1   7
ATOM      7  C1  UNL d   1      -5.522  -3.807   3.630  0.00  0.00     0.055 C 
ATOM      8  C   UNL d   1      -4.737  -3.015   4.666  0.00  0.00     0.019 C 
ENDBRANCH   1   7
TORSDOF 1
ENDMDL
