MODEL 1
REMARK minimizedAffinity 4.61595201
REMARK minimizedRMSD -1
REMARK  1 active torsions:
REMARK  status: ('A' for Active; 'I' for Inactive)
REMARK    1  A    between atoms: C1_2  and  C2_3 
ROOT
ATOM      1  C2  UNL d   1      -3.546   0.383   2.861  0.00  0.00    -0.077 A 
ATOM      2  C3  UNL d   1      -3.303   1.276   1.808  0.00  0.00     0.002 A 
ATOM      3  C4  UNL d   1      -2.067   1.285   1.160  0.00  0.00     0.002 A 
ATOM      4  C5  UNL d   1      -1.065   0.401   1.554  0.00  0.00    -0.004 A 
ATOM      5  C6  UNL d   1      -1.296  -0.491   2.601  0.00  0.00     0.002 A 
ATOM      6  C7  UNL d   1      -2.531  -0.500   3.251  0.00  0.00     0.002 A 
ENDROOT
BRANCH   1   7
ATOM      7  C1  UNL d   1      -4.896   0.338   3.528  0.00  0.00     0.055 C 
ATOM      8  C   UNL d   1      -5.999   0.036   2.525  0.00  0.00     0.019 C 
ENDBRANCH   1   7
TORSDOF 1
ENDMDL
