MODEL 1
REMARK minimizedAffinity 9.80821323
REMARK minimizedRMSD -1
REMARK  1 active torsions:
REMARK  status: ('A' for Active; 'I' for Inactive)
REMARK    1  A    between atoms: C1_2  and  C2_3 
ROOT
ATOM      1  C2  UNL d   1       4.579   1.100  -4.708  0.00  0.00    -0.077 A 
ATOM      2  C3  UNL d   1       4.062   1.852  -5.772  0.00  0.00     0.002 A 
ATOM      3  C4  UNL d   1       4.510   3.155  -6.000  0.00  0.00     0.002 A 
ATOM      4  C5  UNL d   1       5.480   3.714  -5.171  0.00  0.00    -0.004 A 
ATOM      5  C6  UNL d   1       6.000   2.975  -4.109  0.00  0.00     0.002 A 
ATOM      6  C7  UNL d   1       5.552   1.673  -3.879  0.00  0.00     0.002 A 
ENDROOT
BRANCH   1   7
ATOM      7  C1  UNL d   1       4.133  -0.322  -4.491  0.00  0.00     0.055 C 
ATOM      8  C   UNL d   1       2.909  -0.386  -3.588  0.00  0.00     0.019 C 
ENDBRANCH   1   7
TORSDOF 1
ENDMDL
