MODEL 1
REMARK minimizedAffinity 4.07222605
REMARK minimizedRMSD -1
REMARK  1 active torsions:
REMARK  status: ('A' for Active; 'I' for Inactive)
REMARK    1  A    between atoms: C1_2  and  C2_3 
ROOT
ATOM      1  C2  UNL d   1       1.349   0.528  -3.068  0.00  0.00    -0.077 A 
ATOM      2  C3  UNL d   1       1.346   1.623  -2.192  0.00  0.00     0.002 A 
ATOM      3  C4  UNL d   1       0.150   2.272  -1.878  0.00  0.00     0.002 A 
ATOM      4  C5  UNL d   1      -1.050   1.831  -2.430  0.00  0.00    -0.004 A 
ATOM      5  C6  UNL d   1      -1.057   0.744  -3.304  0.00  0.00     0.002 A 
ATOM      6  C7  UNL d   1       0.137   0.095  -3.621  0.00  0.00     0.002 A 
ENDROOT
BRANCH   1   7
ATOM      7  C1  UNL d   1       2.630  -0.204  -3.370  0.00  0.00     0.055 C 
ATOM      8  C   UNL d   1       2.356  -1.578  -3.964  0.00  0.00     0.019 C 
ENDBRANCH   1   7
TORSDOF 1
ENDMDL
