MODEL 1
REMARK minimizedAffinity -2.15606403
REMARK minimizedRMSD -1
REMARK  1 active torsions:
REMARK  status: ('A' for Active; 'I' for Inactive)
REMARK    1  A    between atoms: C1_2  and  C2_3 
ROOT
ATOM      1  C2  UNL d   1      -4.150   0.096   1.283  0.00  0.00    -0.077 A 
ATOM      2  C3  UNL d   1      -3.540   1.085   2.067  0.00  0.00     0.002 A 
ATOM      3  C4  UNL d   1      -2.249   1.524   1.771  0.00  0.00     0.002 A 
ATOM      4  C5  UNL d   1      -1.558   0.984   0.689  0.00  0.00    -0.004 A 
ATOM      5  C6  UNL d   1      -2.155  -0.002  -0.096  0.00  0.00     0.002 A 
ATOM      6  C7  UNL d   1      -3.445  -0.443   0.199  0.00  0.00     0.002 A 
ENDROOT
BRANCH   1   7
ATOM      7  C1  UNL d   1      -5.562  -0.345   1.570  0.00  0.00     0.055 C 
ATOM      8  C   UNL d   1      -5.997   0.070   2.969  0.00  0.00     0.019 C 
ENDBRANCH   1   7
TORSDOF 1
ENDMDL
