MODEL 1
REMARK minimizedAffinity 0.12204241
REMARK minimizedRMSD -1
REMARK  1 active torsions:
REMARK  status: ('A' for Active; 'I' for Inactive)
REMARK    1  A    between atoms: C1_2  and  C2_3 
ROOT
ATOM      1  C2  UNL d   1      -1.321   0.837   1.753  0.00  0.00    -0.077 A 
ATOM      2  C3  UNL d   1      -2.339   1.374   2.554  0.00  0.00     0.002 A 
ATOM      3  C4  UNL d   1      -3.679   1.117   2.261  0.00  0.00     0.002 A 
ATOM      4  C5  UNL d   1      -4.014   0.320   1.169  0.00  0.00    -0.004 A 
ATOM      5  C6  UNL d   1      -3.010  -0.218   0.365  0.00  0.00     0.002 A 
ATOM      6  C7  UNL d   1      -1.669   0.039   0.656  0.00  0.00     0.002 A 
ENDROOT
BRANCH   1   7
ATOM      7  C1  UNL d   1       0.126   1.073   2.097  0.00  0.00     0.055 C 
ATOM      8  C   UNL d   1       0.767  -0.178   2.682  0.00  0.00     0.019 C 
ENDBRANCH   1   7
TORSDOF 1
ENDMDL
