MODEL 1
REMARK minimizedAffinity 6.12871265
REMARK minimizedRMSD -1
REMARK  1 active torsions:
REMARK  status: ('A' for Active; 'I' for Inactive)
REMARK    1  A    between atoms: C1_2  and  C2_3 
ROOT
ATOM      1  C2  UNL d   1      -3.371   0.783   2.397  0.00  0.00    -0.077 A 
ATOM      2  C3  UNL d   1      -4.300   0.318   1.456  0.00  0.00     0.002 A 
ATOM      3  C4  UNL d   1      -5.606   0.013   1.844  0.00  0.00     0.002 A 
ATOM      4  C5  UNL d   1      -5.996   0.173   3.172  0.00  0.00    -0.004 A 
ATOM      5  C6  UNL d   1      -5.078   0.632   4.116  0.00  0.00     0.002 A 
ATOM      6  C7  UNL d   1      -3.772   0.937   3.730  0.00  0.00     0.002 A 
ENDROOT
BRANCH   1   7
ATOM      7  C1  UNL d   1      -1.976   1.159   1.972  0.00  0.00     0.055 C 
ATOM      8  C   UNL d   1      -1.745   0.853   0.499  0.00  0.00     0.019 C 
ENDBRANCH   1   7
TORSDOF 1
ENDMDL
