MODEL 1
REMARK minimizedAffinity 3.5945189
REMARK minimizedRMSD -1
REMARK  1 active torsions:
REMARK  status: ('A' for Active; 'I' for Inactive)
REMARK    1  A    between atoms: C1_2  and  C2_3 
ROOT
ATOM      1  C2  UNL d   1       2.262   0.200  -4.610  0.00  0.00    -0.077 A 
ATOM      2  C3  UNL d   1       3.146  -0.509  -3.786  0.00  0.00     0.002 A 
ATOM      3  C4  UNL d   1       3.247  -1.898  -3.889  0.00  0.00     0.002 A 
ATOM      4  C5  UNL d   1       2.470  -2.588  -4.816  0.00  0.00    -0.004 A 
ATOM      5  C6  UNL d   1       1.586  -1.892  -5.639  0.00  0.00     0.002 A 
ATOM      6  C7  UNL d   1       1.482  -0.504  -5.537  0.00  0.00     0.002 A 
ENDROOT
BRANCH   1   7
ATOM      7  C1  UNL d   1       2.187   1.703  -4.535  0.00  0.00     0.055 C 
ATOM      8  C   UNL d   1       2.786   2.350  -5.775  0.00  0.00     0.019 C 
ENDBRANCH   1   7
TORSDOF 1
ENDMDL
