MODEL 1
REMARK minimizedAffinity -0.843327224
REMARK minimizedRMSD -1
REMARK  0 active torsions:
REMARK  status: ('A' for Active; 'I' for Inactive)
ROOT
ATOM      1  C   UNL d   1       0.350   1.083  -2.165  0.00  0.00     0.077 C 
ATOM      2  C1  UNL d   1       0.725   0.510  -0.831  0.00  0.00    -0.074 A 
ATOM      3  C2  UNL d   1       1.195  -0.803  -0.719  0.00  0.00    -0.005 A 
ATOM      4  C3  UNL d   1       1.548  -1.320   0.527  0.00  0.00     0.006 A 
ATOM      5  C4  UNL d   1       1.436  -0.531   1.672  0.00  0.00    -0.005 A 
ATOM      6  C5  UNL d   1       0.968   0.784   1.580  0.00  0.00    -0.074 A 
ATOM      7  C6  UNL d   1       0.850   1.649   2.800  0.00  0.00     0.077 C 
ATOM      8  C7  UNL d   1       0.622   1.299   0.323  0.00  0.00    -0.001 A 
ENDROOT
TORSDOF 0
ENDMDL
