MODEL 1
REMARK minimizedAffinity -1.10876739
REMARK minimizedRMSD -1
REMARK  0 active torsions:
REMARK  status: ('A' for Active; 'I' for Inactive)
ROOT
ATOM      1  C   UNL d   1       1.961  -0.926   0.366  0.00  0.00     0.077 C 
ATOM      2  C1  UNL d   1       0.560  -0.420   0.547  0.00  0.00    -0.074 A 
ATOM      3  C2  UNL d   1      -0.442  -0.734  -0.377  0.00  0.00    -0.005 A 
ATOM      4  C3  UNL d   1      -1.742  -0.264  -0.190  0.00  0.00     0.006 A 
ATOM      5  C4  UNL d   1      -2.053   0.522   0.920  0.00  0.00    -0.005 A 
ATOM      6  C5  UNL d   1      -1.064   0.845   1.855  0.00  0.00    -0.074 A 
ATOM      7  C6  UNL d   1      -1.383   1.680   3.059  0.00  0.00     0.077 C 
ATOM      8  C7  UNL d   1       0.239   0.363   1.664  0.00  0.00    -0.001 A 
ENDROOT
TORSDOF 0
ENDMDL
