MODEL 1
REMARK minimizedAffinity -3.57740808
REMARK minimizedRMSD -1
REMARK  0 active torsions:
REMARK  status: ('A' for Active; 'I' for Inactive)
ROOT
ATOM      1  C   UNL d   1       2.538  -1.253   0.247  0.00  0.00     0.077 C 
ATOM      2  C1  UNL d   1       1.207  -0.577   0.398  0.00  0.00    -0.074 A 
ATOM      3  C2  UNL d   1       0.147  -0.878  -0.463  0.00  0.00    -0.005 A 
ATOM      4  C3  UNL d   1      -1.088  -0.248  -0.304  0.00  0.00     0.006 A 
ATOM      5  C4  UNL d   1      -1.274   0.686   0.716  0.00  0.00    -0.005 A 
ATOM      6  C5  UNL d   1      -0.226   0.998   1.587  0.00  0.00    -0.074 A 
ATOM      7  C6  UNL d   1      -0.413   1.992   2.695  0.00  0.00     0.077 C 
ATOM      8  C7  UNL d   1       1.010   0.356   1.425  0.00  0.00    -0.001 A 
ENDROOT
TORSDOF 0
ENDMDL
