MODEL 1
REMARK minimizedAffinity -2.8615849
REMARK minimizedRMSD -1
REMARK  0 active torsions:
REMARK  status: ('A' for Active; 'I' for Inactive)
ROOT
ATOM      1  C   UNL d   1      -0.796  -1.128  -6.000  0.00  0.00     0.077 C 
ATOM      2  C1  UNL d   1       0.004  -0.315  -5.027  0.00  0.00    -0.074 A 
ATOM      3  C2  UNL d   1       0.787   0.760  -5.461  0.00  0.00    -0.005 A 
ATOM      4  C3  UNL d   1       1.518   1.513  -4.542  0.00  0.00     0.006 A 
ATOM      5  C4  UNL d   1       1.474   1.200  -3.183  0.00  0.00    -0.005 A 
ATOM      6  C5  UNL d   1       0.696   0.130  -2.730  0.00  0.00    -0.074 A 
ATOM      7  C6  UNL d   1       0.630  -0.214  -1.272  0.00  0.00     0.077 C 
ATOM      8  C7  UNL d   1      -0.041  -0.618  -3.659  0.00  0.00    -0.001 A 
ENDROOT
TORSDOF 0
ENDMDL
