MODEL 1
REMARK minimizedAffinity -0.205399126
REMARK minimizedRMSD -1
REMARK  0 active torsions:
REMARK  status: ('A' for Active; 'I' for Inactive)
ROOT
ATOM      1  C   UNL d   1       4.532  -0.730  -3.908  0.00  0.00     0.077 C 
ATOM      2  C1  UNL d   1       3.208  -0.164  -3.488  0.00  0.00    -0.074 A 
ATOM      3  C2  UNL d   1       2.630   0.905  -4.180  0.00  0.00    -0.005 A 
ATOM      4  C3  UNL d   1       1.394   1.414  -3.784  0.00  0.00     0.006 A 
ATOM      5  C4  UNL d   1       0.724   0.861  -2.692  0.00  0.00    -0.005 A 
ATOM      6  C5  UNL d   1       1.285  -0.209  -1.988  0.00  0.00    -0.074 A 
ATOM      7  C6  UNL d   1       0.573  -0.822  -0.819  0.00  0.00     0.077 C 
ATOM      8  C7  UNL d   1       2.524  -0.720  -2.397  0.00  0.00    -0.001 A 
ENDROOT
TORSDOF 0
ENDMDL
