MODEL 1
REMARK minimizedAffinity 3.55515552
REMARK minimizedRMSD -1
REMARK  0 active torsions:
REMARK  status: ('A' for Active; 'I' for Inactive)
ROOT
ATOM      1  C   UNL d   1       0.019   1.698   2.548  0.00  0.00     0.077 C 
ATOM      2  C1  UNL d   1       0.540   0.840   1.433  0.00  0.00    -0.074 A 
ATOM      3  C2  UNL d   1       1.547  -0.103   1.662  0.00  0.00    -0.005 A 
ATOM      4  C3  UNL d   1       2.015  -0.900   0.618  0.00  0.00     0.006 A 
ATOM      5  C4  UNL d   1       1.481  -0.763  -0.664  0.00  0.00    -0.005 A 
ATOM      6  C5  UNL d   1       0.473   0.174  -0.912  0.00  0.00    -0.074 A 
ATOM      7  C6  UNL d   1      -0.118   0.328  -2.282  0.00  0.00     0.077 C 
ATOM      8  C7  UNL d   1       0.004   0.967   0.144  0.00  0.00    -0.001 A 
ENDROOT
TORSDOF 0
ENDMDL
