MODEL 1
REMARK minimizedAffinity 2.63567758
REMARK minimizedRMSD -1
REMARK  0 active torsions:
REMARK  status: ('A' for Active; 'I' for Inactive)
ROOT
ATOM      1  C   UNL d   1      -0.065   1.100  -2.194  0.00  0.00     0.077 C 
ATOM      2  C1  UNL d   1       0.410   0.696  -0.830  0.00  0.00    -0.074 A 
ATOM      3  C2  UNL d   1       1.227  -0.425  -0.656  0.00  0.00    -0.005 A 
ATOM      4  C3  UNL d   1       1.669  -0.783   0.618  0.00  0.00     0.006 A 
ATOM      5  C4  UNL d   1       1.298  -0.025   1.729  0.00  0.00    -0.005 A 
ATOM      6  C5  UNL d   1       0.482   1.100   1.574  0.00  0.00    -0.074 A 
ATOM      7  C6  UNL d   1       0.083   1.932   2.757  0.00  0.00     0.077 C 
ATOM      8  C7  UNL d   1       0.048   1.458   0.290  0.00  0.00    -0.001 A 
ENDROOT
TORSDOF 0
ENDMDL
