MODEL 1
REMARK minimizedAffinity -3.33205152
REMARK minimizedRMSD -1
REMARK  0 active torsions:
REMARK  status: ('A' for Active; 'I' for Inactive)
ROOT
ATOM      1  C   UNL d   1      -1.319  -1.861  -1.094  0.00  0.00     0.077 C 
ATOM      2  C1  UNL d   1      -0.566  -0.724  -0.470  0.00  0.00    -0.074 A 
ATOM      3  C2  UNL d   1       0.359   0.019  -1.210  0.00  0.00    -0.005 A 
ATOM      4  C3  UNL d   1       1.045   1.080  -0.618  0.00  0.00     0.006 A 
ATOM      5  C4  UNL d   1       0.812   1.408   0.718  0.00  0.00    -0.005 A 
ATOM      6  C5  UNL d   1      -0.110   0.678   1.474  0.00  0.00    -0.074 A 
ATOM      7  C6  UNL d   1      -0.379   1.024   2.908  0.00  0.00     0.077 C 
ATOM      8  C7  UNL d   1      -0.800  -0.382   0.870  0.00  0.00    -0.001 A 
ENDROOT
TORSDOF 0
ENDMDL
