MODEL 1
REMARK minimizedAffinity -4.25163651
REMARK minimizedRMSD -1
REMARK  0 active torsions:
REMARK  status: ('A' for Active; 'I' for Inactive)
ROOT
ATOM      1  C   UNL d   1       2.004  -2.245   2.140  0.00  0.00     0.124 A 
ATOM      2  C1  UNL d   1       0.621  -2.199   2.035  0.00  0.00     0.062 A 
ATOM      3  C2  UNL d   1      -0.012  -1.027   1.633  0.00  0.00     0.162 A 
ATOM      4  C3  UNL d   1       0.738   0.110   1.333  0.00  0.00    -0.034 A 
ATOM      5  C4  UNL d   1       2.129   0.057   1.442  0.00  0.00     0.162 A 
ATOM      6  C5  UNL d   1       2.757  -1.118   1.843  0.00  0.00     0.062 A 
ATOM      7  F   UNL d   1       4.093  -1.160   1.945  0.00  0.00    -0.097 F 
ATOM      8  F1  UNL d   1       2.881   1.131   1.160  0.00  0.00    -0.096 F 
ATOM      9  I   UNL d   1      -0.204   1.866   0.731  0.00  0.00    -0.060 I 
ATOM     10  F2  UNL d   1      -1.350  -1.011   1.540  0.00  0.00    -0.096 F 
ATOM     11  F3  UNL d   1      -0.108  -3.287   2.322  0.00  0.00    -0.097 F 
ATOM     12  F4  UNL d   1       2.610  -3.375   2.528  0.00  0.00    -0.092 F 
ENDROOT
TORSDOF 0
ENDMDL
