MODEL 1
REMARK minimizedAffinity -4.31382751
REMARK minimizedRMSD -1
REMARK  0 active torsions:
REMARK  status: ('A' for Active; 'I' for Inactive)
ROOT
ATOM      1  C   UNL d   1      -1.299  -0.100  -0.688  0.00  0.00     0.124 A 
ATOM      2  C1  UNL d   1      -1.459  -0.401  -2.033  0.00  0.00     0.062 A 
ATOM      3  C2  UNL d   1      -2.070   0.512  -2.888  0.00  0.00     0.162 A 
ATOM      4  C3  UNL d   1      -2.524   1.737  -2.400  0.00  0.00    -0.034 A 
ATOM      5  C4  UNL d   1      -2.361   2.033  -1.045  0.00  0.00     0.162 A 
ATOM      6  C5  UNL d   1      -1.750   1.117  -0.195  0.00  0.00     0.062 A 
ATOM      7  F   UNL d   1      -1.596   1.410   1.104  0.00  0.00    -0.097 F 
ATOM      8  F1  UNL d   1      -2.786   3.202  -0.542  0.00  0.00    -0.096 F 
ATOM      9  I   UNL d   1      -3.438   3.106  -3.674  0.00  0.00    -0.060 I 
ATOM     10  F2  UNL d   1      -2.212   0.194  -4.183  0.00  0.00    -0.096 F 
ATOM     11  F3  UNL d   1      -1.026  -1.576  -2.512  0.00  0.00    -0.097 F 
ATOM     12  F4  UNL d   1      -0.712  -0.981   0.132  0.00  0.00    -0.092 F 
ENDROOT
TORSDOF 0
ENDMDL
