MODEL 1
REMARK minimizedAffinity 2.12186027
REMARK minimizedRMSD -1
REMARK  0 active torsions:
REMARK  status: ('A' for Active; 'I' for Inactive)
ROOT
ATOM      1  C   UNL d   1      -2.700  -0.613  -3.233  0.00  0.00     0.124 A 
ATOM      2  C1  UNL d   1      -3.103  -1.577  -2.319  0.00  0.00     0.062 A 
ATOM      3  C2  UNL d   1      -2.381  -1.772  -1.145  0.00  0.00     0.162 A 
ATOM      4  C3  UNL d   1      -1.249  -1.002  -0.878  0.00  0.00    -0.034 A 
ATOM      5  C4  UNL d   1      -0.850  -0.036  -1.803  0.00  0.00     0.162 A 
ATOM      6  C5  UNL d   1      -1.575   0.156  -2.975  0.00  0.00     0.062 A 
ATOM      7  F   UNL d   1      -1.185   1.087  -3.858  0.00  0.00    -0.097 F 
ATOM      8  F1  UNL d   1       0.233   0.723  -1.578  0.00  0.00    -0.096 F 
ATOM      9  I   UNL d   1      -0.167  -1.291   0.876  0.00  0.00    -0.060 I 
ATOM     10  F2  UNL d   1      -2.793  -2.710  -0.279  0.00  0.00    -0.096 F 
ATOM     11  F3  UNL d   1      -4.189  -2.322  -2.567  0.00  0.00    -0.097 F 
ATOM     12  F4  UNL d   1      -3.396  -0.428  -4.363  0.00  0.00    -0.092 F 
ENDROOT
TORSDOF 0
ENDMDL
