MODEL 1
REMARK minimizedAffinity -3.45161319
REMARK minimizedRMSD -1
REMARK  0 active torsions:
REMARK  status: ('A' for Active; 'I' for Inactive)
ROOT
ATOM      1  C   UNL d   1      -1.184   3.771   1.006  0.00  0.00     0.124 A 
ATOM      2  C1  UNL d   1       0.125   3.986   0.598  0.00  0.00     0.062 A 
ATOM      3  C2  UNL d   1       0.986   2.909   0.411  0.00  0.00     0.162 A 
ATOM      4  C3  UNL d   1       0.541   1.605   0.630  0.00  0.00    -0.034 A 
ATOM      5  C4  UNL d   1      -0.777   1.397   1.040  0.00  0.00     0.162 A 
ATOM      6  C5  UNL d   1      -1.634   2.477   1.226  0.00  0.00     0.062 A 
ATOM      7  F   UNL d   1      -2.898   2.267   1.620  0.00  0.00    -0.097 F 
ATOM      8  F1  UNL d   1      -1.238   0.156   1.260  0.00  0.00    -0.096 F 
ATOM      9  I   UNL d   1       1.825  -0.008   0.351  0.00  0.00    -0.060 I 
ATOM     10  F2  UNL d   1       2.246   3.147   0.017  0.00  0.00    -0.096 F 
ATOM     11  F3  UNL d   1       0.563   5.236   0.385  0.00  0.00    -0.097 F 
ATOM     12  F4  UNL d   1      -2.010   4.809   1.186  0.00  0.00    -0.092 F 
ENDROOT
TORSDOF 0
ENDMDL
