MODEL 1
REMARK minimizedAffinity 3.78442574
REMARK minimizedRMSD -1
REMARK  0 active torsions:
REMARK  status: ('A' for Active; 'I' for Inactive)
ROOT
ATOM      1  C   UNL d   1      -0.029  -0.409  -0.745  0.00  0.00     0.124 A 
ATOM      2  C1  UNL d   1      -1.245   0.165  -1.088  0.00  0.00     0.062 A 
ATOM      3  C2  UNL d   1      -1.673   1.329  -0.456  0.00  0.00     0.162 A 
ATOM      4  C3  UNL d   1      -0.884   1.927   0.526  0.00  0.00    -0.034 A 
ATOM      5  C4  UNL d   1       0.338   1.344   0.867  0.00  0.00     0.162 A 
ATOM      6  C5  UNL d   1       0.761   0.180   0.232  0.00  0.00     0.062 A 
ATOM      7  F   UNL d   1       1.936  -0.373   0.565  0.00  0.00    -0.097 F 
ATOM      8  F1  UNL d   1       1.121   1.893   1.807  0.00  0.00    -0.096 F 
ATOM      9  I   UNL d   1      -1.521   3.667   1.474  0.00  0.00    -0.060 I 
ATOM     10  F2  UNL d   1      -2.853   1.862  -0.808  0.00  0.00    -0.096 F 
ATOM     11  F3  UNL d   1      -2.011  -0.403  -2.031  0.00  0.00    -0.097 F 
ATOM     12  F4  UNL d   1       0.380  -1.529  -1.354  0.00  0.00    -0.092 F 
ENDROOT
TORSDOF 0
ENDMDL
