MODEL 1
REMARK minimizedAffinity 1.98007476
REMARK minimizedRMSD -1
REMARK  0 active torsions:
REMARK  status: ('A' for Active; 'I' for Inactive)
ROOT
ATOM      1  C   UNL d   1       0.506  -0.254  -0.371  0.00  0.00     0.124 A 
ATOM      2  C1  UNL d   1      -0.753   0.047  -0.873  0.00  0.00     0.062 A 
ATOM      3  C2  UNL d   1      -1.478   1.115  -0.353  0.00  0.00     0.162 A 
ATOM      4  C3  UNL d   1      -0.946   1.891   0.677  0.00  0.00    -0.034 A 
ATOM      5  C4  UNL d   1       0.320   1.583   1.178  0.00  0.00     0.162 A 
ATOM      6  C5  UNL d   1       1.041   0.514   0.654  0.00  0.00     0.062 A 
ATOM      7  F   UNL d   1       2.256   0.225   1.141  0.00  0.00    -0.097 F 
ATOM      8  F1  UNL d   1       0.862   2.309   2.167  0.00  0.00    -0.096 F 
ATOM      9  I   UNL d   1      -2.027   3.489   1.458  0.00  0.00    -0.060 I 
ATOM     10  F2  UNL d   1      -2.692   1.382  -0.858  0.00  0.00    -0.096 F 
ATOM     11  F3  UNL d   1      -1.273  -0.694  -1.863  0.00  0.00    -0.097 F 
ATOM     12  F4  UNL d   1       1.201  -1.282  -0.873  0.00  0.00    -0.092 F 
ENDROOT
TORSDOF 0
ENDMDL
