MODEL 1
REMARK minimizedAffinity 1.17704546
REMARK minimizedRMSD -1
REMARK  0 active torsions:
REMARK  status: ('A' for Active; 'I' for Inactive)
ROOT
ATOM      1  C1  BNZ d   1      -0.346   0.683   0.812  0.00  0.00     0.000 A 
ATOM      2  C2  BNZ d   1      -1.613   1.117   0.528  0.00  0.00     0.000 A 
ATOM      3  C3  BNZ d   1      -2.679   0.701   1.275  0.00  0.00     0.000 A 
ATOM      4  C4  BNZ d   1      -2.483  -0.179   2.278  0.00  0.00     0.000 A 
ATOM      5  C5  BNZ d   1      -1.212  -0.633   2.571  0.00  0.00     0.000 A 
ATOM      6  C6  BNZ d   1      -0.136  -0.182   1.841  0.00  0.00     0.000 A 
ENDROOT
TORSDOF 0
ENDMDL
