MODEL 1
REMARK minimizedAffinity 0.810251653
REMARK minimizedRMSD -1
REMARK  0 active torsions:
REMARK  status: ('A' for Active; 'I' for Inactive)
ROOT
ATOM      1  C1  BNZ d   1      -3.345   4.032   5.994  0.00  0.00     0.000 A 
ATOM      2  C2  BNZ d   1      -3.745   2.722   5.994  0.00  0.00     0.000 A 
ATOM      3  C3  BNZ d   1      -5.073   2.396   5.970  0.00  0.00     0.000 A 
ATOM      4  C4  BNZ d   1      -5.997   3.377   5.986  0.00  0.00     0.000 A 
ATOM      5  C5  BNZ d   1      -5.610   4.702   5.996  0.00  0.00     0.000 A 
ATOM      6  C6  BNZ d   1      -4.273   5.027   5.981  0.00  0.00     0.000 A 
ENDROOT
TORSDOF 0
ENDMDL
