MODEL 1
REMARK minimizedAffinity -1.37977064
REMARK minimizedRMSD -1
REMARK  0 active torsions:
REMARK  status: ('A' for Active; 'I' for Inactive)
ROOT
ATOM      1  C1  BNZ d   1      -4.113  -3.022   3.303  0.00  0.00     0.000 A 
ATOM      2  C2  BNZ d   1      -3.610  -1.880   3.869  0.00  0.00     0.000 A 
ATOM      3  C3  BNZ d   1      -3.668  -1.684   5.220  0.00  0.00     0.000 A 
ATOM      4  C4  BNZ d   1      -4.265  -2.610   5.999  0.00  0.00     0.000 A 
ATOM      5  C5  BNZ d   1      -4.785  -3.761   5.443  0.00  0.00     0.000 A 
ATOM      6  C6  BNZ d   1      -4.690  -3.973   4.087  0.00  0.00     0.000 A 
ENDROOT
TORSDOF 0
ENDMDL
