MODEL 1
REMARK minimizedAffinity -0.950229168
REMARK minimizedRMSD -1
REMARK  0 active torsions:
REMARK  status: ('A' for Active; 'I' for Inactive)
ROOT
ATOM      1  C1  BNZ d   1      -5.914   1.057   4.830  0.00  0.00     0.000 A 
ATOM      2  C2  BNZ d   1      -5.725   1.744   6.000  0.00  0.00     0.000 A 
ATOM      3  C3  BNZ d   1      -5.604   3.105   6.000  0.00  0.00     0.000 A 
ATOM      4  C4  BNZ d   1      -5.631   3.773   4.829  0.00  0.00     0.000 A 
ATOM      5  C5  BNZ d   1      -5.811   3.094   3.640  0.00  0.00     0.000 A 
ATOM      6  C6  BNZ d   1      -5.972   1.727   3.648  0.00  0.00     0.000 A 
ENDROOT
TORSDOF 0
ENDMDL
