MODEL 1
REMARK minimizedAffinity 7.92636585
REMARK minimizedRMSD -1
REMARK  0 active torsions:
REMARK  status: ('A' for Active; 'I' for Inactive)
ROOT
ATOM      1  C1  BNZ d   1       2.305   0.611   1.785  0.00  0.00     0.000 A 
ATOM      2  C2  BNZ d   1       2.968  -0.081   2.763  0.00  0.00     0.000 A 
ATOM      3  C3  BNZ d   1       4.326   0.012   2.888  0.00  0.00     0.000 A 
ATOM      4  C4  BNZ d   1       5.023   0.764   2.012  0.00  0.00     0.000 A 
ATOM      5  C5  BNZ d   1       4.369   1.460   1.015  0.00  0.00     0.000 A 
ATOM      6  C6  BNZ d   1       2.999   1.395   0.916  0.00  0.00     0.000 A 
ENDROOT
TORSDOF 0
ENDMDL
