MODEL 1
REMARK minimizedAffinity -2.61125064
REMARK minimizedRMSD -1
REMARK  0 active torsions:
REMARK  status: ('A' for Active; 'I' for Inactive)
ROOT
ATOM      1  C1  BNZ d   1      -2.590   1.005   0.910  0.00  0.00     0.000 A 
ATOM      2  C2  BNZ d   1      -2.706   1.779   2.034  0.00  0.00     0.000 A 
ATOM      3  C3  BNZ d   1      -1.684   1.856   2.939  0.00  0.00     0.000 A 
ATOM      4  C4  BNZ d   1      -0.565   1.130   2.739  0.00  0.00     0.000 A 
ATOM      5  C5  BNZ d   1      -0.437   0.339   1.616  0.00  0.00     0.000 A 
ATOM      6  C6  BNZ d   1      -1.451   0.293   0.687  0.00  0.00     0.000 A 
ENDROOT
TORSDOF 0
ENDMDL
