MODEL 1
REMARK minimizedAffinity -3.23385429
REMARK minimizedRMSD -1
REMARK  0 active torsions:
REMARK  status: ('A' for Active; 'I' for Inactive)
ROOT
ATOM      1  C1  BNZ d   1       0.894   5.685  -4.292  0.00  0.00     0.000 A 
ATOM      2  C2  BNZ d   1      -0.052   5.871  -5.264  0.00  0.00     0.000 A 
ATOM      3  C3  BNZ d   1      -0.552   4.811  -5.967  0.00  0.00     0.000 A 
ATOM      4  C4  BNZ d   1      -0.076   3.572  -5.726  0.00  0.00     0.000 A 
ATOM      5  C5  BNZ d   1       0.884   3.369  -4.755  0.00  0.00     0.000 A 
ATOM      6  C6  BNZ d   1       1.357   4.434  -4.022  0.00  0.00     0.000 A 
ENDROOT
TORSDOF 0
ENDMDL
