MODEL 1
REMARK minimizedAffinity 3.57427955
REMARK minimizedRMSD -1
REMARK  0 active torsions:
REMARK  status: ('A' for Active; 'I' for Inactive)
ROOT
ATOM      1  C1  BNZ d   1      -2.746   1.070   1.340  0.00  0.00     0.000 A 
ATOM      2  C2  BNZ d   1      -2.135   1.596   2.447  0.00  0.00     0.000 A 
ATOM      3  C3  BNZ d   1      -0.824   1.321   2.720  0.00  0.00     0.000 A 
ATOM      4  C4  BNZ d   1      -0.138   0.489   1.909  0.00  0.00     0.000 A 
ATOM      5  C5  BNZ d   1      -0.743  -0.056   0.795  0.00  0.00     0.000 A 
ATOM      6  C6  BNZ d   1      -2.051   0.254   0.502  0.00  0.00     0.000 A 
ENDROOT
TORSDOF 0
ENDMDL
