MODEL 1
REMARK minimizedAffinity 4.26180792
REMARK minimizedRMSD -1
REMARK  0 active torsions:
REMARK  status: ('A' for Active; 'I' for Inactive)
ROOT
ATOM      1  C1  BNZ d   1      -5.999   1.475   2.401  0.00  0.00     0.000 A 
ATOM      2  C2  BNZ d   1      -6.000   1.959   3.682  0.00  0.00     0.000 A 
ATOM      3  C3  BNZ d   1      -4.829   2.278   4.310  0.00  0.00     0.000 A 
ATOM      4  C4  BNZ d   1      -3.658   2.077   3.672  0.00  0.00     0.000 A 
ATOM      5  C5  BNZ d   1      -3.640   1.580   2.384  0.00  0.00     0.000 A 
ATOM      6  C6  BNZ d   1      -4.823   1.296   1.741  0.00  0.00     0.000 A 
ENDROOT
TORSDOF 0
ENDMDL
