MODEL 1
REMARK minimizedAffinity 2.69654155
REMARK minimizedRMSD -1
REMARK  0 active torsions:
REMARK  status: ('A' for Active; 'I' for Inactive)
ROOT
ATOM      1  C1  BNZ d   1      -0.209   0.741   2.017  0.00  0.00     0.000 A 
ATOM      2  C2  BNZ d   1      -0.740   1.556   2.981  0.00  0.00     0.000 A 
ATOM      3  C3  BNZ d   1      -2.046   1.955   2.920  0.00  0.00     0.000 A 
ATOM      4  C4  BNZ d   1      -2.808   1.571   1.875  0.00  0.00     0.000 A 
ATOM      5  C5  BNZ d   1      -2.285   0.758   0.890  0.00  0.00     0.000 A 
ATOM      6  C6  BNZ d   1      -0.981   0.326   0.975  0.00  0.00     0.000 A 
ENDROOT
TORSDOF 0
ENDMDL
