MODEL 1
REMARK minimizedAffinity 0.701062739
REMARK minimizedRMSD -1
REMARK  0 active torsions:
REMARK  status: ('A' for Active; 'I' for Inactive)
ROOT
ATOM      1  C1  BNZ d   1      -1.823   0.236   0.737  0.00  0.00     0.000 A 
ATOM      2  C2  BNZ d   1      -0.536  -0.232   0.737  0.00  0.00     0.000 A 
ATOM      3  C3  BNZ d   1       0.333   0.111   1.735  0.00  0.00     0.000 A 
ATOM      4  C4  BNZ d   1      -0.073   0.951   2.708  0.00  0.00     0.000 A 
ATOM      5  C5  BNZ d   1      -1.364   1.439   2.717  0.00  0.00     0.000 A 
ATOM      6  C6  BNZ d   1      -2.248   1.061   1.732  0.00  0.00     0.000 A 
ENDROOT
TORSDOF 0
ENDMDL
