MODEL 1
REMARK minimizedAffinity 0.225275412
REMARK minimizedRMSD -1
REMARK  0 active torsions:
REMARK  status: ('A' for Active; 'I' for Inactive)
ROOT
ATOM      1  C1  BNZ d   1       2.483   3.128  -5.669  0.00  0.00     0.000 A 
ATOM      2  C2  BNZ d   1       2.849   1.853  -5.326  0.00  0.00     0.000 A 
ATOM      3  C3  BNZ d   1       4.166   1.488  -5.294  0.00  0.00     0.000 A 
ATOM      4  C4  BNZ d   1       5.111   2.384  -5.642  0.00  0.00     0.000 A 
ATOM      5  C5  BNZ d   1       4.758   3.670  -6.000  0.00  0.00     0.000 A 
ATOM      6  C6  BNZ d   1       3.434   4.046  -5.993  0.00  0.00     0.000 A 
ENDROOT
TORSDOF 0
ENDMDL
