MODEL 1
REMARK minimizedAffinity -2.54551482
REMARK minimizedRMSD -1
REMARK  0 active torsions:
REMARK  status: ('A' for Active; 'I' for Inactive)
ROOT
ATOM      1  C1  BNZ d   1      -5.840   1.600   2.608  0.00  0.00     0.000 A 
ATOM      2  C2  BNZ d   1      -4.696   1.550   1.856  0.00  0.00     0.000 A 
ATOM      3  C3  BNZ d   1      -3.468   1.487   2.452  0.00  0.00     0.000 A 
ATOM      4  C4  BNZ d   1      -3.383   1.514   3.798  0.00  0.00     0.000 A 
ATOM      5  C5  BNZ d   1      -4.526   1.574   4.570  0.00  0.00     0.000 A 
ATOM      6  C6  BNZ d   1      -5.762   1.598   3.966  0.00  0.00     0.000 A 
ENDROOT
TORSDOF 0
ENDMDL
