MODEL 1
REMARK minimizedAffinity 3.10618281
REMARK minimizedRMSD -1
REMARK  0 active torsions:
REMARK  status: ('A' for Active; 'I' for Inactive)
ROOT
ATOM      1  C1  BNZ d   1      -2.364   2.025   3.273  0.00  0.00     0.000 A 
ATOM      2  C2  BNZ d   1      -1.263   2.368   4.012  0.00  0.00     0.000 A 
ATOM      3  C3  BNZ d   1      -0.012   1.977   3.625  0.00  0.00     0.000 A 
ATOM      4  C4  BNZ d   1       0.133   1.210   2.525  0.00  0.00     0.000 A 
ATOM      5  C5  BNZ d   1      -0.968   0.848   1.775  0.00  0.00     0.000 A 
ATOM      6  C6  BNZ d   1      -2.222   1.277   2.146  0.00  0.00     0.000 A 
ENDROOT
TORSDOF 0
ENDMDL
