MODEL 1
REMARK minimizedAffinity 3.73865891
REMARK minimizedRMSD -1
REMARK  0 active torsions:
REMARK  status: ('A' for Active; 'I' for Inactive)
ROOT
ATOM      1  C1  BNZ d   1      -1.396   0.042   0.445  0.00  0.00     0.000 A 
ATOM      2  C2  BNZ d   1      -2.714   0.412   0.421  0.00  0.00     0.000 A 
ATOM      3  C3  BNZ d   1      -3.254   1.142   1.442  0.00  0.00     0.000 A 
ATOM      4  C4  BNZ d   1      -2.488   1.467   2.503  0.00  0.00     0.000 A 
ATOM      5  C5  BNZ d   1      -1.159   1.092   2.547  0.00  0.00     0.000 A 
ATOM      6  C6  BNZ d   1      -0.609   0.391   1.499  0.00  0.00     0.000 A 
ENDROOT
TORSDOF 0
ENDMDL
