MODEL 1
REMARK minimizedAffinity 2.36707807
REMARK minimizedRMSD -1
REMARK  0 active torsions:
REMARK  status: ('A' for Active; 'I' for Inactive)
ROOT
ATOM      1  C1  BNZ d   1      -3.572  -0.749   5.855  0.00  0.00     0.000 A 
ATOM      2  C2  BNZ d   1      -3.659   0.613   5.739  0.00  0.00     0.000 A 
ATOM      3  C3  BNZ d   1      -4.872   1.242   5.777  0.00  0.00     0.000 A 
ATOM      4  C4  BNZ d   1      -5.997   0.507   5.891  0.00  0.00     0.000 A 
ATOM      5  C5  BNZ d   1      -5.926  -0.868   6.000  0.00  0.00     0.000 A 
ATOM      6  C6  BNZ d   1      -4.701  -1.495   6.000  0.00  0.00     0.000 A 
ENDROOT
TORSDOF 0
ENDMDL
