MODEL 1
REMARK minimizedAffinity -5.10266924
REMARK minimizedRMSD -1
REMARK  1 active torsions:
REMARK  status: ('A' for Active; 'I' for Inactive)
REMARK    1  A    between atoms: C1_2  and  C2_3 
ROOT
ATOM      1  C2  UNL d   1      -4.720  -0.401   0.222  0.00  0.00    -0.073 A 
ATOM      2  C3  UNL d   1      -5.116   0.359   1.328  0.00  0.00    -0.002 A 
ATOM      3  C4  UNL d   1      -4.250   1.303   1.881  0.00  0.00     0.004 A 
ATOM      4  C5  UNL d   1      -2.984   1.501   1.332  0.00  0.00    -0.004 A 
ATOM      5  C6  UNL d   1      -2.574   0.759   0.219  0.00  0.00    -0.075 A 
ATOM      6  C7  UNL d   1      -1.214   0.959  -0.383  0.00  0.00     0.076 C 
ATOM      7  C8  UNL d   1      -3.448  -0.189  -0.329  0.00  0.00     0.001 A 
ENDROOT
BRANCH   1   8
ATOM      8  C1  UNL d   1      -5.654  -1.417  -0.383  0.00  0.00     0.053 C 
ATOM      9  C   UNL d   1      -5.661  -1.352  -1.902  0.00  0.00     0.018 C 
ENDBRANCH   1   8
TORSDOF 1
ENDMDL
