MODEL 1
REMARK minimizedAffinity -5.31836939
REMARK minimizedRMSD -1
REMARK  1 active torsions:
REMARK  status: ('A' for Active; 'I' for Inactive)
REMARK    1  A    between atoms: C1_2  and  C2_3 
ROOT
ATOM      1  C2  UNL d   1      -2.073   0.908   0.090  0.00  0.00    -0.073 A 
ATOM      2  C3  UNL d   1      -2.312   1.587   1.290  0.00  0.00    -0.002 A 
ATOM      3  C4  UNL d   1      -3.540   1.458   1.941  0.00  0.00     0.004 A 
ATOM      4  C5  UNL d   1      -4.537   0.646   1.403  0.00  0.00    -0.004 A 
ATOM      5  C6  UNL d   1      -4.314  -0.050   0.210  0.00  0.00    -0.075 A 
ATOM      6  C7  UNL d   1      -5.378  -0.926  -0.383  0.00  0.00     0.076 C 
ATOM      7  C8  UNL d   1      -3.079   0.086  -0.439  0.00  0.00     0.001 A 
ENDROOT
BRANCH   1   8
ATOM      8  C1  UNL d   1      -0.747   1.039  -0.613  0.00  0.00     0.053 C 
ATOM      9  C   UNL d   1       0.404   0.535   0.243  0.00  0.00     0.018 C 
ENDBRANCH   1   8
TORSDOF 1
ENDMDL
