MODEL 1
REMARK minimizedAffinity -5.05295324
REMARK minimizedRMSD -1
REMARK  1 active torsions:
REMARK  status: ('A' for Active; 'I' for Inactive)
REMARK    1  A    between atoms: C1_2  and  C2_3 
ROOT
ATOM      1  C2  UNL d   1      -2.038   0.582   0.092  0.00  0.00    -0.073 A 
ATOM      2  C3  UNL d   1      -2.173   1.470   1.165  0.00  0.00    -0.002 A 
ATOM      3  C4  UNL d   1      -3.353   1.502   1.909  0.00  0.00     0.004 A 
ATOM      4  C5  UNL d   1      -4.406   0.643   1.594  0.00  0.00    -0.004 A 
ATOM      5  C6  UNL d   1      -4.285  -0.260   0.532  0.00  0.00    -0.075 A 
ATOM      6  C7  UNL d   1      -5.409  -1.189   0.178  0.00  0.00     0.076 C 
ATOM      7  C8  UNL d   1      -3.098  -0.284  -0.212  0.00  0.00     0.001 A 
ENDROOT
BRANCH   1   8
ATOM      8  C1  UNL d   1      -0.764   0.540  -0.711  0.00  0.00     0.053 C 
ATOM      9  C   UNL d   1       0.376  -0.104   0.063  0.00  0.00     0.018 C 
ENDBRANCH   1   8
TORSDOF 1
ENDMDL
