MODEL 1
REMARK minimizedAffinity -0.686463416
REMARK minimizedRMSD -1
REMARK  1 active torsions:
REMARK  status: ('A' for Active; 'I' for Inactive)
REMARK    1  A    between atoms: C1_2  and  C2_3 
ROOT
ATOM      1  C2  UNL d   1      -0.541   0.567  -0.410  0.00  0.00    -0.073 A 
ATOM      2  C3  UNL d   1       0.056   1.832  -0.373  0.00  0.00    -0.002 A 
ATOM      3  C4  UNL d   1       1.445   1.957  -0.412  0.00  0.00     0.004 A 
ATOM      4  C5  UNL d   1       2.250   0.822  -0.495  0.00  0.00    -0.004 A 
ATOM      5  C6  UNL d   1       1.672  -0.451  -0.546  0.00  0.00    -0.075 A 
ATOM      6  C7  UNL d   1       2.525  -1.683  -0.634  0.00  0.00     0.076 C 
ATOM      7  C8  UNL d   1       0.277  -0.569  -0.504  0.00  0.00     0.001 A 
ENDROOT
BRANCH   1   8
ATOM      8  C1  UNL d   1      -2.041   0.426  -0.375  0.00  0.00     0.053 C 
ATOM      9  C   UNL d   1      -2.632   0.949   0.925  0.00  0.00     0.018 C 
ENDBRANCH   1   8
TORSDOF 1
ENDMDL
