MODEL 1
REMARK minimizedAffinity -0.596675098
REMARK minimizedRMSD -1
REMARK  0 active torsions:
REMARK  status: ('A' for Active; 'I' for Inactive)
ROOT
ATOM      1  C4' PXY d   1       1.061  -0.650   0.833  0.00  0.00     0.077 C 
ATOM      2  C1' PXY d   1      -2.535   2.474  -2.442  0.00  0.00     0.077 C 
ATOM      3  C1  PXY d   1      -1.589   1.665  -1.576  0.00  0.00    -0.082 A 
ATOM      4  C2  PXY d   1      -0.999   0.593  -2.077  0.00  0.00     0.003 A 
ATOM      5  C3  PXY d   1      -0.166  -0.169  -1.298  0.00  0.00     0.003 A 
ATOM      6  C4  PXY d   1       0.106   0.202  -0.008  0.00  0.00    -0.082 A 
ATOM      7  C5  PXY d   1      -0.484   1.301   0.507  0.00  0.00     0.003 A 
ATOM      8  C6  PXY d   1      -1.358   2.037  -0.287  0.00  0.00     0.003 A 
ENDROOT
TORSDOF 0
ENDMDL
