MODEL 1
REMARK minimizedAffinity -2.94926429
REMARK minimizedRMSD -1
REMARK  0 active torsions:
REMARK  status: ('A' for Active; 'I' for Inactive)
ROOT
ATOM      1  C4' PXY d   1       2.321  -1.108  -1.315  0.00  0.00     0.077 C 
ATOM      2  C1' PXY d   1      -0.878  -1.225   3.498  0.00  0.00     0.077 C 
ATOM      3  C1  PXY d   1      -0.050  -1.190   2.229  0.00  0.00    -0.082 A 
ATOM      4  C2  PXY d   1       1.007  -1.978   2.116  0.00  0.00     0.003 A 
ATOM      5  C3  PXY d   1       1.786  -1.936   0.988  0.00  0.00     0.003 A 
ATOM      6  C4  PXY d   1       1.450  -1.117  -0.056  0.00  0.00    -0.082 A 
ATOM      7  C5  PXY d   1       0.367  -0.317   0.048  0.00  0.00     0.003 A 
ATOM      8  C6  PXY d   1      -0.387  -0.345   1.217  0.00  0.00     0.003 A 
ENDROOT
TORSDOF 0
ENDMDL
