MODEL 1
REMARK minimizedAffinity -0.525444806
REMARK minimizedRMSD -1
REMARK  0 active torsions:
REMARK  status: ('A' for Active; 'I' for Inactive)
ROOT
ATOM      1  C4' PXY d   1      -1.416   2.225  -1.377  0.00  0.00     0.077 C 
ATOM      2  C1' PXY d   1       2.033  -1.565   1.299  0.00  0.00     0.077 C 
ATOM      3  C1  PXY d   1       1.118  -0.577   0.602  0.00  0.00    -0.082 A 
ATOM      4  C2  PXY d   1       1.534   0.042  -0.491  0.00  0.00     0.003 A 
ATOM      5  C3  PXY d   1       0.732   0.962  -1.115  0.00  0.00     0.003 A 
ATOM      6  C4  PXY d   1      -0.530   1.212  -0.646  0.00  0.00    -0.082 A 
ATOM      7  C5  PXY d   1      -0.966   0.577   0.462  0.00  0.00     0.003 A 
ATOM      8  C6  PXY d   1      -0.121  -0.323   1.105  0.00  0.00     0.003 A 
ENDROOT
TORSDOF 0
ENDMDL
