MODEL 1
REMARK minimizedAffinity -4.66226482
REMARK minimizedRMSD -1
REMARK  0 active torsions:
REMARK  status: ('A' for Active; 'I' for Inactive)
ROOT
ATOM      1  C4' PXY d   1      -1.129   1.855  -1.781  0.00  0.00     0.077 C 
ATOM      2  C1' PXY d   1       1.648  -1.901   1.624  0.00  0.00     0.077 C 
ATOM      3  C1  PXY d   1       0.909  -0.918   0.738  0.00  0.00    -0.082 A 
ATOM      4  C2  PXY d   1       1.363  -0.665  -0.479  0.00  0.00     0.003 A 
ATOM      5  C3  PXY d   1       0.725   0.245  -1.282  0.00  0.00     0.003 A 
ATOM      6  C4  PXY d   1      -0.420   0.863  -0.855  0.00  0.00    -0.082 A 
ATOM      7  C5  PXY d   1      -0.895   0.602   0.381  0.00  0.00     0.003 A 
ATOM      8  C6  PXY d   1      -0.210  -0.294   1.196  0.00  0.00     0.003 A 
ENDROOT
TORSDOF 0
ENDMDL
