MODEL 1
REMARK minimizedAffinity -4.32872009
REMARK minimizedRMSD -1
REMARK  0 active torsions:
REMARK  status: ('A' for Active; 'I' for Inactive)
ROOT
ATOM      1  C4' PXY d   1      -1.011   1.910  -0.818  0.00  0.00     0.077 C 
ATOM      2  C1' PXY d   1       1.887  -2.495   1.551  0.00  0.00     0.077 C 
ATOM      3  C1  PXY d   1       1.138  -1.334   0.926  0.00  0.00    -0.082 A 
ATOM      4  C2  PXY d   1      -0.095  -1.062   1.322  0.00  0.00     0.003 A 
ATOM      5  C3  PXY d   1      -0.798  -0.036   0.745  0.00  0.00     0.003 A 
ATOM      6  C4  PXY d   1      -0.214   0.754  -0.209  0.00  0.00    -0.082 A 
ATOM      7  C5  PXY d   1       1.048   0.490  -0.610  0.00  0.00     0.003 A 
ATOM      8  C6  PXY d   1       1.729  -0.582  -0.042  0.00  0.00     0.003 A 
ENDROOT
TORSDOF 0
ENDMDL
