MODEL 1
REMARK minimizedAffinity -3.19435048
REMARK minimizedRMSD -1
REMARK  0 active torsions:
REMARK  status: ('A' for Active; 'I' for Inactive)
ROOT
ATOM      1  C4' PXY d   1       2.355  -1.366   0.902  0.00  0.00     0.077 C 
ATOM      2  C1' PXY d   1      -1.933   1.744  -1.413  0.00  0.00     0.077 C 
ATOM      3  C1  PXY d   1      -0.806   0.924  -0.818  0.00  0.00    -0.082 A 
ATOM      4  C2  PXY d   1      -0.848   0.583   0.460  0.00  0.00     0.003 A 
ATOM      5  C3  PXY d   1       0.178  -0.131   1.022  0.00  0.00     0.003 A 
ATOM      6  C4  PXY d   1       1.234  -0.546   0.256  0.00  0.00    -0.082 A 
ATOM      7  C5  PXY d   1       1.280  -0.212  -1.051  0.00  0.00     0.003 A 
ATOM      8  C6  PXY d   1       0.248   0.548  -1.593  0.00  0.00     0.003 A 
ENDROOT
TORSDOF 0
ENDMDL
