MODEL 1
REMARK minimizedAffinity -2.40233493
REMARK minimizedRMSD -1
REMARK  0 active torsions:
REMARK  status: ('A' for Active; 'I' for Inactive)
ROOT
ATOM      1  C4' PXY d   1      -0.372  -0.046   0.624  0.00  0.00     0.077 C 
ATOM      2  C1' PXY d   1      -2.638   2.243  -4.177  0.00  0.00     0.077 C 
ATOM      3  C1  PXY d   1      -2.050   1.631  -2.920  0.00  0.00    -0.082 A 
ATOM      4  C2  PXY d   1      -1.636   2.419  -1.941  0.00  0.00     0.003 A 
ATOM      5  C3  PXY d   1      -1.073   1.885  -0.811  0.00  0.00     0.003 A 
ATOM      6  C4  PXY d   1      -0.981   0.527  -0.659  0.00  0.00    -0.082 A 
ATOM      7  C5  PXY d   1      -1.411  -0.284  -1.649  0.00  0.00     0.003 A 
ATOM      8  C6  PXY d   1      -1.942   0.280  -2.805  0.00  0.00     0.003 A 
ENDROOT
TORSDOF 0
ENDMDL
