MODEL 1
REMARK minimizedAffinity -2.33593011
REMARK minimizedRMSD -1
REMARK  0 active torsions:
REMARK  status: ('A' for Active; 'I' for Inactive)
ROOT
ATOM      1  C4' PXY d   1      -1.974   2.347  -2.258  0.00  0.00     0.077 C 
ATOM      2  C1' PXY d   1       1.542  -1.163   0.697  0.00  0.00     0.077 C 
ATOM      3  C1  PXY d   1       0.615  -0.238  -0.067  0.00  0.00    -0.082 A 
ATOM      4  C2  PXY d   1       0.285  -0.528  -1.315  0.00  0.00     0.003 A 
ATOM      5  C3  PXY d   1      -0.527   0.314  -2.030  0.00  0.00     0.003 A 
ATOM      6  C4  PXY d   1      -1.048   1.437  -1.446  0.00  0.00    -0.082 A 
ATOM      7  C5  PXY d   1      -0.724   1.734  -0.169  0.00  0.00     0.003 A 
ATOM      8  C6  PXY d   1       0.134   0.888   0.527  0.00  0.00     0.003 A 
ENDROOT
TORSDOF 0
ENDMDL
