MODEL 1
REMARK minimizedAffinity -2.07099485
REMARK minimizedRMSD -1
REMARK  0 active torsions:
REMARK  status: ('A' for Active; 'I' for Inactive)
ROOT
ATOM      1  C4' PXY d   1      -1.108   1.542  -1.748  0.00  0.00     0.077 C 
ATOM      2  C1' PXY d   1       1.792  -2.015   1.767  0.00  0.00     0.077 C 
ATOM      3  C1  PXY d   1       1.020  -1.086   0.851  0.00  0.00    -0.082 A 
ATOM      4  C2  PXY d   1       1.549  -0.719  -0.305  0.00  0.00     0.003 A 
ATOM      5  C3  PXY d   1       0.879   0.146  -1.131  0.00  0.00     0.003 A 
ATOM      6  C4  PXY d   1      -0.369   0.598  -0.796  0.00  0.00    -0.082 A 
ATOM      7  C5  PXY d   1      -0.920   0.220   0.377  0.00  0.00     0.003 A 
ATOM      8  C6  PXY d   1      -0.206  -0.626   1.221  0.00  0.00     0.003 A 
ENDROOT
TORSDOF 0
ENDMDL
