MODEL 1
REMARK minimizedAffinity 3.96055579
REMARK minimizedRMSD -1
REMARK  0 active torsions:
REMARK  status: ('A' for Active; 'I' for Inactive)
ROOT
ATOM      1  C4' PXY d   1       3.359  -1.855  -1.191  0.00  0.00     0.077 C 
ATOM      2  C1' PXY d   1      -0.626  -1.340   2.964  0.00  0.00     0.077 C 
ATOM      3  C1  PXY d   1       0.418  -1.463   1.872  0.00  0.00    -0.082 A 
ATOM      4  C2  PXY d   1       0.631  -2.636   1.299  0.00  0.00     0.003 A 
ATOM      5  C3  PXY d   1       1.594  -2.771   0.332  0.00  0.00     0.003 A 
ATOM      6  C4  PXY d   1       2.309  -1.683  -0.091  0.00  0.00    -0.082 A 
ATOM      7  C5  PXY d   1       2.090  -0.480   0.481  0.00  0.00     0.003 A 
ATOM      8  C6  PXY d   1       1.138  -0.372   1.490  0.00  0.00     0.003 A 
ENDROOT
TORSDOF 0
ENDMDL
