MODEL 1
REMARK minimizedAffinity -0.99510175
REMARK minimizedRMSD -1
REMARK  0 active torsions:
REMARK  status: ('A' for Active; 'I' for Inactive)
ROOT
ATOM      1  C4' PXY d   1      -1.453   1.940  -1.550  0.00  0.00     0.077 C 
ATOM      2  C1' PXY d   1       2.782  -0.944   1.125  0.00  0.00     0.077 C 
ATOM      3  C1  PXY d   1       1.663  -0.194   0.430  0.00  0.00    -0.082 A 
ATOM      4  C2  PXY d   1       1.871   0.330  -0.767  0.00  0.00     0.003 A 
ATOM      5  C3  PXY d   1       0.879   1.039  -1.395  0.00  0.00     0.003 A 
ATOM      6  C4  PXY d   1      -0.355   1.167  -0.816  0.00  0.00    -0.082 A 
ATOM      7  C5  PXY d   1      -0.578   0.626   0.400  0.00  0.00     0.003 A 
ATOM      8  C6  PXY d   1       0.454  -0.054   1.040  0.00  0.00     0.003 A 
ENDROOT
TORSDOF 0
ENDMDL
