MODEL 1
REMARK minimizedAffinity -1.45335078
REMARK minimizedRMSD -1
REMARK  0 active torsions:
REMARK  status: ('A' for Active; 'I' for Inactive)
ROOT
ATOM      1  C4' PXY d   1       1.712  -0.737   0.079  0.00  0.00     0.077 C 
ATOM      2  C1' PXY d   1      -2.974   2.104  -1.763  0.00  0.00     0.077 C 
ATOM      3  C1  PXY d   1      -1.746   1.364  -1.268  0.00  0.00    -0.082 A 
ATOM      4  C2  PXY d   1      -0.843   0.942  -2.137  0.00  0.00     0.003 A 
ATOM      5  C3  PXY d   1       0.257   0.244  -1.710  0.00  0.00     0.003 A 
ATOM      6  C4  PXY d   1       0.461   0.022  -0.375  0.00  0.00    -0.082 A 
ATOM      7  C5  PXY d   1      -0.451   0.459   0.519  0.00  0.00     0.003 A 
ATOM      8  C6  PXY d   1      -1.581   1.130   0.062  0.00  0.00     0.003 A 
ENDROOT
TORSDOF 0
ENDMDL
