MODEL 1
REMARK minimizedAffinity -2.86334276
REMARK minimizedRMSD -1
REMARK  0 active torsions:
REMARK  status: ('A' for Active; 'I' for Inactive)
ROOT
ATOM      1  C4' PXY d   1      -1.332   1.363  -0.639  0.00  0.00     0.077 C 
ATOM      2  C1' PXY d   1       1.190  -2.397   2.954  0.00  0.00     0.077 C 
ATOM      3  C1  PXY d   1       0.540  -1.409   2.006  0.00  0.00    -0.082 A 
ATOM      4  C2  PXY d   1      -0.578  -0.798   2.363  0.00  0.00     0.003 A 
ATOM      5  C3  PXY d   1      -1.196   0.074   1.505  0.00  0.00     0.003 A 
ATOM      6  C4  PXY d   1      -0.636   0.365   0.290  0.00  0.00    -0.082 A 
ATOM      7  C5  PXY d   1       0.511  -0.246  -0.077  0.00  0.00     0.003 A 
ATOM      8  C6  PXY d   1       1.101  -1.159   0.792  0.00  0.00     0.003 A 
ENDROOT
TORSDOF 0
ENDMDL
