MODEL 1
REMARK minimizedAffinity -1.10923803
REMARK minimizedRMSD -1
REMARK  0 active torsions:
REMARK  status: ('A' for Active; 'I' for Inactive)
ROOT
ATOM      1  C4' PXY d   1      -1.912   0.413   1.163  0.00  0.00     0.077 C 
ATOM      2  C1' PXY d   1      -2.349   2.630  -4.157  0.00  0.00     0.077 C 
ATOM      3  C1  PXY d   1      -2.222   2.050  -2.763  0.00  0.00    -0.082 A 
ATOM      4  C2  PXY d   1      -3.192   1.291  -2.279  0.00  0.00     0.003 A 
ATOM      5  C3  PXY d   1      -3.107   0.784  -1.007  0.00  0.00     0.003 A 
ATOM      6  C4  PXY d   1      -1.994   1.012  -0.243  0.00  0.00    -0.082 A 
ATOM      7  C5  PXY d   1      -0.995   1.776  -0.734  0.00  0.00     0.003 A 
ATOM      8  C6  PXY d   1      -1.119   2.315  -2.011  0.00  0.00     0.003 A 
ENDROOT
TORSDOF 0
ENDMDL
