MODEL 1
REMARK minimizedAffinity -4.50320101
REMARK minimizedRMSD -1
REMARK  0 active torsions:
REMARK  status: ('A' for Active; 'I' for Inactive)
ROOT
ATOM      1  C4' PXY d   1       2.029  -0.112  -1.397  0.00  0.00     0.077 C 
ATOM      2  C1' PXY d   1      -0.680  -1.955   3.366  0.00  0.00     0.077 C 
ATOM      3  C1  PXY d   1       0.042  -1.474   2.123  0.00  0.00    -0.082 A 
ATOM      4  C2  PXY d   1      -0.573  -0.656   1.285  0.00  0.00     0.003 A 
ATOM      5  C3  PXY d   1       0.053  -0.236   0.139  0.00  0.00     0.003 A 
ATOM      6  C4  PXY d   1       1.342  -0.616  -0.124  0.00  0.00    -0.082 A 
ATOM      7  C5  PXY d   1       1.981  -1.442   0.731  0.00  0.00     0.003 A 
ATOM      8  C6  PXY d   1       1.313  -1.890   1.868  0.00  0.00     0.003 A 
ENDROOT
TORSDOF 0
ENDMDL
