MODEL 1
REMARK minimizedAffinity 0.742951989
REMARK minimizedRMSD -1
REMARK  0 active torsions:
REMARK  status: ('A' for Active; 'I' for Inactive)
ROOT
ATOM      1  C4' PXY d   1      -1.698   2.207  -1.683  0.00  0.00     0.077 C 
ATOM      2  C1' PXY d   1       2.322  -1.210   0.679  0.00  0.00     0.077 C 
ATOM      3  C1  PXY d   1       1.258  -0.322   0.064  0.00  0.00    -0.082 A 
ATOM      4  C2  PXY d   1       1.559   0.431  -0.981  0.00  0.00     0.003 A 
ATOM      5  C3  PXY d   1       0.618   1.264  -1.530  0.00  0.00     0.003 A 
ATOM      6  C4  PXY d   1      -0.659   1.288  -1.036  0.00  0.00    -0.082 A 
ATOM      7  C5  PXY d   1      -0.976   0.515   0.025  0.00  0.00     0.003 A 
ATOM      8  C6  PXY d   1       0.005  -0.293   0.592  0.00  0.00     0.003 A 
ENDROOT
TORSDOF 0
ENDMDL
