MODEL 1
REMARK minimizedAffinity -5.42200565
REMARK minimizedRMSD -1
REMARK  0 active torsions:
REMARK  status: ('A' for Active; 'I' for Inactive)
ROOT
ATOM      1  C4' PXY d   1       0.692  -2.644   2.966  0.00  0.00     0.077 C 
ATOM      2  C1' PXY d   1      -0.578   1.158  -1.199  0.00  0.00     0.077 C 
ATOM      3  C1  PXY d   1      -0.239   0.154  -0.116  0.00  0.00    -0.082 A 
ATOM      4  C2  PXY d   1      -0.990   0.086   0.972  0.00  0.00     0.003 A 
ATOM      5  C3  PXY d   1      -0.678  -0.795   1.976  0.00  0.00     0.003 A 
ATOM      6  C4  PXY d   1       0.381  -1.651   1.842  0.00  0.00    -0.082 A 
ATOM      7  C5  PXY d   1       1.145  -1.596   0.730  0.00  0.00     0.003 A 
ATOM      8  C6  PXY d   1       0.837  -0.667  -0.259  0.00  0.00     0.003 A 
ENDROOT
TORSDOF 0
ENDMDL
