MODEL 1
REMARK minimizedAffinity -3.59089017
REMARK minimizedRMSD -1
REMARK  0 active torsions:
REMARK  status: ('A' for Active; 'I' for Inactive)
ROOT
ATOM      1  C4' PXY d   1       1.482  -0.483   0.422  0.00  0.00     0.077 C 
ATOM      2  C1' PXY d   1      -3.107   1.656  -2.369  0.00  0.00     0.077 C 
ATOM      3  C1  PXY d   1      -1.899   1.107  -1.636  0.00  0.00    -0.082 A 
ATOM      4  C2  PXY d   1      -1.546  -0.156  -1.810  0.00  0.00     0.003 A 
ATOM      5  C3  PXY d   1      -0.475  -0.677  -1.130  0.00  0.00     0.003 A 
ATOM      6  C4  PXY d   1       0.275   0.117  -0.305  0.00  0.00    -0.082 A 
ATOM      7  C5  PXY d   1      -0.072   1.410  -0.130  0.00  0.00     0.003 A 
ATOM      8  C6  PXY d   1      -1.187   1.909  -0.797  0.00  0.00     0.003 A 
ENDROOT
TORSDOF 0
ENDMDL
