MODEL 1
REMARK minimizedAffinity -4.83579731
REMARK minimizedRMSD -1
REMARK  0 active torsions:
REMARK  status: ('A' for Active; 'I' for Inactive)
ROOT
ATOM      1  C4' PXY d   1      -1.137   2.148  -1.223  0.00  0.00     0.077 C 
ATOM      2  C1' PXY d   1       2.177  -1.900   1.235  0.00  0.00     0.077 C 
ATOM      3  C1  PXY d   1       1.297  -0.846   0.593  0.00  0.00    -0.082 A 
ATOM      4  C2  PXY d   1       1.819  -0.007  -0.287  0.00  0.00     0.003 A 
ATOM      5  C3  PXY d   1       1.045   0.973  -0.854  0.00  0.00     0.003 A 
ATOM      6  C4  PXY d   1      -0.289   1.062  -0.556  0.00  0.00    -0.082 A 
ATOM      7  C5  PXY d   1      -0.831   0.202   0.332  0.00  0.00     0.003 A 
ATOM      8  C6  PXY d   1      -0.019  -0.759   0.927  0.00  0.00     0.003 A 
ENDROOT
TORSDOF 0
ENDMDL
