MODEL 1
REMARK minimizedAffinity -2.29071259
REMARK minimizedRMSD -1
REMARK  0 active torsions:
REMARK  status: ('A' for Active; 'I' for Inactive)
ROOT
ATOM      1  C4' PXY d   1      -1.464   2.185  -1.831  0.00  0.00     0.077 C 
ATOM      2  C1' PXY d   1       2.239  -1.395   0.793  0.00  0.00     0.077 C 
ATOM      3  C1  PXY d   1       1.258  -0.464   0.109  0.00  0.00    -0.082 A 
ATOM      4  C2  PXY d   1       1.662   0.279  -0.909  0.00  0.00     0.003 A 
ATOM      5  C3  PXY d   1       0.796   1.150  -1.519  0.00  0.00     0.003 A 
ATOM      6  C4  PXY d   1      -0.510   1.223  -1.116  0.00  0.00    -0.082 A 
ATOM      7  C5  PXY d   1      -0.933   0.461  -0.085  0.00  0.00     0.003 A 
ATOM      8  C6  PXY d   1      -0.028  -0.386   0.547  0.00  0.00     0.003 A 
ENDROOT
TORSDOF 0
ENDMDL
