MODEL 1
REMARK minimizedAffinity 6.70031548
REMARK minimizedRMSD -1
REMARK  0 active torsions:
REMARK  status: ('A' for Active; 'I' for Inactive)
ROOT
ATOM      1  N1  IND d   1      -1.184  -3.847   1.096  0.00  0.00    -0.196 N 
ATOM      2  C2  IND d   1      -1.967  -2.935   1.748  0.00  0.00     0.054 A 
ATOM      3  C3  IND d   1      -1.226  -1.873   2.137  0.00  0.00    -0.031 A 
ATOM      4  C4  IND d   1       1.265  -1.375   1.721  0.00  0.00     0.051 A 
ATOM      5  C5  IND d   1       2.402  -1.929   1.202  0.00  0.00    -0.031 A 
ATOM      6  C6  IND d   1       2.401  -3.174   0.607  0.00  0.00     0.015 A 
ATOM      7  C7  IND d   1       1.256  -3.910   0.498  0.00  0.00    -0.016 A 
ATOM      8  C8  IND d   1       0.101  -3.354   1.030  0.00  0.00    -0.047 A 
ATOM      9  C9  IND d   1       0.104  -2.110   1.673  0.00  0.00    -0.096 A 
ATOM     10  HN1 IND d   1      -1.450  -4.601   0.780  0.00  0.00     0.298 HD
ENDROOT
TORSDOF 0
ENDMDL
