MODEL 1
REMARK minimizedAffinity 13.6952152
REMARK minimizedRMSD -1
REMARK  0 active torsions:
REMARK  status: ('A' for Active; 'I' for Inactive)
ROOT
ATOM      1  N1  IND d   1       1.254  -5.305   0.421  0.00  0.00    -0.196 N 
ATOM      2  C2  IND d   1       2.457  -5.904   0.170  0.00  0.00     0.054 A 
ATOM      3  C3  IND d   1       3.458  -4.997   0.236  0.00  0.00    -0.031 A 
ATOM      4  C4  IND d   1       3.361  -2.497   0.842  0.00  0.00     0.051 A 
ATOM      5  C5  IND d   1       2.480  -1.488   1.115  0.00  0.00    -0.031 A 
ATOM      6  C6  IND d   1       1.118  -1.705   1.175  0.00  0.00     0.015 A 
ATOM      7  C7  IND d   1       0.585  -2.947   0.974  0.00  0.00    -0.016 A 
ATOM      8  C8  IND d   1       1.476  -3.972   0.689  0.00  0.00    -0.047 A 
ATOM      9  C9  IND d   1       2.855  -3.749   0.585  0.00  0.00    -0.096 A 
ATOM     10  HN1 IND d   1       0.488  -5.695   0.413  0.00  0.00     0.298 HD
ENDROOT
TORSDOF 0
ENDMDL
