MODEL 1
REMARK minimizedAffinity 11.2152224
REMARK minimizedRMSD -1
REMARK  0 active torsions:
REMARK  status: ('A' for Active; 'I' for Inactive)
ROOT
ATOM      1  N1  IND d   1       3.846  -5.287   4.123  0.00  0.00    -0.196 N 
ATOM      2  C2  IND d   1       4.425  -6.000   5.136  0.00  0.00     0.054 A 
ATOM      3  C3  IND d   1       5.049  -5.168   5.999  0.00  0.00    -0.031 A 
ATOM      4  C4  IND d   1       5.163  -2.596   6.000  0.00  0.00     0.051 A 
ATOM      5  C5  IND d   1       4.817  -1.502   5.257  0.00  0.00    -0.031 A 
ATOM      6  C6  IND d   1       4.114  -1.616   4.075  0.00  0.00     0.015 A 
ATOM      7  C7  IND d   1       3.718  -2.833   3.596  0.00  0.00    -0.016 A 
ATOM      8  C8  IND d   1       4.073  -3.947   4.345  0.00  0.00    -0.047 A 
ATOM      9  C9  IND d   1       4.824  -3.840   5.523  0.00  0.00    -0.096 A 
ATOM     10  HN1 IND d   1       3.414  -5.620   3.458  0.00  0.00     0.298 HD
ENDROOT
TORSDOF 0
ENDMDL
