MODEL 1
REMARK minimizedAffinity 11.7362232
REMARK minimizedRMSD -1
REMARK  0 active torsions:
REMARK  status: ('A' for Active; 'I' for Inactive)
ROOT
ATOM      1  N1  IND d   1       5.951   3.736  -1.338  0.00  0.00    -0.196 N 
ATOM      2  C2  IND d   1       6.000   4.699  -0.369  0.00  0.00     0.054 A 
ATOM      3  C3  IND d   1       5.990   4.133   0.859  0.00  0.00    -0.031 A 
ATOM      4  C4  IND d   1       6.000   1.643   1.511  0.00  0.00     0.051 A 
ATOM      5  C5  IND d   1       5.922   0.388   0.975  0.00  0.00    -0.031 A 
ATOM      6  C6  IND d   1       5.850   0.181  -0.388  0.00  0.00     0.015 A 
ATOM      7  C7  IND d   1       5.866   1.225  -1.269  0.00  0.00    -0.016 A 
ATOM      8  C8  IND d   1       5.938   2.501  -0.727  0.00  0.00    -0.047 A 
ATOM      9  C9  IND d   1       5.968   2.719   0.656  0.00  0.00    -0.096 A 
ATOM     10  HN1 IND d   1       5.931   3.877  -2.186  0.00  0.00     0.298 HD
ENDROOT
TORSDOF 0
ENDMDL
