MODEL 1
REMARK minimizedAffinity 8.93385983
REMARK minimizedRMSD -1
REMARK  0 active torsions:
REMARK  status: ('A' for Active; 'I' for Inactive)
ROOT
ATOM      1  N1  IND d   1       1.760   4.226  -4.542  0.00  0.00    -0.196 N 
ATOM      2  C2  IND d   1       1.069   5.170  -5.249  0.00  0.00     0.054 A 
ATOM      3  C3  IND d   1       1.924   6.000  -5.887  0.00  0.00    -0.031 A 
ATOM      4  C4  IND d   1       4.495   5.934  -5.993  0.00  0.00     0.051 A 
ATOM      5  C5  IND d   1       5.578   5.277  -5.478  0.00  0.00    -0.031 A 
ATOM      6  C6  IND d   1       5.440   4.213  -4.610  0.00  0.00     0.015 A 
ATOM      7  C7  IND d   1       4.209   3.757  -4.231  0.00  0.00    -0.016 A 
ATOM      8  C8  IND d   1       3.108   4.426  -4.746  0.00  0.00    -0.047 A 
ATOM      9  C9  IND d   1       3.242   5.533  -5.594  0.00  0.00    -0.096 A 
ATOM     10  HN1 IND d   1       1.412   3.612  -4.051  0.00  0.00     0.298 HD
ENDROOT
TORSDOF 0
ENDMDL
