MODEL 1
REMARK minimizedAffinity 18.4423485
REMARK minimizedRMSD -1
REMARK  0 active torsions:
REMARK  status: ('A' for Active; 'I' for Inactive)
ROOT
ATOM      1  N1  IND d   1      -2.697   3.479  -3.268  0.00  0.00    -0.196 N 
ATOM      2  C2  IND d   1      -2.184   2.273  -2.881  0.00  0.00     0.054 A 
ATOM      3  C3  IND d   1      -2.917   1.262  -3.399  0.00  0.00    -0.031 A 
ATOM      4  C4  IND d   1      -4.939   1.357  -4.990  0.00  0.00     0.051 A 
ATOM      5  C5  IND d   1      -5.795   2.236  -5.594  0.00  0.00    -0.031 A 
ATOM      6  C6  IND d   1      -5.657   3.601  -5.452  0.00  0.00     0.015 A 
ATOM      7  C7  IND d   1      -4.647   4.142  -4.708  0.00  0.00    -0.016 A 
ATOM      8  C8  IND d   1      -3.780   3.253  -4.088  0.00  0.00    -0.047 A 
ATOM      9  C9  IND d   1      -3.941   1.865  -4.193  0.00  0.00    -0.096 A 
ATOM     10  HN1 IND d   1      -2.393   4.250  -3.038  0.00  0.00     0.298 HD
ENDROOT
TORSDOF 0
ENDMDL
