MODEL 1
REMARK minimizedAffinity 9.17011547
REMARK minimizedRMSD -1
REMARK  0 active torsions:
REMARK  status: ('A' for Active; 'I' for Inactive)
ROOT
ATOM      1  N1  IND d   1       6.000   4.459   0.042  0.00  0.00    -0.196 N 
ATOM      2  C2  IND d   1       5.996   4.785   1.369  0.00  0.00     0.054 A 
ATOM      3  C3  IND d   1       5.956   3.667   2.128  0.00  0.00    -0.031 A 
ATOM      4  C4  IND d   1       5.997   1.197   1.405  0.00  0.00     0.051 A 
ATOM      5  C5  IND d   1       5.964   0.398   0.296  0.00  0.00    -0.031 A 
ATOM      6  C6  IND d   1       5.944   0.923  -0.980  0.00  0.00     0.015 A 
ATOM      7  C7  IND d   1       5.967   2.272  -1.196  0.00  0.00    -0.016 A 
ATOM      8  C8  IND d   1       5.993   3.086  -0.072  0.00  0.00    -0.047 A 
ATOM      9  C9  IND d   1       5.971   2.560   1.226  0.00  0.00    -0.096 A 
ATOM     10  HN1 IND d   1       6.006   5.017  -0.612  0.00  0.00     0.298 HD
ENDROOT
TORSDOF 0
ENDMDL
