MODEL 1
REMARK minimizedAffinity -6.92980814
REMARK minimizedRMSD -1
REMARK  0 active torsions:
REMARK  status: ('A' for Active; 'I' for Inactive)
ROOT
ATOM      1  C1  DEN d   1       0.112   0.547  -1.045  0.00  0.00     0.130 A 
ATOM      2  C2  DEN d   1      -0.591   1.107   0.106  0.00  0.00    -0.031 A 
ATOM      3  C3  DEN d   1      -1.089  -0.014   0.927  0.00  0.00     0.027 A 
ATOM      4  C4  DEN d   1      -0.836  -2.551   0.534  0.00  0.00     0.027 A 
ATOM      5  C5  DEN d   1      -0.329  -3.510  -0.315  0.00  0.00    -0.003 A 
ATOM      6  C6  DEN d   1       0.326  -3.187  -1.474  0.00  0.00     0.001 A 
ATOM      7  C7  DEN d   1       0.531  -1.871  -1.793  0.00  0.00     0.017 A 
ATOM      8  C8  DEN d   1       0.016  -0.898  -0.947  0.00  0.00    -0.094 A 
ATOM      9  C9  DEN d   1      -0.633  -1.245   0.226  0.00  0.00    -0.072 A 
ENDROOT
TORSDOF 0
ENDMDL
