MODEL 1
REMARK minimizedAffinity -2.56371903
REMARK minimizedRMSD -1
REMARK  0 active torsions:
REMARK  status: ('A' for Active; 'I' for Inactive)
ROOT
ATOM      1  C1  DEN d   1       0.199   0.576  -0.552  0.00  0.00     0.130 A 
ATOM      2  C2  DEN d   1      -0.280   1.077   0.733  0.00  0.00    -0.031 A 
ATOM      3  C3  DEN d   1      -0.791  -0.070   1.510  0.00  0.00     0.027 A 
ATOM      4  C4  DEN d   1      -0.881  -2.563   0.852  0.00  0.00     0.027 A 
ATOM      5  C5  DEN d   1      -0.601  -3.471  -0.144  0.00  0.00    -0.003 A 
ATOM      6  C6  DEN d   1      -0.071  -3.094  -1.349  0.00  0.00     0.001 A 
ATOM      7  C7  DEN d   1       0.239  -1.778  -1.572  0.00  0.00     0.017 A 
ATOM      8  C8  DEN d   1      -0.048  -0.855  -0.575  0.00  0.00    -0.094 A 
ATOM      9  C9  DEN d   1      -0.573  -1.258   0.641  0.00  0.00    -0.072 A 
ENDROOT
TORSDOF 0
ENDMDL
