MODEL 1
REMARK minimizedAffinity -3.79328537
REMARK minimizedRMSD -1
REMARK  0 active torsions:
REMARK  status: ('A' for Active; 'I' for Inactive)
ROOT
ATOM      1  C1  DEN d   1       0.034   1.140   1.119  0.00  0.00     0.130 A 
ATOM      2  C2  DEN d   1       0.094   2.409   0.400  0.00  0.00    -0.031 A 
ATOM      3  C3  DEN d   1       0.185   2.112  -1.044  0.00  0.00     0.027 A 
ATOM      4  C4  DEN d   1       0.233  -0.177  -2.230  0.00  0.00     0.027 A 
ATOM      5  C5  DEN d   1       0.218  -1.541  -2.038  0.00  0.00    -0.003 A 
ATOM      6  C6  DEN d   1       0.175  -2.103  -0.789  0.00  0.00     0.001 A 
ATOM      7  C7  DEN d   1       0.100  -1.296   0.315  0.00  0.00     0.017 A 
ATOM      8  C8  DEN d   1       0.123   0.080   0.130  0.00  0.00    -0.094 A 
ATOM      9  C9  DEN d   1       0.154   0.628  -1.140  0.00  0.00    -0.072 A 
ENDROOT
TORSDOF 0
ENDMDL
