MODEL 1
REMARK minimizedAffinity -4.03716898
REMARK minimizedRMSD -1
REMARK  0 active torsions:
REMARK  status: ('A' for Active; 'I' for Inactive)
ROOT
ATOM      1  C1  DEN d   1       0.499  -2.673  -0.346  0.00  0.00     0.130 A 
ATOM      2  C2  DEN d   1       1.154  -2.833  -1.642  0.00  0.00    -0.031 A 
ATOM      3  C3  DEN d   1       1.045  -1.552  -2.369  0.00  0.00     0.027 A 
ATOM      4  C4  DEN d   1      -0.065   0.651  -1.618  0.00  0.00     0.027 A 
ATOM      5  C5  DEN d   1      -0.763   1.267  -0.603  0.00  0.00    -0.003 A 
ATOM      6  C6  DEN d   1      -1.116   0.609   0.545  0.00  0.00     0.001 A 
ATOM      7  C7  DEN d   1      -0.732  -0.694   0.725  0.00  0.00     0.017 A 
ATOM      8  C8  DEN d   1      -0.035  -1.324  -0.297  0.00  0.00    -0.094 A 
ATOM      9  C9  DEN d   1       0.323  -0.638  -1.445  0.00  0.00    -0.072 A 
ENDROOT
TORSDOF 0
ENDMDL
