MODEL 1
REMARK minimizedAffinity -5.02022552
REMARK minimizedRMSD -1
REMARK  0 active torsions:
REMARK  status: ('A' for Active; 'I' for Inactive)
ROOT
ATOM      1  C1  DEN d   1      -1.102   5.032   1.536  0.00  0.00     0.130 A 
ATOM      2  C2  DEN d   1      -0.795   5.990   2.594  0.00  0.00    -0.031 A 
ATOM      3  C3  DEN d   1       0.645   5.884   2.903  0.00  0.00     0.027 A 
ATOM      4  C4  DEN d   1       2.421   4.339   1.848  0.00  0.00     0.027 A 
ATOM      5  C5  DEN d   1       2.635   3.344   0.920  0.00  0.00    -0.003 A 
ATOM      6  C6  DEN d   1       1.620   2.822   0.163  0.00  0.00     0.001 A 
ATOM      7  C7  DEN d   1       0.352   3.325   0.288  0.00  0.00     0.017 A 
ATOM      8  C8  DEN d   1       0.127   4.323   1.226  0.00  0.00    -0.094 A 
ATOM      9  C9  DEN d   1       1.169   4.846   1.974  0.00  0.00    -0.072 A 
ENDROOT
TORSDOF 0
ENDMDL
