MODEL 1
REMARK minimizedAffinity -5.52381992
REMARK minimizedRMSD -1
REMARK  0 active torsions:
REMARK  status: ('A' for Active; 'I' for Inactive)
ROOT
ATOM      1  C1  DEN d   1      -1.302   0.662   0.714  0.00  0.00     0.130 A 
ATOM      2  C2  DEN d   1      -0.632   1.605  -0.177  0.00  0.00    -0.031 A 
ATOM      3  C3  DEN d   1       0.444   0.881  -0.882  0.00  0.00     0.027 A 
ATOM      4  C4  DEN d   1       1.133  -1.596  -0.685  0.00  0.00     0.027 A 
ATOM      5  C5  DEN d   1       0.866  -2.789  -0.049  0.00  0.00    -0.003 A 
ATOM      6  C6  DEN d   1      -0.112  -2.905   0.903  0.00  0.00     0.001 A 
ATOM      7  C7  DEN d   1      -0.890  -1.821   1.214  0.00  0.00     0.017 A 
ATOM      8  C8  DEN d   1      -0.621  -0.613   0.582  0.00  0.00    -0.094 A 
ATOM      9  C9  DEN d   1       0.364  -0.519  -0.386  0.00  0.00    -0.072 A 
ENDROOT
TORSDOF 0
ENDMDL
