MODEL 1
REMARK minimizedAffinity -4.8689723
REMARK minimizedRMSD -1
REMARK  0 active torsions:
REMARK  status: ('A' for Active; 'I' for Inactive)
ROOT
ATOM      1  C1  DEN d   1       0.886  -2.441  -0.596  0.00  0.00     0.130 A 
ATOM      2  C2  DEN d   1       0.246  -3.394   0.307  0.00  0.00    -0.031 A 
ATOM      3  C3  DEN d   1      -0.711  -2.651   1.150  0.00  0.00     0.027 A 
ATOM      4  C4  DEN d   1      -1.265  -0.131   1.142  0.00  0.00     0.027 A 
ATOM      5  C5  DEN d   1      -0.968   1.081   0.560  0.00  0.00    -0.003 A 
ATOM      6  C6  DEN d   1      -0.017   1.209  -0.416  0.00  0.00     0.001 A 
ATOM      7  C7  DEN d   1       0.641   0.098  -0.873  0.00  0.00     0.017 A 
ATOM      8  C8  DEN d   1       0.353  -1.127  -0.285  0.00  0.00    -0.094 A 
ATOM      9  C9  DEN d   1      -0.621  -1.238   0.692  0.00  0.00    -0.072 A 
ENDROOT
TORSDOF 0
ENDMDL
