MODEL 1
REMARK minimizedAffinity -3.02686977
REMARK minimizedRMSD -1
REMARK  0 active torsions:
REMARK  status: ('A' for Active; 'I' for Inactive)
ROOT
ATOM      1  C1  DEN d   1      -0.523   0.663   0.874  0.00  0.00     0.130 A 
ATOM      2  C2  DEN d   1      -0.192   1.686  -0.114  0.00  0.00    -0.031 A 
ATOM      3  C3  DEN d   1       0.277   1.005  -1.337  0.00  0.00     0.027 A 
ATOM      4  C4  DEN d   1       0.516  -1.522  -1.797  0.00  0.00     0.027 A 
ATOM      5  C5  DEN d   1       0.367  -2.780  -1.257  0.00  0.00    -0.003 A 
ATOM      6  C6  DEN d   1      -0.053  -2.976   0.032  0.00  0.00     0.001 A 
ATOM      7  C7  DEN d   1      -0.383  -1.898   0.810  0.00  0.00     0.017 A 
ATOM      8  C8  DEN d   1      -0.228  -0.626   0.275  0.00  0.00    -0.094 A 
ATOM      9  C9  DEN d   1       0.187  -0.449  -1.034  0.00  0.00    -0.072 A 
ENDROOT
TORSDOF 0
ENDMDL
