MODEL 1
REMARK minimizedAffinity -4.55106592
REMARK minimizedRMSD -1
REMARK  0 active torsions:
REMARK  status: ('A' for Active; 'I' for Inactive)
ROOT
ATOM      1  C1  DEN d   1       1.326  -0.121  -0.868  0.00  0.00     0.130 A 
ATOM      2  C2  DEN d   1       0.914   1.275  -0.750  0.00  0.00    -0.031 A 
ATOM      3  C3  DEN d   1      -0.218   1.338   0.196  0.00  0.00     0.027 A 
ATOM      4  C4  DEN d   1      -1.364  -0.579   1.486  0.00  0.00     0.027 A 
ATOM      5  C5  DEN d   1      -1.372  -1.939   1.702  0.00  0.00    -0.003 A 
ATOM      6  C6  DEN d   1      -0.511  -2.786   1.055  0.00  0.00     0.001 A 
ATOM      7  C7  DEN d   1       0.425  -2.276   0.195  0.00  0.00     0.017 A 
ATOM      8  C8  DEN d   1       0.435  -0.906  -0.033  0.00  0.00    -0.094 A 
ATOM      9  C9  DEN d   1      -0.436  -0.065   0.639  0.00  0.00    -0.072 A 
ENDROOT
TORSDOF 0
ENDMDL
