MODEL 1
REMARK minimizedAffinity -5.16584778
REMARK minimizedRMSD -1
REMARK  0 active torsions:
REMARK  status: ('A' for Active; 'I' for Inactive)
ROOT
ATOM      1  C1  DEN d   1       0.542  -2.176  -0.664  0.00  0.00     0.130 A 
ATOM      2  C2  DEN d   1      -0.000  -3.234   0.184  0.00  0.00    -0.031 A 
ATOM      3  C3  DEN d   1      -0.848  -2.604   1.215  0.00  0.00     0.027 A 
ATOM      4  C4  DEN d   1      -1.377  -0.105   1.577  0.00  0.00     0.027 A 
ATOM      5  C5  DEN d   1      -1.137   1.170   1.116  0.00  0.00    -0.003 A 
ATOM      6  C6  DEN d   1      -0.302   1.421   0.060  0.00  0.00     0.001 A 
ATOM      7  C7  DEN d   1       0.290   0.377  -0.600  0.00  0.00     0.017 A 
ATOM      8  C8  DEN d   1       0.059  -0.912  -0.137  0.00  0.00    -0.094 A 
ATOM      9  C9  DEN d   1      -0.798  -1.146   0.925  0.00  0.00    -0.072 A 
ENDROOT
TORSDOF 0
ENDMDL
