MODEL 1
REMARK minimizedAffinity -2.69000411
REMARK minimizedRMSD -1
REMARK  0 active torsions:
REMARK  status: ('A' for Active; 'I' for Inactive)
ROOT
ATOM      1  C1  DEN d   1       0.887   0.038   0.866  0.00  0.00     0.130 A 
ATOM      2  C2  DEN d   1      -0.528  -0.101   0.533  0.00  0.00    -0.031 A 
ATOM      3  C3  DEN d   1      -1.042   1.232   0.157  0.00  0.00     0.027 A 
ATOM      4  C4  DEN d   1       0.211   3.484   0.057  0.00  0.00     0.027 A 
ATOM      5  C5  DEN d   1       1.423   4.105   0.262  0.00  0.00    -0.003 A 
ATOM      6  C6  DEN d   1       2.524   3.425   0.713  0.00  0.00     0.001 A 
ATOM      7  C7  DEN d   1       2.447   2.075   0.929  0.00  0.00     0.017 A 
ATOM      8  C8  DEN d   1       1.225   1.444   0.731  0.00  0.00    -0.094 A 
ATOM      9  C9  DEN d   1       0.127   2.146   0.264  0.00  0.00    -0.072 A 
ENDROOT
TORSDOF 0
ENDMDL
