MODEL 1
REMARK minimizedAffinity -3.23302603
REMARK minimizedRMSD -1
REMARK  0 active torsions:
REMARK  status: ('A' for Active; 'I' for Inactive)
ROOT
ATOM      1  C1  DEN d   1      -0.373   1.459   0.759  0.00  0.00     0.130 A 
ATOM      2  C2  DEN d   1      -0.183   1.830  -0.640  0.00  0.00    -0.031 A 
ATOM      3  C3  DEN d   1      -0.198   0.594  -1.447  0.00  0.00     0.027 A 
ATOM      4  C4  DEN d   1      -0.500  -1.847  -0.670  0.00  0.00     0.027 A 
ATOM      5  C5  DEN d   1      -0.683  -2.662   0.425  0.00  0.00    -0.003 A 
ATOM      6  C6  DEN d   1      -0.740  -2.168   1.701  0.00  0.00     0.001 A 
ATOM      7  C7  DEN d   1      -0.659  -0.817   1.910  0.00  0.00     0.017 A 
ATOM      8  C8  DEN d   1      -0.468   0.011   0.812  0.00  0.00    -0.094 A 
ATOM      9  C9  DEN d   1      -0.425  -0.507  -0.472  0.00  0.00    -0.072 A 
ENDROOT
TORSDOF 0
ENDMDL
