MODEL 1
REMARK minimizedAffinity -4.64640093
REMARK minimizedRMSD -1
REMARK  0 active torsions:
REMARK  status: ('A' for Active; 'I' for Inactive)
ROOT
ATOM      1  C1  DEN d   1       0.208  -2.399  -0.901  0.00  0.00     0.130 A 
ATOM      2  C2  DEN d   1      -0.599  -3.211   0.005  0.00  0.00    -0.031 A 
ATOM      3  C3  DEN d   1      -1.282  -2.302   0.947  0.00  0.00     0.027 A 
ATOM      4  C4  DEN d   1      -1.173   0.271   1.087  0.00  0.00     0.027 A 
ATOM      5  C5  DEN d   1      -0.612   1.403   0.537  0.00  0.00    -0.003 A 
ATOM      6  C6  DEN d   1       0.281   1.344  -0.501  0.00  0.00     0.001 A 
ATOM      7  C7  DEN d   1       0.604   0.132  -1.051  0.00  0.00     0.017 A 
ATOM      8  C8  DEN d   1       0.048  -1.013  -0.496  0.00  0.00    -0.094 A 
ATOM      9  C9  DEN d   1      -0.862  -0.933   0.544  0.00  0.00    -0.072 A 
ENDROOT
TORSDOF 0
ENDMDL
