MODEL 1
REMARK minimizedAffinity -2.96672416
REMARK minimizedRMSD -1
REMARK  0 active torsions:
REMARK  status: ('A' for Active; 'I' for Inactive)
ROOT
ATOM      1  C1  DEN d   1       0.759  -2.352  -0.517  0.00  0.00     0.130 A 
ATOM      2  C2  DEN d   1      -0.158  -3.270   0.153  0.00  0.00    -0.031 A 
ATOM      3  C3  DEN d   1      -1.147  -2.466   0.898  0.00  0.00     0.027 A 
ATOM      4  C4  DEN d   1      -1.349   0.100   1.075  0.00  0.00     0.027 A 
ATOM      5  C5  DEN d   1      -0.791   1.299   0.690  0.00  0.00    -0.003 A 
ATOM      6  C6  DEN d   1       0.333   1.364  -0.090  0.00  0.00     0.001 A 
ATOM      7  C7  DEN d   1       0.909   0.209  -0.548  0.00  0.00     0.017 A 
ATOM      8  C8  DEN d   1       0.358  -1.004  -0.157  0.00  0.00    -0.094 A 
ATOM      9  C9  DEN d   1      -0.786  -1.049   0.622  0.00  0.00    -0.072 A 
ENDROOT
TORSDOF 0
ENDMDL
