MODEL 1
REMARK minimizedAffinity -4.34100246
REMARK minimizedRMSD -1
REMARK  0 active torsions:
REMARK  status: ('A' for Active; 'I' for Inactive)
ROOT
ATOM      1  C1  DEN d   1       0.572  -2.510  -0.826  0.00  0.00     0.130 A 
ATOM      2  C2  DEN d   1       0.067  -3.458   0.164  0.00  0.00    -0.031 A 
ATOM      3  C3  DEN d   1      -0.673  -2.695   1.190  0.00  0.00     0.027 A 
ATOM      4  C4  DEN d   1      -1.087  -0.154   1.338  0.00  0.00     0.027 A 
ATOM      5  C5  DEN d   1      -0.844   1.060   0.734  0.00  0.00    -0.003 A 
ATOM      6  C6  DEN d   1      -0.090   1.172  -0.404  0.00  0.00     0.001 A 
ATOM      7  C7  DEN d   1       0.411   0.044  -0.999  0.00  0.00     0.017 A 
ATOM      8  C8  DEN d   1       0.177  -1.182  -0.392  0.00  0.00    -0.094 A 
ATOM      9  C9  DEN d   1      -0.598  -1.276   0.751  0.00  0.00    -0.072 A 
ENDROOT
TORSDOF 0
ENDMDL
