MODEL 1
REMARK minimizedAffinity -4.25592566
REMARK minimizedRMSD -1
REMARK  0 active torsions:
REMARK  status: ('A' for Active; 'I' for Inactive)
ROOT
ATOM      1  C1  DEN d   1       0.029  -2.729   0.045  0.00  0.00     0.130 A 
ATOM      2  C2  DEN d   1      -0.409  -2.570   1.429  0.00  0.00    -0.031 A 
ATOM      3  C3  DEN d   1      -0.688  -1.138   1.658  0.00  0.00     0.027 A 
ATOM      4  C4  DEN d   1      -0.490   0.837   0.011  0.00  0.00     0.027 A 
ATOM      5  C5  DEN d   1      -0.147   1.198  -1.274  0.00  0.00    -0.003 A 
ATOM      6  C6  DEN d   1       0.308   0.288  -2.191  0.00  0.00     0.001 A 
ATOM      7  C7  DEN d   1       0.389  -1.037  -1.850  0.00  0.00     0.017 A 
ATOM      8  C8  DEN d   1       0.051  -1.407  -0.555  0.00  0.00    -0.094 A 
ATOM      9  C9  DEN d   1      -0.418  -0.474   0.354  0.00  0.00    -0.072 A 
ENDROOT
TORSDOF 0
ENDMDL
