MODEL 1
REMARK minimizedAffinity -4.93819761
REMARK minimizedRMSD -1
REMARK  0 active torsions:
REMARK  status: ('A' for Active; 'I' for Inactive)
ROOT
ATOM      1  C1  DEN d   1       0.103   0.520  -1.494  0.00  0.00     0.130 A 
ATOM      2  C2  DEN d   1      -0.478   1.380  -0.467  0.00  0.00    -0.031 A 
ATOM      3  C3  DEN d   1      -0.793   0.541   0.706  0.00  0.00     0.027 A 
ATOM      4  C4  DEN d   1      -0.436  -1.993   1.032  0.00  0.00     0.027 A 
ATOM      5  C5  DEN d   1       0.015  -3.149   0.433  0.00  0.00    -0.003 A 
ATOM      6  C6  DEN d   1       0.491  -3.169  -0.851  0.00  0.00     0.001 A 
ATOM      7  C7  DEN d   1       0.570  -2.002  -1.563  0.00  0.00     0.017 A 
ATOM      8  C8  DEN d   1       0.110  -0.833  -0.970  0.00  0.00    -0.094 A 
ATOM      9  C9  DEN d   1      -0.356  -0.832   0.334  0.00  0.00    -0.072 A 
ENDROOT
TORSDOF 0
ENDMDL
