MODEL 1
REMARK minimizedAffinity 2.93592477
REMARK minimizedRMSD -1
REMARK  0 active torsions:
REMARK  status: ('A' for Active; 'I' for Inactive)
ROOT
ATOM      1  O1  BZF d   1      -0.168  -2.809   4.015  0.00  0.00    -0.204 OA
ATOM      2  C2  BZF d   1       1.118  -2.681   4.504  0.00  0.00     0.174 A 
ATOM      3  C3  BZF d   1       1.771  -1.680   3.878  0.00  0.00    -0.012 A 
ATOM      4  C3A BZF d   1       0.804  -1.089   3.004  0.00  0.00    -0.107 A 
ATOM      5  C4  BZF d   1       0.845  -0.041   2.130  0.00  0.00     0.055 A 
ATOM      6  C5  BZF d   1      -0.250   0.232   1.374  0.00  0.00    -0.016 A 
ATOM      7  C6  BZF d   1      -1.401  -0.524   1.463  0.00  0.00     0.022 A 
ATOM      8  C7  BZF d   1      -1.491  -1.570   2.320  0.00  0.00     0.029 A 
ATOM      9  C7A BZF d   1      -0.397  -1.829   3.109  0.00  0.00     0.058 A 
ENDROOT
TORSDOF 0
ENDMDL
