MODEL 1
REMARK minimizedAffinity -1.81384611
REMARK minimizedRMSD -1
REMARK  0 active torsions:
REMARK  status: ('A' for Active; 'I' for Inactive)
ROOT
ATOM      1  O1  BZF d   1       0.918   0.047   1.917  0.00  0.00    -0.204 OA
ATOM      2  C2  BZF d   1      -0.101   0.778   1.338  0.00  0.00     0.174 A 
ATOM      3  C3  BZF d   1      -1.306   0.313   1.727  0.00  0.00    -0.012 A 
ATOM      4  C3A BZF d   1      -1.021  -0.719   2.677  0.00  0.00    -0.107 A 
ATOM      5  C4  BZF d   1      -1.806  -1.545   3.429  0.00  0.00     0.055 A 
ATOM      6  C5  BZF d   1      -1.215  -2.493   4.204  0.00  0.00    -0.016 A 
ATOM      7  C6  BZF d   1       0.155  -2.645   4.247  0.00  0.00     0.022 A 
ATOM      8  C7  BZF d   1       0.975  -1.845   3.522  0.00  0.00     0.029 A 
ATOM      9  C7A BZF d   1       0.383  -0.865   2.764  0.00  0.00     0.058 A 
ENDROOT
TORSDOF 0
ENDMDL
