MODEL 1
REMARK minimizedAffinity 1.4263016
REMARK minimizedRMSD -1
REMARK  0 active torsions:
REMARK  status: ('A' for Active; 'I' for Inactive)
ROOT
ATOM      1  O1  BZF d   1      -2.054  -0.983   2.436  0.00  0.00    -0.204 OA
ATOM      2  C2  BZF d   1      -2.834  -1.646   3.364  0.00  0.00     0.174 A 
ATOM      3  C3  BZF d   1      -2.067  -2.203   4.324  0.00  0.00    -0.012 A 
ATOM      4  C3A BZF d   1      -0.731  -1.789   4.024  0.00  0.00    -0.107 A 
ATOM      5  C4  BZF d   1       0.477  -2.008   4.624  0.00  0.00     0.055 A 
ATOM      6  C5  BZF d   1       1.603  -1.523   4.038  0.00  0.00    -0.016 A 
ATOM      7  C6  BZF d   1       1.559  -0.820   2.852  0.00  0.00     0.022 A 
ATOM      8  C7  BZF d   1       0.384  -0.574   2.222  0.00  0.00     0.029 A 
ATOM      9  C7A BZF d   1      -0.759  -1.034   2.829  0.00  0.00     0.058 A 
ENDROOT
TORSDOF 0
ENDMDL
