MODEL 1
REMARK minimizedAffinity 0.720034301
REMARK minimizedRMSD -1
REMARK  0 active torsions:
REMARK  status: ('A' for Active; 'I' for Inactive)
ROOT
ATOM      1  O1  BZF d   1      -1.815  -0.816   2.722  0.00  0.00    -0.204 OA
ATOM      2  C2  BZF d   1      -1.769  -0.128   1.524  0.00  0.00     0.174 A 
ATOM      3  C3  BZF d   1      -0.495   0.045   1.120  0.00  0.00    -0.012 A 
ATOM      4  C3A BZF d   1       0.303  -0.653   2.081  0.00  0.00    -0.107 A 
ATOM      5  C4  BZF d   1       1.647  -0.859   2.214  0.00  0.00     0.055 A 
ATOM      6  C5  BZF d   1       2.108  -1.523   3.307  0.00  0.00    -0.016 A 
ATOM      7  C6  BZF d   1       1.256  -1.990   4.286  0.00  0.00     0.022 A 
ATOM      8  C7  BZF d   1      -0.085  -1.814   4.196  0.00  0.00     0.029 A 
ATOM      9  C7A BZF d   1      -0.557  -1.172   3.077  0.00  0.00     0.058 A 
ENDROOT
TORSDOF 0
ENDMDL
