MODEL 1
REMARK minimizedAffinity 5.14757824
REMARK minimizedRMSD -1
REMARK  0 active torsions:
REMARK  status: ('A' for Active; 'I' for Inactive)
ROOT
ATOM      1  O1  BZF d   1      -1.769  -1.371   2.976  0.00  0.00    -0.204 OA
ATOM      2  C2  BZF d   1      -1.681  -0.230   2.203  0.00  0.00     0.174 A 
ATOM      3  C3  BZF d   1      -0.397   0.160   2.071  0.00  0.00    -0.012 A 
ATOM      4  C3A BZF d   1       0.373  -0.849   2.730  0.00  0.00    -0.107 A 
ATOM      5  C4  BZF d   1       1.712  -1.031   2.925  0.00  0.00     0.055 A 
ATOM      6  C5  BZF d   1       2.134  -2.083   3.676  0.00  0.00    -0.016 A 
ATOM      7  C6  BZF d   1       1.245  -2.968   4.250  0.00  0.00     0.022 A 
ATOM      8  C7  BZF d   1      -0.093  -2.831   4.080  0.00  0.00     0.029 A 
ATOM      9  C7A BZF d   1      -0.521  -1.789   3.295  0.00  0.00     0.058 A 
ENDROOT
TORSDOF 0
ENDMDL
