MODEL 1
REMARK minimizedAffinity 3.76096392
REMARK minimizedRMSD -1
REMARK  0 active torsions:
REMARK  status: ('A' for Active; 'I' for Inactive)
ROOT
ATOM      1  O1  BZF d   1       0.302  -2.968   3.930  0.00  0.00    -0.204 OA
ATOM      2  C2  BZF d   1       1.518  -2.335   4.099  0.00  0.00     0.174 A 
ATOM      3  C3  BZF d   1       1.511  -1.121   3.513  0.00  0.00    -0.012 A 
ATOM      4  C3A BZF d   1       0.179  -0.948   3.022  0.00  0.00    -0.107 A 
ATOM      5  C4  BZF d   1      -0.453   0.065   2.358  0.00  0.00     0.055 A 
ATOM      6  C5  BZF d   1      -1.740  -0.110   1.957  0.00  0.00    -0.016 A 
ATOM      7  C6  BZF d   1      -2.421  -1.285   2.196  0.00  0.00     0.022 A 
ATOM      8  C7  BZF d   1      -1.838  -2.316   2.855  0.00  0.00     0.029 A 
ATOM      9  C7A BZF d   1      -0.549  -2.130   3.291  0.00  0.00     0.058 A 
ENDROOT
TORSDOF 0
ENDMDL
