MODEL 1
REMARK minimizedAffinity 6.88954306
REMARK minimizedRMSD -1
REMARK  0 active torsions:
REMARK  status: ('A' for Active; 'I' for Inactive)
ROOT
ATOM      1  O1  BZF d   1       1.043  -1.260   1.735  0.00  0.00    -0.204 OA
ATOM      2  C2  BZF d   1      -0.071  -0.444   1.674  0.00  0.00     0.174 A 
ATOM      3  C3  BZF d   1      -0.508  -0.138   2.912  0.00  0.00    -0.012 A 
ATOM      4  C3A BZF d   1       0.443  -0.728   3.804  0.00  0.00    -0.107 A 
ATOM      5  C4  BZF d   1       0.562  -0.758   5.164  0.00  0.00     0.055 A 
ATOM      6  C5  BZF d   1       1.566  -1.483   5.723  0.00  0.00    -0.016 A 
ATOM      7  C6  BZF d   1       2.463  -2.194   4.954  0.00  0.00     0.022 A 
ATOM      8  C7  BZF d   1       2.389  -2.191   3.601  0.00  0.00     0.029 A 
ATOM      9  C7A BZF d   1       1.396  -1.432   3.032  0.00  0.00     0.058 A 
ENDROOT
TORSDOF 0
ENDMDL
