MODEL 1
REMARK minimizedAffinity 0.0109312367
REMARK minimizedRMSD -1
REMARK  0 active torsions:
REMARK  status: ('A' for Active; 'I' for Inactive)
ROOT
ATOM      1  O1  BZF d   1      -2.122  -0.623   2.268  0.00  0.00    -0.204 OA
ATOM      2  C2  BZF d   1      -3.023  -1.239   3.114  0.00  0.00     0.174 A 
ATOM      3  C3  BZF d   1      -2.381  -1.910   4.091  0.00  0.00    -0.012 A 
ATOM      4  C3A BZF d   1      -0.993  -1.624   3.895  0.00  0.00    -0.107 A 
ATOM      5  C4  BZF d   1       0.144  -1.990   4.556  0.00  0.00     0.055 A 
ATOM      6  C5  BZF d   1       1.349  -1.600   4.064  0.00  0.00    -0.016 A 
ATOM      7  C6  BZF d   1       1.455  -0.849   2.912  0.00  0.00     0.022 A 
ATOM      8  C7  BZF d   1       0.355  -0.458   2.223  0.00  0.00     0.029 A 
ATOM      9  C7A BZF d   1      -0.866  -0.823   2.736  0.00  0.00     0.058 A 
ENDROOT
TORSDOF 0
ENDMDL
