MODEL 1
REMARK minimizedAffinity -1.78316116
REMARK minimizedRMSD -1
REMARK  0 active torsions:
REMARK  status: ('A' for Active; 'I' for Inactive)
ROOT
ATOM      1  O1  BZF d   1       1.533  -3.151   4.012  0.00  0.00    -0.204 OA
ATOM      2  C2  BZF d   1       2.396  -2.770   5.022  0.00  0.00     0.174 A 
ATOM      3  C3  BZF d   1       2.461  -1.426   5.114  0.00  0.00    -0.012 A 
ATOM      4  C3A BZF d   1       1.513  -0.937   4.160  0.00  0.00    -0.107 A 
ATOM      5  C4  BZF d   1       1.109   0.315   3.796  0.00  0.00     0.055 A 
ATOM      6  C5  BZF d   1       0.218   0.452   2.779  0.00  0.00    -0.016 A 
ATOM      7  C6  BZF d   1      -0.285  -0.640   2.102  0.00  0.00     0.022 A 
ATOM      8  C7  BZF d   1       0.083  -1.903   2.431  0.00  0.00     0.029 A 
ATOM      9  C7A BZF d   1       0.958  -2.046   3.480  0.00  0.00     0.058 A 
ENDROOT
TORSDOF 0
ENDMDL
