MODEL 1
REMARK minimizedAffinity 2.20386219
REMARK minimizedRMSD -1
REMARK  0 active torsions:
REMARK  status: ('A' for Active; 'I' for Inactive)
ROOT
ATOM      1  O1  BZF d   1       2.667  -0.925   4.087  0.00  0.00    -0.204 OA
ATOM      2  C2  BZF d   1       1.826  -1.380   3.090  0.00  0.00     0.174 A 
ATOM      3  C3  BZF d   1       1.776  -0.501   2.068  0.00  0.00    -0.012 A 
ATOM      4  C3A BZF d   1       2.713   0.526   2.409  0.00  0.00    -0.107 A 
ATOM      5  C4  BZF d   1       3.123   1.668   1.783  0.00  0.00     0.055 A 
ATOM      6  C5  BZF d   1       3.998   2.491   2.418  0.00  0.00    -0.016 A 
ATOM      7  C6  BZF d   1       4.478   2.207   3.679  0.00  0.00     0.022 A 
ATOM      8  C7  BZF d   1       4.103   1.083   4.338  0.00  0.00     0.029 A 
ATOM      9  C7A BZF d   1       3.245   0.233   3.686  0.00  0.00     0.058 A 
ENDROOT
TORSDOF 0
ENDMDL
