MODEL 1
REMARK minimizedAffinity -3.20187998
REMARK minimizedRMSD -1
REMARK  1 active torsions:
REMARK  status: ('A' for Active; 'I' for Inactive)
REMARK    1  A    between atoms: N_2  and  C1_3 
ROOT
ATOM      1  C1  UNL d   1      -2.117   0.464   0.366  0.00  0.00     0.143 A 
ATOM      2  C2  UNL d   1      -1.189   0.515  -0.680  0.00  0.00    -0.057 A 
ATOM      3  C3  UNL d   1      -0.280  -0.528  -0.896  0.00  0.00     0.033 A 
ATOM      4  C4  UNL d   1      -0.264  -1.631  -0.049  0.00  0.00    -0.042 A 
ATOM      5  C5  UNL d   1      -1.160  -1.691   1.013  0.00  0.00     0.033 A 
ATOM      6  C6  UNL d   1      -2.070  -0.649   1.219  0.00  0.00    -0.057 A 
ENDROOT
BRANCH   1   7
ATOM      7  N   UNL d   1      -2.980   1.514   0.692  0.00  0.00    -0.732 N 
ATOM      8  C   UNL d   1      -4.402   1.400   0.453  0.00  0.00     0.284 C 
ATOM      9  H3  UNL d   1      -2.741   1.951   1.579  0.00  0.00     0.395 HD
ENDBRANCH   1   7
TORSDOF 1
ENDMDL
