MODEL 1
REMARK minimizedAffinity -3.81263709
REMARK minimizedRMSD -1
REMARK  1 active torsions:
REMARK  status: ('A' for Active; 'I' for Inactive)
REMARK    1  A    between atoms: N_2  and  C1_3 
ROOT
ATOM      1  C1  UNL d   1       0.320  -0.189  -0.057  0.00  0.00     0.143 A 
ATOM      2  C2  UNL d   1       0.487  -0.818  -1.296  0.00  0.00    -0.057 A 
ATOM      3  C3  UNL d   1       0.465  -2.213  -1.411  0.00  0.00     0.033 A 
ATOM      4  C4  UNL d   1       0.303  -3.007  -0.280  0.00  0.00    -0.042 A 
ATOM      5  C5  UNL d   1       0.160  -2.405   0.964  0.00  0.00     0.033 A 
ATOM      6  C6  UNL d   1       0.177  -1.011   1.072  0.00  0.00    -0.057 A 
ENDROOT
BRANCH   1   7
ATOM      7  N   UNL d   1       0.431   1.190   0.136  0.00  0.00    -0.732 N 
ATOM      8  C   UNL d   1       1.656   1.767   0.648  0.00  0.00     0.284 C 
ATOM      9  H3  UNL d   1       0.003   1.724  -0.617  0.00  0.00     0.395 HD
ENDBRANCH   1   7
TORSDOF 1
ENDMDL
