MODEL 1
REMARK minimizedAffinity -1.3065865
REMARK minimizedRMSD -1
REMARK  1 active torsions:
REMARK  status: ('A' for Active; 'I' for Inactive)
REMARK    1  A    between atoms: N_2  and  C1_3 
ROOT
ATOM      1  C1  UNL d   1      -0.259  -1.357  -1.279  0.00  0.00     0.143 A 
ATOM      2  C2  UNL d   1      -0.609  -2.661  -0.914  0.00  0.00    -0.057 A 
ATOM      3  C3  UNL d   1      -0.939  -2.981   0.409  0.00  0.00     0.033 A 
ATOM      4  C4  UNL d   1      -0.897  -2.004   1.398  0.00  0.00    -0.042 A 
ATOM      5  C5  UNL d   1      -0.527  -0.706   1.062  0.00  0.00     0.033 A 
ATOM      6  C6  UNL d   1      -0.205  -0.392  -0.261  0.00  0.00    -0.057 A 
ENDROOT
BRANCH   1   7
ATOM      7  N   UNL d   1       0.174  -0.997  -2.558  0.00  0.00    -0.732 N 
ATOM      8  C   UNL d   1       0.308   0.396  -2.926  0.00  0.00     0.284 C 
ATOM      9  H3  UNL d   1       0.930  -1.590  -2.893  0.00  0.00     0.395 HD
ENDBRANCH   1   7
TORSDOF 1
ENDMDL
