MODEL 1
REMARK minimizedAffinity -1.66163886
REMARK minimizedRMSD -1
REMARK  1 active torsions:
REMARK  status: ('A' for Active; 'I' for Inactive)
REMARK    1  A    between atoms: N_2  and  C1_3 
ROOT
ATOM      1  C1  UNL d   1       0.945   4.292   1.196  0.00  0.00     0.143 A 
ATOM      2  C2  UNL d   1       0.825   3.813  -0.113  0.00  0.00    -0.057 A 
ATOM      3  C3  UNL d   1       1.917   3.253  -0.785  0.00  0.00     0.033 A 
ATOM      4  C4  UNL d   1       3.162   3.187  -0.168  0.00  0.00    -0.042 A 
ATOM      5  C5  UNL d   1       3.311   3.679   1.124  0.00  0.00     0.033 A 
ATOM      6  C6  UNL d   1       2.215   4.232   1.792  0.00  0.00    -0.057 A 
ENDROOT
BRANCH   1   7
ATOM      7  N   UNL d   1      -0.079   4.949   1.881  0.00  0.00    -0.732 N 
ATOM      8  C   UNL d   1       0.227   5.914   2.916  0.00  0.00     0.284 C 
ATOM      9  H3  UNL d   1      -0.842   5.226   1.267  0.00  0.00     0.395 HD
ENDBRANCH   1   7
TORSDOF 1
ENDMDL
