MODEL 1
REMARK minimizedAffinity -3.12220168
REMARK minimizedRMSD -1
REMARK  1 active torsions:
REMARK  status: ('A' for Active; 'I' for Inactive)
REMARK    1  A    between atoms: N_2  and  C1_3 
ROOT
ATOM      1  C1  UNL d   1      -1.695   1.512   0.159  0.00  0.00     0.143 A 
ATOM      2  C2  UNL d   1      -2.633   0.693   0.797  0.00  0.00    -0.057 A 
ATOM      3  C3  UNL d   1      -3.747   1.236   1.448  0.00  0.00     0.033 A 
ATOM      4  C4  UNL d   1      -3.928   2.615   1.497  0.00  0.00    -0.042 A 
ATOM      5  C5  UNL d   1      -2.996   3.449   0.891  0.00  0.00     0.033 A 
ATOM      6  C6  UNL d   1      -1.888   2.900   0.236  0.00  0.00    -0.057 A 
ENDROOT
BRANCH   1   7
ATOM      7  N   UNL d   1      -0.515   1.038  -0.420  0.00  0.00    -0.732 N 
ATOM      8  C   UNL d   1       0.143  -0.139   0.105  0.00  0.00     0.284 C 
ATOM      9  H3  UNL d   1      -0.536   1.084  -1.436  0.00  0.00     0.395 HD
ENDBRANCH   1   7
TORSDOF 1
ENDMDL
