MODEL 1
REMARK minimizedAffinity -4.08525133
REMARK minimizedRMSD -1
REMARK  1 active torsions:
REMARK  status: ('A' for Active; 'I' for Inactive)
REMARK    1  A    between atoms: N_2  and  C1_3 
ROOT
ATOM      1  C1  UNL d   1      -1.252  -0.788   1.028  0.00  0.00     0.143 A 
ATOM      2  C2  UNL d   1      -0.499   0.021   0.170  0.00  0.00    -0.057 A 
ATOM      3  C3  UNL d   1       0.496  -0.521  -0.653  0.00  0.00     0.033 A 
ATOM      4  C4  UNL d   1       0.776  -1.882  -0.611  0.00  0.00    -0.042 A 
ATOM      5  C5  UNL d   1       0.058  -2.702   0.252  0.00  0.00     0.033 A 
ATOM      6  C6  UNL d   1      -0.939  -2.156   1.067  0.00  0.00    -0.057 A 
ENDROOT
BRANCH   1   7
ATOM      7  N   UNL d   1      -2.186  -0.295   1.942  0.00  0.00    -0.732 N 
ATOM      8  C   UNL d   1      -3.193   0.657   1.525  0.00  0.00     0.284 C 
ATOM      9  H3  UNL d   1      -2.530  -1.015   2.572  0.00  0.00     0.395 HD
ENDBRANCH   1   7
TORSDOF 1
ENDMDL
