MODEL 1
REMARK minimizedAffinity -3.51107287
REMARK minimizedRMSD -1
REMARK  1 active torsions:
REMARK  status: ('A' for Active; 'I' for Inactive)
REMARK    1  A    between atoms: N_2  and  C1_3 
ROOT
ATOM      1  C1  UNL d   1      -0.784   0.395   0.397  0.00  0.00     0.143 A 
ATOM      2  C2  UNL d   1      -1.727   1.381   0.085  0.00  0.00    -0.057 A 
ATOM      3  C3  UNL d   1      -2.798   1.658   0.942  0.00  0.00     0.033 A 
ATOM      4  C4  UNL d   1      -2.963   0.932   2.117  0.00  0.00    -0.042 A 
ATOM      5  C5  UNL d   1      -2.052  -0.069   2.436  0.00  0.00     0.033 A 
ATOM      6  C6  UNL d   1      -0.980  -0.337   1.579  0.00  0.00    -0.057 A 
ENDROOT
BRANCH   1   7
ATOM      7  N   UNL d   1       0.247   0.005  -0.461  0.00  0.00    -0.732 N 
ATOM      8  C   UNL d   1      -0.035  -0.369  -1.830  0.00  0.00     0.284 C 
ATOM      9  H3  UNL d   1       1.082   0.576  -0.349  0.00  0.00     0.395 HD
ENDBRANCH   1   7
TORSDOF 1
ENDMDL
