MODEL 1
REMARK minimizedAffinity -0.60773313
REMARK minimizedRMSD -1
REMARK  1 active torsions:
REMARK  status: ('A' for Active; 'I' for Inactive)
REMARK    1  A    between atoms: N_2  and  C1_3 
ROOT
ATOM      1  C1  UNL d   1      -1.081   0.764   0.626  0.00  0.00     0.143 A 
ATOM      2  C2  UNL d   1      -1.205  -0.236   1.596  0.00  0.00    -0.057 A 
ATOM      3  C3  UNL d   1      -0.564  -1.472   1.450  0.00  0.00     0.033 A 
ATOM      4  C4  UNL d   1       0.193  -1.741   0.314  0.00  0.00    -0.042 A 
ATOM      5  C5  UNL d   1       0.310  -0.770  -0.674  0.00  0.00     0.033 A 
ATOM      6  C6  UNL d   1      -0.328   0.464  -0.520  0.00  0.00    -0.057 A 
ENDROOT
BRANCH   1   7
ATOM      7  N   UNL d   1      -1.774   1.976   0.665  0.00  0.00    -0.732 N 
ATOM      8  C   UNL d   1      -3.221   1.999   0.652  0.00  0.00     0.284 C 
ATOM      9  H3  UNL d   1      -1.354   2.643   1.309  0.00  0.00     0.395 HD
ENDBRANCH   1   7
TORSDOF 1
ENDMDL
