MODEL 1
REMARK minimizedAffinity 5.01554203
REMARK minimizedRMSD -1
REMARK  1 active torsions:
REMARK  status: ('A' for Active; 'I' for Inactive)
REMARK    1  A    between atoms: N_2  and  C1_3 
ROOT
ATOM      1  C1  UNL d   1      -3.024  -3.837  -1.406  0.00  0.00     0.143 A 
ATOM      2  C2  UNL d   1      -2.561  -4.946  -2.123  0.00  0.00    -0.057 A 
ATOM      3  C3  UNL d   1      -1.295  -4.947  -2.722  0.00  0.00     0.033 A 
ATOM      4  C4  UNL d   1      -0.479  -3.824  -2.637  0.00  0.00    -0.042 A 
ATOM      5  C5  UNL d   1      -0.928  -2.701  -1.951  0.00  0.00     0.033 A 
ATOM      6  C6  UNL d   1      -2.190  -2.709  -1.350  0.00  0.00    -0.057 A 
ENDROOT
BRANCH   1   7
ATOM      7  N   UNL d   1      -4.311  -3.738  -0.873  0.00  0.00    -0.732 N 
ATOM      8  C   UNL d   1      -4.630  -2.713   0.098  0.00  0.00     0.284 C 
ATOM      9  H3  UNL d   1      -5.034  -3.887  -1.573  0.00  0.00     0.395 HD
ENDBRANCH   1   7
TORSDOF 1
ENDMDL
