MODEL 1
REMARK minimizedAffinity 3.75252819
REMARK minimizedRMSD -1
REMARK  1 active torsions:
REMARK  status: ('A' for Active; 'I' for Inactive)
REMARK    1  A    between atoms: N_2  and  C1_3 
ROOT
ATOM      1  C1  UNL d   1      -1.512  -5.280  -3.380  0.00  0.00     0.143 A 
ATOM      2  C2  UNL d   1      -2.454  -5.632  -4.352  0.00  0.00    -0.057 A 
ATOM      3  C3  UNL d   1      -2.061  -6.000  -5.645  0.00  0.00     0.033 A 
ATOM      4  C4  UNL d   1      -0.715  -5.994  -5.997  0.00  0.00    -0.042 A 
ATOM      5  C5  UNL d   1       0.237  -5.624  -5.054  0.00  0.00     0.033 A 
ATOM      6  C6  UNL d   1      -0.161  -5.264  -3.763  0.00  0.00    -0.057 A 
ENDROOT
BRANCH   1   7
ATOM      7  N   UNL d   1      -1.846  -4.810  -2.107  0.00  0.00    -0.732 N 
ATOM      8  C   UNL d   1      -1.741  -3.402  -1.790  0.00  0.00     0.284 C 
ATOM      9  H3  UNL d   1      -2.678  -5.260  -1.734  0.00  0.00     0.395 HD
ENDBRANCH   1   7
TORSDOF 1
ENDMDL
