MODEL 1
REMARK minimizedAffinity -4.46481752
REMARK minimizedRMSD -1
REMARK  1 active torsions:
REMARK  status: ('A' for Active; 'I' for Inactive)
REMARK    1  A    between atoms: N_2  and  C1_3 
ROOT
ATOM      1  C1  UNL d   1      -0.679  -1.777  -1.728  0.00  0.00     0.143 A 
ATOM      2  C2  UNL d   1      -0.679  -0.440  -1.315  0.00  0.00    -0.057 A 
ATOM      3  C3  UNL d   1       0.516   0.235  -1.040  0.00  0.00     0.033 A 
ATOM      4  C4  UNL d   1       1.736  -0.426  -1.145  0.00  0.00    -0.042 A 
ATOM      5  C5  UNL d   1       1.758  -1.762  -1.529  0.00  0.00     0.033 A 
ATOM      6  C6  UNL d   1       0.562  -2.429  -1.809  0.00  0.00    -0.057 A 
ENDROOT
BRANCH   1   7
ATOM      7  N   UNL d   1      -1.839  -2.531  -1.922  0.00  0.00    -0.732 N 
ATOM      8  C   UNL d   1      -1.756  -3.926  -2.297  0.00  0.00     0.284 C 
ATOM      9  H3  UNL d   1      -2.554  -2.329  -1.227  0.00  0.00     0.395 HD
ENDBRANCH   1   7
TORSDOF 1
ENDMDL
