MODEL 1
REMARK minimizedAffinity -2.7222507
REMARK minimizedRMSD -1
REMARK  1 active torsions:
REMARK  status: ('A' for Active; 'I' for Inactive)
REMARK    1  A    between atoms: N_2  and  C1_3 
ROOT
ATOM      1  C1  UNL d   1      -0.461  -0.093  -0.093  0.00  0.00     0.143 A 
ATOM      2  C2  UNL d   1       0.379  -0.596  -1.092  0.00  0.00    -0.057 A 
ATOM      3  C3  UNL d   1       0.970  -1.860  -0.975  0.00  0.00     0.033 A 
ATOM      4  C4  UNL d   1       0.754  -2.633   0.161  0.00  0.00    -0.042 A 
ATOM      5  C5  UNL d   1      -0.058  -2.142   1.178  0.00  0.00     0.033 A 
ATOM      6  C6  UNL d   1      -0.651  -0.882   1.052  0.00  0.00    -0.057 A 
ENDROOT
BRANCH   1   7
ATOM      7  N   UNL d   1      -1.000   1.196  -0.106  0.00  0.00    -0.732 N 
ATOM      8  C   UNL d   1      -2.399   1.414   0.194  0.00  0.00     0.284 C 
ATOM      9  H3  UNL d   1      -0.374   1.883   0.308  0.00  0.00     0.395 HD
ENDBRANCH   1   7
TORSDOF 1
ENDMDL
