MODEL 1
REMARK minimizedAffinity 4.49058151
REMARK minimizedRMSD -1
REMARK  0 active torsions:
REMARK  status: ('A' for Active; 'I' for Inactive)
ROOT
ATOM      1  C1  BNZ d   1       1.220   2.833   2.076  0.00  0.00     0.000 A 
ATOM      2  C2  BNZ d   1      -0.071   3.219   1.835  0.00  0.00     0.000 A 
ATOM      3  C3  BNZ d   1      -1.097   2.320   1.915  0.00  0.00     0.000 A 
ATOM      4  C4  BNZ d   1      -0.827   1.029   2.196  0.00  0.00     0.000 A 
ATOM      5  C5  BNZ d   1       0.471   0.622   2.432  0.00  0.00     0.000 A 
ATOM      6  C6  BNZ d   1       1.497   1.538   2.389  0.00  0.00     0.000 A 
ENDROOT
TORSDOF 0
ENDMDL
