MODEL 1
REMARK minimizedAffinity 5.20880556
REMARK minimizedRMSD -1
REMARK  0 active torsions:
REMARK  status: ('A' for Active; 'I' for Inactive)
ROOT
ATOM      1  C1  BNZ d   1      -5.961  -5.675   2.975  0.00  0.00     0.000 A 
ATOM      2  C2  BNZ d   1      -5.970  -5.271   4.283  0.00  0.00     0.000 A 
ATOM      3  C3  BNZ d   1      -5.999  -3.943   4.606  0.00  0.00     0.000 A 
ATOM      4  C4  BNZ d   1      -5.980  -3.021   3.622  0.00  0.00     0.000 A 
ATOM      5  C5  BNZ d   1      -5.962  -3.412   2.298  0.00  0.00     0.000 A 
ATOM      6  C6  BNZ d   1      -5.972  -4.750   1.977  0.00  0.00     0.000 A 
ENDROOT
TORSDOF 0
ENDMDL
