MODEL 1
REMARK minimizedAffinity 11.5494509
REMARK minimizedRMSD -1
REMARK  0 active torsions:
REMARK  status: ('A' for Active; 'I' for Inactive)
ROOT
ATOM      1  C1  BNZ d   1       2.953   4.377   5.000  0.00  0.00     0.000 A 
ATOM      2  C2  BNZ d   1       2.489   3.525   4.034  0.00  0.00     0.000 A 
ATOM      3  C3  BNZ d   1       2.813   2.197   4.059  0.00  0.00     0.000 A 
ATOM      4  C4  BNZ d   1       3.631   1.731   5.024  0.00  0.00     0.000 A 
ATOM      5  C5  BNZ d   1       4.115   2.580   6.000  0.00  0.00     0.000 A 
ATOM      6  C6  BNZ d   1       3.756   3.909   5.994  0.00  0.00     0.000 A 
ENDROOT
TORSDOF 0
ENDMDL
