MODEL 1
REMARK minimizedAffinity 6.24282408
REMARK minimizedRMSD -1
REMARK  0 active torsions:
REMARK  status: ('A' for Active; 'I' for Inactive)
ROOT
ATOM      1  C1  BNZ d   1      -0.166  -5.051  -2.061  0.00  0.00     0.000 A 
ATOM      2  C2  BNZ d   1      -0.027  -5.999  -3.039  0.00  0.00     0.000 A 
ATOM      3  C3  BNZ d   1      -0.842  -5.999  -4.136  0.00  0.00     0.000 A 
ATOM      4  C4  BNZ d   1      -1.821  -5.076  -4.234  0.00  0.00     0.000 A 
ATOM      5  C5  BNZ d   1      -1.980  -4.118  -3.251  0.00  0.00     0.000 A 
ATOM      6  C6  BNZ d   1      -1.132  -4.099  -2.168  0.00  0.00     0.000 A 
ENDROOT
TORSDOF 0
ENDMDL
