MODEL 1
REMARK minimizedAffinity 4.26968288
REMARK minimizedRMSD -1
REMARK  0 active torsions:
REMARK  status: ('A' for Active; 'I' for Inactive)
ROOT
ATOM      1  C1  BNZ d   1      -5.978  -2.634   5.781  0.00  0.00     0.000 A 
ATOM      2  C2  BNZ d   1      -5.976  -2.028   4.553  0.00  0.00     0.000 A 
ATOM      3  C3  BNZ d   1      -5.998  -2.771   3.405  0.00  0.00     0.000 A 
ATOM      4  C4  BNZ d   1      -5.982  -4.117   3.487  0.00  0.00     0.000 A 
ATOM      5  C5  BNZ d   1      -5.974  -4.743   4.717  0.00  0.00     0.000 A 
ATOM      6  C6  BNZ d   1      -5.992  -3.992   5.870  0.00  0.00     0.000 A 
ENDROOT
TORSDOF 0
ENDMDL
