MODEL 1
REMARK minimizedAffinity 8.88827991
REMARK minimizedRMSD -1
REMARK  0 active torsions:
REMARK  status: ('A' for Active; 'I' for Inactive)
ROOT
ATOM      1  C1  BNZ d   1      -0.769  -4.205  -2.103  0.00  0.00     0.000 A 
ATOM      2  C2  BNZ d   1       0.405  -3.570  -1.800  0.00  0.00     0.000 A 
ATOM      3  C3  BNZ d   1       0.462  -2.207  -1.713  0.00  0.00     0.000 A 
ATOM      4  C4  BNZ d   1      -0.645  -1.480  -1.968  0.00  0.00     0.000 A 
ATOM      5  C5  BNZ d   1      -1.834  -2.105  -2.284  0.00  0.00     0.000 A 
ATOM      6  C6  BNZ d   1      -1.897  -3.479  -2.333  0.00  0.00     0.000 A 
ENDROOT
TORSDOF 0
ENDMDL
