MODEL 1
REMARK minimizedAffinity 2.96277833
REMARK minimizedRMSD -1
REMARK  0 active torsions:
REMARK  status: ('A' for Active; 'I' for Inactive)
ROOT
ATOM      1  C1  BNZ d   1       1.257  -1.940  -0.962  0.00  0.00     0.000 A 
ATOM      2  C2  BNZ d   1       0.133  -1.967  -1.744  0.00  0.00     0.000 A 
ATOM      3  C3  BNZ d   1      -0.453  -3.153  -2.086  0.00  0.00     0.000 A 
ATOM      4  C4  BNZ d   1       0.107  -4.311  -1.680  0.00  0.00     0.000 A 
ATOM      5  C5  BNZ d   1       1.245  -4.301  -0.899  0.00  0.00     0.000 A 
ATOM      6  C6  BNZ d   1       1.810  -3.103  -0.524  0.00  0.00     0.000 A 
ENDROOT
TORSDOF 0
ENDMDL
