MODEL 1
REMARK minimizedAffinity 5.18058252
REMARK minimizedRMSD -1
REMARK  0 active torsions:
REMARK  status: ('A' for Active; 'I' for Inactive)
ROOT
ATOM      1  C1  BNZ d   1      -5.993  -1.346   1.893  0.00  0.00     0.000 A 
ATOM      2  C2  BNZ d   1      -5.997  -1.017   3.222  0.00  0.00     0.000 A 
ATOM      3  C3  BNZ d   1      -5.977  -1.987   4.184  0.00  0.00     0.000 A 
ATOM      4  C4  BNZ d   1      -5.993  -3.285   3.817  0.00  0.00     0.000 A 
ATOM      5  C5  BNZ d   1      -5.998  -3.634   2.481  0.00  0.00     0.000 A 
ATOM      6  C6  BNZ d   1      -5.979  -2.654   1.515  0.00  0.00     0.000 A 
ENDROOT
TORSDOF 0
ENDMDL
