MODEL 1
REMARK minimizedAffinity 5.37577295
REMARK minimizedRMSD -1
REMARK  0 active torsions:
REMARK  status: ('A' for Active; 'I' for Inactive)
ROOT
ATOM      1  C1  BNZ d   1       0.848   1.369  -3.486  0.00  0.00     0.000 A 
ATOM      2  C2  BNZ d   1       1.427   0.256  -2.938  0.00  0.00     0.000 A 
ATOM      3  C3  BNZ d   1       2.280   0.361  -1.876  0.00  0.00     0.000 A 
ATOM      4  C4  BNZ d   1       2.585   1.582  -1.389  0.00  0.00     0.000 A 
ATOM      5  C5  BNZ d   1       2.017   2.715  -1.936  0.00  0.00     0.000 A 
ATOM      6  C6  BNZ d   1       1.128   2.601  -2.980  0.00  0.00     0.000 A 
ENDROOT
TORSDOF 0
ENDMDL
