MODEL 1
REMARK minimizedAffinity 8.33337593
REMARK minimizedRMSD -1
REMARK  0 active torsions:
REMARK  status: ('A' for Active; 'I' for Inactive)
ROOT
ATOM      1  C1  BNZ d   1      -1.246  -3.985  -2.201  0.00  0.00     0.000 A 
ATOM      2  C2  BNZ d   1      -2.467  -3.628  -2.709  0.00  0.00     0.000 A 
ATOM      3  C3  BNZ d   1      -2.757  -2.320  -2.979  0.00  0.00     0.000 A 
ATOM      4  C4  BNZ d   1      -1.843  -1.368  -2.704  0.00  0.00     0.000 A 
ATOM      5  C5  BNZ d   1      -0.611  -1.710  -2.183  0.00  0.00     0.000 A 
ATOM      6  C6  BNZ d   1      -0.308  -3.032  -1.949  0.00  0.00     0.000 A 
ENDROOT
TORSDOF 0
ENDMDL
