MODEL 1
REMARK minimizedAffinity -0.634346664
REMARK minimizedRMSD -1
REMARK  0 active torsions:
REMARK  status: ('A' for Active; 'I' for Inactive)
ROOT
ATOM      1  C1  BNZ d   1       0.704  -3.179  -0.713  0.00  0.00     0.000 A 
ATOM      2  C2  BNZ d   1       1.737  -2.279  -0.739  0.00  0.00     0.000 A 
ATOM      3  C3  BNZ d   1       1.975  -1.520  -1.851  0.00  0.00     0.000 A 
ATOM      4  C4  BNZ d   1       1.207  -1.689  -2.946  0.00  0.00     0.000 A 
ATOM      5  C5  BNZ d   1       0.168  -2.598  -2.939  0.00  0.00     0.000 A 
ATOM      6  C6  BNZ d   1      -0.093  -3.333  -1.805  0.00  0.00     0.000 A 
ENDROOT
TORSDOF 0
ENDMDL
