MODEL 1
REMARK minimizedAffinity 9.57124615
REMARK minimizedRMSD -1
REMARK  0 active torsions:
REMARK  status: ('A' for Active; 'I' for Inactive)
ROOT
ATOM      1  C1  BNZ d   1       2.819   0.435  -0.452  0.00  0.00     0.000 A 
ATOM      2  C2  BNZ d   1       2.846   1.652  -1.078  0.00  0.00     0.000 A 
ATOM      3  C3  BNZ d   1       2.166   1.854  -2.246  0.00  0.00     0.000 A 
ATOM      4  C4  BNZ d   1       1.494   0.829  -2.808  0.00  0.00     0.000 A 
ATOM      5  C5  BNZ d   1       1.465  -0.408  -2.194  0.00  0.00     0.000 A 
ATOM      6  C6  BNZ d   1       2.118  -0.596  -0.998  0.00  0.00     0.000 A 
ENDROOT
TORSDOF 0
ENDMDL
