MODEL 1
REMARK minimizedAffinity -4.49629402
REMARK minimizedRMSD -1
REMARK  0 active torsions:
REMARK  status: ('A' for Active; 'I' for Inactive)
ROOT
ATOM      1  C1  BNZ d   1       0.416  -0.660  -0.125  0.00  0.00     0.000 A 
ATOM      2  C2  BNZ d   1       0.768  -1.942  -0.455  0.00  0.00     0.000 A 
ATOM      3  C3  BNZ d   1       1.748  -2.183  -1.377  0.00  0.00     0.000 A 
ATOM      4  C4  BNZ d   1       2.346  -1.145  -1.996  0.00  0.00     0.000 A 
ATOM      5  C5  BNZ d   1       1.996   0.153  -1.681  0.00  0.00     0.000 A 
ATOM      6  C6  BNZ d   1       1.037   0.393  -0.724  0.00  0.00     0.000 A 
ENDROOT
TORSDOF 0
ENDMDL
