MODEL 1
REMARK minimizedAffinity -0.764610589
REMARK minimizedRMSD -1
REMARK  0 active torsions:
REMARK  status: ('A' for Active; 'I' for Inactive)
ROOT
ATOM      1  C1  DEN d   1      -1.273  -0.322   0.120  0.00  0.00     0.130 A 
ATOM      2  C2  DEN d   1      -0.031   0.445   0.079  0.00  0.00    -0.031 A 
ATOM      3  C3  DEN d   1       1.044  -0.452  -0.392  0.00  0.00     0.027 A 
ATOM      4  C4  DEN d   1       0.905  -2.938  -1.062  0.00  0.00     0.027 A 
ATOM      5  C5  DEN d   1       0.065  -4.024  -1.181  0.00  0.00    -0.003 A 
ATOM      6  C6  DEN d   1      -1.261  -3.961  -0.845  0.00  0.00     0.001 A 
ATOM      7  C7  DEN d   1      -1.797  -2.776  -0.416  0.00  0.00     0.017 A 
ATOM      8  C8  DEN d   1      -0.955  -1.679  -0.287  0.00  0.00    -0.094 A 
ATOM      9  C9  DEN d   1       0.380  -1.759  -0.643  0.00  0.00    -0.072 A 
ENDROOT
TORSDOF 0
ENDMDL
