MODEL 1
REMARK minimizedAffinity -0.162846163
REMARK minimizedRMSD -1
REMARK  0 active torsions:
REMARK  status: ('A' for Active; 'I' for Inactive)
ROOT
ATOM      1  C1  DEN d   1      -0.282   0.132  -0.284  0.00  0.00     0.130 A 
ATOM      2  C2  DEN d   1      -0.200  -0.228   1.129  0.00  0.00    -0.031 A 
ATOM      3  C3  DEN d   1      -0.137   1.020   1.916  0.00  0.00     0.027 A 
ATOM      4  C4  DEN d   1      -0.164   3.463   1.089  0.00  0.00     0.027 A 
ATOM      5  C5  DEN d   1      -0.212   4.270  -0.027  0.00  0.00    -0.003 A 
ATOM      6  C6  DEN d   1      -0.252   3.758  -1.297  0.00  0.00     0.001 A 
ATOM      7  C7  DEN d   1      -0.290   2.401  -1.481  0.00  0.00     0.017 A 
ATOM      8  C8  DEN d   1      -0.235   1.581  -0.362  0.00  0.00    -0.094 A 
ATOM      9  C9  DEN d   1      -0.207   2.117   0.914  0.00  0.00    -0.072 A 
ENDROOT
TORSDOF 0
ENDMDL
