MODEL 1
REMARK minimizedAffinity -1.18505466
REMARK minimizedRMSD -1
REMARK  0 active torsions:
REMARK  status: ('A' for Active; 'I' for Inactive)
ROOT
ATOM      1  C1  DEN d   1      -0.899  -0.722   0.102  0.00  0.00     0.130 A 
ATOM      2  C2  DEN d   1       0.361   0.007  -0.019  0.00  0.00    -0.031 A 
ATOM      3  C3  DEN d   1       1.357  -0.900  -0.623  0.00  0.00     0.027 A 
ATOM      4  C4  DEN d   1       1.073  -3.348  -1.385  0.00  0.00     0.027 A 
ATOM      5  C5  DEN d   1       0.188  -4.400  -1.473  0.00  0.00    -0.003 A 
ATOM      6  C6  DEN d   1      -1.100  -4.312  -1.016  0.00  0.00     0.001 A 
ATOM      7  C7  DEN d   1      -1.554  -3.132  -0.490  0.00  0.00     0.017 A 
ATOM      8  C8  DEN d   1      -0.666  -2.069  -0.390  0.00  0.00    -0.094 A 
ATOM      9  C9  DEN d   1       0.629  -2.174  -0.869  0.00  0.00    -0.072 A 
ENDROOT
TORSDOF 0
ENDMDL
