MODEL 1
REMARK minimizedAffinity -3.50033212
REMARK minimizedRMSD -1
REMARK  0 active torsions:
REMARK  status: ('A' for Active; 'I' for Inactive)
ROOT
ATOM      1  C1  DEN d   1       0.329  -1.957   0.371  0.00  0.00     0.130 A 
ATOM      2  C2  DEN d   1      -0.130  -2.043  -1.012  0.00  0.00    -0.031 A 
ATOM      3  C3  DEN d   1      -0.672  -0.724  -1.396  0.00  0.00     0.027 A 
ATOM      4  C4  DEN d   1      -0.839   1.433   0.008  0.00  0.00     0.027 A 
ATOM      5  C5  DEN d   1      -0.590   1.990   1.243  0.00  0.00    -0.003 A 
ATOM      6  C6  DEN d   1      -0.053   1.268   2.275  0.00  0.00     0.001 A 
ATOM      7  C7  DEN d   1       0.295  -0.042   2.078  0.00  0.00     0.017 A 
ATOM      8  C8  DEN d   1       0.040  -0.614   0.839  0.00  0.00    -0.094 A 
ATOM      9  C9  DEN d   1      -0.493   0.137  -0.196  0.00  0.00    -0.072 A 
ENDROOT
TORSDOF 0
ENDMDL
