MODEL 1
REMARK minimizedAffinity -0.385178208
REMARK minimizedRMSD -1
REMARK  0 active torsions:
REMARK  status: ('A' for Active; 'I' for Inactive)
ROOT
ATOM      1  C1  DEN d   1      -0.159  -0.736   0.789  0.00  0.00     0.130 A 
ATOM      2  C2  DEN d   1       0.837   0.150   0.192  0.00  0.00    -0.031 A 
ATOM      3  C3  DEN d   1       1.235  -0.422  -1.110  0.00  0.00     0.027 A 
ATOM      4  C4  DEN d   1       0.408  -2.580  -2.255  0.00  0.00     0.027 A 
ATOM      5  C5  DEN d   1      -0.426  -3.669  -2.128  0.00  0.00    -0.003 A 
ATOM      6  C6  DEN d   1      -1.197  -3.873  -1.014  0.00  0.00     0.001 A 
ATOM      7  C7  DEN d   1      -1.185  -2.950  -0.002  0.00  0.00     0.017 A 
ATOM      8  C8  DEN d   1      -0.341  -1.853  -0.119  0.00  0.00    -0.094 A 
ATOM      9  C9  DEN d   1       0.422  -1.659  -1.258  0.00  0.00    -0.072 A 
ENDROOT
TORSDOF 0
ENDMDL
