MODEL 1
REMARK minimizedAffinity -3.57432508
REMARK minimizedRMSD -1
REMARK  0 active torsions:
REMARK  status: ('A' for Active; 'I' for Inactive)
ROOT
ATOM      1  C1  DEN d   1       0.207  -0.091  -1.267  0.00  0.00     0.130 A 
ATOM      2  C2  DEN d   1       0.551  -1.167  -0.341  0.00  0.00    -0.031 A 
ATOM      3  C3  DEN d   1       0.538  -0.613   1.028  0.00  0.00     0.027 A 
ATOM      4  C4  DEN d   1       0.017   1.792   1.800  0.00  0.00     0.027 A 
ATOM      5  C5  DEN d   1      -0.317   3.059   1.377  0.00  0.00    -0.003 A 
ATOM      6  C6  DEN d   1      -0.466   3.371   0.051  0.00  0.00     0.001 A 
ATOM      7  C7  DEN d   1      -0.324   2.391  -0.896  0.00  0.00     0.017 A 
ATOM      8  C8  DEN d   1       0.020   1.113  -0.478  0.00  0.00    -0.094 A 
ATOM      9  C9  DEN d   1       0.154   0.815   0.868  0.00  0.00    -0.072 A 
ENDROOT
TORSDOF 0
ENDMDL
