MODEL 1
REMARK minimizedAffinity -1.66782749
REMARK minimizedRMSD -1
REMARK  0 active torsions:
REMARK  status: ('A' for Active; 'I' for Inactive)
ROOT
ATOM      1  C1  DEN d   1      -0.277   0.292  -0.763  0.00  0.00     0.130 A 
ATOM      2  C2  DEN d   1       0.628   0.546   0.355  0.00  0.00    -0.031 A 
ATOM      3  C3  DEN d   1       1.172  -0.750   0.806  0.00  0.00     0.027 A 
ATOM      4  C4  DEN d   1       0.710  -3.114  -0.117  0.00  0.00     0.027 A 
ATOM      5  C5  DEN d   1       0.002  -3.834  -1.054  0.00  0.00    -0.003 A 
ATOM      6  C6  DEN d   1      -0.866  -3.239  -1.930  0.00  0.00     0.001 A 
ATOM      7  C7  DEN d   1      -1.016  -1.877  -1.917  0.00  0.00     0.017 A 
ATOM      8  C8  DEN d   1      -0.312  -1.145  -0.970  0.00  0.00    -0.094 A 
ATOM      9  C9  DEN d   1       0.571  -1.764  -0.102  0.00  0.00    -0.072 A 
ENDROOT
TORSDOF 0
ENDMDL
