MODEL 1
REMARK minimizedAffinity -2.07926226
REMARK minimizedRMSD -1
REMARK  0 active torsions:
REMARK  status: ('A' for Active; 'I' for Inactive)
ROOT
ATOM      1  C1  DEN d   1       0.104   0.075  -0.665  0.00  0.00     0.130 A 
ATOM      2  C2  DEN d   1       0.228  -0.918   0.398  0.00  0.00    -0.031 A 
ATOM      3  C3  DEN d   1       0.151  -0.213   1.693  0.00  0.00     0.027 A 
ATOM      4  C4  DEN d   1      -0.151   2.307   2.153  0.00  0.00     0.027 A 
ATOM      5  C5  DEN d   1      -0.290   3.546   1.568  0.00  0.00    -0.003 A 
ATOM      6  C6  DEN d   1      -0.274   3.718   0.209  0.00  0.00     0.001 A 
ATOM      7  C7  DEN d   1      -0.160   2.627  -0.612  0.00  0.00     0.017 A 
ATOM      8  C8  DEN d   1      -0.012   1.375  -0.029  0.00  0.00    -0.094 A 
ATOM      9  C9  DEN d   1      -0.043   1.221   1.347  0.00  0.00    -0.072 A 
ENDROOT
TORSDOF 0
ENDMDL
