MODEL 1
REMARK minimizedAffinity 2.11992431
REMARK minimizedRMSD -1
REMARK  0 active torsions:
REMARK  status: ('A' for Active; 'I' for Inactive)
ROOT
ATOM      1  C1  DEN d   1       0.121   0.839  -0.256  0.00  0.00     0.130 A 
ATOM      2  C2  DEN d   1       0.363  -0.348   0.559  0.00  0.00    -0.031 A 
ATOM      3  C3  DEN d   1       0.865   0.096   1.875  0.00  0.00     0.027 A 
ATOM      4  C4  DEN d   1       1.283   2.494   2.727  0.00  0.00     0.027 A 
ATOM      5  C5  DEN d   1       1.234   3.829   2.391  0.00  0.00    -0.003 A 
ATOM      6  C6  DEN d   1       0.846   4.256   1.148  0.00  0.00     0.001 A 
ATOM      7  C7  DEN d   1       0.449   3.341   0.210  0.00  0.00     0.017 A 
ATOM      8  C8  DEN d   1       0.502   1.993   0.538  0.00  0.00    -0.094 A 
ATOM      9  C9  DEN d   1       0.885   1.582   1.804  0.00  0.00    -0.072 A 
ENDROOT
TORSDOF 0
ENDMDL
