MODEL 1
REMARK minimizedAffinity 11.2383022
REMARK minimizedRMSD -1
REMARK  0 active torsions:
REMARK  status: ('A' for Active; 'I' for Inactive)
ROOT
ATOM      1  C4' PXY d   1       3.336  -5.900  -0.121  0.00  0.00     0.077 C 
ATOM      2  C1' PXY d   1       1.424  -0.737  -1.883  0.00  0.00     0.077 C 
ATOM      3  C1  PXY d   1       1.937  -2.086  -1.419  0.00  0.00    -0.082 A 
ATOM      4  C2  PXY d   1       1.296  -3.188  -1.775  0.00  0.00     0.003 A 
ATOM      5  C3  PXY d   1       1.728  -4.413  -1.338  0.00  0.00     0.003 A 
ATOM      6  C4  PXY d   1       2.859  -4.517  -0.573  0.00  0.00    -0.082 A 
ATOM      7  C5  PXY d   1       3.525  -3.399  -0.216  0.00  0.00     0.003 A 
ATOM      8  C6  PXY d   1       3.047  -2.161  -0.635  0.00  0.00     0.003 A 
ENDROOT
TORSDOF 0
ENDMDL
