MODEL 1
REMARK minimizedAffinity 11.2851486
REMARK minimizedRMSD -1
REMARK  0 active torsions:
REMARK  status: ('A' for Active; 'I' for Inactive)
ROOT
ATOM      1  C4' PXY d   1       1.527  -0.460  -1.863  0.00  0.00     0.077 C 
ATOM      2  C1' PXY d   1       3.176  -6.000  -1.770  0.00  0.00     0.077 C 
ATOM      3  C1  PXY d   1       2.742  -4.548  -1.807  0.00  0.00    -0.082 A 
ATOM      4  C2  PXY d   1       3.164  -3.714  -0.871  0.00  0.00     0.003 A 
ATOM      5  C3  PXY d   1       2.755  -2.406  -0.871  0.00  0.00     0.003 A 
ATOM      6  C4  PXY d   1       1.948  -1.933  -1.871  0.00  0.00    -0.082 A 
ATOM      7  C5  PXY d   1       1.521  -2.774  -2.836  0.00  0.00     0.003 A 
ATOM      8  C6  PXY d   1       1.914  -4.109  -2.794  0.00  0.00     0.003 A 
ENDROOT
TORSDOF 0
ENDMDL
