MODEL 1
REMARK minimizedAffinity 3.6187551
REMARK minimizedRMSD -1
REMARK  0 active torsions:
REMARK  status: ('A' for Active; 'I' for Inactive)
ROOT
ATOM      1  C4' PXY d   1      -1.305  -4.898  -3.678  0.00  0.00     0.077 C 
ATOM      2  C1' PXY d   1      -5.243  -1.359  -6.000  0.00  0.00     0.077 C 
ATOM      3  C1  PXY d   1      -4.216  -2.297  -5.397  0.00  0.00    -0.082 A 
ATOM      4  C2  PXY d   1      -3.583  -1.949  -4.288  0.00  0.00     0.003 A 
ATOM      5  C3  PXY d   1      -2.629  -2.772  -3.747  0.00  0.00     0.003 A 
ATOM      6  C4  PXY d   1      -2.356  -3.986  -4.317  0.00  0.00    -0.082 A 
ATOM      7  C5  PXY d   1      -3.005  -4.353  -5.443  0.00  0.00     0.003 A 
ATOM      8  C6  PXY d   1      -3.941  -3.486  -5.999  0.00  0.00     0.003 A 
ENDROOT
TORSDOF 0
ENDMDL
