MODEL 1
REMARK minimizedAffinity 15.8625364
REMARK minimizedRMSD -1
REMARK  0 active torsions:
REMARK  status: ('A' for Active; 'I' for Inactive)
ROOT
ATOM      1  C4' PXY d   1      -0.602  -4.125  -3.126  0.00  0.00     0.077 C 
ATOM      2  C1' PXY d   1      -5.432  -2.774  -6.000  0.00  0.00     0.077 C 
ATOM      3  C1  PXY d   1      -4.172  -3.136  -5.238  0.00  0.00    -0.082 A 
ATOM      4  C2  PXY d   1      -3.125  -2.328  -5.283  0.00  0.00     0.003 A 
ATOM      5  C3  PXY d   1      -1.967  -2.655  -4.626  0.00  0.00     0.003 A 
ATOM      6  C4  PXY d   1      -1.898  -3.796  -3.872  0.00  0.00    -0.082 A 
ATOM      7  C5  PXY d   1      -2.965  -4.620  -3.812  0.00  0.00     0.003 A 
ATOM      8  C6  PXY d   1      -4.117  -4.290  -4.519  0.00  0.00     0.003 A 
ENDROOT
TORSDOF 0
ENDMDL
