MODEL 1
REMARK minimizedAffinity 19.3226871
REMARK minimizedRMSD -1
REMARK  0 active torsions:
REMARK  status: ('A' for Active; 'I' for Inactive)
ROOT
ATOM      1  C4' PXY d   1       0.536   5.147   0.356  0.00  0.00     0.077 C 
ATOM      2  C1' PXY d   1       4.167   0.653   0.555  0.00  0.00     0.077 C 
ATOM      3  C1  PXY d   1       3.221   1.836   0.492  0.00  0.00    -0.082 A 
ATOM      4  C2  PXY d   1       2.552   2.196   1.575  0.00  0.00     0.003 A 
ATOM      5  C3  PXY d   1       1.668   3.244   1.528  0.00  0.00     0.003 A 
ATOM      6  C4  PXY d   1       1.509   3.964   0.375  0.00  0.00    -0.082 A 
ATOM      7  C5  PXY d   1       2.197   3.610  -0.732  0.00  0.00     0.003 A 
ATOM      8  C6  PXY d   1       3.057   2.518  -0.674  0.00  0.00     0.003 A 
ENDROOT
TORSDOF 0
ENDMDL
