MODEL 1
REMARK minimizedAffinity 8.98310375
REMARK minimizedRMSD -1
REMARK  0 active torsions:
REMARK  status: ('A' for Active; 'I' for Inactive)
ROOT
ATOM      1  C4' PXY d   1       2.513  -3.596  -0.443  0.00  0.00     0.077 C 
ATOM      2  C1' PXY d   1       2.441   2.023  -1.797  0.00  0.00     0.077 C 
ATOM      3  C1  PXY d   1       2.448   0.548  -1.448  0.00  0.00    -0.082 A 
ATOM      4  C2  PXY d   1       3.157   0.124  -0.414  0.00  0.00     0.003 A 
ATOM      5  C3  PXY d   1       3.201  -1.211  -0.104  0.00  0.00     0.003 A 
ATOM      6  C4  PXY d   1       2.468  -2.114  -0.826  0.00  0.00    -0.082 A 
ATOM      7  C5  PXY d   1       1.734  -1.688  -1.876  0.00  0.00     0.003 A 
ATOM      8  C6  PXY d   1       1.736  -0.334  -2.200  0.00  0.00     0.003 A 
ENDROOT
TORSDOF 0
ENDMDL
