MODEL 1
REMARK minimizedAffinity 8.55673981
REMARK minimizedRMSD -1
REMARK  0 active torsions:
REMARK  status: ('A' for Active; 'I' for Inactive)
ROOT
ATOM      1  C4' PXY d   1       3.364  -5.909  -0.699  0.00  0.00     0.077 C 
ATOM      2  C1' PXY d   1       0.875  -1.173  -2.887  0.00  0.00     0.077 C 
ATOM      3  C1  PXY d   1       1.537  -2.408  -2.307  0.00  0.00    -0.082 A 
ATOM      4  C2  PXY d   1       1.384  -3.575  -2.910  0.00  0.00     0.003 A 
ATOM      5  C3  PXY d   1       1.949  -4.708  -2.382  0.00  0.00     0.003 A 
ATOM      6  C4  PXY d   1       2.722  -4.635  -1.254  0.00  0.00    -0.082 A 
ATOM      7  C5  PXY d   1       2.891  -3.445  -0.639  0.00  0.00     0.003 A 
ATOM      8  C6  PXY d   1       2.275  -2.315  -1.168  0.00  0.00     0.003 A 
ENDROOT
TORSDOF 0
ENDMDL
