MODEL 1
REMARK minimizedAffinity 0.721408904
REMARK minimizedRMSD -1
REMARK  0 active torsions:
REMARK  status: ('A' for Active; 'I' for Inactive)
ROOT
ATOM      1  C4' PXY d   1       2.192   1.251  -1.396  0.00  0.00     0.077 C 
ATOM      2  C1' PXY d   1       3.545  -4.323  -0.679  0.00  0.00     0.077 C 
ATOM      3  C1  PXY d   1       3.188  -2.863  -0.880  0.00  0.00    -0.082 A 
ATOM      4  C2  PXY d   1       3.628  -1.958  -0.020  0.00  0.00     0.003 A 
ATOM      5  C3  PXY d   1       3.288  -0.638  -0.169  0.00  0.00     0.003 A 
ATOM      6  C4  PXY d   1       2.535  -0.233  -1.238  0.00  0.00    -0.082 A 
ATOM      7  C5  PXY d   1       2.091  -1.149  -2.125  0.00  0.00     0.003 A 
ATOM      8  C6  PXY d   1       2.413  -2.489  -1.933  0.00  0.00     0.003 A 
ENDROOT
TORSDOF 0
ENDMDL
