MODEL 1
REMARK minimizedAffinity 10.4417706
REMARK minimizedRMSD -1
REMARK  0 active torsions:
REMARK  status: ('A' for Active; 'I' for Inactive)
ROOT
ATOM      1  C4' PXY d   1       2.411   2.365  -2.314  0.00  0.00     0.077 C 
ATOM      2  C1' PXY d   1       3.005  -2.774   0.264  0.00  0.00     0.077 C 
ATOM      3  C1  PXY d   1       2.852  -1.420  -0.401  0.00  0.00    -0.082 A 
ATOM      4  C2  PXY d   1       2.070  -1.297  -1.461  0.00  0.00     0.003 A 
ATOM      5  C3  PXY d   1       1.946  -0.087  -2.093  0.00  0.00     0.003 A 
ATOM      6  C4  PXY d   1       2.587   1.020  -1.605  0.00  0.00    -0.082 A 
ATOM      7  C5  PXY d   1       3.379   0.904  -0.517  0.00  0.00     0.003 A 
ATOM      8  C6  PXY d   1       3.524  -0.342   0.086  0.00  0.00     0.003 A 
ENDROOT
TORSDOF 0
ENDMDL
