MODEL 1
REMARK minimizedAffinity 10.5350981
REMARK minimizedRMSD -1
REMARK  0 active torsions:
REMARK  status: ('A' for Active; 'I' for Inactive)
ROOT
ATOM      1  C4' PXY d   1       2.887  -2.754  -0.138  0.00  0.00     0.077 C 
ATOM      2  C1' PXY d   1       2.017   2.612  -2.103  0.00  0.00     0.077 C 
ATOM      3  C1  PXY d   1       2.236   1.200  -1.596  0.00  0.00    -0.082 A 
ATOM      4  C2  PXY d   1       2.749   1.010  -0.391  0.00  0.00     0.003 A 
ATOM      5  C3  PXY d   1       2.983  -0.259   0.071  0.00  0.00     0.003 A 
ATOM      6  C4  PXY d   1       2.640  -1.347  -0.687  0.00  0.00    -0.082 A 
ATOM      7  C5  PXY d   1       2.106  -1.161  -1.913  0.00  0.00     0.003 A 
ATOM      8  C6  PXY d   1       1.914   0.136  -2.380  0.00  0.00     0.003 A 
ENDROOT
TORSDOF 0
ENDMDL
