MODEL 1
REMARK minimizedAffinity 17.3846493
REMARK minimizedRMSD -1
REMARK  0 active torsions:
REMARK  status: ('A' for Active; 'I' for Inactive)
ROOT
ATOM      1  C4' PXY d   1       0.094   3.216   1.992  0.00  0.00     0.077 C 
ATOM      2  C1' PXY d   1      -3.626  -1.110   2.918  0.00  0.00     0.077 C 
ATOM      3  C1  PXY d   1      -2.641   0.017   2.680  0.00  0.00    -0.082 A 
ATOM      4  C2  PXY d   1      -3.078   1.263   2.607  0.00  0.00     0.003 A 
ATOM      5  C3  PXY d   1      -2.205   2.292   2.361  0.00  0.00     0.003 A 
ATOM      6  C4  PXY d   1      -0.863   2.047   2.240  0.00  0.00    -0.082 A 
ATOM      7  C5  PXY d   1      -0.408   0.779   2.324  0.00  0.00     0.003 A 
ATOM      8  C6  PXY d   1      -1.315  -0.255   2.533  0.00  0.00     0.003 A 
ENDROOT
TORSDOF 0
ENDMDL
