MODEL 1
REMARK minimizedAffinity 14.5795126
REMARK minimizedRMSD -1
REMARK  0 active torsions:
REMARK  status: ('A' for Active; 'I' for Inactive)
ROOT
ATOM      1  C4' PXY d   1      -5.996  -1.774  -5.995  0.00  0.00     0.077 C 
ATOM      2  C1' PXY d   1      -2.565  -5.994  -4.038  0.00  0.00     0.077 C 
ATOM      3  C1  PXY d   1      -3.467  -4.894  -4.563  0.00  0.00    -0.082 A 
ATOM      4  C2  PXY d   1      -3.343  -3.665  -4.088  0.00  0.00     0.003 A 
ATOM      5  C3  PXY d   1      -4.171  -2.665  -4.528  0.00  0.00     0.003 A 
ATOM      6  C4  PXY d   1      -5.101  -2.914  -5.502  0.00  0.00    -0.082 A 
ATOM      7  C5  PXY d   1      -5.226  -4.163  -5.999  0.00  0.00     0.003 A 
ATOM      8  C6  PXY d   1      -4.403  -5.173  -5.509  0.00  0.00     0.003 A 
ENDROOT
TORSDOF 0
ENDMDL
