MODEL 1
REMARK minimizedAffinity 18.3532066
REMARK minimizedRMSD -1
REMARK  0 active torsions:
REMARK  status: ('A' for Active; 'I' for Inactive)
ROOT
ATOM      1  C4' PXY d   1       3.051  -3.831  -0.048  0.00  0.00     0.077 C 
ATOM      2  C1' PXY d   1       1.278   0.754  -3.089  0.00  0.00     0.077 C 
ATOM      3  C1  PXY d   1       1.751  -0.441  -2.285  0.00  0.00    -0.082 A 
ATOM      4  C2  PXY d   1       1.636  -1.658  -2.792  0.00  0.00     0.003 A 
ATOM      5  C3  PXY d   1       2.030  -2.752  -2.065  0.00  0.00     0.003 A 
ATOM      6  C4  PXY d   1       2.596  -2.595  -0.828  0.00  0.00    -0.082 A 
ATOM      7  C5  PXY d   1       2.726  -1.356  -0.308  0.00  0.00     0.003 A 
ATOM      8  C6  PXY d   1       2.283  -0.262  -1.045  0.00  0.00     0.003 A 
ENDROOT
TORSDOF 0
ENDMDL
