MODEL 1
REMARK minimizedAffinity 8.38783646
REMARK minimizedRMSD -1
REMARK  0 active torsions:
REMARK  status: ('A' for Active; 'I' for Inactive)
ROOT
ATOM      1  C4' PXY d   1      -3.370   3.773  -6.000  0.00  0.00     0.077 C 
ATOM      2  C1' PXY d   1       1.553   2.585  -3.213  0.00  0.00     0.077 C 
ATOM      3  C1  PXY d   1       0.258   2.902  -3.933  0.00  0.00    -0.082 A 
ATOM      4  C2  PXY d   1      -0.098   2.185  -4.986  0.00  0.00     0.003 A 
ATOM      5  C3  PXY d   1      -1.251   2.478  -5.668  0.00  0.00     0.003 A 
ATOM      6  C4  PXY d   1      -2.075   3.483  -5.236  0.00  0.00    -0.082 A 
ATOM      7  C5  PXY d   1      -1.724   4.213  -4.156  0.00  0.00     0.003 A 
ATOM      8  C6  PXY d   1      -0.529   3.925  -3.502  0.00  0.00     0.003 A 
ENDROOT
TORSDOF 0
ENDMDL
