MODEL 1
REMARK minimizedAffinity 10.7822752
REMARK minimizedRMSD -1
REMARK  0 active torsions:
REMARK  status: ('A' for Active; 'I' for Inactive)
ROOT
ATOM      1  C4' PXY d   1       2.278   0.403  -0.023  0.00  0.00     0.077 C 
ATOM      2  C1' PXY d   1       1.272  -4.250  -3.302  0.00  0.00     0.077 C 
ATOM      3  C1  PXY d   1       1.535  -3.037  -2.432  0.00  0.00    -0.082 A 
ATOM      4  C2  PXY d   1       1.220  -1.831  -2.877  0.00  0.00     0.003 A 
ATOM      5  C3  PXY d   1       1.481  -0.721  -2.115  0.00  0.00     0.003 A 
ATOM      6  C4  PXY d   1       2.021  -0.850  -0.864  0.00  0.00    -0.082 A 
ATOM      7  C5  PXY d   1       2.335  -2.078  -0.399  0.00  0.00     0.003 A 
ATOM      8  C6  PXY d   1       2.101  -3.189  -1.203  0.00  0.00     0.003 A 
ENDROOT
TORSDOF 0
ENDMDL
