MODEL 1
REMARK minimizedAffinity 7.69720078
REMARK minimizedRMSD -1
REMARK  0 active torsions:
REMARK  status: ('A' for Active; 'I' for Inactive)
ROOT
ATOM      1  C4' PXY d   1       0.625   2.993   2.152  0.00  0.00     0.077 C 
ATOM      2  C1' PXY d   1       5.601   3.048  -0.788  0.00  0.00     0.077 C 
ATOM      3  C1  PXY d   1       4.293   3.045  -0.022  0.00  0.00    -0.082 A 
ATOM      4  C2  PXY d   1       4.195   2.356   1.103  0.00  0.00     0.003 A 
ATOM      5  C3  PXY d   1       3.010   2.316   1.791  0.00  0.00     0.003 A 
ATOM      6  C4  PXY d   1       1.929   3.032   1.351  0.00  0.00    -0.082 A 
ATOM      7  C5  PXY d   1       2.024   3.746   0.210  0.00  0.00     0.003 A 
ATOM      8  C6  PXY d   1       3.224   3.741  -0.496  0.00  0.00     0.003 A 
ENDROOT
TORSDOF 0
ENDMDL
