MODEL 1
REMARK minimizedAffinity 4.1012578
REMARK minimizedRMSD -1
REMARK  0 active torsions:
REMARK  status: ('A' for Active; 'I' for Inactive)
ROOT
ATOM      1  C4' PXY d   1       1.490  -0.550  -1.339  0.00  0.00     0.077 C 
ATOM      2  C1' PXY d   1       3.349  -5.999  -1.854  0.00  0.00     0.077 C 
ATOM      3  C1  PXY d   1       2.858  -4.570  -1.732  0.00  0.00    -0.082 A 
ATOM      4  C2  PXY d   1       3.317  -3.802  -0.757  0.00  0.00     0.003 A 
ATOM      5  C3  PXY d   1       2.860  -2.517  -0.612  0.00  0.00     0.003 A 
ATOM      6  C4  PXY d   1       1.964  -1.996  -1.507  0.00  0.00    -0.082 A 
ATOM      7  C5  PXY d   1       1.499  -2.770  -2.511  0.00  0.00     0.003 A 
ATOM      8  C6  PXY d   1       1.945  -4.084  -2.615  0.00  0.00     0.003 A 
ENDROOT
TORSDOF 0
ENDMDL
