MODEL 1
REMARK minimizedAffinity 3.44910431
REMARK minimizedRMSD -1
REMARK  0 active torsions:
REMARK  status: ('A' for Active; 'I' for Inactive)
ROOT
ATOM      1  C4' PXY d   1      -1.453  -5.252  -4.827  0.00  0.00     0.077 C 
ATOM      2  C1' PXY d   1      -6.000  -1.879  -5.999  0.00  0.00     0.077 C 
ATOM      3  C1  PXY d   1      -4.815  -2.774  -5.691  0.00  0.00    -0.082 A 
ATOM      4  C2  PXY d   1      -3.734  -2.258  -5.130  0.00  0.00     0.003 A 
ATOM      5  C3  PXY d   1      -2.642  -3.047  -4.874  0.00  0.00     0.003 A 
ATOM      6  C4  PXY d   1      -2.676  -4.388  -5.147  0.00  0.00    -0.082 A 
ATOM      7  C5  PXY d   1      -3.780  -4.924  -5.709  0.00  0.00     0.003 A 
ATOM      8  C6  PXY d   1      -4.863  -4.099  -5.999  0.00  0.00     0.003 A 
ENDROOT
TORSDOF 0
ENDMDL
