MODEL 1
REMARK minimizedAffinity 16.9949741
REMARK minimizedRMSD -1
REMARK  0 active torsions:
REMARK  status: ('A' for Active; 'I' for Inactive)
ROOT
ATOM      1  C4' PXY d   1       2.612   1.858  -3.070  0.00  0.00     0.077 C 
ATOM      2  C1' PXY d   1       3.844   2.674   2.519  0.00  0.00     0.077 C 
ATOM      3  C1  PXY d   1       3.533   2.457   1.051  0.00  0.00    -0.082 A 
ATOM      4  C2  PXY d   1       2.453   3.009   0.522  0.00  0.00     0.003 A 
ATOM      5  C3  PXY d   1       2.140   2.798  -0.796  0.00  0.00     0.003 A 
ATOM      6  C4  PXY d   1       2.970   2.057  -1.595  0.00  0.00    -0.082 A 
ATOM      7  C5  PXY d   1       4.080   1.499  -1.065  0.00  0.00     0.003 A 
ATOM      8  C6  PXY d   1       4.357   1.692   0.285  0.00  0.00     0.003 A 
ENDROOT
TORSDOF 0
ENDMDL
