MODEL 1
REMARK minimizedAffinity 18.3533497
REMARK minimizedRMSD -1
REMARK  0 active torsions:
REMARK  status: ('A' for Active; 'I' for Inactive)
ROOT
ATOM      1  C4' PXY d   1      -6.000  -2.620   1.730  0.00  0.00     0.077 C 
ATOM      2  C1' PXY d   1      -2.059   1.422   2.972  0.00  0.00     0.077 C 
ATOM      3  C1  PXY d   1      -3.088   0.355   2.656  0.00  0.00    -0.082 A 
ATOM      4  C2  PXY d   1      -3.538   0.225   1.419  0.00  0.00     0.003 A 
ATOM      5  C3  PXY d   1      -4.493  -0.713   1.123  0.00  0.00     0.003 A 
ATOM      6  C4  PXY d   1      -4.953  -1.563   2.092  0.00  0.00    -0.082 A 
ATOM      7  C5  PXY d   1      -4.492  -1.444   3.355  0.00  0.00     0.003 A 
ATOM      8  C6  PXY d   1      -3.553  -0.457   3.644  0.00  0.00     0.003 A 
ENDROOT
TORSDOF 0
ENDMDL
