MODEL 1
REMARK minimizedAffinity -4.42915535
REMARK minimizedRMSD -1
REMARK  0 active torsions:
REMARK  status: ('A' for Active; 'I' for Inactive)
ROOT
ATOM      1  N1  IND d   1      -0.810  -0.188   0.222  0.00  0.00    -0.196 N 
ATOM      2  C2  IND d   1      -0.034   0.170  -0.845  0.00  0.00     0.054 A 
ATOM      3  C3  IND d   1       1.127  -0.523  -0.836  0.00  0.00    -0.031 A 
ATOM      4  C4  IND d   1       1.918  -2.368   0.776  0.00  0.00     0.051 A 
ATOM      5  C5  IND d   1       1.569  -3.014   1.928  0.00  0.00    -0.031 A 
ATOM      6  C6  IND d   1       0.384  -2.747   2.583  0.00  0.00     0.015 A 
ATOM      7  C7  IND d   1      -0.506  -1.829   2.101  0.00  0.00    -0.016 A 
ATOM      8  C8  IND d   1      -0.151  -1.166   0.935  0.00  0.00    -0.047 A 
ATOM      9  C9  IND d   1       1.069  -1.402   0.289  0.00  0.00    -0.096 A 
ATOM     10  HN1 IND d   1      -1.580   0.142   0.416  0.00  0.00     0.298 HD
ENDROOT
TORSDOF 0
ENDMDL
