MODEL 1
REMARK minimizedAffinity -1.50775337
REMARK minimizedRMSD -1
REMARK  0 active torsions:
REMARK  status: ('A' for Active; 'I' for Inactive)
ROOT
ATOM      1  N1  IND d   1       0.324   0.743  -0.274  0.00  0.00    -0.196 N 
ATOM      2  C2  IND d   1       1.620   0.739  -0.708  0.00  0.00     0.054 A 
ATOM      3  C3  IND d   1       2.208  -0.445  -0.425  0.00  0.00    -0.031 A 
ATOM      4  C4  IND d   1       1.200  -2.553   0.655  0.00  0.00     0.051 A 
ATOM      5  C5  IND d   1       0.062  -3.019   1.253  0.00  0.00    -0.031 A 
ATOM      6  C6  IND d   1      -1.070  -2.239   1.371  0.00  0.00     0.015 A 
ATOM      7  C7  IND d   1      -1.111  -0.963   0.885  0.00  0.00    -0.016 A 
ATOM      8  C8  IND d   1       0.045  -0.485   0.284  0.00  0.00    -0.047 A 
ATOM      9  C9  IND d   1       1.211  -1.256   0.199  0.00  0.00    -0.096 A 
ATOM     10  HN1 IND d   1      -0.225   1.402  -0.338  0.00  0.00     0.298 HD
ENDROOT
TORSDOF 0
ENDMDL
