MODEL 1
REMARK minimizedAffinity -3.93801785
REMARK minimizedRMSD -1
REMARK  0 active torsions:
REMARK  status: ('A' for Active; 'I' for Inactive)
ROOT
ATOM      1  N1  IND d   1       1.459  -2.742   0.758  0.00  0.00    -0.196 N 
ATOM      2  C2  IND d   1       0.298  -3.238   1.281  0.00  0.00     0.054 A 
ATOM      3  C3  IND d   1      -0.695  -2.328   1.167  0.00  0.00    -0.031 A 
ATOM      4  C4  IND d   1      -0.664  -0.001   0.067  0.00  0.00     0.051 A 
ATOM      5  C5  IND d   1       0.179   0.904  -0.517  0.00  0.00    -0.031 A 
ATOM      6  C6  IND d   1       1.518   0.632  -0.712  0.00  0.00     0.015 A 
ATOM      7  C7  IND d   1       2.064  -0.563  -0.339  0.00  0.00    -0.016 A 
ATOM      8  C8  IND d   1       1.213  -1.481   0.260  0.00  0.00    -0.047 A 
ATOM      9  C9  IND d   1      -0.137  -1.195   0.499  0.00  0.00    -0.096 A 
ATOM     10  HN1 IND d   1       2.216  -3.149   0.742  0.00  0.00     0.298 HD
ENDROOT
TORSDOF 0
ENDMDL
