MODEL 1
REMARK minimizedAffinity -3.8311677
REMARK minimizedRMSD -1
REMARK  0 active torsions:
REMARK  status: ('A' for Active; 'I' for Inactive)
ROOT
ATOM      1  N1  IND d   1       3.428  -0.897   0.070  0.00  0.00    -0.196 N 
ATOM      2  C2  IND d   1       3.331   0.313  -0.559  0.00  0.00     0.054 A 
ATOM      3  C3  IND d   1       2.038   0.700  -0.638  0.00  0.00    -0.031 A 
ATOM      4  C4  IND d   1      -0.072  -0.448   0.287  0.00  0.00     0.051 A 
ATOM      5  C5  IND d   1      -0.493  -1.592   0.906  0.00  0.00    -0.031 A 
ATOM      6  C6  IND d   1       0.390  -2.582   1.288  0.00  0.00     0.015 A 
ATOM      7  C7  IND d   1       1.734  -2.458   1.074  0.00  0.00    -0.016 A 
ATOM      8  C8  IND d   1       2.164  -1.301   0.440  0.00  0.00    -0.047 A 
ATOM      9  C9  IND d   1       1.268  -0.313   0.012  0.00  0.00    -0.096 A 
ATOM     10  HN1 IND d   1       4.156  -1.333   0.210  0.00  0.00     0.298 HD
ENDROOT
TORSDOF 0
ENDMDL
