MODEL 1
REMARK minimizedAffinity -2.77446151
REMARK minimizedRMSD -1
REMARK  0 active torsions:
REMARK  status: ('A' for Active; 'I' for Inactive)
ROOT
ATOM      1  N1  IND d   1       0.663   1.086  -0.384  0.00  0.00    -0.196 N 
ATOM      2  C2  IND d   1      -0.662   1.420  -0.365  0.00  0.00     0.054 A 
ATOM      3  C3  IND d   1      -1.414   0.345  -0.041  0.00  0.00    -0.031 A 
ATOM      4  C4  IND d   1      -0.674  -2.036   0.598  0.00  0.00     0.051 A 
ATOM      5  C5  IND d   1       0.433  -2.832   0.688  0.00  0.00    -0.031 A 
ATOM      6  C6  IND d   1       1.700  -2.353   0.422  0.00  0.00     0.015 A 
ATOM      7  C7  IND d   1       1.908  -1.050   0.065  0.00  0.00    -0.016 A 
ATOM      8  C8  IND d   1       0.785  -0.241  -0.033  0.00  0.00    -0.047 A 
ATOM      9  C9  IND d   1      -0.507  -0.733   0.194  0.00  0.00    -0.096 A 
ATOM     10  HN1 IND d   1       1.311   1.615  -0.583  0.00  0.00     0.298 HD
ENDROOT
TORSDOF 0
ENDMDL
