MODEL 1
REMARK minimizedAffinity -3.94684458
REMARK minimizedRMSD -1
REMARK  0 active torsions:
REMARK  status: ('A' for Active; 'I' for Inactive)
ROOT
ATOM      1  N1  IND d   1      -1.207   0.236   0.218  0.00  0.00    -0.196 N 
ATOM      2  C2  IND d   1      -0.985   1.387  -0.486  0.00  0.00     0.054 A 
ATOM      3  C3  IND d   1       0.332   1.525  -0.758  0.00  0.00    -0.031 A 
ATOM      4  C4  IND d   1       2.286  -0.066  -0.232  0.00  0.00     0.051 A 
ATOM      5  C5  IND d   1       2.584  -1.225   0.428  0.00  0.00    -0.031 A 
ATOM      6  C6  IND d   1       1.613  -1.973   1.061  0.00  0.00     0.015 A 
ATOM      7  C7  IND d   1       0.300  -1.594   1.050  0.00  0.00    -0.016 A 
ATOM      8  C8  IND d   1      -0.004  -0.413   0.387  0.00  0.00    -0.047 A 
ATOM      9  C9  IND d   1       0.983   0.372  -0.222  0.00  0.00    -0.096 A 
ATOM     10  HN1 IND d   1      -1.970  -0.036   0.507  0.00  0.00     0.298 HD
ENDROOT
TORSDOF 0
ENDMDL
