MODEL 1
REMARK minimizedAffinity -2.34979129
REMARK minimizedRMSD -1
REMARK  0 active torsions:
REMARK  status: ('A' for Active; 'I' for Inactive)
ROOT
ATOM      1  N1  IND d   1      -1.891   1.053   0.654  0.00  0.00    -0.196 N 
ATOM      2  C2  IND d   1      -1.264   1.632  -0.415  0.00  0.00     0.054 A 
ATOM      3  C3  IND d   1      -0.259   0.843  -0.855  0.00  0.00    -0.031 A 
ATOM      4  C4  IND d   1       0.470  -1.487  -0.038  0.00  0.00     0.051 A 
ATOM      5  C5  IND d   1       0.222  -2.413   0.937  0.00  0.00    -0.031 A 
ATOM      6  C6  IND d   1      -0.765  -2.228   1.884  0.00  0.00     0.015 A 
ATOM      7  C7  IND d   1      -1.551  -1.111   1.885  0.00  0.00    -0.016 A 
ATOM      8  C8  IND d   1      -1.297  -0.166   0.902  0.00  0.00    -0.047 A 
ATOM      9  C9  IND d   1      -0.270  -0.328  -0.036  0.00  0.00    -0.096 A 
ATOM     10  HN1 IND d   1      -2.545   1.392   1.096  0.00  0.00     0.298 HD
ENDROOT
TORSDOF 0
ENDMDL
