MODEL 1
REMARK minimizedAffinity -3.7200911
REMARK minimizedRMSD -1
REMARK  0 active torsions:
REMARK  status: ('A' for Active; 'I' for Inactive)
ROOT
ATOM      1  N1  IND d   1      -1.213  -0.281  -0.218  0.00  0.00    -0.196 N 
ATOM      2  C2  IND d   1      -1.208   0.965  -0.781  0.00  0.00     0.054 A 
ATOM      3  C3  IND d   1       0.049   1.462  -0.811  0.00  0.00    -0.031 A 
ATOM      4  C4  IND d   1       2.261   0.362  -0.086  0.00  0.00     0.051 A 
ATOM      5  C5  IND d   1       2.759  -0.756   0.522  0.00  0.00    -0.031 A 
ATOM      6  C6  IND d   1       1.943  -1.795   0.919  0.00  0.00     0.015 A 
ATOM      7  C7  IND d   1       0.593  -1.760   0.712  0.00  0.00    -0.016 A 
ATOM      8  C8  IND d   1       0.082  -0.622   0.102  0.00  0.00    -0.047 A 
ATOM      9  C9  IND d   1       0.901   0.454  -0.265  0.00  0.00    -0.096 A 
ATOM     10  HN1 IND d   1      -1.909  -0.769  -0.087  0.00  0.00     0.298 HD
ENDROOT
TORSDOF 0
ENDMDL
