MODEL 1
REMARK minimizedAffinity -4.88944769
REMARK minimizedRMSD -1
REMARK  0 active torsions:
REMARK  status: ('A' for Active; 'I' for Inactive)
ROOT
ATOM      1  N1  IND d   1       1.283   1.051   0.271  0.00  0.00    -0.196 N 
ATOM      2  C2  IND d   1       0.069   1.675   0.204  0.00  0.00     0.054 A 
ATOM      3  C3  IND d   1      -0.922   0.811   0.519  0.00  0.00    -0.031 A 
ATOM      4  C4  IND d   1      -0.771  -1.646   1.275  0.00  0.00     0.051 A 
ATOM      5  C5  IND d   1       0.122  -2.665   1.453  0.00  0.00    -0.031 A 
ATOM      6  C6  IND d   1       1.475  -2.494   1.244  0.00  0.00     0.015 A 
ATOM      7  C7  IND d   1       1.990  -1.288   0.859  0.00  0.00    -0.016 A 
ATOM      8  C8  IND d   1       1.085  -0.252   0.671  0.00  0.00    -0.047 A 
ATOM      9  C9  IND d   1      -0.294  -0.432   0.840  0.00  0.00    -0.096 A 
ATOM     10  HN1 IND d   1       2.043   1.412   0.093  0.00  0.00     0.298 HD
ENDROOT
TORSDOF 0
ENDMDL
