MODEL 1
REMARK minimizedAffinity -3.88099575
REMARK minimizedRMSD -1
REMARK  0 active torsions:
REMARK  status: ('A' for Active; 'I' for Inactive)
ROOT
ATOM      1  N1  IND d   1      -1.132  -0.642  -0.327  0.00  0.00    -0.196 N 
ATOM      2  C2  IND d   1      -1.025   0.710  -0.498  0.00  0.00     0.054 A 
ATOM      3  C3  IND d   1       0.234   1.120  -0.229  0.00  0.00    -0.031 A 
ATOM      4  C4  IND d   1       2.306  -0.268   0.409  0.00  0.00     0.051 A 
ATOM      5  C5  IND d   1       2.695  -1.541   0.720  0.00  0.00    -0.031 A 
ATOM      6  C6  IND d   1       1.812  -2.601   0.695  0.00  0.00     0.015 A 
ATOM      7  C7  IND d   1       0.503  -2.428   0.345  0.00  0.00    -0.016 A 
ATOM      8  C8  IND d   1       0.102  -1.137   0.035  0.00  0.00    -0.047 A 
ATOM      9  C9  IND d   1       0.984  -0.050   0.100  0.00  0.00    -0.096 A 
ATOM     10  HN1 IND d   1      -1.849  -1.106  -0.429  0.00  0.00     0.298 HD
ENDROOT
TORSDOF 0
ENDMDL
