MODEL 1
REMARK minimizedAffinity -2.59134007
REMARK minimizedRMSD -1
REMARK  0 active torsions:
REMARK  status: ('A' for Active; 'I' for Inactive)
ROOT
ATOM      1  N1  IND d   1       0.421   1.435  -0.601  0.00  0.00    -0.196 N 
ATOM      2  C2  IND d   1      -0.933   1.482  -0.778  0.00  0.00     0.054 A 
ATOM      3  C3  IND d   1      -1.493   0.298  -0.440  0.00  0.00    -0.031 A 
ATOM      4  C4  IND d   1      -0.388  -1.818   0.524  0.00  0.00     0.051 A 
ATOM      5  C5  IND d   1       0.833  -2.352   0.828  0.00  0.00    -0.031 A 
ATOM      6  C6  IND d   1       2.002  -1.636   0.672  0.00  0.00     0.015 A 
ATOM      7  C7  IND d   1       1.993  -0.349   0.213  0.00  0.00    -0.016 A 
ATOM      8  C8  IND d   1       0.756   0.195  -0.104  0.00  0.00    -0.047 A 
ATOM      9  C9  IND d   1      -0.430  -0.542   0.013  0.00  0.00    -0.096 A 
ATOM     10  HN1 IND d   1       0.972   2.073  -0.771  0.00  0.00     0.298 HD
ENDROOT
TORSDOF 0
ENDMDL
