MODEL 1
REMARK minimizedAffinity -2.48631382
REMARK minimizedRMSD -1
REMARK  0 active torsions:
REMARK  status: ('A' for Active; 'I' for Inactive)
ROOT
ATOM      1  N1  IND d   1      -1.607  -0.021   0.013  0.00  0.00    -0.196 N 
ATOM      2  C2  IND d   1      -1.127   0.998  -0.761  0.00  0.00     0.054 A 
ATOM      3  C3  IND d   1       0.214   0.893  -0.899  0.00  0.00    -0.031 A 
ATOM      4  C4  IND d   1       1.810  -0.928  -0.024  0.00  0.00     0.051 A 
ATOM      5  C5  IND d   1       1.841  -2.045   0.763  0.00  0.00    -0.031 A 
ATOM      6  C6  IND d   1       0.702  -2.556   1.351  0.00  0.00     0.015 A 
ATOM      7  C7  IND d   1      -0.519  -1.973   1.162  0.00  0.00    -0.016 A 
ATOM      8  C8  IND d   1      -0.554  -0.835   0.369  0.00  0.00    -0.047 A 
ATOM      9  C9  IND d   1       0.605  -0.287  -0.195  0.00  0.00    -0.096 A 
ATOM     10  HN1 IND d   1      -2.429  -0.134   0.239  0.00  0.00     0.298 HD
ENDROOT
TORSDOF 0
ENDMDL
