MODEL 1
REMARK minimizedAffinity -1.51644313
REMARK minimizedRMSD -1
REMARK  0 active torsions:
REMARK  status: ('A' for Active; 'I' for Inactive)
ROOT
ATOM      1  N1  IND d   1       2.600  -1.956   0.681  0.00  0.00    -0.196 N 
ATOM      2  C2  IND d   1       1.922  -3.089   1.036  0.00  0.00     0.054 A 
ATOM      3  C3  IND d   1       0.591  -2.904   0.890  0.00  0.00    -0.031 A 
ATOM      4  C4  IND d   1      -0.689  -0.860  -0.011  0.00  0.00     0.051 A 
ATOM      5  C5  IND d   1      -0.504   0.429  -0.426  0.00  0.00    -0.031 A 
ATOM      6  C6  IND d   1       0.750   0.999  -0.498  0.00  0.00     0.015 A 
ATOM      7  C7  IND d   1       1.873   0.295  -0.166  0.00  0.00    -0.016 A 
ATOM      8  C8  IND d   1       1.689  -1.012   0.263  0.00  0.00    -0.047 A 
ATOM      9  C9  IND d   1       0.414  -1.582   0.378  0.00  0.00    -0.096 A 
ATOM     10  HN1 IND d   1       3.453  -1.851   0.714  0.00  0.00     0.298 HD
ENDROOT
TORSDOF 0
ENDMDL
