MODEL 1
REMARK minimizedAffinity -3.92981768
REMARK minimizedRMSD -1
REMARK  0 active torsions:
REMARK  status: ('A' for Active; 'I' for Inactive)
ROOT
ATOM      1  N1  IND d   1       2.391  -1.694   0.606  0.00  0.00    -0.196 N 
ATOM      2  C2  IND d   1       3.129  -0.642   0.138  0.00  0.00     0.054 A 
ATOM      3  C3  IND d   1       2.320   0.387  -0.199  0.00  0.00    -0.031 A 
ATOM      4  C4  IND d   1      -0.235   0.601   0.028  0.00  0.00     0.051 A 
ATOM      5  C5  IND d   1      -1.350  -0.112   0.369  0.00  0.00    -0.031 A 
ATOM      6  C6  IND d   1      -1.272  -1.415   0.819  0.00  0.00     0.015 A 
ATOM      7  C7  IND d   1      -0.071  -2.051   0.955  0.00  0.00    -0.016 A 
ATOM      8  C8  IND d   1       1.062  -1.332   0.602  0.00  0.00    -0.047 A 
ATOM      9  C9  IND d   1       0.987  -0.025   0.105  0.00  0.00    -0.096 A 
ATOM     10  HN1 IND d   1       2.705  -2.453   0.859  0.00  0.00     0.298 HD
ENDROOT
TORSDOF 0
ENDMDL
