MODEL 1
REMARK minimizedAffinity -2.68633795
REMARK minimizedRMSD -1
REMARK  0 active torsions:
REMARK  status: ('A' for Active; 'I' for Inactive)
ROOT
ATOM      1  N1  IND d   1      -1.135   3.008  -4.829  0.00  0.00    -0.196 N 
ATOM      2  C2  IND d   1      -0.117   3.740  -4.284  0.00  0.00     0.054 A 
ATOM      3  C3  IND d   1      -0.013   3.490  -2.960  0.00  0.00    -0.031 A 
ATOM      4  C4  IND d   1      -1.345   1.841  -1.498  0.00  0.00     0.051 A 
ATOM      5  C5  IND d   1      -2.403   0.977  -1.540  0.00  0.00    -0.031 A 
ATOM      6  C6  IND d   1      -3.105   0.739  -2.704  0.00  0.00     0.015 A 
ATOM      7  C7  IND d   1      -2.766   1.350  -3.877  0.00  0.00    -0.016 A 
ATOM      8  C8  IND d   1      -1.697   2.234  -3.838  0.00  0.00    -0.047 A 
ATOM      9  C9  IND d   1      -1.007   2.511  -2.650  0.00  0.00    -0.096 A 
ATOM     10  HN1 IND d   1      -1.383   3.029  -5.652  0.00  0.00     0.298 HD
ENDROOT
TORSDOF 0
ENDMDL
