MODEL 1
REMARK minimizedAffinity -0.615906596
REMARK minimizedRMSD -1
REMARK  0 active torsions:
REMARK  status: ('A' for Active; 'I' for Inactive)
ROOT
ATOM      1  N1  IND d   1      -1.549   0.043   0.824  0.00  0.00    -0.196 N 
ATOM      2  C2  IND d   1      -0.843   0.381  -0.297  0.00  0.00     0.054 A 
ATOM      3  C3  IND d   1       0.289  -0.354  -0.379  0.00  0.00    -0.031 A 
ATOM      4  C4  IND d   1       1.131  -2.238   1.161  0.00  0.00     0.051 A 
ATOM      5  C5  IND d   1       0.846  -2.879   2.334  0.00  0.00    -0.031 A 
ATOM      6  C6  IND d   1      -0.276  -2.574   3.077  0.00  0.00     0.015 A 
ATOM      7  C7  IND d   1      -1.164  -1.621   2.668  0.00  0.00    -0.016 A 
ATOM      8  C8  IND d   1      -0.875  -0.963   1.481  0.00  0.00    -0.047 A 
ATOM      9  C9  IND d   1       0.284  -1.239   0.743  0.00  0.00    -0.096 A 
ATOM     10  HN1 IND d   1      -2.289   0.400   1.077  0.00  0.00     0.298 HD
ENDROOT
TORSDOF 0
ENDMDL
