MODEL 1
REMARK minimizedAffinity -3.72971225
REMARK minimizedRMSD -1
REMARK  0 active torsions:
REMARK  status: ('A' for Active; 'I' for Inactive)
ROOT
ATOM      1  C   UNL d   1       2.630  -1.416  -0.543  0.00  0.00     0.020 A 
ATOM      2  C1  UNL d   1       1.556  -2.193  -0.112  0.00  0.00     0.020 A 
ATOM      3  C2  UNL d   1       0.345  -1.585   0.225  0.00  0.00     0.034 A 
ATOM      4  C3  UNL d   1       0.205  -0.195   0.132  0.00  0.00     0.017 A 
ATOM      5  C4  UNL d   1       1.284   0.584  -0.301  0.00  0.00     0.017 A 
ATOM      6  C5  UNL d   1       2.494  -0.031  -0.637  0.00  0.00     0.034 A 
ATOM      7 Cl   UNL d   1       1.188   2.304  -0.441  0.00  0.00    -0.070 Cl
ATOM      8 Cl1  UNL d   1      -1.321   0.490   0.565  0.00  0.00    -0.070 Cl
ENDROOT
TORSDOF 0
ENDMDL
