MODEL 1
REMARK minimizedAffinity -4.83860874
REMARK minimizedRMSD -1
REMARK  0 active torsions:
REMARK  status: ('A' for Active; 'I' for Inactive)
ROOT
ATOM      1  C   UNL d   1       1.546  -2.408  -0.001  0.00  0.00     0.020 A 
ATOM      2  C1  UNL d   1       0.428  -1.707   0.449  0.00  0.00     0.020 A 
ATOM      3  C2  UNL d   1       0.447  -0.311   0.485  0.00  0.00     0.034 A 
ATOM      4  C3  UNL d   1       1.587   0.388   0.071  0.00  0.00     0.017 A 
ATOM      5  C4  UNL d   1       2.709  -0.317  -0.380  0.00  0.00     0.017 A 
ATOM      6  C5  UNL d   1       2.684  -1.715  -0.414  0.00  0.00     0.034 A 
ATOM      7 Cl   UNL d   1       4.151   0.476  -0.907  0.00  0.00    -0.070 Cl
ATOM      8 Cl1  UNL d   1       1.541   2.114   0.143  0.00  0.00    -0.070 Cl
ENDROOT
TORSDOF 0
ENDMDL
