MODEL 1
REMARK minimizedAffinity -2.57392883
REMARK minimizedRMSD -1
REMARK  0 active torsions:
REMARK  status: ('A' for Active; 'I' for Inactive)
ROOT
ATOM      1  C   UNL d   1       0.127   1.482   0.115  0.00  0.00     0.020 A 
ATOM      2  C1  UNL d   1       1.132   1.801   1.028  0.00  0.00     0.020 A 
ATOM      3  C2  UNL d   1       2.161   0.892   1.279  0.00  0.00     0.034 A 
ATOM      4  C3  UNL d   1       2.189  -0.341   0.617  0.00  0.00     0.017 A 
ATOM      5  C4  UNL d   1       1.181  -0.660  -0.300  0.00  0.00     0.017 A 
ATOM      6  C5  UNL d   1       0.152   0.254  -0.547  0.00  0.00     0.034 A 
ATOM      7 Cl   UNL d   1       1.148  -2.161  -1.156  0.00  0.00    -0.070 Cl
ATOM      8 Cl1  UNL d   1       3.493  -1.417   0.976  0.00  0.00    -0.070 Cl
ENDROOT
TORSDOF 0
ENDMDL
