MODEL 1
REMARK minimizedAffinity -3.65152192
REMARK minimizedRMSD -1
REMARK  0 active torsions:
REMARK  status: ('A' for Active; 'I' for Inactive)
ROOT
ATOM      1  C   UNL d   1      -0.185  -0.960  -1.058  0.00  0.00     0.020 A 
ATOM      2  C1  UNL d   1      -0.484   0.398  -0.957  0.00  0.00     0.020 A 
ATOM      3  C2  UNL d   1       0.322   1.235  -0.181  0.00  0.00     0.034 A 
ATOM      4  C3  UNL d   1       1.430   0.714   0.497  0.00  0.00     0.017 A 
ATOM      5  C4  UNL d   1       1.729  -0.650   0.395  0.00  0.00     0.017 A 
ATOM      6  C5  UNL d   1       0.919  -1.483  -0.384  0.00  0.00     0.034 A 
ATOM      7 Cl   UNL d   1       3.080  -1.365   1.201  0.00  0.00    -0.070 Cl
ATOM      8 Cl1  UNL d   1       2.383   1.806   1.437  0.00  0.00    -0.070 Cl
ENDROOT
TORSDOF 0
ENDMDL
