MODEL 1
REMARK minimizedAffinity -0.107724242
REMARK minimizedRMSD -1
REMARK  0 active torsions:
REMARK  status: ('A' for Active; 'I' for Inactive)
ROOT
ATOM      1  C   UNL d   1      -0.553   1.167  -0.782  0.00  0.00     0.020 A 
ATOM      2  C1  UNL d   1      -0.532  -0.204  -0.529  0.00  0.00     0.020 A 
ATOM      3  C2  UNL d   1       0.474  -0.751   0.271  0.00  0.00     0.034 A 
ATOM      4  C3  UNL d   1       1.462   0.074   0.821  0.00  0.00     0.017 A 
ATOM      5  C4  UNL d   1       1.440   1.450   0.566  0.00  0.00     0.017 A 
ATOM      6  C5  UNL d   1       0.430   1.992  -0.235  0.00  0.00     0.034 A 
ATOM      7 Cl   UNL d   1       2.625   2.531   1.210  0.00  0.00    -0.070 Cl
ATOM      8 Cl1  UNL d   1       2.675  -0.670   1.801  0.00  0.00    -0.070 Cl
ENDROOT
TORSDOF 0
ENDMDL
