MODEL 1
REMARK minimizedAffinity -3.60307431
REMARK minimizedRMSD -1
REMARK  0 active torsions:
REMARK  status: ('A' for Active; 'I' for Inactive)
ROOT
ATOM      1  C   UNL d   1      -0.875   0.367  -1.975  0.00  0.00     0.020 A 
ATOM      2  C1  UNL d   1      -0.600  -0.983  -2.193  0.00  0.00     0.020 A 
ATOM      3  C2  UNL d   1       0.490  -1.584  -1.561  0.00  0.00     0.034 A 
ATOM      4  C3  UNL d   1       1.310  -0.836  -0.708  0.00  0.00     0.017 A 
ATOM      5  C4  UNL d   1       1.033   0.518  -0.489  0.00  0.00     0.017 A 
ATOM      6  C5  UNL d   1      -0.060   1.115  -1.124  0.00  0.00     0.034 A 
ATOM      7 Cl   UNL d   1       1.998   1.505   0.550  0.00  0.00    -0.070 Cl
ATOM      8 Cl1  UNL d   1       2.640  -1.645   0.041  0.00  0.00    -0.070 Cl
ENDROOT
TORSDOF 0
ENDMDL
