MODEL 1
REMARK minimizedAffinity 0.69950527
REMARK minimizedRMSD -1
REMARK  0 active torsions:
REMARK  status: ('A' for Active; 'I' for Inactive)
ROOT
ATOM      1  C   UNL d   1       2.446  -0.879   1.057  0.00  0.00     0.020 A 
ATOM      2  C1  UNL d   1       2.658  -1.590  -0.124  0.00  0.00     0.020 A 
ATOM      3  C2  UNL d   1       1.638  -1.691  -1.071  0.00  0.00     0.034 A 
ATOM      4  C3  UNL d   1       0.400  -1.079  -0.841  0.00  0.00     0.017 A 
ATOM      5  C4  UNL d   1       0.188  -0.365   0.344  0.00  0.00     0.017 A 
ATOM      6  C5  UNL d   1       1.213  -0.268   1.290  0.00  0.00     0.034 A 
ATOM      7 Cl   UNL d   1      -1.312   0.416   0.700  0.00  0.00    -0.070 Cl
ATOM      8 Cl1  UNL d   1      -0.817  -1.244  -2.056  0.00  0.00    -0.070 Cl
ENDROOT
TORSDOF 0
ENDMDL
