MODEL 1
REMARK minimizedAffinity -4.1672864
REMARK minimizedRMSD -1
REMARK  0 active torsions:
REMARK  status: ('A' for Active; 'I' for Inactive)
ROOT
ATOM      1  C   UNL d   1       2.789  -0.315   1.287  0.00  0.00     0.020 A 
ATOM      2  C1  UNL d   1       3.117  -1.393   0.466  0.00  0.00     0.020 A 
ATOM      3  C2  UNL d   1       2.233  -1.804  -0.534  0.00  0.00     0.034 A 
ATOM      4  C3  UNL d   1       1.016  -1.136  -0.715  0.00  0.00     0.017 A 
ATOM      5  C4  UNL d   1       0.687  -0.054   0.110  0.00  0.00     0.017 A 
ATOM      6  C5  UNL d   1       1.576   0.353   1.109  0.00  0.00     0.034 A 
ATOM      7 Cl   UNL d   1      -0.795   0.819  -0.054  0.00  0.00    -0.070 Cl
ATOM      8 Cl1  UNL d   1      -0.029  -1.698  -1.971  0.00  0.00    -0.070 Cl
ENDROOT
TORSDOF 0
ENDMDL
