MODEL 1
REMARK minimizedAffinity -3.31837773
REMARK minimizedRMSD -1
REMARK  0 active torsions:
REMARK  status: ('A' for Active; 'I' for Inactive)
ROOT
ATOM      1  C   UNL d   1       2.750  -1.186   0.458  0.00  0.00     0.020 A 
ATOM      2  C1  UNL d   1       2.435  -0.113   1.292  0.00  0.00     0.020 A 
ATOM      3  C2  UNL d   1       1.198   0.524   1.172  0.00  0.00     0.034 A 
ATOM      4  C3  UNL d   1       0.272   0.089   0.218  0.00  0.00     0.017 A 
ATOM      5  C4  UNL d   1       0.589  -0.988  -0.618  0.00  0.00     0.017 A 
ATOM      6  C5  UNL d   1       1.829  -1.622  -0.495  0.00  0.00     0.034 A 
ATOM      7 Cl   UNL d   1      -0.503  -1.581  -1.820  0.00  0.00    -0.070 Cl
ATOM      8 Cl1  UNL d   1      -1.238   0.924   0.126  0.00  0.00    -0.070 Cl
ENDROOT
TORSDOF 0
ENDMDL
