MODEL 1
REMARK minimizedAffinity 2.29973221
REMARK minimizedRMSD -1
REMARK  0 active torsions:
REMARK  status: ('A' for Active; 'I' for Inactive)
ROOT
ATOM      1  C   UNL d   1      -2.091  -0.427  -3.018  0.00  0.00     0.020 A 
ATOM      2  C1  UNL d   1      -3.445  -0.262  -2.729  0.00  0.00     0.020 A 
ATOM      3  C2  UNL d   1      -3.849   0.039  -1.427  0.00  0.00     0.034 A 
ATOM      4  C3  UNL d   1      -2.898   0.175  -0.408  0.00  0.00     0.017 A 
ATOM      5  C4  UNL d   1      -1.539   0.009  -0.700  0.00  0.00     0.017 A 
ATOM      6  C5  UNL d   1      -1.140  -0.292  -2.006  0.00  0.00     0.034 A 
ATOM      7 Cl   UNL d   1      -0.308   0.162   0.504  0.00  0.00    -0.070 Cl
ATOM      8 Cl1  UNL d   1      -3.469   0.548   1.179  0.00  0.00    -0.070 Cl
ENDROOT
TORSDOF 0
ENDMDL
