MODEL 1
REMARK minimizedAffinity -2.25966191
REMARK minimizedRMSD -1
REMARK  0 active torsions:
REMARK  status: ('A' for Active; 'I' for Inactive)
ROOT
ATOM      1  C   UNL d   1       2.740  -0.188   1.097  0.00  0.00     0.020 A 
ATOM      2  C1  UNL d   1       1.389   0.133   1.224  0.00  0.00     0.020 A 
ATOM      3  C2  UNL d   1       0.462  -0.369   0.308  0.00  0.00     0.034 A 
ATOM      4  C3  UNL d   1       0.885  -1.196  -0.739  0.00  0.00     0.017 A 
ATOM      5  C4  UNL d   1       2.241  -1.518  -0.866  0.00  0.00     0.017 A 
ATOM      6  C5  UNL d   1       3.165  -1.012   0.054  0.00  0.00     0.034 A 
ATOM      7 Cl   UNL d   1       2.839  -2.531  -2.132  0.00  0.00    -0.070 Cl
ATOM      8 Cl1  UNL d   1      -0.315  -1.782  -1.835  0.00  0.00    -0.070 Cl
ENDROOT
TORSDOF 0
ENDMDL
