MODEL 1
REMARK minimizedAffinity -0.779652178
REMARK minimizedRMSD -1
REMARK  0 active torsions:
REMARK  status: ('A' for Active; 'I' for Inactive)
ROOT
ATOM      1  C   UNL d   1      -1.082   0.299  -0.711  0.00  0.00     0.020 A 
ATOM      2  C1  UNL d   1      -0.808  -1.048  -0.947  0.00  0.00     0.020 A 
ATOM      3  C2  UNL d   1       0.441  -1.576  -0.612  0.00  0.00     0.034 A 
ATOM      4  C3  UNL d   1       1.421  -0.756  -0.040  0.00  0.00     0.017 A 
ATOM      5  C4  UNL d   1       1.145   0.595   0.196  0.00  0.00     0.017 A 
ATOM      6  C5  UNL d   1      -0.107   1.118  -0.141  0.00  0.00     0.034 A 
ATOM      7 Cl   UNL d   1       2.304   1.669   0.898  0.00  0.00    -0.070 Cl
ATOM      8 Cl1  UNL d   1       2.943  -1.476   0.348  0.00  0.00    -0.070 Cl
ENDROOT
TORSDOF 0
ENDMDL
