MODEL 1
REMARK minimizedAffinity -0.973888338
REMARK minimizedRMSD -1
REMARK  0 active torsions:
REMARK  status: ('A' for Active; 'I' for Inactive)
ROOT
ATOM      1  C   UNL d   1       0.539  -0.318   0.287  0.00  0.00     0.020 A 
ATOM      2  C1  UNL d   1       1.022   0.983   0.156  0.00  0.00     0.020 A 
ATOM      3  C2  UNL d   1       0.149   2.067   0.279  0.00  0.00     0.034 A 
ATOM      4  C3  UNL d   1      -1.210   1.851   0.534  0.00  0.00     0.017 A 
ATOM      5  C4  UNL d   1      -1.693   0.544   0.666  0.00  0.00     0.017 A 
ATOM      6  C5  UNL d   1      -0.815  -0.537   0.542  0.00  0.00     0.034 A 
ATOM      7 Cl   UNL d   1      -3.357   0.198   0.981  0.00  0.00    -0.070 Cl
ATOM      8 Cl1  UNL d   1      -2.231   3.237   0.674  0.00  0.00    -0.070 Cl
ENDROOT
TORSDOF 0
ENDMDL
