MODEL 1
REMARK minimizedAffinity -0.686771572
REMARK minimizedRMSD -1
REMARK  0 active torsions:
REMARK  status: ('A' for Active; 'I' for Inactive)
ROOT
ATOM      1  C   UNL d   1       2.715  -0.431   1.601  0.00  0.00     0.020 A 
ATOM      2  C1  UNL d   1       1.450   0.155   1.560  0.00  0.00     0.020 A 
ATOM      3  C2  UNL d   1       0.643  -0.005   0.431  0.00  0.00     0.034 A 
ATOM      4  C3  UNL d   1       1.099  -0.753  -0.660  0.00  0.00     0.017 A 
ATOM      5  C4  UNL d   1       2.369  -1.341  -0.618  0.00  0.00     0.017 A 
ATOM      6  C5  UNL d   1       3.173  -1.177   0.515  0.00  0.00     0.034 A 
ATOM      7 Cl   UNL d   1       3.000  -2.278  -1.925  0.00  0.00    -0.070 Cl
ATOM      8 Cl1  UNL d   1       0.048  -0.910  -2.022  0.00  0.00    -0.070 Cl
ENDROOT
TORSDOF 0
ENDMDL
