MODEL 1
REMARK minimizedAffinity 15.9833584
REMARK minimizedRMSD -1
REMARK  1 active torsions:
REMARK  status: ('A' for Active; 'I' for Inactive)
REMARK    1  A    between atoms: N_2  and  C1_3 
ROOT
ATOM      1  C1  UNL d   1       0.352  -1.571  -2.581  0.00  0.00     0.143 A 
ATOM      2  C2  UNL d   1       0.912  -1.565  -3.863  0.00  0.00    -0.057 A 
ATOM      3  C3  UNL d   1       2.067  -2.301  -4.155  0.00  0.00     0.033 A 
ATOM      4  C4  UNL d   1       2.701  -3.035  -3.158  0.00  0.00    -0.042 A 
ATOM      5  C5  UNL d   1       2.176  -3.036  -1.871  0.00  0.00     0.033 A 
ATOM      6  C6  UNL d   1       1.019  -2.305  -1.587  0.00  0.00    -0.057 A 
ENDROOT
BRANCH   1   7
ATOM      7  N   UNL d   1      -0.738  -0.783  -2.204  0.00  0.00    -0.732 N 
ATOM      8  C   UNL d   1      -2.089  -1.189  -2.528  0.00  0.00     0.284 C 
ATOM      9  H3  UNL d   1      -0.633  -0.396  -1.269  0.00  0.00     0.395 HD
ENDBRANCH   1   7
TORSDOF 1
ENDMDL
