MODEL 1
REMARK minimizedAffinity 6.97245455
REMARK minimizedRMSD -1
REMARK  1 active torsions:
REMARK  status: ('A' for Active; 'I' for Inactive)
REMARK    1  A    between atoms: N_2  and  C1_3 
ROOT
ATOM      1  C1  UNL d   1       2.994  -0.967  -1.988  0.00  0.00     0.143 A 
ATOM      2  C2  UNL d   1       3.138   0.419  -1.857  0.00  0.00    -0.057 A 
ATOM      3  C3  UNL d   1       2.965   1.053  -0.621  0.00  0.00     0.033 A 
ATOM      4  C4  UNL d   1       2.615   0.314   0.504  0.00  0.00    -0.042 A 
ATOM      5  C5  UNL d   1       2.443  -1.062   0.392  0.00  0.00     0.033 A 
ATOM      6  C6  UNL d   1       2.624  -1.690  -0.843  0.00  0.00    -0.057 A 
ENDROOT
BRANCH   1   7
ATOM      7  N   UNL d   1       3.056  -1.643  -3.209  0.00  0.00    -0.732 N 
ATOM      8  C   UNL d   1       3.104  -3.089  -3.249  0.00  0.00     0.284 C 
ATOM      9  H3  UNL d   1       2.453  -1.228  -3.915  0.00  0.00     0.395 HD
ENDBRANCH   1   7
TORSDOF 1
ENDMDL
