MODEL 1
REMARK minimizedAffinity 10.6304226
REMARK minimizedRMSD -1
REMARK  1 active torsions:
REMARK  status: ('A' for Active; 'I' for Inactive)
REMARK    1  A    between atoms: N_2  and  C1_3 
ROOT
ATOM      1  C1  UNL d   1      -4.887   0.469  -0.684  0.00  0.00     0.143 A 
ATOM      2  C2  UNL d   1      -4.042   1.196   0.162  0.00  0.00    -0.057 A 
ATOM      3  C3  UNL d   1      -3.980   2.593   0.102  0.00  0.00     0.033 A 
ATOM      4  C4  UNL d   1      -4.744   3.289  -0.829  0.00  0.00    -0.042 A 
ATOM      5  C5  UNL d   1      -5.572   2.587  -1.698  0.00  0.00     0.033 A 
ATOM      6  C6  UNL d   1      -5.634   1.192  -1.628  0.00  0.00    -0.057 A 
ENDROOT
BRANCH   1   7
ATOM      7  N   UNL d   1      -4.919  -0.926  -0.740  0.00  0.00    -0.732 N 
ATOM      8  C   UNL d   1      -3.995  -1.652  -1.584  0.00  0.00     0.284 C 
ATOM      9  H3  UNL d   1      -5.066  -1.348   0.174  0.00  0.00     0.395 HD
ENDBRANCH   1   7
TORSDOF 1
ENDMDL
