MODEL 1
REMARK minimizedAffinity 6.42446518
REMARK minimizedRMSD -1
REMARK  1 active torsions:
REMARK  status: ('A' for Active; 'I' for Inactive)
REMARK    1  A    between atoms: N_2  and  C1_3 
ROOT
ATOM      1  C1  UNL d   1       3.474   1.745  -0.920  0.00  0.00     0.143 A 
ATOM      2  C2  UNL d   1       2.323   1.088  -1.366  0.00  0.00    -0.057 A 
ATOM      3  C3  UNL d   1       1.626   0.199  -0.537  0.00  0.00     0.033 A 
ATOM      4  C4  UNL d   1       2.088  -0.069   0.747  0.00  0.00    -0.042 A 
ATOM      5  C5  UNL d   1       3.244   0.554   1.203  0.00  0.00     0.033 A 
ATOM      6  C6  UNL d   1       3.931   1.445   0.373  0.00  0.00    -0.057 A 
ENDROOT
BRANCH   1   7
ATOM      7  N   UNL d   1       4.266   2.563  -1.730  0.00  0.00    -0.732 N 
ATOM      8  C   UNL d   1       5.437   3.221  -1.192  0.00  0.00     0.284 C 
ATOM      9  H3  UNL d   1       4.397   2.177  -2.662  0.00  0.00     0.395 HD
ENDBRANCH   1   7
TORSDOF 1
ENDMDL
