MODEL 1
REMARK minimizedAffinity 8.36129951
REMARK minimizedRMSD -1
REMARK  1 active torsions:
REMARK  status: ('A' for Active; 'I' for Inactive)
REMARK    1  A    between atoms: N_2  and  C1_3 
ROOT
ATOM      1  C1  UNL d   1       1.504  -2.326  -0.567  0.00  0.00     0.143 A 
ATOM      2  C2  UNL d   1       2.101  -2.147   0.686  0.00  0.00    -0.057 A 
ATOM      3  C3  UNL d   1       2.751  -0.952   1.017  0.00  0.00     0.033 A 
ATOM      4  C4  UNL d   1       2.841   0.078   0.086  0.00  0.00    -0.042 A 
ATOM      5  C5  UNL d   1       2.277  -0.087  -1.174  0.00  0.00     0.033 A 
ATOM      6  C6  UNL d   1       1.623  -1.280  -1.496  0.00  0.00    -0.057 A 
ENDROOT
BRANCH   1   7
ATOM      7  N   UNL d   1       0.928  -3.527  -0.990  0.00  0.00    -0.732 N 
ATOM      8  C   UNL d   1      -0.335  -3.972  -0.443  0.00  0.00     0.284 C 
ATOM      9  H3  UNL d   1       1.020  -3.668  -1.994  0.00  0.00     0.395 HD
ENDBRANCH   1   7
TORSDOF 1
ENDMDL
