MODEL 1
REMARK minimizedAffinity 7.34781456
REMARK minimizedRMSD -1
REMARK  1 active torsions:
REMARK  status: ('A' for Active; 'I' for Inactive)
REMARK    1  A    between atoms: N_2  and  C1_3 
ROOT
ATOM      1  C1  UNL d   1       4.927   1.388  -1.090  0.00  0.00     0.143 A 
ATOM      2  C2  UNL d   1       5.055   0.379  -0.129  0.00  0.00    -0.057 A 
ATOM      3  C3  UNL d   1       3.932  -0.266   0.401  0.00  0.00     0.033 A 
ATOM      4  C4  UNL d   1       2.654   0.106  -0.002  0.00  0.00    -0.042 A 
ATOM      5  C5  UNL d   1       2.501   1.123  -0.938  0.00  0.00     0.033 A 
ATOM      6  C6  UNL d   1       3.627   1.760  -1.468  0.00  0.00    -0.057 A 
ENDROOT
BRANCH   1   7
ATOM      7  N   UNL d   1       6.000   2.135  -1.582  0.00  0.00    -0.732 N 
ATOM      8  C   UNL d   1       6.000   3.579  -1.482  0.00  0.00     0.284 C 
ATOM      9  H3  UNL d   1       6.899   1.704  -1.378  0.00  0.00     0.395 HD
ENDBRANCH   1   7
TORSDOF 1
ENDMDL
