MODEL 1
REMARK minimizedAffinity 7.94826508
REMARK minimizedRMSD -1
REMARK  1 active torsions:
REMARK  status: ('A' for Active; 'I' for Inactive)
REMARK    1  A    between atoms: N_2  and  C1_3 
ROOT
ATOM      1  C1  UNL d   1       3.068   4.202   3.994  0.00  0.00     0.143 A 
ATOM      2  C2  UNL d   1       3.326   4.910   5.173  0.00  0.00    -0.057 A 
ATOM      3  C3  UNL d   1       2.380   5.788   5.715  0.00  0.00     0.033 A 
ATOM      4  C4  UNL d   1       1.165   5.996   5.069  0.00  0.00    -0.042 A 
ATOM      5  C5  UNL d   1       0.897   5.322   3.883  0.00  0.00     0.033 A 
ATOM      6  C6  UNL d   1       1.844   4.442   3.350  0.00  0.00    -0.057 A 
ENDROOT
BRANCH   1   7
ATOM      7  N   UNL d   1       4.007   3.390   3.353  0.00  0.00    -0.732 N 
ATOM      8  C   UNL d   1       3.664   2.688   2.134  0.00  0.00     0.284 C 
ATOM      9  H3  UNL d   1       4.937   3.801   3.348  0.00  0.00     0.395 HD
ENDBRANCH   1   7
TORSDOF 1
ENDMDL
