MODEL 1
REMARK minimizedAffinity 11.753479
REMARK minimizedRMSD -1
REMARK  1 active torsions:
REMARK  status: ('A' for Active; 'I' for Inactive)
REMARK    1  A    between atoms: N_2  and  C1_3 
ROOT
ATOM      1  C1  UNL d   1       1.617   3.385   5.032  0.00  0.00     0.143 A 
ATOM      2  C2  UNL d   1       2.573   3.608   4.036  0.00  0.00    -0.057 A 
ATOM      3  C3  UNL d   1       2.881   4.903   3.602  0.00  0.00     0.033 A 
ATOM      4  C4  UNL d   1       2.214   6.000   4.138  0.00  0.00    -0.042 A 
ATOM      5  C5  UNL d   1       1.242   5.800   5.112  0.00  0.00     0.033 A 
ATOM      6  C6  UNL d   1       0.944   4.505   5.546  0.00  0.00    -0.057 A 
ENDROOT
BRANCH   1   7
ATOM      7  N   UNL d   1       1.197   2.116   5.437  0.00  0.00    -0.732 N 
ATOM      8  C   UNL d   1       0.802   1.124   4.459  0.00  0.00     0.284 C 
ATOM      9  H3  UNL d   1       1.757   1.746   6.201  0.00  0.00     0.395 HD
ENDBRANCH   1   7
TORSDOF 1
ENDMDL
