MODEL 1
REMARK minimizedAffinity 9.00118256
REMARK minimizedRMSD -1
REMARK  1 active torsions:
REMARK  status: ('A' for Active; 'I' for Inactive)
REMARK    1  A    between atoms: N_2  and  C1_3 
ROOT
ATOM      1  C1  UNL d   1      -3.924  -0.177  -1.365  0.00  0.00     0.143 A 
ATOM      2  C2  UNL d   1      -2.978   0.506  -0.594  0.00  0.00    -0.057 A 
ATOM      3  C3  UNL d   1      -3.367   1.385   0.424  0.00  0.00     0.033 A 
ATOM      4  C4  UNL d   1      -4.716   1.620   0.669  0.00  0.00    -0.042 A 
ATOM      5  C5  UNL d   1      -5.675   0.972  -0.101  0.00  0.00     0.033 A 
ATOM      6  C6  UNL d   1      -5.279   0.090  -1.112  0.00  0.00    -0.057 A 
ENDROOT
BRANCH   1   7
ATOM      7  N   UNL d   1      -3.601  -0.988  -2.455  0.00  0.00    -0.732 N 
ATOM      8  C   UNL d   1      -2.553  -0.603  -3.375  0.00  0.00     0.284 C 
ATOM      9  H3  UNL d   1      -3.602  -1.977  -2.217  0.00  0.00     0.395 HD
ENDBRANCH   1   7
TORSDOF 1
ENDMDL
