MODEL 1
REMARK minimizedAffinity -6.1018877
REMARK minimizedRMSD -1
REMARK  0 active torsions:
REMARK  status: ('A' for Active; 'I' for Inactive)
ROOT
ATOM      1  O1  BZF d   1       2.636  -1.962   0.218  0.00  0.00    -0.204 OA
ATOM      2  C2  BZF d   1       3.707  -1.206   0.652  0.00  0.00     0.174 A 
ATOM      3  C3  BZF d   1       3.356   0.088   0.790  0.00  0.00    -0.012 A 
ATOM      4  C3A BZF d   1       1.954   0.130   0.506  0.00  0.00    -0.107 A 
ATOM      5  C4  BZF d   1       1.028   1.133   0.492  0.00  0.00     0.055 A 
ATOM      6  C5  BZF d   1      -0.243   0.854   0.101  0.00  0.00    -0.016 A 
ATOM      7  C6  BZF d   1      -0.621  -0.415  -0.287  0.00  0.00     0.022 A 
ATOM      8  C7  BZF d   1       0.261  -1.444  -0.285  0.00  0.00     0.029 A 
ATOM      9  C7A BZF d   1       1.538  -1.172   0.141  0.00  0.00     0.058 A 
ENDROOT
TORSDOF 0
ENDMDL
