MODEL 1
REMARK minimizedAffinity -5.17565346
REMARK minimizedRMSD -1
REMARK  0 active torsions:
REMARK  status: ('A' for Active; 'I' for Inactive)
ROOT
ATOM      1  O1  BZF d   1       0.566  -1.388  -0.284  0.00  0.00    -0.204 OA
ATOM      2  C2  BZF d   1      -0.416  -0.463   0.012  0.00  0.00     0.174 A 
ATOM      3  C3  BZF d   1       0.099   0.577   0.699  0.00  0.00    -0.012 A 
ATOM      4  C3A BZF d   1       1.506   0.328   0.762  0.00  0.00    -0.107 A 
ATOM      5  C4  BZF d   1       2.557   1.011   1.303  0.00  0.00     0.055 A 
ATOM      6  C5  BZF d   1       3.798   0.459   1.256  0.00  0.00    -0.016 A 
ATOM      7  C6  BZF d   1       4.022  -0.776   0.682  0.00  0.00     0.022 A 
ATOM      8  C7  BZF d   1       3.012  -1.489   0.128  0.00  0.00     0.029 A 
ATOM      9  C7A BZF d   1       1.762  -0.918   0.145  0.00  0.00     0.058 A 
ENDROOT
TORSDOF 0
ENDMDL
