MODEL 1
REMARK minimizedAffinity -0.146651909
REMARK minimizedRMSD -1
REMARK  0 active torsions:
REMARK  status: ('A' for Active; 'I' for Inactive)
ROOT
ATOM      1  O1  BZF d   1      -0.519   0.833   0.063  0.00  0.00    -0.204 OA
ATOM      2  C2  BZF d   1      -1.357  -0.238  -0.179  0.00  0.00     0.174 A 
ATOM      3  C3  BZF d   1      -0.644  -1.351  -0.450  0.00  0.00    -0.012 A 
ATOM      4  C3A BZF d   1       0.725  -0.971  -0.282  0.00  0.00    -0.107 A 
ATOM      5  C4  BZF d   1       1.907  -1.645  -0.395  0.00  0.00     0.055 A 
ATOM      6  C5  BZF d   1       3.073  -0.964  -0.237  0.00  0.00    -0.016 A 
ATOM      7  C6  BZF d   1       3.094   0.389   0.030  0.00  0.00     0.022 A 
ATOM      8  C7  BZF d   1       1.946   1.099   0.156  0.00  0.00     0.029 A 
ATOM      9  C7A BZF d   1       0.766   0.408   0.030  0.00  0.00     0.058 A 
ENDROOT
TORSDOF 0
ENDMDL
