MODEL 1
REMARK minimizedAffinity -3.7268846
REMARK minimizedRMSD -1
REMARK  0 active torsions:
REMARK  status: ('A' for Active; 'I' for Inactive)
ROOT
ATOM      1  O1  BZF d   1      -0.545  -1.137   0.116  0.00  0.00    -0.204 OA
ATOM      2  C2  BZF d   1      -1.377  -0.034   0.079  0.00  0.00     0.174 A 
ATOM      3  C3  BZF d   1      -0.674   1.101   0.270  0.00  0.00    -0.012 A 
ATOM      4  C3A BZF d   1       0.694   0.689   0.345  0.00  0.00    -0.107 A 
ATOM      5  C4  BZF d   1       1.870   1.363   0.511  0.00  0.00     0.055 A 
ATOM      6  C5  BZF d   1       3.027   0.658   0.614  0.00  0.00    -0.016 A 
ATOM      7  C6  BZF d   1       3.044  -0.720   0.561  0.00  0.00     0.022 A 
ATOM      8  C7  BZF d   1       1.904  -1.433   0.392  0.00  0.00     0.029 A 
ATOM      9  C7A BZF d   1       0.737  -0.722   0.255  0.00  0.00     0.058 A 
ENDROOT
TORSDOF 0
ENDMDL
