MODEL 1
REMARK minimizedAffinity -5.21189499
REMARK minimizedRMSD -1
REMARK  0 active torsions:
REMARK  status: ('A' for Active; 'I' for Inactive)
ROOT
ATOM      1  O1  BZF d   1       1.850   1.464   0.571  0.00  0.00    -0.204 OA
ATOM      2  C2  BZF d   1       3.164   1.126   0.828  0.00  0.00     0.174 A 
ATOM      3  C3  BZF d   1       3.323  -0.214   0.821  0.00  0.00    -0.012 A 
ATOM      4  C3A BZF d   1       2.046  -0.742   0.450  0.00  0.00    -0.107 A 
ATOM      5  C4  BZF d   1       1.575  -2.009   0.256  0.00  0.00     0.055 A 
ATOM      6  C5  BZF d   1       0.258  -2.188  -0.029  0.00  0.00    -0.016 A 
ATOM      7  C6  BZF d   1      -0.615  -1.124  -0.124  0.00  0.00     0.022 A 
ATOM      8  C7  BZF d   1      -0.193   0.152   0.055  0.00  0.00     0.029 A 
ATOM      9  C7A BZF d   1       1.144   0.338   0.311  0.00  0.00     0.058 A 
ENDROOT
TORSDOF 0
ENDMDL
