MODEL 1
REMARK minimizedAffinity -6.14987087
REMARK minimizedRMSD -1
REMARK  0 active torsions:
REMARK  status: ('A' for Active; 'I' for Inactive)
ROOT
ATOM      1  O1  BZF d   1       0.024  -0.938  -0.199  0.00  0.00    -0.204 OA
ATOM      2  C2  BZF d   1      -0.721   0.131  -0.657  0.00  0.00     0.174 A 
ATOM      3  C3  BZF d   1      -0.022   1.280  -0.558  0.00  0.00    -0.012 A 
ATOM      4  C3A BZF d   1       1.274   0.892  -0.090  0.00  0.00    -0.107 A 
ATOM      5  C4  BZF d   1       2.417   1.585   0.190  0.00  0.00     0.055 A 
ATOM      6  C5  BZF d   1       3.486   0.918   0.700  0.00  0.00    -0.016 A 
ATOM      7  C6  BZF d   1       3.444  -0.439   0.946  0.00  0.00     0.022 A 
ATOM      8  C7  BZF d   1       2.334  -1.170   0.680  0.00  0.00     0.029 A 
ATOM      9  C7A BZF d   1       1.264  -0.504   0.134  0.00  0.00     0.058 A 
ENDROOT
TORSDOF 0
ENDMDL
