MODEL 1
REMARK minimizedAffinity -5.38344669
REMARK minimizedRMSD -1
REMARK  0 active torsions:
REMARK  status: ('A' for Active; 'I' for Inactive)
ROOT
ATOM      1  O1  BZF d   1      -0.242   1.110  -0.042  0.00  0.00    -0.204 OA
ATOM      2  C2  BZF d   1      -1.224   0.142  -0.122  0.00  0.00     0.174 A 
ATOM      3  C3  BZF d   1      -0.697  -1.089   0.037  0.00  0.00    -0.012 A 
ATOM      4  C3A BZF d   1       0.689  -0.871   0.321  0.00  0.00    -0.107 A 
ATOM      5  C4  BZF d   1       1.735  -1.707   0.590  0.00  0.00     0.055 A 
ATOM      6  C5  BZF d   1       2.977  -1.180   0.750  0.00  0.00    -0.016 A 
ATOM      7  C6  BZF d   1       3.210   0.176   0.643  0.00  0.00     0.022 A 
ATOM      8  C7  BZF d   1       2.203   1.045   0.382  0.00  0.00     0.029 A 
ATOM      9  C7A BZF d   1       0.941   0.519   0.253  0.00  0.00     0.058 A 
ENDROOT
TORSDOF 0
ENDMDL
