MODEL 1
REMARK minimizedAffinity -6.06253242
REMARK minimizedRMSD -1
REMARK  0 active torsions:
REMARK  status: ('A' for Active; 'I' for Inactive)
ROOT
ATOM      1  O1  BZF d   1       0.269   1.078  -0.720  0.00  0.00    -0.204 OA
ATOM      2  C2  BZF d   1      -0.580   0.032  -1.028  0.00  0.00     0.174 A 
ATOM      3  C3  BZF d   1       0.031  -1.154  -0.827  0.00  0.00    -0.012 A 
ATOM      4  C3A BZF d   1       1.311  -0.830  -0.278  0.00  0.00    -0.107 A 
ATOM      5  C4  BZF d   1       2.369  -1.583   0.145  0.00  0.00     0.055 A 
ATOM      6  C5  BZF d   1       3.502  -0.957   0.560  0.00  0.00    -0.016 A 
ATOM      7  C6  BZF d   1       3.613   0.418   0.560  0.00  0.00     0.022 A 
ATOM      8  C7  BZF d   1       2.588   1.208   0.154  0.00  0.00     0.029 A 
ATOM      9  C7A BZF d   1       1.431   0.579  -0.234  0.00  0.00     0.058 A 
ENDROOT
TORSDOF 0
ENDMDL
