MODEL 1
REMARK minimizedAffinity -6.28614378
REMARK minimizedRMSD -1
REMARK  0 active torsions:
REMARK  status: ('A' for Active; 'I' for Inactive)
ROOT
ATOM      1  O1  BZF d   1       0.416   1.378  -0.660  0.00  0.00    -0.204 OA
ATOM      2  C2  BZF d   1      -0.466   0.328  -0.830  0.00  0.00     0.174 A 
ATOM      3  C3  BZF d   1       0.116  -0.844  -0.501  0.00  0.00    -0.012 A 
ATOM      4  C3A BZF d   1       1.414  -0.495  -0.011  0.00  0.00    -0.107 A 
ATOM      5  C4  BZF d   1       2.458  -1.223   0.482  0.00  0.00     0.055 A 
ATOM      6  C5  BZF d   1       3.614  -0.586   0.805  0.00  0.00    -0.016 A 
ATOM      7  C6  BZF d   1       3.762   0.776   0.643  0.00  0.00     0.022 A 
ATOM      8  C7  BZF d   1       2.753   1.541   0.161  0.00  0.00     0.029 A 
ATOM      9  C7A BZF d   1       1.572   0.905  -0.135  0.00  0.00     0.058 A 
ENDROOT
TORSDOF 0
ENDMDL
