MODEL 1
REMARK minimizedAffinity 7.38476706
REMARK minimizedRMSD -1
REMARK  0 active torsions:
REMARK  status: ('A' for Active; 'I' for Inactive)
ROOT
ATOM      1  O1  BZF d   1       0.964   0.458   0.173  0.00  0.00    -0.204 OA
ATOM      2  C2  BZF d   1      -0.289   1.022   0.317  0.00  0.00     0.174 A 
ATOM      3  C3  BZF d   1      -1.253   0.093   0.155  0.00  0.00    -0.012 A 
ATOM      4  C3A BZF d   1      -0.558  -1.146  -0.014  0.00  0.00    -0.107 A 
ATOM      5  C4  BZF d   1      -0.967  -2.435  -0.202  0.00  0.00     0.055 A 
ATOM      6  C5  BZF d   1      -0.034  -3.401  -0.406  0.00  0.00    -0.016 A 
ATOM      7  C6  BZF d   1       1.315  -3.114  -0.434  0.00  0.00     0.022 A 
ATOM      8  C7  BZF d   1       1.770  -1.851  -0.248  0.00  0.00     0.029 A 
ATOM      9  C7A BZF d   1       0.831  -0.877  -0.008  0.00  0.00     0.058 A 
ENDROOT
TORSDOF 0
ENDMDL
