MODEL 1
REMARK minimizedAffinity 0.951290131
REMARK minimizedRMSD -1
REMARK  0 active torsions:
REMARK  status: ('A' for Active; 'I' for Inactive)
ROOT
ATOM      1  O1  BZF d   1       2.612   1.787  -0.242  0.00  0.00    -0.204 OA
ATOM      2  C2  BZF d   1       3.933   1.888  -0.632  0.00  0.00     0.174 A 
ATOM      3  C3  BZF d   1       4.443   0.672  -0.914  0.00  0.00    -0.012 A 
ATOM      4  C3A BZF d   1       3.347  -0.237  -0.773  0.00  0.00    -0.107 A 
ATOM      5  C4  BZF d   1       3.220  -1.587  -0.937  0.00  0.00     0.055 A 
ATOM      6  C5  BZF d   1       2.031  -2.178  -0.650  0.00  0.00    -0.016 A 
ATOM      7  C6  BZF d   1       0.950  -1.452  -0.193  0.00  0.00     0.022 A 
ATOM      8  C7  BZF d   1       1.027  -0.110  -0.021  0.00  0.00     0.029 A 
ATOM      9  C7A BZF d   1       2.217   0.495  -0.341  0.00  0.00     0.058 A 
ENDROOT
TORSDOF 0
ENDMDL
