MODEL 1
REMARK minimizedAffinity 10.1239328
REMARK minimizedRMSD -1
REMARK  0 active torsions:
REMARK  status: ('A' for Active; 'I' for Inactive)
ROOT
ATOM      1  C   UNL d   1       3.885   1.545   0.421  0.00  0.00     0.023 A 
ATOM      2  C1  UNL d   1       2.937   1.414   1.436  0.00  0.00     0.003 A 
ATOM      3  C2  UNL d   1       1.698   0.831   1.164  0.00  0.00     0.048 A 
ATOM      4  C3  UNL d   1       1.413   0.380  -0.124  0.00  0.00     0.023 A 
ATOM      5  C4  UNL d   1       2.359   0.508  -1.143  0.00  0.00     0.048 A 
ATOM      6  C5  UNL d   1       3.597   1.092  -0.867  0.00  0.00     0.003 A 
ATOM      7  I   UNL d   1      -0.431  -0.487  -0.531  0.00  0.00    -0.146 I 
ENDROOT
TORSDOF 0
ENDMDL
