MODEL 1
REMARK minimizedAffinity 1.05460596
REMARK minimizedRMSD -1
REMARK  0 active torsions:
REMARK  status: ('A' for Active; 'I' for Inactive)
ROOT
ATOM      1  C   UNL d   1      -1.799  -1.253   4.532  0.00  0.00     0.023 A 
ATOM      2  C1  UNL d   1      -2.172  -0.469   3.440  0.00  0.00     0.003 A 
ATOM      3  C2  UNL d   1      -1.222  -0.100   2.486  0.00  0.00     0.048 A 
ATOM      4  C3  UNL d   1       0.101  -0.518   2.630  0.00  0.00     0.023 A 
ATOM      5  C4  UNL d   1       0.479  -1.303   3.721  0.00  0.00     0.048 A 
ATOM      6  C5  UNL d   1      -0.475  -1.669   4.672  0.00  0.00     0.003 A 
ATOM      7  I   UNL d   1       1.518   0.030   1.212  0.00  0.00    -0.146 I 
ENDROOT
TORSDOF 0
ENDMDL
