MODEL 1
REMARK minimizedAffinity 8.12746811
REMARK minimizedRMSD -1
REMARK  0 active torsions:
REMARK  status: ('A' for Active; 'I' for Inactive)
ROOT
ATOM      1  C   UNL d   1      -2.829  -0.454  -0.382  0.00  0.00     0.023 A 
ATOM      2  C1  UNL d   1      -1.850  -1.112  -1.127  0.00  0.00     0.003 A 
ATOM      3  C2  UNL d   1      -0.503  -0.983  -0.780  0.00  0.00     0.048 A 
ATOM      4  C3  UNL d   1      -0.143  -0.197   0.313  0.00  0.00     0.023 A 
ATOM      5  C4  UNL d   1      -1.119   0.462   1.062  0.00  0.00     0.048 A 
ATOM      6  C5  UNL d   1      -2.464   0.332   0.711  0.00  0.00     0.003 A 
ATOM      7  I   UNL d   1       1.861  -0.005   0.832  0.00  0.00    -0.146 I 
ENDROOT
TORSDOF 0
ENDMDL
