MODEL 1
REMARK minimizedAffinity 6.25628185
REMARK minimizedRMSD -1
REMARK  0 active torsions:
REMARK  status: ('A' for Active; 'I' for Inactive)
ROOT
ATOM      1  C   UNL d   1      -2.906   0.238  -0.026  0.00  0.00     0.023 A 
ATOM      2  C1  UNL d   1      -2.036  -0.352  -0.944  0.00  0.00     0.003 A 
ATOM      3  C2  UNL d   1      -0.669  -0.419  -0.669  0.00  0.00     0.048 A 
ATOM      4  C3  UNL d   1      -0.178   0.105   0.526  0.00  0.00     0.023 A 
ATOM      5  C4  UNL d   1      -1.044   0.695   1.448  0.00  0.00     0.048 A 
ATOM      6  C5  UNL d   1      -2.410   0.761   1.168  0.00  0.00     0.003 A 
ATOM      7  I   UNL d   1       1.857   0.006   0.938  0.00  0.00    -0.146 I 
ENDROOT
TORSDOF 0
ENDMDL
