MODEL 1
REMARK minimizedAffinity 1.22441137
REMARK minimizedRMSD -1
REMARK  0 active torsions:
REMARK  status: ('A' for Active; 'I' for Inactive)
ROOT
ATOM      1  C   UNL d   1      -1.078   0.450   1.206  0.00  0.00     0.023 A 
ATOM      2  C1  UNL d   1      -1.979   0.396   2.270  0.00  0.00     0.003 A 
ATOM      3  C2  UNL d   1      -1.618  -0.237   3.461  0.00  0.00     0.048 A 
ATOM      4  C3  UNL d   1      -0.354  -0.813   3.581  0.00  0.00     0.023 A 
ATOM      5  C4  UNL d   1       0.551  -0.761   2.520  0.00  0.00     0.048 A 
ATOM      6  C5  UNL d   1       0.185  -0.128   1.331  0.00  0.00     0.003 A 
ATOM      7  I   UNL d   1       0.186  -1.756   5.353  0.00  0.00    -0.146 I 
ENDROOT
TORSDOF 0
ENDMDL
