MODEL 1
REMARK minimizedAffinity 1.16440344
REMARK minimizedRMSD -1
REMARK  0 active torsions:
REMARK  status: ('A' for Active; 'I' for Inactive)
ROOT
ATOM      1  C   UNL d   1      -2.345  -0.989   3.748  0.00  0.00     0.023 A 
ATOM      2  C1  UNL d   1      -1.095  -1.421   4.191  0.00  0.00     0.003 A 
ATOM      3  C2  UNL d   1       0.056  -1.082   3.477  0.00  0.00     0.048 A 
ATOM      4  C3  UNL d   1      -0.050  -0.309   2.321  0.00  0.00     0.023 A 
ATOM      5  C4  UNL d   1      -1.298   0.127   1.875  0.00  0.00     0.048 A 
ATOM      6  C5  UNL d   1      -2.446  -0.215   2.591  0.00  0.00     0.003 A 
ATOM      7  I   UNL d   1       1.662   0.198   1.257  0.00  0.00    -0.146 I 
ENDROOT
TORSDOF 0
ENDMDL
