MODEL 1
REMARK minimizedAffinity 2.19783688
REMARK minimizedRMSD -1
REMARK  0 active torsions:
REMARK  status: ('A' for Active; 'I' for Inactive)
ROOT
ATOM      1  C   UNL d   1      -1.151  -0.384   3.973  0.00  0.00     0.023 A 
ATOM      2  C1  UNL d   1      -1.551   0.248   2.795  0.00  0.00     0.003 A 
ATOM      3  C2  UNL d   1      -0.659   0.366   1.727  0.00  0.00     0.048 A 
ATOM      4  C3  UNL d   1       0.631  -0.150   1.843  0.00  0.00     0.023 A 
ATOM      5  C4  UNL d   1       1.036  -0.784   3.020  0.00  0.00     0.048 A 
ATOM      6  C5  UNL d   1       0.141  -0.899   4.085  0.00  0.00     0.003 A 
ATOM      7  I   UNL d   1       1.960   0.024   0.255  0.00  0.00    -0.146 I 
ENDROOT
TORSDOF 0
ENDMDL
