MODEL 1
REMARK minimizedAffinity 3.42164016
REMARK minimizedRMSD -1
REMARK  0 active torsions:
REMARK  status: ('A' for Active; 'I' for Inactive)
ROOT
ATOM      1  C   UNL d   1      -1.089   0.338  -0.528  0.00  0.00     0.023 A 
ATOM      2  C1  UNL d   1      -1.841   0.258   0.644  0.00  0.00     0.003 A 
ATOM      3  C2  UNL d   1      -1.242  -0.164   1.832  0.00  0.00     0.048 A 
ATOM      4  C3  UNL d   1       0.110  -0.504   1.842  0.00  0.00     0.023 A 
ATOM      5  C4  UNL d   1       0.867  -0.426   0.672  0.00  0.00     0.048 A 
ATOM      6  C5  UNL d   1       0.263  -0.004  -0.514  0.00  0.00     0.003 A 
ATOM      7  I   UNL d   1       1.004  -1.133   3.610  0.00  0.00    -0.146 I 
ENDROOT
TORSDOF 0
ENDMDL
