MODEL 1
REMARK minimizedAffinity 4.2463665
REMARK minimizedRMSD -1
REMARK  0 active torsions:
REMARK  status: ('A' for Active; 'I' for Inactive)
ROOT
ATOM      1  C   UNL d   1       0.863  -0.696   4.000  0.00  0.00     0.023 A 
ATOM      2  C1  UNL d   1      -0.512  -0.551   4.185  0.00  0.00     0.003 A 
ATOM      3  C2  UNL d   1      -1.325  -0.165   3.117  0.00  0.00     0.048 A 
ATOM      4  C3  UNL d   1      -0.756   0.073   1.866  0.00  0.00     0.023 A 
ATOM      5  C4  UNL d   1       0.619  -0.072   1.676  0.00  0.00     0.048 A 
ATOM      6  C5  UNL d   1       1.427  -0.457   2.747  0.00  0.00     0.003 A 
ATOM      7  I   UNL d   1      -1.964   0.647   0.275  0.00  0.00    -0.146 I 
ENDROOT
TORSDOF 0
ENDMDL
