MODEL 1
REMARK minimizedAffinity 7.43138266
REMARK minimizedRMSD -1
REMARK  0 active torsions:
REMARK  status: ('A' for Active; 'I' for Inactive)
ROOT
ATOM      1  C   UNL d   1       1.144  -0.400  -5.867  0.00  0.00     0.023 A 
ATOM      2  C1  UNL d   1      -0.045  -1.115  -5.725  0.00  0.00     0.003 A 
ATOM      3  C2  UNL d   1      -0.854  -0.911  -4.606  0.00  0.00     0.048 A 
ATOM      4  C3  UNL d   1      -0.470   0.011  -3.633  0.00  0.00     0.023 A 
ATOM      5  C4  UNL d   1       0.719   0.730  -3.772  0.00  0.00     0.048 A 
ATOM      6  C5  UNL d   1       1.525   0.522  -4.892  0.00  0.00     0.003 A 
ATOM      7  I   UNL d   1      -1.673   0.316  -1.966  0.00  0.00    -0.146 I 
ENDROOT
TORSDOF 0
ENDMDL
