MODEL 1
REMARK minimizedAffinity -0.549542546
REMARK minimizedRMSD -1
REMARK  0 active torsions:
REMARK  status: ('A' for Active; 'I' for Inactive)
ROOT
ATOM      1  C   UNL d   1      -2.297  -0.224   2.905  0.00  0.00     0.023 A 
ATOM      2  C1  UNL d   1      -2.206   0.265   1.602  0.00  0.00     0.003 A 
ATOM      3  C2  UNL d   1      -0.962   0.353   0.973  0.00  0.00     0.048 A 
ATOM      4  C3  UNL d   1       0.186  -0.052   1.652  0.00  0.00     0.023 A 
ATOM      5  C4  UNL d   1       0.100  -0.543   2.956  0.00  0.00     0.048 A 
ATOM      6  C5  UNL d   1      -1.146  -0.627   3.581  0.00  0.00     0.003 A 
ATOM      7  I   UNL d   1       2.039   0.077   0.718  0.00  0.00    -0.146 I 
ENDROOT
TORSDOF 0
ENDMDL
