MODEL 1
REMARK minimizedAffinity 6.74321938
REMARK minimizedRMSD -1
REMARK  2 active torsions:
REMARK  status: ('A' for Active; 'I' for Inactive)
REMARK    1  A    between atoms: C2'_3  and  C1'_4 
REMARK    2  A    between atoms: C1'_4  and  C1_5 
ROOT
ATOM      1  C1  I4B d   1      -0.462  -1.707   1.175  0.00  0.00    -0.075 A 
ATOM      2  C2  I4B d   1      -0.568  -2.963   0.632  0.00  0.00     0.003 A 
ATOM      3  C3  I4B d   1       0.593  -3.666   0.228  0.00  0.00     0.002 A 
ATOM      4  C4  I4B d   1       1.827  -3.058   0.338  0.00  0.00    -0.004 A 
ATOM      5  C5  I4B d   1       1.935  -1.794   0.910  0.00  0.00     0.002 A 
ATOM      6  C6  I4B d   1       0.784  -1.119   1.343  0.00  0.00     0.003 A 
ENDROOT
BRANCH   1   7
ATOM      7  C1' I4B d   1      -1.712  -0.981   1.560  0.00  0.00     0.060 C 
BRANCH   7   8
ATOM      8  C2' I4B d   1      -1.657   0.402   0.943  0.00  0.00    -0.013 C 
ATOM      9  C4' I4B d   1      -1.946   0.352  -0.534  0.00  0.00     0.013 C 
ATOM     10  C3' I4B d   1      -2.650   1.268   1.660  0.00  0.00     0.013 C 
ENDBRANCH   7   8
ENDBRANCH   1   7
TORSDOF 2
ENDMDL
