MODEL 1
REMARK minimizedAffinity 4.76360464
REMARK minimizedRMSD -1
REMARK  2 active torsions:
REMARK  status: ('A' for Active; 'I' for Inactive)
REMARK    1  A    between atoms: C2'_3  and  C1'_4 
REMARK    2  A    between atoms: C1'_4  and  C1_5 
ROOT
ATOM      1  C1  I4B d   1       0.120  -0.183   1.725  0.00  0.00    -0.075 A 
ATOM      2  C2  I4B d   1       1.440  -0.220   1.349  0.00  0.00     0.003 A 
ATOM      3  C3  I4B d   1       1.846  -1.013   0.249  0.00  0.00     0.002 A 
ATOM      4  C4  I4B d   1       0.914  -1.788  -0.411  0.00  0.00    -0.004 A 
ATOM      5  C5  I4B d   1      -0.427  -1.732  -0.043  0.00  0.00     0.002 A 
ATOM      6  C6  I4B d   1      -0.829  -0.915   1.024  0.00  0.00     0.003 A 
ENDROOT
BRANCH   1   7
ATOM      7  C1' I4B d   1      -0.269   0.640   2.912  0.00  0.00     0.060 C 
BRANCH   7   8
ATOM      8  C2' I4B d   1      -0.307  -0.274   4.121  0.00  0.00    -0.013 C 
ATOM      9  C4' I4B d   1       1.070  -0.770   4.473  0.00  0.00     0.013 C 
ATOM     10  C3' I4B d   1      -0.916   0.490   5.259  0.00  0.00     0.013 C 
ENDBRANCH   7   8
ENDBRANCH   1   7
TORSDOF 2
ENDMDL
