MODEL 1
REMARK minimizedAffinity 5.28239965
REMARK minimizedRMSD -1
REMARK  2 active torsions:
REMARK  status: ('A' for Active; 'I' for Inactive)
REMARK    1  A    between atoms: C2'_3  and  C1'_4 
REMARK    2  A    between atoms: C1'_4  and  C1_5 
ROOT
ATOM      1  C1  I4B d   1       3.030  -0.779   0.430  0.00  0.00    -0.075 A 
ATOM      2  C2  I4B d   1       3.338  -0.226   1.648  0.00  0.00     0.003 A 
ATOM      3  C3  I4B d   1       4.650  -0.334   2.169  0.00  0.00     0.002 A 
ATOM      4  C4  I4B d   1       5.604  -1.042   1.466  0.00  0.00    -0.004 A 
ATOM      5  C5  I4B d   1       5.296  -1.582   0.221  0.00  0.00     0.002 A 
ATOM      6  C6  I4B d   1       4.004  -1.439  -0.307  0.00  0.00     0.003 A 
ENDROOT
BRANCH   1   7
ATOM      7  C1' I4B d   1       1.626  -0.675  -0.075  0.00  0.00     0.060 C 
BRANCH   7   8
ATOM      8  C2' I4B d   1       0.788  -1.700   0.662  0.00  0.00    -0.013 C 
ATOM      9  C4' I4B d   1      -0.645  -1.250   0.780  0.00  0.00     0.013 C 
ATOM     10  C3' I4B d   1       0.887  -2.999  -0.081  0.00  0.00     0.013 C 
ENDBRANCH   7   8
ENDBRANCH   1   7
TORSDOF 2
ENDMDL
