MODEL 1
REMARK minimizedAffinity 0.411625266
REMARK minimizedRMSD -1
REMARK  2 active torsions:
REMARK  status: ('A' for Active; 'I' for Inactive)
REMARK    1  A    between atoms: C2'_3  and  C1'_4 
REMARK    2  A    between atoms: C1'_4  and  C1_5 
ROOT
ATOM      1  C1  I4B d   1       1.706  -1.356   0.371  0.00  0.00    -0.075 A 
ATOM      2  C2  I4B d   1       1.897  -2.684   0.077  0.00  0.00     0.003 A 
ATOM      3  C3  I4B d   1       0.795  -3.573   0.052  0.00  0.00     0.002 A 
ATOM      4  C4  I4B d   1      -0.463  -3.107   0.374  0.00  0.00    -0.004 A 
ATOM      5  C5  I4B d   1      -0.658  -1.756   0.649  0.00  0.00     0.002 A 
ATOM      6  C6  I4B d   1       0.431  -0.873   0.635  0.00  0.00     0.003 A 
ENDROOT
BRANCH   1   7
ATOM      7  C1' I4B d   1       2.896  -0.451   0.421  0.00  0.00     0.060 C 
BRANCH   7   8
ATOM      8  C2' I4B d   1       3.186  -0.141   1.875  0.00  0.00    -0.013 C 
ATOM      9  C4' I4B d   1       4.580  -0.565   2.256  0.00  0.00     0.013 C 
ATOM     10  C3' I4B d   1       2.993   1.332   2.081  0.00  0.00     0.013 C 
ENDBRANCH   7   8
ENDBRANCH   1   7
TORSDOF 2
ENDMDL
