MODEL 1
REMARK minimizedAffinity 6.8771596
REMARK minimizedRMSD -1
REMARK  2 active torsions:
REMARK  status: ('A' for Active; 'I' for Inactive)
REMARK    1  A    between atoms: C2'_3  and  C1'_4 
REMARK    2  A    between atoms: C1'_4  and  C1_5 
ROOT
ATOM      1  C1  I4B d   1       1.194  -2.377   0.023  0.00  0.00    -0.075 A 
ATOM      2  C2  I4B d   1      -0.161  -2.158   0.007  0.00  0.00     0.003 A 
ATOM      3  C3  I4B d   1      -0.713  -1.054   0.700  0.00  0.00     0.002 A 
ATOM      4  C4  I4B d   1       0.115  -0.228   1.433  0.00  0.00    -0.004 A 
ATOM      5  C5  I4B d   1       1.491  -0.438   1.430  0.00  0.00     0.002 A 
ATOM      6  C6  I4B d   1       2.036  -1.512   0.710  0.00  0.00     0.003 A 
ENDROOT
BRANCH   1   7
ATOM      7  C1' I4B d   1       1.740  -3.571  -0.693  0.00  0.00     0.060 C 
BRANCH   7   8
ATOM      8  C2' I4B d   1       3.020  -3.987   0.002  0.00  0.00    -0.013 C 
ATOM      9  C4' I4B d   1       3.605  -5.225  -0.626  0.00  0.00     0.013 C 
ATOM     10  C3' I4B d   1       3.981  -2.838  -0.070  0.00  0.00     0.013 C 
ENDBRANCH   7   8
ENDBRANCH   1   7
TORSDOF 2
ENDMDL
