MODEL 1
REMARK minimizedAffinity -0.442283571
REMARK minimizedRMSD -1
REMARK  2 active torsions:
REMARK  status: ('A' for Active; 'I' for Inactive)
REMARK    1  A    between atoms: C2'_3  and  C1'_4 
REMARK    2  A    between atoms: C1'_4  and  C1_5 
ROOT
ATOM      1  C1  I4B d   1       1.006  -1.932  -0.137  0.00  0.00    -0.075 A 
ATOM      2  C2  I4B d   1       1.434  -0.790   0.492  0.00  0.00     0.003 A 
ATOM      3  C3  I4B d   1       0.566  -0.087   1.362  0.00  0.00     0.002 A 
ATOM      4  C4  I4B d   1      -0.730  -0.530   1.533  0.00  0.00    -0.004 A 
ATOM      5  C5  I4B d   1      -1.155  -1.701   0.912  0.00  0.00     0.002 A 
ATOM      6  C6  I4B d   1      -0.279  -2.413   0.081  0.00  0.00     0.003 A 
ENDROOT
BRANCH   1   7
ATOM      7  C1' I4B d   1       1.938  -2.631  -1.075  0.00  0.00     0.060 C 
BRANCH   7   8
ATOM      8  C2' I4B d   1       3.186  -3.003  -0.301  0.00  0.00    -0.013 C 
ATOM      9  C4' I4B d   1       3.810  -4.262  -0.844  0.00  0.00     0.013 C 
ATOM     10  C3' I4B d   1       4.141  -1.849  -0.377  0.00  0.00     0.013 C 
ENDBRANCH   7   8
ENDBRANCH   1   7
TORSDOF 2
ENDMDL
