MODEL 1
REMARK minimizedAffinity 0.735524178
REMARK minimizedRMSD -1
REMARK  2 active torsions:
REMARK  status: ('A' for Active; 'I' for Inactive)
REMARK    1  A    between atoms: C2'_3  and  C1'_4 
REMARK    2  A    between atoms: C1'_4  and  C1_5 
ROOT
ATOM      1  C1  I4B d   1      -2.286  -2.222   0.779  0.00  0.00    -0.075 A 
ATOM      2  C2  I4B d   1      -1.687  -3.388   0.371  0.00  0.00     0.003 A 
ATOM      3  C3  I4B d   1      -0.322  -3.394  -0.006  0.00  0.00     0.002 A 
ATOM      4  C4  I4B d   1       0.388  -2.211  -0.008  0.00  0.00    -0.004 A 
ATOM      5  C5  I4B d   1      -0.214  -1.034   0.428  0.00  0.00     0.002 A 
ATOM      6  C6  I4B d   1      -1.556  -1.041   0.836  0.00  0.00     0.003 A 
ENDROOT
BRANCH   1   7
ATOM      7  C1' I4B d   1      -3.737  -2.245   1.139  0.00  0.00     0.060 C 
BRANCH   7   8
ATOM      8  C2' I4B d   1      -3.951  -3.355   2.148  0.00  0.00    -0.013 C 
ATOM      9  C4' I4B d   1      -4.541  -2.823   3.427  0.00  0.00     0.013 C 
ATOM     10  C3' I4B d   1      -4.848  -4.381   1.523  0.00  0.00     0.013 C 
ENDBRANCH   7   8
ENDBRANCH   1   7
TORSDOF 2
ENDMDL
