MODEL 1
REMARK minimizedAffinity -0.54223752
REMARK minimizedRMSD -1
REMARK  2 active torsions:
REMARK  status: ('A' for Active; 'I' for Inactive)
REMARK    1  A    between atoms: C2'_3  and  C1'_4 
REMARK    2  A    between atoms: C1'_4  and  C1_5 
ROOT
ATOM      1  C1  I4B d   1      -1.238   0.124   1.308  0.00  0.00    -0.075 A 
ATOM      2  C2  I4B d   1      -1.447   1.212   2.119  0.00  0.00     0.003 A 
ATOM      3  C3  I4B d   1      -2.590   2.028   1.936  0.00  0.00     0.002 A 
ATOM      4  C4  I4B d   1      -3.465   1.750   0.905  0.00  0.00    -0.004 A 
ATOM      5  C5  I4B d   1      -3.263   0.633   0.099  0.00  0.00     0.002 A 
ATOM      6  C6  I4B d   1      -2.149  -0.192   0.309  0.00  0.00     0.003 A 
ENDROOT
BRANCH   1   7
ATOM      7  C1' I4B d   1      -0.003  -0.696   1.509  0.00  0.00     0.060 C 
BRANCH   7   8
ATOM      8  C2' I4B d   1       0.305  -1.402   0.204  0.00  0.00    -0.013 C 
ATOM      9  C4' I4B d   1       1.721  -1.138  -0.237  0.00  0.00     0.013 C 
ATOM     10  C3' I4B d   1       0.065  -2.869   0.402  0.00  0.00     0.013 C 
ENDBRANCH   7   8
ENDBRANCH   1   7
TORSDOF 2
ENDMDL
