MODEL 1
REMARK minimizedAffinity 7.82213449
REMARK minimizedRMSD -1
REMARK  2 active torsions:
REMARK  status: ('A' for Active; 'I' for Inactive)
REMARK    1  A    between atoms: C2'_3  and  C1'_4 
REMARK    2  A    between atoms: C1'_4  and  C1_5 
ROOT
ATOM      1  C1  I4B d   1       0.393  -1.910   0.820  0.00  0.00    -0.075 A 
ATOM      2  C2  I4B d   1       1.592  -1.248   0.729  0.00  0.00     0.003 A 
ATOM      3  C3  I4B d   1       2.674  -1.826   0.023  0.00  0.00     0.002 A 
ATOM      4  C4  I4B d   1       2.532  -3.082  -0.529  0.00  0.00    -0.004 A 
ATOM      5  C5  I4B d   1       1.309  -3.743  -0.456  0.00  0.00     0.002 A 
ATOM      6  C6  I4B d   1       0.228  -3.148   0.213  0.00  0.00     0.003 A 
ENDROOT
BRANCH   1   7
ATOM      7  C1' I4B d   1      -0.719  -1.285   1.602  0.00  0.00     0.060 C 
BRANCH   7   8
ATOM      8  C2' I4B d   1      -0.167  -0.058   2.298  0.00  0.00    -0.013 C 
ATOM      9  C4' I4B d   1      -1.061   1.136   2.087  0.00  0.00     0.013 C 
ATOM     10  C3' I4B d   1      -0.025  -0.377   3.756  0.00  0.00     0.013 C 
ENDBRANCH   7   8
ENDBRANCH   1   7
TORSDOF 2
ENDMDL
