MODEL 1
REMARK minimizedAffinity 0.737006247
REMARK minimizedRMSD -1
REMARK  2 active torsions:
REMARK  status: ('A' for Active; 'I' for Inactive)
REMARK    1  A    between atoms: C2'_3  and  C1'_4 
REMARK    2  A    between atoms: C1'_4  and  C1_5 
ROOT
ATOM      1  C1  I4B d   1       1.673  -2.923  -0.337  0.00  0.00    -0.075 A 
ATOM      2  C2  I4B d   1       0.476  -3.261   0.244  0.00  0.00     0.003 A 
ATOM      3  C3  I4B d   1      -0.288  -2.282   0.924  0.00  0.00     0.002 A 
ATOM      4  C4  I4B d   1       0.204  -0.998   1.043  0.00  0.00    -0.004 A 
ATOM      5  C5  I4B d   1       1.406  -0.651   0.433  0.00  0.00     0.002 A 
ATOM      6  C6  I4B d   1       2.140  -1.616  -0.272  0.00  0.00     0.003 A 
ENDROOT
BRANCH   1   7
ATOM      7  C1' I4B d   1       2.470  -3.989  -1.020  0.00  0.00     0.060 C 
BRANCH   7   8
ATOM      8  C2' I4B d   1       3.680  -4.290  -0.160  0.00  0.00    -0.013 C 
ATOM      9  C4' I4B d   1       4.184  -5.689  -0.399  0.00  0.00     0.013 C 
ATOM     10  C3' I4B d   1       4.736  -3.273  -0.475  0.00  0.00     0.013 C 
ENDBRANCH   7   8
ENDBRANCH   1   7
TORSDOF 2
ENDMDL
