MODEL 1
REMARK minimizedAffinity 6.56490517
REMARK minimizedRMSD -1
REMARK  2 active torsions:
REMARK  status: ('A' for Active; 'I' for Inactive)
REMARK    1  A    between atoms: C2'_3  and  C1'_4 
REMARK    2  A    between atoms: C1'_4  and  C1_5 
ROOT
ATOM      1  C1  I4B d   1       1.988  -3.017  -0.383  0.00  0.00    -0.075 A 
ATOM      2  C2  I4B d   1       0.707  -3.377  -0.047  0.00  0.00     0.003 A 
ATOM      3  C3  I4B d   1      -0.147  -2.452   0.601  0.00  0.00     0.002 A 
ATOM      4  C4  I4B d   1       0.334  -1.203   0.938  0.00  0.00    -0.004 A 
ATOM      5  C5  I4B d   1       1.626  -0.832   0.576  0.00  0.00     0.002 A 
ATOM      6  C6  I4B d   1       2.454  -1.740  -0.099  0.00  0.00     0.003 A 
ENDROOT
BRANCH   1   7
ATOM      7  C1' I4B d   1       2.873  -4.029  -1.037  0.00  0.00     0.060 C 
BRANCH   7   8
ATOM      8  C2' I4B d   1       4.035  -4.305  -0.104  0.00  0.00    -0.013 C 
ATOM      9  C4' I4B d   1       4.276  -5.785   0.043  0.00  0.00     0.013 C 
ATOM     10  C3' I4B d   1       5.245  -3.612  -0.655  0.00  0.00     0.013 C 
ENDBRANCH   7   8
ENDBRANCH   1   7
TORSDOF 2
ENDMDL
