MODEL 1
REMARK minimizedAffinity 6.14591074
REMARK minimizedRMSD -1
REMARK  2 active torsions:
REMARK  status: ('A' for Active; 'I' for Inactive)
REMARK    1  A    between atoms: C2'_3  and  C1'_4 
REMARK    2  A    between atoms: C1'_4  and  C1_5 
ROOT
ATOM      1  C1  I4B d   1      -5.143  -2.985   4.465  0.00  0.00    -0.075 A 
ATOM      2  C2  I4B d   1      -5.644  -4.262   4.487  0.00  0.00     0.003 A 
ATOM      3  C3  I4B d   1      -5.824  -4.978   3.278  0.00  0.00     0.002 A 
ATOM      4  C4  I4B d   1      -5.540  -4.364   2.076  0.00  0.00    -0.004 A 
ATOM      5  C5  I4B d   1      -5.010  -3.076   2.057  0.00  0.00     0.002 A 
ATOM      6  C6  I4B d   1      -4.799  -2.387   3.260  0.00  0.00     0.003 A 
ENDROOT
BRANCH   1   7
ATOM      7  C1' I4B d   1      -4.996  -2.246   5.757  0.00  0.00     0.060 C 
BRANCH   7   8
ATOM      8  C2' I4B d   1      -4.833  -0.774   5.438  0.00  0.00    -0.013 C 
ATOM      9  C4' I4B d   1      -5.973   0.035   5.999  0.00  0.00     0.013 C 
ATOM     10  C3' I4B d   1      -3.519  -0.320   6.000  0.00  0.00     0.013 C 
ENDBRANCH   7   8
ENDBRANCH   1   7
TORSDOF 2
ENDMDL
