MODEL 1
REMARK minimizedAffinity 6.63262558
REMARK minimizedRMSD -1
REMARK  0 active torsions:
REMARK  status: ('A' for Active; 'I' for Inactive)
ROOT
ATOM      1  C   UNL d   1       2.962   1.726   0.661  0.00  0.00     0.172 C 
ATOM      2  N   UNL d   1       4.138   2.560   0.755  0.00  0.00    -0.070 N 
ATOM      3  C1  UNL d   1       4.945   2.680   1.855  0.00  0.00    -0.004 A 
ATOM      4  C2  UNL d   1       5.954   3.566   1.542  0.00  0.00    -0.047 A 
ATOM      5  C3  UNL d   1       5.745   3.993   0.210  0.00  0.00    -0.047 A 
ATOM      6  C4  UNL d   1       4.614   3.354  -0.254  0.00  0.00    -0.004 A 
ENDROOT
TORSDOF 0
ENDMDL
