MODEL 1
REMARK minimizedAffinity 6.11650658
REMARK minimizedRMSD -1
REMARK  0 active torsions:
REMARK  status: ('A' for Active; 'I' for Inactive)
ROOT
ATOM      1  C   UNL d   1       4.867  -2.503  -0.760  0.00  0.00     0.172 C 
ATOM      2  N   UNL d   1       4.868  -3.920  -0.482  0.00  0.00    -0.070 N 
ATOM      3  C1  UNL d   1       5.978  -4.686  -0.241  0.00  0.00    -0.004 A 
ATOM      4  C2  UNL d   1       5.558  -5.980  -0.021  0.00  0.00    -0.047 A 
ATOM      5  C3  UNL d   1       4.147  -5.993  -0.134  0.00  0.00    -0.047 A 
ATOM      6  C4  UNL d   1       3.746  -4.705  -0.419  0.00  0.00    -0.004 A 
ENDROOT
TORSDOF 0
ENDMDL
