MODEL 1
REMARK minimizedAffinity 6.75749731
REMARK minimizedRMSD -1
REMARK  0 active torsions:
REMARK  status: ('A' for Active; 'I' for Inactive)
ROOT
ATOM      1  C   UNL d   1       2.157   3.520  -3.399  0.00  0.00     0.172 C 
ATOM      2  N   UNL d   1       1.116   4.471  -3.086  0.00  0.00    -0.070 N 
ATOM      3  C1  UNL d   1       1.036   5.219  -1.942  0.00  0.00    -0.004 A 
ATOM      4  C2  UNL d   1      -0.097   5.999  -2.026  0.00  0.00    -0.047 A 
ATOM      5  C3  UNL d   1      -0.721   5.709  -3.263  0.00  0.00    -0.047 A 
ATOM      6  C4  UNL d   1       0.051   4.759  -3.899  0.00  0.00    -0.004 A 
ENDROOT
TORSDOF 0
ENDMDL
