MODEL 1
REMARK minimizedAffinity 5.98365593
REMARK minimizedRMSD -1
REMARK  0 active torsions:
REMARK  status: ('A' for Active; 'I' for Inactive)
ROOT
ATOM      1  C   UNL d   1      -5.778  -0.165  -2.707  0.00  0.00     0.172 C 
ATOM      2  N   UNL d   1      -5.615   0.592  -1.488  0.00  0.00    -0.070 N 
ATOM      3  C1  UNL d   1      -5.443   0.063  -0.236  0.00  0.00    -0.004 A 
ATOM      4  C2  UNL d   1      -5.326   1.110   0.652  0.00  0.00    -0.047 A 
ATOM      5  C3  UNL d   1      -5.433   2.310  -0.091  0.00  0.00    -0.047 A 
ATOM      6  C4  UNL d   1      -5.612   1.960  -1.412  0.00  0.00    -0.004 A 
ENDROOT
TORSDOF 0
ENDMDL
