MODEL 1
REMARK minimizedAffinity 6.92635584
REMARK minimizedRMSD -1
REMARK  0 active torsions:
REMARK  status: ('A' for Active; 'I' for Inactive)
ROOT
ATOM      1  C   UNL d   1      -1.652  -4.280  -2.782  0.00  0.00     0.172 C 
ATOM      2  N   UNL d   1      -1.893  -4.889  -4.069  0.00  0.00    -0.070 N 
ATOM      3  C1  UNL d   1      -0.972  -5.578  -4.812  0.00  0.00    -0.004 A 
ATOM      4  C2  UNL d   1      -1.592  -5.997  -5.969  0.00  0.00    -0.047 A 
ATOM      5  C3  UNL d   1      -2.931  -5.543  -5.921  0.00  0.00    -0.047 A 
ATOM      6  C4  UNL d   1      -3.091  -4.860  -4.734  0.00  0.00    -0.004 A 
ENDROOT
TORSDOF 0
ENDMDL
