MODEL 1
REMARK minimizedAffinity 11.4779806
REMARK minimizedRMSD -1
REMARK  0 active torsions:
REMARK  status: ('A' for Active; 'I' for Inactive)
ROOT
ATOM      1  C   UNL d   1      -0.332  -4.284  -3.764  0.00  0.00     0.172 C 
ATOM      2  N   UNL d   1      -1.464  -4.980  -4.330  0.00  0.00    -0.070 N 
ATOM      3  C1  UNL d   1      -2.585  -5.369  -3.647  0.00  0.00    -0.004 A 
ATOM      4  C2  UNL d   1      -3.426  -5.999  -4.540  0.00  0.00    -0.047 A 
ATOM      5  C3  UNL d   1      -2.787  -5.990  -5.802  0.00  0.00    -0.047 A 
ATOM      6  C4  UNL d   1      -1.574  -5.353  -5.644  0.00  0.00    -0.004 A 
ENDROOT
TORSDOF 0
ENDMDL
