MODEL 1
REMARK minimizedAffinity 4.25114584
REMARK minimizedRMSD -1
REMARK  0 active torsions:
REMARK  status: ('A' for Active; 'I' for Inactive)
ROOT
ATOM      1  C   UNL d   1      -0.765   3.819  -3.938  0.00  0.00     0.172 C 
ATOM      2  N   UNL d   1       0.369   3.212  -3.282  0.00  0.00    -0.070 N 
ATOM      3  C1  UNL d   1       0.309   2.237  -2.323  0.00  0.00    -0.004 A 
ATOM      4  C2  UNL d   1       1.600   1.927  -1.954  0.00  0.00    -0.047 A 
ATOM      5  C3  UNL d   1       2.466   2.745  -2.718  0.00  0.00    -0.047 A 
ATOM      6  C4  UNL d   1       1.678   3.531  -3.532  0.00  0.00    -0.004 A 
ENDROOT
TORSDOF 0
ENDMDL
