MODEL 1
REMARK minimizedAffinity 1.88626015
REMARK minimizedRMSD -1
REMARK  0 active torsions:
REMARK  status: ('A' for Active; 'I' for Inactive)
ROOT
ATOM      1  C   UNL d   1      -4.627  -2.455   3.500  0.00  0.00     0.172 C 
ATOM      2  N   UNL d   1      -3.911  -1.560   2.622  0.00  0.00    -0.070 N 
ATOM      3  C1  UNL d   1      -4.479  -0.736   1.686  0.00  0.00    -0.004 A 
ATOM      4  C2  UNL d   1      -3.463  -0.047   1.059  0.00  0.00    -0.047 A 
ATOM      5  C3  UNL d   1      -2.243  -0.472   1.637  0.00  0.00    -0.047 A 
ATOM      6  C4  UNL d   1      -2.550  -1.409   2.602  0.00  0.00    -0.004 A 
ENDROOT
TORSDOF 0
ENDMDL
