MODEL 1
REMARK minimizedAffinity 8.05769253
REMARK minimizedRMSD -1
REMARK  0 active torsions:
REMARK  status: ('A' for Active; 'I' for Inactive)
ROOT
ATOM      1  C   UNL d   1       2.573   3.215  -3.172  0.00  0.00     0.172 C 
ATOM      2  N   UNL d   1       3.744   3.724  -3.845  0.00  0.00    -0.070 N 
ATOM      3  C1  UNL d   1       4.721   4.496  -3.275  0.00  0.00    -0.004 A 
ATOM      4  C2  UNL d   1       5.660   4.772  -4.245  0.00  0.00    -0.047 A 
ATOM      5  C3  UNL d   1       5.233   4.146  -5.439  0.00  0.00    -0.047 A 
ATOM      6  C4  UNL d   1       4.044   3.504  -5.164  0.00  0.00    -0.004 A 
ENDROOT
TORSDOF 0
ENDMDL
