MODEL 1
REMARK minimizedAffinity 2.24499106
REMARK minimizedRMSD -1
REMARK  0 active torsions:
REMARK  status: ('A' for Active; 'I' for Inactive)
ROOT
ATOM      1  C   UNL d   1       1.988  -5.998  -4.127  0.00  0.00     0.172 C 
ATOM      2  N   UNL d   1       0.612  -5.571  -4.216  0.00  0.00    -0.070 N 
ATOM      3  C1  UNL d   1      -0.299  -6.000  -5.145  0.00  0.00    -0.004 A 
ATOM      4  C2  UNL d   1      -1.493  -5.360  -4.892  0.00  0.00    -0.047 A 
ATOM      5  C3  UNL d   1      -1.293  -4.517  -3.773  0.00  0.00    -0.047 A 
ATOM      6  C4  UNL d   1       0.019  -4.667  -3.375  0.00  0.00    -0.004 A 
ENDROOT
TORSDOF 0
ENDMDL
