MODEL 1
REMARK minimizedAffinity 6.66111469
REMARK minimizedRMSD -1
REMARK  0 active torsions:
REMARK  status: ('A' for Active; 'I' for Inactive)
ROOT
ATOM      1  C   UNL d   1      -4.943   0.820   1.554  0.00  0.00     0.172 C 
ATOM      2  N   UNL d   1      -3.628   0.290   1.831  0.00  0.00    -0.070 N 
ATOM      3  C1  UNL d   1      -2.662   0.905   2.582  0.00  0.00    -0.004 A 
ATOM      4  C2  UNL d   1      -1.558   0.080   2.606  0.00  0.00    -0.047 A 
ATOM      5  C3  UNL d   1      -1.872  -1.070   1.843  0.00  0.00    -0.047 A 
ATOM      6  C4  UNL d   1      -3.159  -0.913   1.375  0.00  0.00    -0.004 A 
ENDROOT
TORSDOF 0
ENDMDL
