MODEL 1
REMARK minimizedAffinity 7.62970638
REMARK minimizedRMSD -1
REMARK  0 active torsions:
REMARK  status: ('A' for Active; 'I' for Inactive)
ROOT
ATOM      1  C   UNL d   1      -5.242   0.386   0.905  0.00  0.00     0.172 C 
ATOM      2  N   UNL d   1      -5.011   0.888   2.239  0.00  0.00    -0.070 N 
ATOM      3  C1  UNL d   1      -3.786   1.113   2.806  0.00  0.00    -0.004 A 
ATOM      4  C2  UNL d   1      -3.993   1.590   4.083  0.00  0.00    -0.047 A 
ATOM      5  C3  UNL d   1      -5.391   1.652   4.290  0.00  0.00    -0.047 A 
ATOM      6  C4  UNL d   1      -5.998   1.212   3.132  0.00  0.00    -0.004 A 
ENDROOT
TORSDOF 0
ENDMDL
