MODEL 1
REMARK minimizedAffinity 8.94622993
REMARK minimizedRMSD -1
REMARK  0 active torsions:
REMARK  status: ('A' for Active; 'I' for Inactive)
ROOT
ATOM      1  C   UNL d   1       3.448  -1.277   0.059  0.00  0.00     0.172 C 
ATOM      2  N   UNL d   1       3.897  -2.611  -0.259  0.00  0.00    -0.070 N 
ATOM      3  C1  UNL d   1       3.095  -3.713  -0.396  0.00  0.00    -0.004 A 
ATOM      4  C2  UNL d   1       3.902  -4.787  -0.701  0.00  0.00    -0.047 A 
ATOM      5  C3  UNL d   1       5.235  -4.316  -0.748  0.00  0.00    -0.047 A 
ATOM      6  C4  UNL d   1       5.203  -2.966  -0.471  0.00  0.00    -0.004 A 
ENDROOT
TORSDOF 0
ENDMDL
