MODEL 1
REMARK minimizedAffinity -1.92898893
REMARK minimizedRMSD -1
REMARK  0 active torsions:
REMARK  status: ('A' for Active; 'I' for Inactive)
ROOT
ATOM      1  C   UNL d   1      -5.212   1.121   3.650  0.00  0.00     0.172 C 
ATOM      2  N   UNL d   1      -4.032   0.518   3.077  0.00  0.00    -0.070 N 
ATOM      3  C1  UNL d   1      -4.014  -0.359   2.025  0.00  0.00    -0.004 A 
ATOM      4  C2  UNL d   1      -2.701  -0.700   1.782  0.00  0.00    -0.047 A 
ATOM      5  C3  UNL d   1      -1.902  -0.005   2.721  0.00  0.00    -0.047 A 
ATOM      6  C4  UNL d   1      -2.752   0.741   3.510  0.00  0.00    -0.004 A 
ENDROOT
TORSDOF 0
ENDMDL
