MODEL 1
REMARK minimizedAffinity 5.87916994
REMARK minimizedRMSD -1
REMARK  0 active torsions:
REMARK  status: ('A' for Active; 'I' for Inactive)
ROOT
ATOM      1  C   UNL d   1       3.854   3.583  -4.477  0.00  0.00     0.172 C 
ATOM      2  N   UNL d   1       2.788   3.392  -3.522  0.00  0.00    -0.070 N 
ATOM      3  C1  UNL d   1       2.531   2.238  -2.833  0.00  0.00    -0.004 A 
ATOM      4  C2  UNL d   1       1.436   2.463  -2.026  0.00  0.00    -0.047 A 
ATOM      5  C3  UNL d   1       1.021   3.799  -2.239  0.00  0.00    -0.047 A 
ATOM      6  C4  UNL d   1       1.875   4.351  -3.170  0.00  0.00    -0.004 A 
ENDROOT
TORSDOF 0
ENDMDL
