MODEL 1
REMARK minimizedAffinity 4.13040018
REMARK minimizedRMSD -1
REMARK  0 active torsions:
REMARK  status: ('A' for Active; 'I' for Inactive)
ROOT
ATOM      1  C   UNL d   1       3.180   1.870   0.780  0.00  0.00     0.172 C 
ATOM      2  N   UNL d   1       4.303   2.778   0.826  0.00  0.00    -0.070 N 
ATOM      3  C1  UNL d   1       4.995   3.247  -0.259  0.00  0.00    -0.004 A 
ATOM      4  C2  UNL d   1       5.987   4.084   0.204  0.00  0.00    -0.047 A 
ATOM      5  C3  UNL d   1       5.888   4.119   1.615  0.00  0.00    -0.047 A 
ATOM      6  C4  UNL d   1       4.837   3.302   1.973  0.00  0.00    -0.004 A 
ENDROOT
TORSDOF 0
ENDMDL
