MODEL 1
REMARK minimizedAffinity 0.995679319
REMARK minimizedRMSD -1
REMARK  0 active torsions:
REMARK  status: ('A' for Active; 'I' for Inactive)
ROOT
ATOM      1  C   UNL d   1       3.022   1.957  -0.017  0.00  0.00     0.172 C 
ATOM      2  N   UNL d   1       4.022   2.855   0.510  0.00  0.00    -0.070 N 
ATOM      3  C1  UNL d   1       3.773   4.025   1.177  0.00  0.00    -0.004 A 
ATOM      4  C2  UNL d   1       4.986   4.585   1.514  0.00  0.00    -0.047 A 
ATOM      5  C3  UNL d   1       6.000   3.723   1.031  0.00  0.00    -0.047 A 
ATOM      6  C4  UNL d   1       5.375   2.660   0.414  0.00  0.00    -0.004 A 
ENDROOT
TORSDOF 0
ENDMDL
