MODEL 1
REMARK minimizedAffinity 7.93049431
REMARK minimizedRMSD -1
REMARK  0 active torsions:
REMARK  status: ('A' for Active; 'I' for Inactive)
ROOT
ATOM      1  C   UNL d   1       3.059   1.720   1.015  0.00  0.00     0.172 C 
ATOM      2  N   UNL d   1       4.177   2.629   1.110  0.00  0.00    -0.070 N 
ATOM      3  C1  UNL d   1       4.493   3.395   2.200  0.00  0.00    -0.004 A 
ATOM      4  C2  UNL d   1       5.624   4.120   1.892  0.00  0.00    -0.047 A 
ATOM      5  C3  UNL d   1       6.000   3.778   0.572  0.00  0.00    -0.047 A 
ATOM      6  C4  UNL d   1       5.087   2.853   0.111  0.00  0.00    -0.004 A 
ENDROOT
TORSDOF 0
ENDMDL
