MODEL 1
REMARK minimizedAffinity 6.84498501
REMARK minimizedRMSD -1
REMARK  0 active torsions:
REMARK  status: ('A' for Active; 'I' for Inactive)
ROOT
ATOM      1  C   UNL d   1       3.508   3.144  -3.892  0.00  0.00     0.172 C 
ATOM      2  N   UNL d   1       2.271   3.107  -3.149  0.00  0.00    -0.070 N 
ATOM      3  C1  UNL d   1       1.267   4.036  -3.223  0.00  0.00    -0.004 A 
ATOM      4  C2  UNL d   1       0.263   3.641  -2.365  0.00  0.00    -0.047 A 
ATOM      5  C3  UNL d   1       0.679   2.435  -1.753  0.00  0.00    -0.047 A 
ATOM      6  C4  UNL d   1       1.925   2.127  -2.257  0.00  0.00    -0.004 A 
ENDROOT
TORSDOF 0
ENDMDL
