MODEL 1
REMARK minimizedAffinity 16.5610332
REMARK minimizedRMSD -1
REMARK  3 active torsions:
REMARK  status: ('A' for Active; 'I' for Inactive)
REMARK    1  A    between atoms: C3'_2  and  C2'_3 
REMARK    2  A    between atoms: C2'_3  and  C1'_4 
REMARK    3  A    between atoms: C1'_4  and  C1_5 
ROOT
ATOM      1  C1  N4B d   1       4.811   2.213   3.034  0.00  0.00    -0.075 A 
ATOM      2  C2  N4B d   1       4.378   3.293   2.232  0.00  0.00     0.002 A 
ATOM      3  C3  N4B d   1       4.770   3.373   0.919  0.00  0.00     0.002 A 
ATOM      4  C4  N4B d   1       5.606   2.400   0.392  0.00  0.00    -0.004 A 
ATOM      5  C5  N4B d   1       6.000   1.348   1.166  0.00  0.00     0.002 A 
ATOM      6  C6  N4B d   1       5.610   1.252   2.486  0.00  0.00     0.002 A 
ENDROOT
BRANCH   1   7
ATOM      7  C1' N4B d   1       4.478   2.128   4.498  0.00  0.00     0.057 C 
BRANCH   7   8
ATOM      8  C2' N4B d   1       4.061   0.700   4.835  0.00  0.00     0.009 C 
BRANCH   8   9
ATOM      9  C3' N4B d   1       2.558   0.574   5.013  0.00  0.00     0.004 C 
ATOM     10  C4' N4B d   1       1.899  -0.162   3.885  0.00  0.00     0.003 C 
ENDBRANCH   8   9
ENDBRANCH   7   8
ENDBRANCH   1   7
TORSDOF 3
ENDMDL
