MODEL 1
REMARK minimizedAffinity 11.4075251
REMARK minimizedRMSD -1
REMARK  3 active torsions:
REMARK  status: ('A' for Active; 'I' for Inactive)
REMARK    1  A    between atoms: C3'_2  and  C2'_3 
REMARK    2  A    between atoms: C2'_3  and  C1'_4 
REMARK    3  A    between atoms: C1'_4  and  C1_5 
ROOT
ATOM      1  C1  N4B d   1       1.517  -3.967   4.266  0.00  0.00    -0.075 A 
ATOM      2  C2  N4B d   1       0.423  -3.461   3.532  0.00  0.00     0.002 A 
ATOM      3  C3  N4B d   1      -0.847  -3.540   4.050  0.00  0.00     0.002 A 
ATOM      4  C4  N4B d   1      -1.048  -4.137   5.286  0.00  0.00    -0.004 A 
ATOM      5  C5  N4B d   1       0.018  -4.601   6.000  0.00  0.00     0.002 A 
ATOM      6  C6  N4B d   1       1.300  -4.524   5.493  0.00  0.00     0.002 A 
ENDROOT
BRANCH   1   7
ATOM      7  C1' N4B d   1       2.913  -3.981   3.704  0.00  0.00     0.057 C 
BRANCH   7   8
ATOM      8  C2' N4B d   1       3.796  -4.866   4.578  0.00  0.00     0.009 C 
BRANCH   8   9
ATOM      9  C3' N4B d   1       5.270  -4.693   4.255  0.00  0.00     0.004 C 
ATOM     10  C4' N4B d   1       5.991  -6.000   4.110  0.00  0.00     0.003 C 
ENDBRANCH   8   9
ENDBRANCH   7   8
ENDBRANCH   1   7
TORSDOF 3
ENDMDL
