MODEL 1
REMARK minimizedAffinity 16.8487701
REMARK minimizedRMSD -1
REMARK  3 active torsions:
REMARK  status: ('A' for Active; 'I' for Inactive)
REMARK    1  A    between atoms: C3'_2  and  C2'_3 
REMARK    2  A    between atoms: C2'_3  and  C1'_4 
REMARK    3  A    between atoms: C1'_4  and  C1_5 
ROOT
ATOM      1  C1  N4B d   1      -5.970   3.393  -0.446  0.00  0.00    -0.075 A 
ATOM      2  C2  N4B d   1      -5.994   4.527   0.395  0.00  0.00     0.002 A 
ATOM      3  C3  N4B d   1      -6.000   5.787  -0.151  0.00  0.00     0.002 A 
ATOM      4  C4  N4B d   1      -5.963   5.937  -1.530  0.00  0.00    -0.004 A 
ATOM      5  C5  N4B d   1      -5.966   4.836  -2.335  0.00  0.00     0.002 A 
ATOM      6  C6  N4B d   1      -5.964   3.564  -1.800  0.00  0.00     0.002 A 
ENDROOT
BRANCH   1   7
ATOM      7  C1' N4B d   1      -5.876   1.997   0.107  0.00  0.00     0.057 C 
BRANCH   7   8
ATOM      8  C2' N4B d   1      -4.447   1.489  -0.056  0.00  0.00     0.009 C 
BRANCH   8   9
ATOM      9  C3' N4B d   1      -4.353   0.377  -1.088  0.00  0.00     0.004 C 
ATOM     10  C4' N4B d   1      -5.536   0.339  -2.009  0.00  0.00     0.003 C 
ENDBRANCH   8   9
ENDBRANCH   7   8
ENDBRANCH   1   7
TORSDOF 3
ENDMDL
