MODEL 1
REMARK minimizedAffinity 16.4105778
REMARK minimizedRMSD -1
REMARK  3 active torsions:
REMARK  status: ('A' for Active; 'I' for Inactive)
REMARK    1  A    between atoms: C3'_2  and  C2'_3 
REMARK    2  A    between atoms: C2'_3  and  C1'_4 
REMARK    3  A    between atoms: C1'_4  and  C1_5 
ROOT
ATOM      1  C1  N4B d   1       1.654  -0.854  -4.016  0.00  0.00    -0.075 A 
ATOM      2  C2  N4B d   1       1.075  -1.083  -5.284  0.00  0.00     0.002 A 
ATOM      3  C3  N4B d   1      -0.286  -1.225  -5.402  0.00  0.00     0.002 A 
ATOM      4  C4  N4B d   1      -1.083  -1.162  -4.268  0.00  0.00    -0.004 A 
ATOM      5  C5  N4B d   1      -0.518  -0.915  -3.051  0.00  0.00     0.002 A 
ATOM      6  C6  N4B d   1       0.848  -0.765  -2.919  0.00  0.00     0.002 A 
ENDROOT
BRANCH   1   7
ATOM      7  C1' N4B d   1       3.144  -0.777  -3.826  0.00  0.00     0.057 C 
BRANCH   7   8
ATOM      8  C2' N4B d   1       3.705  -2.189  -3.689  0.00  0.00     0.009 C 
BRANCH   8   9
ATOM      9  C3' N4B d   1       5.170  -2.260  -4.083  0.00  0.00     0.004 C 
ATOM     10  C4' N4B d   1       5.493  -3.470  -4.908  0.00  0.00     0.003 C 
ENDBRANCH   8   9
ENDBRANCH   7   8
ENDBRANCH   1   7
TORSDOF 3
ENDMDL
