MODEL 1
REMARK minimizedAffinity 1.51030028
REMARK minimizedRMSD -1
REMARK  2 active torsions:
REMARK  status: ('A' for Active; 'I' for Inactive)
REMARK    1  A    between atoms: C1_2  and  C2_3 
REMARK    2  A    between atoms: C2_3  and  C3_4 
ROOT
ATOM      1  C3  UNL d   1      -1.326  -1.421  -1.099  0.00  0.00    -0.075 A 
ATOM      2  C4  UNL d   1      -1.136  -1.518  -2.485  0.00  0.00     0.002 A 
ATOM      3  C5  UNL d   1      -2.222  -1.725  -3.336  0.00  0.00     0.002 A 
ATOM      4  C6  UNL d   1      -3.507  -1.848  -2.813  0.00  0.00    -0.004 A 
ATOM      5  C7  UNL d   1      -3.705  -1.770  -1.437  0.00  0.00     0.002 A 
ATOM      6  C8  UNL d   1      -2.621  -1.559  -0.583  0.00  0.00     0.002 A 
ENDROOT
BRANCH   1   7
ATOM      7  C2  UNL d   1      -0.159  -1.168  -0.175  0.00  0.00     0.056 C 
BRANCH   7   8
ATOM      8  C1  UNL d   1       0.198   0.313  -0.012  0.00  0.00     0.007 C 
ATOM      9  C   UNL d   1      -0.174   0.874   1.354  0.00  0.00     0.009 C 
ENDBRANCH   7   8
ENDBRANCH   1   7
TORSDOF 2
ENDMDL
