MODEL 1
REMARK minimizedAffinity -4.52366543
REMARK minimizedRMSD -1
REMARK  2 active torsions:
REMARK  status: ('A' for Active; 'I' for Inactive)
REMARK    1  A    between atoms: C1_2  and  C2_3 
REMARK    2  A    between atoms: C2_3  and  C3_4 
ROOT
ATOM      1  C3  UNL d   1      -0.047   0.162   0.174  0.00  0.00    -0.075 A 
ATOM      2  C4  UNL d   1       0.917   1.162   0.368  0.00  0.00     0.002 A 
ATOM      3  C5  UNL d   1       1.025   1.812   1.598  0.00  0.00     0.002 A 
ATOM      4  C6  UNL d   1       0.166   1.480   2.643  0.00  0.00    -0.004 A 
ATOM      5  C7  UNL d   1      -0.807   0.500   2.455  0.00  0.00     0.002 A 
ATOM      6  C8  UNL d   1      -0.914  -0.155   1.228  0.00  0.00     0.002 A 
ENDROOT
BRANCH   1   7
ATOM      7  C2  UNL d   1      -0.150  -0.566  -1.145  0.00  0.00     0.056 C 
BRANCH   7   8
ATOM      8  C1  UNL d   1      -0.998  -1.841  -1.089  0.00  0.00     0.007 C 
ATOM      9  C   UNL d   1      -1.916  -2.004  -2.294  0.00  0.00     0.009 C 
ENDBRANCH   7   8
ENDBRANCH   1   7
TORSDOF 2
ENDMDL
