MODEL 1
REMARK minimizedAffinity -4.10477161
REMARK minimizedRMSD -1
REMARK  2 active torsions:
REMARK  status: ('A' for Active; 'I' for Inactive)
REMARK    1  A    between atoms: C1_2  and  C2_3 
REMARK    2  A    between atoms: C2_3  and  C3_4 
ROOT
ATOM      1  C3  UNL d   1      -0.231  -0.607  -0.821  0.00  0.00    -0.075 A 
ATOM      2  C4  UNL d   1      -0.931  -0.123   0.294  0.00  0.00     0.002 A 
ATOM      3  C5  UNL d   1      -0.451   0.973   1.011  0.00  0.00     0.002 A 
ATOM      4  C6  UNL d   1       0.738   1.592   0.631  0.00  0.00    -0.004 A 
ATOM      5  C7  UNL d   1       1.450   1.109  -0.465  0.00  0.00     0.002 A 
ATOM      6  C8  UNL d   1       0.970   0.015  -1.187  0.00  0.00     0.002 A 
ENDROOT
BRANCH   1   7
ATOM      7  C2  UNL d   1      -0.761  -1.774  -1.619  0.00  0.00     0.056 C 
BRANCH   7   8
ATOM      8  C1  UNL d   1      -0.977  -1.467  -3.104  0.00  0.00     0.007 C 
ATOM      9  C   UNL d   1      -2.428  -1.610  -3.542  0.00  0.00     0.009 C 
ENDBRANCH   7   8
ENDBRANCH   1   7
TORSDOF 2
ENDMDL
