MODEL 1
REMARK minimizedAffinity -4.71819401
REMARK minimizedRMSD -1
REMARK  2 active torsions:
REMARK  status: ('A' for Active; 'I' for Inactive)
REMARK    1  A    between atoms: C1_2  and  C2_3 
REMARK    2  A    between atoms: C2_3  and  C3_4 
ROOT
ATOM      1  C3  UNL d   1      -0.104   0.303   0.006  0.00  0.00    -0.075 A 
ATOM      2  C4  UNL d   1       0.546   1.538  -0.133  0.00  0.00     0.002 A 
ATOM      3  C5  UNL d   1       0.606   2.432   0.937  0.00  0.00     0.002 A 
ATOM      4  C6  UNL d   1       0.010   2.108   2.153  0.00  0.00    -0.004 A 
ATOM      5  C7  UNL d   1      -0.654   0.891   2.297  0.00  0.00     0.002 A 
ATOM      6  C8  UNL d   1      -0.712  -0.007   1.230  0.00  0.00     0.002 A 
ENDROOT
BRANCH   1   7
ATOM      7  C2  UNL d   1      -0.148  -0.680  -1.139  0.00  0.00     0.056 C 
BRANCH   7   8
ATOM      8  C1  UNL d   1      -1.565  -1.073  -1.571  0.00  0.00     0.007 C 
ATOM      9  C   UNL d   1      -1.812  -0.883  -3.062  0.00  0.00     0.009 C 
ENDBRANCH   7   8
ENDBRANCH   1   7
TORSDOF 2
ENDMDL
