MODEL 1
REMARK minimizedAffinity -6.07084465
REMARK minimizedRMSD -1
REMARK  2 active torsions:
REMARK  status: ('A' for Active; 'I' for Inactive)
REMARK    1  A    between atoms: C1_2  and  C2_3 
REMARK    2  A    between atoms: C2_3  and  C3_4 
ROOT
ATOM      1  C3  UNL d   1      -0.222   0.016   0.109  0.00  0.00    -0.075 A 
ATOM      2  C4  UNL d   1      -0.617   0.300   1.425  0.00  0.00     0.002 A 
ATOM      3  C5  UNL d   1       0.029   1.294   2.160  0.00  0.00     0.002 A 
ATOM      4  C6  UNL d   1       1.084   2.007   1.595  0.00  0.00    -0.004 A 
ATOM      5  C7  UNL d   1       1.496   1.723   0.295  0.00  0.00     0.002 A 
ATOM      6  C8  UNL d   1       0.848   0.732  -0.444  0.00  0.00     0.002 A 
ENDROOT
BRANCH   1   7
ATOM      7  C2  UNL d   1      -0.937  -1.037  -0.702  0.00  0.00     0.056 C 
BRANCH   7   8
ATOM      8  C1  UNL d   1      -1.188  -0.638  -2.160  0.00  0.00     0.007 C 
ATOM      9  C   UNL d   1      -2.477  -1.218  -2.728  0.00  0.00     0.009 C 
ENDBRANCH   7   8
ENDBRANCH   1   7
TORSDOF 2
ENDMDL
