MODEL 1
REMARK minimizedAffinity -3.31867909
REMARK minimizedRMSD -1
REMARK  2 active torsions:
REMARK  status: ('A' for Active; 'I' for Inactive)
REMARK    1  A    between atoms: C1_2  and  C2_3 
REMARK    2  A    between atoms: C2_3  and  C3_4 
ROOT
ATOM      1  C3  UNL d   1      -1.315  -1.275  -1.278  0.00  0.00    -0.075 A 
ATOM      2  C4  UNL d   1      -2.117  -2.410  -1.468  0.00  0.00     0.002 A 
ATOM      3  C5  UNL d   1      -2.806  -2.599  -2.666  0.00  0.00     0.002 A 
ATOM      4  C6  UNL d   1      -2.710  -1.652  -3.684  0.00  0.00    -0.004 A 
ATOM      5  C7  UNL d   1      -1.930  -0.513  -3.500  0.00  0.00     0.002 A 
ATOM      6  C8  UNL d   1      -1.236  -0.324  -2.304  0.00  0.00     0.002 A 
ENDROOT
BRANCH   1   7
ATOM      7  C2  UNL d   1      -0.544  -1.080   0.006  0.00  0.00     0.056 C 
BRANCH   7   8
ATOM      8  C1  UNL d   1      -0.074   0.360   0.238  0.00  0.00     0.007 C 
ATOM      9  C   UNL d   1      -0.471   0.908   1.602  0.00  0.00     0.009 C 
ENDBRANCH   7   8
ENDBRANCH   1   7
TORSDOF 2
ENDMDL
