MODEL 1
REMARK minimizedAffinity -5.41535568
REMARK minimizedRMSD -1
REMARK  2 active torsions:
REMARK  status: ('A' for Active; 'I' for Inactive)
REMARK    1  A    between atoms: C1_2  and  C2_3 
REMARK    2  A    between atoms: C2_3  and  C3_4 
ROOT
ATOM      1  C3  UNL d   1      -0.392   0.104   0.014  0.00  0.00    -0.075 A 
ATOM      2  C4  UNL d   1      -0.913   0.627   1.206  0.00  0.00     0.002 A 
ATOM      3  C5  UNL d   1      -0.335   1.751   1.798  0.00  0.00     0.002 A 
ATOM      4  C6  UNL d   1       0.774   2.357   1.214  0.00  0.00    -0.004 A 
ATOM      5  C7  UNL d   1       1.310   1.836   0.038  0.00  0.00     0.002 A 
ATOM      6  C8  UNL d   1       0.731   0.715  -0.559  0.00  0.00     0.002 A 
ENDROOT
BRANCH   1   7
ATOM      7  C2  UNL d   1      -1.031  -1.094  -0.648  0.00  0.00     0.056 C 
BRANCH   7   8
ATOM      8  C1  UNL d   1      -1.287  -0.915  -2.148  0.00  0.00     0.007 C 
ATOM      9  C   UNL d   1      -2.726  -1.208  -2.551  0.00  0.00     0.009 C 
ENDBRANCH   7   8
ENDBRANCH   1   7
TORSDOF 2
ENDMDL
