MODEL 1
REMARK minimizedAffinity -4.22512865
REMARK minimizedRMSD -1
REMARK  2 active torsions:
REMARK  status: ('A' for Active; 'I' for Inactive)
REMARK    1  A    between atoms: C1_2  and  C2_3 
REMARK    2  A    between atoms: C2_3  and  C3_4 
ROOT
ATOM      1  C3  UNL d   1      -0.058  -0.327  -0.114  0.00  0.00    -0.075 A 
ATOM      2  C4  UNL d   1      -0.567   0.051   1.137  0.00  0.00     0.002 A 
ATOM      3  C5  UNL d   1      -0.013   1.128   1.831  0.00  0.00     0.002 A 
ATOM      4  C6  UNL d   1       1.060   1.832   1.288  0.00  0.00    -0.004 A 
ATOM      5  C7  UNL d   1       1.584   1.455   0.054  0.00  0.00     0.002 A 
ATOM      6  C8  UNL d   1       1.029   0.380  -0.644  0.00  0.00     0.002 A 
ENDROOT
BRANCH   1   7
ATOM      7  C2  UNL d   1      -0.671  -1.473  -0.883  0.00  0.00     0.056 C 
BRANCH   7   8
ATOM      8  C1  UNL d   1      -0.922  -1.167  -2.363  0.00  0.00     0.007 C 
ATOM      9  C   UNL d   1      -2.224  -1.759  -2.887  0.00  0.00     0.009 C 
ENDBRANCH   7   8
ENDBRANCH   1   7
TORSDOF 2
ENDMDL
