MODEL 1
REMARK minimizedAffinity -4.87449741
REMARK minimizedRMSD -1
REMARK  2 active torsions:
REMARK  status: ('A' for Active; 'I' for Inactive)
REMARK    1  A    between atoms: C1_2  and  C2_3 
REMARK    2  A    between atoms: C2_3  and  C3_4 
ROOT
ATOM      1  C3  UNL d   1       0.961   0.194  -0.076  0.00  0.00    -0.075 A 
ATOM      2  C4  UNL d   1       0.204   1.142   0.628  0.00  0.00     0.002 A 
ATOM      3  C5  UNL d   1       0.821   2.244   1.220  0.00  0.00     0.002 A 
ATOM      4  C6  UNL d   1       2.202   2.408   1.124  0.00  0.00    -0.004 A 
ATOM      5  C7  UNL d   1       2.966   1.464   0.442  0.00  0.00     0.002 A 
ATOM      6  C8  UNL d   1       2.350   0.362  -0.155  0.00  0.00     0.002 A 
ENDROOT
BRANCH   1   7
ATOM      7  C2  UNL d   1       0.295  -0.985  -0.744  0.00  0.00     0.056 C 
BRANCH   7   8
ATOM      8  C1  UNL d   1      -1.193  -0.776  -1.040  0.00  0.00     0.007 C 
ATOM      9  C   UNL d   1      -1.637  -1.400  -2.356  0.00  0.00     0.009 C 
ENDBRANCH   7   8
ENDBRANCH   1   7
TORSDOF 2
ENDMDL
