MODEL 1
REMARK minimizedAffinity -6.34107637
REMARK minimizedRMSD -1
REMARK  2 active torsions:
REMARK  status: ('A' for Active; 'I' for Inactive)
REMARK    1  A    between atoms: C1_2  and  C2_3 
REMARK    2  A    between atoms: C2_3  and  C3_4 
ROOT
ATOM      1  C3  UNL d   1       0.587   0.650   0.203  0.00  0.00    -0.075 A 
ATOM      2  C4  UNL d   1       1.749   0.090  -0.348  0.00  0.00     0.002 A 
ATOM      3  C5  UNL d   1       2.969   0.761  -0.259  0.00  0.00     0.002 A 
ATOM      4  C6  UNL d   1       3.041   2.002   0.371  0.00  0.00    -0.004 A 
ATOM      5  C7  UNL d   1       1.890   2.574   0.907  0.00  0.00     0.002 A 
ATOM      6  C8  UNL d   1       0.669   1.903   0.823  0.00  0.00     0.002 A 
ENDROOT
BRANCH   1   7
ATOM      7  C2  UNL d   1      -0.730  -0.085   0.136  0.00  0.00     0.056 C 
BRANCH   7   8
ATOM      8  C1  UNL d   1      -0.623  -1.510  -0.417  0.00  0.00     0.007 C 
ATOM      9  C   UNL d   1      -1.678  -1.828  -1.468  0.00  0.00     0.009 C 
ENDBRANCH   7   8
ENDBRANCH   1   7
TORSDOF 2
ENDMDL
