MODEL 1
REMARK minimizedAffinity -0.162172571
REMARK minimizedRMSD -1
REMARK  2 active torsions:
REMARK  status: ('A' for Active; 'I' for Inactive)
REMARK    1  A    between atoms: C1_2  and  C2_3 
REMARK    2  A    between atoms: C2_3  and  C3_4 
ROOT
ATOM      1  C3  UNL d   1       0.457   0.900   1.038  0.00  0.00    -0.075 A 
ATOM      2  C4  UNL d   1      -0.649   0.082   0.768  0.00  0.00     0.002 A 
ATOM      3  C5  UNL d   1      -0.679  -0.714  -0.377  0.00  0.00     0.002 A 
ATOM      4  C6  UNL d   1       0.389  -0.695  -1.271  0.00  0.00    -0.004 A 
ATOM      5  C7  UNL d   1       1.487   0.126  -1.021  0.00  0.00     0.002 A 
ATOM      6  C8  UNL d   1       1.521   0.920   0.126  0.00  0.00     0.002 A 
ENDROOT
BRANCH   1   7
ATOM      7  C2  UNL d   1       0.509   1.741   2.291  0.00  0.00     0.056 C 
BRANCH   7   8
ATOM      8  C1  UNL d   1       0.019   1.017   3.549  0.00  0.00     0.007 C 
ATOM      9  C   UNL d   1       1.110   0.825   4.594  0.00  0.00     0.009 C 
ENDBRANCH   7   8
ENDBRANCH   1   7
TORSDOF 2
ENDMDL
