MODEL 1
REMARK minimizedAffinity -0.585520387
REMARK minimizedRMSD -1
REMARK  2 active torsions:
REMARK  status: ('A' for Active; 'I' for Inactive)
REMARK    1  A    between atoms: C1_2  and  C2_3 
REMARK    2  A    between atoms: C2_3  and  C3_4 
ROOT
ATOM      1  C3  UNL d   1      -1.077  -0.832  -1.177  0.00  0.00    -0.075 A 
ATOM      2  C4  UNL d   1      -0.477  -0.300  -2.327  0.00  0.00     0.002 A 
ATOM      3  C5  UNL d   1      -1.094  -0.429  -3.572  0.00  0.00     0.002 A 
ATOM      4  C6  UNL d   1      -2.310  -1.098  -3.685  0.00  0.00    -0.004 A 
ATOM      5  C7  UNL d   1      -2.907  -1.645  -2.551  0.00  0.00     0.002 A 
ATOM      6  C8  UNL d   1      -2.295  -1.514  -1.303  0.00  0.00     0.002 A 
ENDROOT
BRANCH   1   7
ATOM      7  C2  UNL d   1      -0.429  -0.671   0.177  0.00  0.00     0.056 C 
BRANCH   7   8
ATOM      8  C1  UNL d   1      -1.296   0.073   1.199  0.00  0.00     0.007 C 
ATOM      9  C   UNL d   1      -0.496   0.651   2.358  0.00  0.00     0.009 C 
ENDBRANCH   7   8
ENDBRANCH   1   7
TORSDOF 2
ENDMDL
