MODEL 1
REMARK minimizedAffinity -4.40956593
REMARK minimizedRMSD -1
REMARK  2 active torsions:
REMARK  status: ('A' for Active; 'I' for Inactive)
REMARK    1  A    between atoms: C1_2  and  C2_3 
REMARK    2  A    between atoms: C2_3  and  C3_4 
ROOT
ATOM      1  C3  UNL d   1       0.430   0.011   0.296  0.00  0.00    -0.075 A 
ATOM      2  C4  UNL d   1       0.063   0.381   1.598  0.00  0.00     0.002 A 
ATOM      3  C5  UNL d   1       0.395   1.641   2.097  0.00  0.00     0.002 A 
ATOM      4  C6  UNL d   1       1.105   2.541   1.307  0.00  0.00    -0.004 A 
ATOM      5  C7  UNL d   1       1.490   2.179   0.018  0.00  0.00     0.002 A 
ATOM      6  C8  UNL d   1       1.155   0.920  -0.486  0.00  0.00     0.002 A 
ENDROOT
BRANCH   1   7
ATOM      7  C2  UNL d   1       0.049  -1.340  -0.260  0.00  0.00     0.056 C 
BRANCH   7   8
ATOM      8  C1  UNL d   1      -0.335  -1.318  -1.743  0.00  0.00     0.007 C 
ATOM      9  C   UNL d   1      -1.751  -1.816  -2.004  0.00  0.00     0.009 C 
ENDBRANCH   7   8
ENDBRANCH   1   7
TORSDOF 2
ENDMDL
