MODEL 1
REMARK minimizedAffinity -4.70522642
REMARK minimizedRMSD -1
REMARK  2 active torsions:
REMARK  status: ('A' for Active; 'I' for Inactive)
REMARK    1  A    between atoms: C1_2  and  C2_3 
REMARK    2  A    between atoms: C2_3  and  C3_4 
ROOT
ATOM      1  C3  UNL d   1       0.867   0.362  -0.017  0.00  0.00    -0.075 A 
ATOM      2  C4  UNL d   1       0.155   0.483   1.186  0.00  0.00     0.002 A 
ATOM      3  C5  UNL d   1       0.166   1.683   1.897  0.00  0.00     0.002 A 
ATOM      4  C6  UNL d   1       0.895   2.771   1.423  0.00  0.00    -0.004 A 
ATOM      5  C7  UNL d   1       1.619   2.657   0.238  0.00  0.00     0.002 A 
ATOM      6  C8  UNL d   1       1.606   1.459  -0.478  0.00  0.00     0.002 A 
ENDROOT
BRANCH   1   7
ATOM      7  C2  UNL d   1       0.836  -0.925  -0.807  0.00  0.00     0.056 C 
BRANCH   7   8
ATOM      8  C1  UNL d   1      -0.571  -1.497  -1.011  0.00  0.00     0.007 C 
ATOM      9  C   UNL d   1      -1.037  -1.441  -2.460  0.00  0.00     0.009 C 
ENDBRANCH   7   8
ENDBRANCH   1   7
TORSDOF 2
ENDMDL
