MODEL 1
REMARK minimizedAffinity -4.72687006
REMARK minimizedRMSD -1
REMARK  2 active torsions:
REMARK  status: ('A' for Active; 'I' for Inactive)
REMARK    1  A    between atoms: C1_2  and  C2_3 
REMARK    2  A    between atoms: C2_3  and  C3_4 
ROOT
ATOM      1  C3  UNL d   1       0.010   0.032   0.017  0.00  0.00    -0.075 A 
ATOM      2  C4  UNL d   1       0.958   1.066   0.027  0.00  0.00     0.002 A 
ATOM      3  C5  UNL d   1       0.994   1.983   1.078  0.00  0.00     0.002 A 
ATOM      4  C6  UNL d   1       0.080   1.885   2.124  0.00  0.00    -0.004 A 
ATOM      5  C7  UNL d   1      -0.876   0.872   2.117  0.00  0.00     0.002 A 
ATOM      6  C8  UNL d   1      -0.912  -0.050   1.069  0.00  0.00     0.002 A 
ENDROOT
BRANCH   1   7
ATOM      7  C2  UNL d   1      -0.016  -0.981  -1.102  0.00  0.00     0.056 C 
BRANCH   7   8
ATOM      8  C1  UNL d   1      -1.424  -1.336  -1.590  0.00  0.00     0.007 C 
ATOM      9  C   UNL d   1      -1.520  -1.466  -3.104  0.00  0.00     0.009 C 
ENDBRANCH   7   8
ENDBRANCH   1   7
TORSDOF 2
ENDMDL
