MODEL 1
REMARK minimizedAffinity -2.98175406
REMARK minimizedRMSD -1
REMARK  1 active torsions:
REMARK  status: ('A' for Active; 'I' for Inactive)
REMARK    1  A    between atoms: C3_4  and  O_7 
ROOT
ATOM      1  C   UNL d   1      -1.036   1.761   1.359  0.00  0.00    -0.033 A 
ATOM      2  C1  UNL d   1      -0.595   0.660   2.096  0.00  0.00     0.039 A 
ATOM      3  C2  UNL d   1       0.128  -0.357   1.469  0.00  0.00    -0.080 A 
ATOM      4  C3  UNL d   1       0.404  -0.260   0.108  0.00  0.00     0.150 A 
ATOM      5  C4  UNL d   1      -0.029   0.836  -0.631  0.00  0.00    -0.007 A 
ATOM      6  C5  UNL d   1      -0.751   1.850  -0.004  0.00  0.00     0.039 A 
ENDROOT
BRANCH   4   7
ATOM      7  O   UNL d   1       1.102  -1.230  -0.548  0.00  0.00    -0.526 OA
ATOM      8  H5  UNL d   1       1.311  -1.939   0.083  0.00  0.00     0.418 HD
ENDBRANCH   4   7
TORSDOF 1
ENDMDL
