MODEL 1
REMARK minimizedAffinity -3.65092611
REMARK minimizedRMSD -1
REMARK  1 active torsions:
REMARK  status: ('A' for Active; 'I' for Inactive)
REMARK    1  A    between atoms: C3_4  and  O_7 
ROOT
ATOM      1  C   UNL d   1      -0.718   2.224   1.552  0.00  0.00    -0.033 A 
ATOM      2  C1  UNL d   1      -0.172   2.575   0.316  0.00  0.00     0.039 A 
ATOM      3  C2  UNL d   1       0.347   1.590  -0.526  0.00  0.00    -0.080 A 
ATOM      4  C3  UNL d   1       0.312   0.258  -0.121  0.00  0.00     0.150 A 
ATOM      5  C4  UNL d   1      -0.234  -0.100   1.107  0.00  0.00    -0.007 A 
ATOM      6  C5  UNL d   1      -0.750   0.886   1.947  0.00  0.00     0.039 A 
ENDROOT
BRANCH   4   7
ATOM      7  O   UNL d   1       0.811  -0.738  -0.907  0.00  0.00    -0.526 OA
ATOM      8  H5  UNL d   1       1.181  -0.340  -1.712  0.00  0.00     0.418 HD
ENDBRANCH   4   7
TORSDOF 1
ENDMDL
