MODEL 1
REMARK minimizedAffinity -4.30266619
REMARK minimizedRMSD -1
REMARK  1 active torsions:
REMARK  status: ('A' for Active; 'I' for Inactive)
REMARK    1  A    between atoms: C3_4  and  O_7 
ROOT
ATOM      1  C   UNL d   1       0.877  -0.664  -0.025  0.00  0.00    -0.033 A 
ATOM      2  C1  UNL d   1       0.542   0.362  -0.910  0.00  0.00     0.039 A 
ATOM      3  C2  UNL d   1      -0.390   1.332  -0.537  0.00  0.00    -0.080 A 
ATOM      4  C3  UNL d   1      -0.977   1.266   0.723  0.00  0.00     0.150 A 
ATOM      5  C4  UNL d   1      -0.645   0.250   1.612  0.00  0.00    -0.007 A 
ATOM      6  C5  UNL d   1       0.285  -0.719   1.237  0.00  0.00     0.039 A 
ENDROOT
BRANCH   4   7
ATOM      7  O   UNL d   1      -1.896   2.188   1.131  0.00  0.00    -0.526 OA
ATOM      8  H5  UNL d   1      -2.048   2.813   0.403  0.00  0.00     0.418 HD
ENDBRANCH   4   7
TORSDOF 1
ENDMDL
