MODEL 1
REMARK minimizedAffinity -1.26003611
REMARK minimizedRMSD -1
REMARK  1 active torsions:
REMARK  status: ('A' for Active; 'I' for Inactive)
REMARK    1  A    between atoms: C3_4  and  O_7 
ROOT
ATOM      1  C   UNL d   1       1.699  -1.099  -0.113  0.00  0.00    -0.033 A 
ATOM      2  C1  UNL d   1       0.879  -1.057   1.017  0.00  0.00     0.039 A 
ATOM      3  C2  UNL d   1      -0.223  -0.201   1.050  0.00  0.00    -0.080 A 
ATOM      4  C3  UNL d   1      -0.495   0.607  -0.051  0.00  0.00     0.150 A 
ATOM      5  C4  UNL d   1       0.316   0.568  -1.181  0.00  0.00    -0.007 A 
ATOM      6  C5  UNL d   1       1.417  -0.287  -1.212  0.00  0.00     0.039 A 
ENDROOT
BRANCH   4   7
ATOM      7  O   UNL d   1      -1.557   1.462  -0.063  0.00  0.00    -0.526 OA
ATOM      8  H5  UNL d   1      -2.009   1.402   0.795  0.00  0.00     0.418 HD
ENDBRANCH   4   7
TORSDOF 1
ENDMDL
