MODEL 1
REMARK minimizedAffinity -0.494923353
REMARK minimizedRMSD -1
REMARK  1 active torsions:
REMARK  status: ('A' for Active; 'I' for Inactive)
REMARK    1  A    between atoms: C3_4  and  O_7 
ROOT
ATOM      1  C   UNL d   1       0.762  -0.195  -1.248  0.00  0.00    -0.033 A 
ATOM      2  C1  UNL d   1       0.231  -0.734  -0.074  0.00  0.00     0.039 A 
ATOM      3  C2  UNL d   1      -0.530   0.064   0.782  0.00  0.00    -0.080 A 
ATOM      4  C3  UNL d   1      -0.753   1.398   0.453  0.00  0.00     0.150 A 
ATOM      5  C4  UNL d   1      -0.231   1.941  -0.716  0.00  0.00    -0.007 A 
ATOM      6  C5  UNL d   1       0.529   1.143  -1.569  0.00  0.00     0.039 A 
ENDROOT
BRANCH   4   7
ATOM      7  O   UNL d   1      -1.485   2.218   1.260  0.00  0.00    -0.526 OA
ATOM      8  H5  UNL d   1      -1.757   1.714   2.045  0.00  0.00     0.418 HD
ENDBRANCH   4   7
TORSDOF 1
ENDMDL
