MODEL 1
REMARK minimizedAffinity -1.86054718
REMARK minimizedRMSD -1
REMARK  1 active torsions:
REMARK  status: ('A' for Active; 'I' for Inactive)
REMARK    1  A    between atoms: C3_4  and  O_7 
ROOT
ATOM      1  C   UNL d   1      -1.197   1.793   1.465  0.00  0.00    -0.033 A 
ATOM      2  C1  UNL d   1      -1.012   0.503   1.967  0.00  0.00     0.039 A 
ATOM      3  C2  UNL d   1      -0.331  -0.452   1.209  0.00  0.00    -0.080 A 
ATOM      4  C3  UNL d   1       0.158  -0.106  -0.047  0.00  0.00     0.150 A 
ATOM      5  C4  UNL d   1      -0.020   1.178  -0.552  0.00  0.00    -0.007 A 
ATOM      6  C5  UNL d   1      -0.700   2.130   0.206  0.00  0.00     0.039 A 
ENDROOT
BRANCH   4   7
ATOM      7  O   UNL d   1       0.824  -1.005  -0.825  0.00  0.00    -0.526 OA
ATOM      8  H5  UNL d   1       0.847  -1.858  -0.359  0.00  0.00     0.418 HD
ENDBRANCH   4   7
TORSDOF 1
ENDMDL
