MODEL 1
REMARK minimizedAffinity -2.21324277
REMARK minimizedRMSD -1
REMARK  1 active torsions:
REMARK  status: ('A' for Active; 'I' for Inactive)
REMARK    1  A    between atoms: C3_4  and  O_7 
ROOT
ATOM      1  C   UNL d   1      -1.143   0.910   1.619  0.00  0.00    -0.033 A 
ATOM      2  C1  UNL d   1      -0.760  -0.392   1.946  0.00  0.00     0.039 A 
ATOM      3  C2  UNL d   1       0.019  -1.137   1.058  0.00  0.00    -0.080 A 
ATOM      4  C3  UNL d   1       0.408  -0.568  -0.151  0.00  0.00     0.150 A 
ATOM      5  C4  UNL d   1       0.034   0.730  -0.482  0.00  0.00    -0.007 A 
ATOM      6  C5  UNL d   1      -0.745   1.472   0.405  0.00  0.00     0.039 A 
ENDROOT
BRANCH   4   7
ATOM      7  O   UNL d   1       1.165  -1.258  -1.052  0.00  0.00    -0.526 OA
ATOM      8  H5  UNL d   1       1.323  -2.150  -0.701  0.00  0.00     0.418 HD
ENDBRANCH   4   7
TORSDOF 1
ENDMDL
