MODEL 1
REMARK minimizedAffinity 0.850363076
REMARK minimizedRMSD -1
REMARK  1 active torsions:
REMARK  status: ('A' for Active; 'I' for Inactive)
REMARK    1  A    between atoms: C3_4  and  O_7 
ROOT
ATOM      1  C   UNL d   1       0.010  -0.195   0.847  0.00  0.00    -0.033 A 
ATOM      2  C1  UNL d   1       1.257  -0.593   0.363  0.00  0.00     0.039 A 
ATOM      3  C2  UNL d   1       1.837   0.079  -0.715  0.00  0.00    -0.080 A 
ATOM      4  C3  UNL d   1       1.161   1.147  -1.297  0.00  0.00     0.150 A 
ATOM      5  C4  UNL d   1      -0.080   1.552  -0.818  0.00  0.00    -0.007 A 
ATOM      6  C5  UNL d   1      -0.658   0.879   0.258  0.00  0.00     0.039 A 
ENDROOT
BRANCH   4   7
ATOM      7  O   UNL d   1       1.685   1.831  -2.354  0.00  0.00    -0.526 OA
ATOM      8  H5  UNL d   1       2.533   1.422  -2.596  0.00  0.00     0.418 HD
ENDBRANCH   4   7
TORSDOF 1
ENDMDL
