MODEL 1
REMARK minimizedAffinity -2.16127181
REMARK minimizedRMSD -1
REMARK  1 active torsions:
REMARK  status: ('A' for Active; 'I' for Inactive)
REMARK    1  A    between atoms: C3_4  and  O_7 
ROOT
ATOM      1  C   UNL d   1       0.770  -1.052   0.091  0.00  0.00    -0.033 A 
ATOM      2  C1  UNL d   1      -0.088  -0.184   0.770  0.00  0.00     0.039 A 
ATOM      3  C2  UNL d   1      -0.176   1.155   0.385  0.00  0.00    -0.080 A 
ATOM      4  C3  UNL d   1       0.597   1.613  -0.679  0.00  0.00     0.150 A 
ATOM      5  C4  UNL d   1       1.450   0.753  -1.362  0.00  0.00    -0.007 A 
ATOM      6  C5  UNL d   1       1.538  -0.584  -0.975  0.00  0.00     0.039 A 
ENDROOT
BRANCH   4   7
ATOM      7  O   UNL d   1       0.548   2.913  -1.088  0.00  0.00    -0.526 OA
ATOM      8  H5  UNL d   1      -0.063   3.396  -0.506  0.00  0.00     0.418 HD
ENDBRANCH   4   7
TORSDOF 1
ENDMDL
