MODEL 1
REMARK minimizedAffinity -2.55248713
REMARK minimizedRMSD -1
REMARK  1 active torsions:
REMARK  status: ('A' for Active; 'I' for Inactive)
REMARK    1  A    between atoms: C3_4  and  O_7 
ROOT
ATOM      1  C   UNL d   1       0.148  -0.826  -0.596  0.00  0.00    -0.033 A 
ATOM      2  C1  UNL d   1      -0.218   0.460  -0.996  0.00  0.00     0.039 A 
ATOM      3  C2  UNL d   1      -0.875   1.310  -0.104  0.00  0.00    -0.080 A 
ATOM      4  C3  UNL d   1      -1.157   0.863   1.184  0.00  0.00     0.150 A 
ATOM      5  C4  UNL d   1      -0.791  -0.416   1.590  0.00  0.00    -0.007 A 
ATOM      6  C5  UNL d   1      -0.137  -1.264   0.698  0.00  0.00     0.039 A 
ENDROOT
BRANCH   4   7
ATOM      7  O   UNL d   1      -1.800   1.655   2.088  0.00  0.00    -0.526 OA
ATOM      8  H5  UNL d   1      -2.017   2.499   1.659  0.00  0.00     0.418 HD
ENDBRANCH   4   7
TORSDOF 1
ENDMDL
