MODEL 1
REMARK minimizedAffinity -2.79739118
REMARK minimizedRMSD -1
REMARK  1 active torsions:
REMARK  status: ('A' for Active; 'I' for Inactive)
REMARK    1  A    between atoms: C3_4  and  O_7 
ROOT
ATOM      1  C   UNL d   1      -1.084   1.047   1.535  0.00  0.00    -0.033 A 
ATOM      2  C1  UNL d   1      -0.815  -0.198   2.107  0.00  0.00     0.039 A 
ATOM      3  C2  UNL d   1      -0.166  -1.184   1.361  0.00  0.00    -0.080 A 
ATOM      4  C3  UNL d   1       0.208  -0.913   0.048  0.00  0.00     0.150 A 
ATOM      5  C4  UNL d   1      -0.054   0.327  -0.526  0.00  0.00    -0.007 A 
ATOM      6  C5  UNL d   1      -0.702   1.310   0.219  0.00  0.00     0.039 A 
ENDROOT
BRANCH   4   7
ATOM      7  O   UNL d   1       0.839  -1.846  -0.721  0.00  0.00    -0.526 OA
ATOM      8  H5  UNL d   1       0.928  -2.663  -0.202  0.00  0.00     0.418 HD
ENDBRANCH   4   7
TORSDOF 1
ENDMDL
