MODEL 1
REMARK minimizedAffinity -3.0600915
REMARK minimizedRMSD -1
REMARK  1 active torsions:
REMARK  status: ('A' for Active; 'I' for Inactive)
REMARK    1  A    between atoms: C3_4  and  O_7 
ROOT
ATOM      1  C   UNL d   1      -1.050   1.111   2.016  0.00  0.00    -0.033 A 
ATOM      2  C1  UNL d   1      -0.418   1.615   0.878  0.00  0.00     0.039 A 
ATOM      3  C2  UNL d   1      -0.038   0.752  -0.152  0.00  0.00    -0.080 A 
ATOM      4  C3  UNL d   1      -0.298  -0.611  -0.033  0.00  0.00     0.150 A 
ATOM      5  C4  UNL d   1      -0.931  -1.119   1.097  0.00  0.00    -0.007 A 
ATOM      6  C5  UNL d   1      -1.308  -0.256   2.125  0.00  0.00     0.039 A 
ENDROOT
BRANCH   4   7
ATOM      7  O   UNL d   1       0.058  -1.493  -1.010  0.00  0.00    -0.526 OA
ATOM      8  H5  UNL d   1       0.512  -1.003  -1.716  0.00  0.00     0.418 HD
ENDBRANCH   4   7
TORSDOF 1
ENDMDL
