MODEL 1
REMARK minimizedAffinity -1.67761993
REMARK minimizedRMSD -1
REMARK  1 active torsions:
REMARK  status: ('A' for Active; 'I' for Inactive)
REMARK    1  A    between atoms: C3_4  and  O_7 
ROOT
ATOM      1  C   UNL d   1      -1.071   0.444   2.605  0.00  0.00    -0.033 A 
ATOM      2  C1  UNL d   1      -0.506  -0.680   1.999  0.00  0.00     0.039 A 
ATOM      3  C2  UNL d   1       0.029  -0.587   0.713  0.00  0.00    -0.080 A 
ATOM      4  C3  UNL d   1      -0.006   0.634   0.045  0.00  0.00     0.150 A 
ATOM      5  C4  UNL d   1      -0.565   1.758   0.644  0.00  0.00    -0.007 A 
ATOM      6  C5  UNL d   1      -1.099   1.663   1.928  0.00  0.00     0.039 A 
ENDROOT
BRANCH   4   7
ATOM      7  O   UNL d   1       0.499   0.772  -1.214  0.00  0.00    -0.526 OA
ATOM      8  H5  UNL d   1       0.825  -0.094  -1.511  0.00  0.00     0.418 HD
ENDBRANCH   4   7
TORSDOF 1
ENDMDL
