MODEL 1
REMARK minimizedAffinity -1.77213132
REMARK minimizedRMSD -1
REMARK  1 active torsions:
REMARK  status: ('A' for Active; 'I' for Inactive)
REMARK    1  A    between atoms: C3_4  and  O_7 
ROOT
ATOM      1  C   UNL d   1       0.478  -3.490  -2.501  0.00  0.00    -0.033 A 
ATOM      2  C1  UNL d   1      -0.114  -2.371  -3.091  0.00  0.00     0.039 A 
ATOM      3  C2  UNL d   1      -0.109  -1.144  -2.425  0.00  0.00    -0.080 A 
ATOM      4  C3  UNL d   1       0.492  -1.048  -1.173  0.00  0.00     0.150 A 
ATOM      5  C4  UNL d   1       1.087  -2.157  -0.581  0.00  0.00    -0.007 A 
ATOM      6  C5  UNL d   1       1.080  -3.382  -1.247  0.00  0.00     0.039 A 
ENDROOT
BRANCH   4   7
ATOM      7  O   UNL d   1       0.517   0.128  -0.483  0.00  0.00    -0.526 OA
ATOM      8  H5  UNL d   1       0.044   0.799  -1.002  0.00  0.00     0.418 HD
ENDBRANCH   4   7
TORSDOF 1
ENDMDL
