MODEL 1
REMARK minimizedAffinity -3.82525277
REMARK minimizedRMSD -1
REMARK  1 active torsions:
REMARK  status: ('A' for Active; 'I' for Inactive)
REMARK    1  A    between atoms: C3_4  and  O_7 
ROOT
ATOM      1  C   UNL d   1      -0.712   2.344   1.034  0.00  0.00    -0.033 A 
ATOM      2  C1  UNL d   1      -1.061   1.149   1.666  0.00  0.00     0.039 A 
ATOM      3  C2  UNL d   1      -0.647  -0.072   1.131  0.00  0.00    -0.080 A 
ATOM      4  C3  UNL d   1       0.116  -0.085  -0.034  0.00  0.00     0.150 A 
ATOM      5  C4  UNL d   1       0.470   1.102  -0.667  0.00  0.00    -0.007 A 
ATOM      6  C5  UNL d   1       0.055   2.321  -0.132  0.00  0.00     0.039 A 
ENDROOT
BRANCH   4   7
ATOM      7  O   UNL d   1       0.539  -1.252  -0.596  0.00  0.00    -0.526 OA
ATOM      8  H5  UNL d   1       0.195  -1.991  -0.066  0.00  0.00     0.418 HD
ENDBRANCH   4   7
TORSDOF 1
ENDMDL
