MODEL 1
REMARK minimizedAffinity -5.4784646
REMARK minimizedRMSD -1
REMARK  1 active torsions:
REMARK  status: ('A' for Active; 'I' for Inactive)
REMARK    1  A    between atoms: C3_4  and  O_7 
ROOT
ATOM      1  C   UNL d   1      -2.476   2.242   1.599  0.00  0.00    -0.033 A 
ATOM      2  C1  UNL d   1      -2.156   1.301   0.619  0.00  0.00     0.039 A 
ATOM      3  C2  UNL d   1      -1.126   1.558  -0.288  0.00  0.00    -0.080 A 
ATOM      4  C3  UNL d   1      -0.425   2.758  -0.204  0.00  0.00     0.150 A 
ATOM      5  C4  UNL d   1      -0.736   3.698   0.773  0.00  0.00    -0.007 A 
ATOM      6  C5  UNL d   1      -1.766   3.440   1.677  0.00  0.00     0.039 A 
ENDROOT
BRANCH   4   7
ATOM      7  O   UNL d   1       0.585   3.056  -1.070  0.00  0.00    -0.526 OA
ATOM      8  H5  UNL d   1       0.669   2.327  -1.707  0.00  0.00     0.418 HD
ENDBRANCH   4   7
TORSDOF 1
ENDMDL
