MODEL 1
REMARK minimizedAffinity -4.24431849
REMARK minimizedRMSD -1
REMARK  1 active torsions:
REMARK  status: ('A' for Active; 'I' for Inactive)
REMARK    1  A    between atoms: C3_4  and  O_7 
ROOT
ATOM      1  C   UNL d   1      -0.043  -0.945   1.472  0.00  0.00    -0.033 A 
ATOM      2  C1  UNL d   1      -0.757   0.216   1.776  0.00  0.00     0.039 A 
ATOM      3  C2  UNL d   1      -0.688   1.323   0.927  0.00  0.00    -0.080 A 
ATOM      4  C3  UNL d   1       0.097   1.255  -0.221  0.00  0.00     0.150 A 
ATOM      5  C4  UNL d   1       0.807   0.101  -0.532  0.00  0.00    -0.007 A 
ATOM      6  C5  UNL d   1       0.738  -1.003   0.318  0.00  0.00     0.039 A 
ENDROOT
BRANCH   4   7
ATOM      7  O   UNL d   1       0.199   2.311  -1.077  0.00  0.00    -0.526 OA
ATOM      8  H5  UNL d   1      -0.322   3.049  -0.719  0.00  0.00     0.418 HD
ENDBRANCH   4   7
TORSDOF 1
ENDMDL
