MODEL 1
REMARK minimizedAffinity -1.94368923
REMARK minimizedRMSD -1
REMARK  1 active torsions:
REMARK  status: ('A' for Active; 'I' for Inactive)
REMARK    1  A    between atoms: C3_4  and  O_7 
ROOT
ATOM      1  C   UNL d   1       0.672  -0.723  -0.994  0.00  0.00    -0.033 A 
ATOM      2  C1  UNL d   1       0.487   0.661  -1.045  0.00  0.00     0.039 A 
ATOM      3  C2  UNL d   1      -0.165   1.319  -0.001  0.00  0.00    -0.080 A 
ATOM      4  C3  UNL d   1      -0.627   0.584   1.088  0.00  0.00     0.150 A 
ATOM      5  C4  UNL d   1      -0.443  -0.794   1.147  0.00  0.00    -0.007 A 
ATOM      6  C5  UNL d   1       0.208  -1.450   0.103  0.00  0.00     0.039 A 
ENDROOT
BRANCH   4   7
ATOM      7  O   UNL d   1      -1.274   1.181   2.128  0.00  0.00    -0.526 OA
ATOM      8  H5  UNL d   1      -1.354   2.130   1.937  0.00  0.00     0.418 HD
ENDBRANCH   4   7
TORSDOF 1
ENDMDL
