MODEL 1
REMARK minimizedAffinity -4.11121273
REMARK minimizedRMSD -1
REMARK  1 active torsions:
REMARK  status: ('A' for Active; 'I' for Inactive)
REMARK    1  A    between atoms: C3_4  and  O_7 
ROOT
ATOM      1  C   UNL d   1      -1.259   2.145   1.367  0.00  0.00    -0.033 A 
ATOM      2  C1  UNL d   1      -1.321   0.905   2.006  0.00  0.00     0.039 A 
ATOM      3  C2  UNL d   1      -0.747  -0.219   1.409  0.00  0.00    -0.080 A 
ATOM      4  C3  UNL d   1      -0.115  -0.091   0.175  0.00  0.00     0.150 A 
ATOM      5  C4  UNL d   1      -0.047   1.142  -0.465  0.00  0.00    -0.007 A 
ATOM      6  C5  UNL d   1      -0.621   2.263   0.132  0.00  0.00     0.039 A 
ENDROOT
BRANCH   4   7
ATOM      7  O   UNL d   1       0.454  -1.161  -0.448  0.00  0.00    -0.526 OA
ATOM      8  H5  UNL d   1       0.305  -1.951   0.098  0.00  0.00     0.418 HD
ENDBRANCH   4   7
TORSDOF 1
ENDMDL
