MODEL 1
REMARK minimizedAffinity 9.85743618
REMARK minimizedRMSD -1
REMARK  1 active torsions:
REMARK  status: ('A' for Active; 'I' for Inactive)
REMARK    1  A    between atoms: C1_2  and  C2_3 
ROOT
ATOM      1  C2  UNL d   1       3.563  -3.783  -0.282  0.00  0.00    -0.077 A 
ATOM      2  C3  UNL d   1       4.875  -4.187   0.003  0.00  0.00     0.002 A 
ATOM      3  C4  UNL d   1       5.430  -5.292  -0.644  0.00  0.00     0.002 A 
ATOM      4  C5  UNL d   1       4.683  -6.000  -1.583  0.00  0.00    -0.004 A 
ATOM      5  C6  UNL d   1       3.377  -5.608  -1.873  0.00  0.00     0.002 A 
ATOM      6  C7  UNL d   1       2.819  -4.504  -1.226  0.00  0.00     0.002 A 
ENDROOT
BRANCH   1   7
ATOM      7  C1  UNL d   1       2.978  -2.562   0.378  0.00  0.00     0.055 C 
ATOM      8  C   UNL d   1       3.748  -1.306  -0.003  0.00  0.00     0.019 C 
ENDBRANCH   1   7
TORSDOF 1
ENDMDL
