MODEL 1
REMARK minimizedAffinity 9.13622761
REMARK minimizedRMSD -1
REMARK  1 active torsions:
REMARK  status: ('A' for Active; 'I' for Inactive)
REMARK    1  A    between atoms: C1_2  and  C2_3 
ROOT
ATOM      1  C2  UNL d   1      -1.636   2.482   1.677  0.00  0.00    -0.077 A 
ATOM      2  C3  UNL d   1      -0.341   2.452   2.213  0.00  0.00     0.002 A 
ATOM      3  C4  UNL d   1       0.664   1.710   1.588  0.00  0.00     0.002 A 
ATOM      4  C5  UNL d   1       0.385   0.997   0.424  0.00  0.00    -0.004 A 
ATOM      5  C6  UNL d   1      -0.900   1.019  -0.115  0.00  0.00     0.002 A 
ATOM      6  C7  UNL d   1      -1.906   1.759   0.508  0.00  0.00     0.002 A 
ENDROOT
BRANCH   1   7
ATOM      7  C1  UNL d   1      -2.709   3.320   2.321  0.00  0.00     0.055 C 
ATOM      8  C   UNL d   1      -2.904   4.635   1.580  0.00  0.00     0.019 C 
ENDBRANCH   1   7
TORSDOF 1
ENDMDL
