MODEL 1
REMARK minimizedAffinity 7.86836672
REMARK minimizedRMSD -1
REMARK  1 active torsions:
REMARK  status: ('A' for Active; 'I' for Inactive)
REMARK    1  A    between atoms: C1_2  and  C2_3 
ROOT
ATOM      1  C2  UNL d   1      -1.721   2.975   0.454  0.00  0.00    -0.077 A 
ATOM      2  C3  UNL d   1      -0.430   2.541   0.785  0.00  0.00     0.002 A 
ATOM      3  C4  UNL d   1       0.530   2.356  -0.212  0.00  0.00     0.002 A 
ATOM      4  C5  UNL d   1       0.210   2.607  -1.544  0.00  0.00    -0.004 A 
ATOM      5  C6  UNL d   1      -1.072   3.036  -1.884  0.00  0.00     0.002 A 
ATOM      6  C7  UNL d   1      -2.033   3.221  -0.889  0.00  0.00     0.002 A 
ENDROOT
BRANCH   1   7
ATOM      7  C1  UNL d   1      -2.743   3.222   1.533  0.00  0.00     0.055 C 
ATOM      8  C   UNL d   1      -3.498   4.521   1.293  0.00  0.00     0.019 C 
ENDBRANCH   1   7
TORSDOF 1
ENDMDL
