MODEL 1
REMARK minimizedAffinity 9.37717915
REMARK minimizedRMSD -1
REMARK  1 active torsions:
REMARK  status: ('A' for Active; 'I' for Inactive)
REMARK    1  A    between atoms: C1_2  and  C2_3 
ROOT
ATOM      1  C2  UNL d   1      -4.150  -5.197  -5.040  0.00  0.00    -0.077 A 
ATOM      2  C3  UNL d   1      -2.968  -5.691  -4.471  0.00  0.00     0.002 A 
ATOM      3  C4  UNL d   1      -1.799  -4.927  -4.498  0.00  0.00     0.002 A 
ATOM      4  C5  UNL d   1      -1.803  -3.665  -5.087  0.00  0.00    -0.004 A 
ATOM      5  C6  UNL d   1      -2.973  -3.166  -5.657  0.00  0.00     0.002 A 
ATOM      6  C7  UNL d   1      -4.142  -3.928  -5.632  0.00  0.00     0.002 A 
ENDROOT
BRANCH   1   7
ATOM      7  C1  UNL d   1      -5.424  -5.998  -4.968  0.00  0.00     0.055 C 
ATOM      8  C   UNL d   1      -5.999  -5.999  -3.560  0.00  0.00     0.019 C 
ENDBRANCH   1   7
TORSDOF 1
ENDMDL
