MODEL 1
REMARK minimizedAffinity 5.39488697
REMARK minimizedRMSD -1
REMARK  1 active torsions:
REMARK  status: ('A' for Active; 'I' for Inactive)
REMARK    1  A    between atoms: C1_2  and  C2_3 
ROOT
ATOM      1  C2  UNL d   1       0.184   3.186   0.739  0.00  0.00    -0.077 A 
ATOM      2  C3  UNL d   1       1.371   3.635   1.335  0.00  0.00     0.002 A 
ATOM      3  C4  UNL d   1       1.715   3.221   2.623  0.00  0.00     0.002 A 
ATOM      4  C5  UNL d   1       0.880   2.353   3.324  0.00  0.00    -0.004 A 
ATOM      5  C6  UNL d   1      -0.303   1.903   2.742  0.00  0.00     0.002 A 
ATOM      6  C7  UNL d   1      -0.650   2.317   1.455  0.00  0.00     0.002 A 
ENDROOT
BRANCH   1   7
ATOM      7  C1  UNL d   1      -0.165   3.592  -0.669  0.00  0.00     0.055 C 
ATOM      8  C   UNL d   1      -0.802   2.442  -1.435  0.00  0.00     0.019 C 
ENDBRANCH   1   7
TORSDOF 1
ENDMDL
