MODEL 1
REMARK minimizedAffinity -1.96870542
REMARK minimizedRMSD -1
REMARK  2 active torsions:
REMARK  status: ('A' for Active; 'I' for Inactive)
REMARK    1  A    between atoms: C2'_3  and  C1'_4 
REMARK    2  A    between atoms: C1'_4  and  C1_5 
ROOT
ATOM      1  C1  I4B d   1       0.348   0.674   0.694  0.00  0.00    -0.075 A 
ATOM      2  C2  I4B d   1       0.587   1.094   1.979  0.00  0.00     0.003 A 
ATOM      3  C3  I4B d   1       1.689   1.938   2.260  0.00  0.00     0.002 A 
ATOM      4  C4  I4B d   1       2.549   2.294   1.241  0.00  0.00    -0.004 A 
ATOM      5  C5  I4B d   1       2.292   1.886  -0.065  0.00  0.00     0.002 A 
ATOM      6  C6  I4B d   1       1.178   1.081  -0.342  0.00  0.00     0.003 A 
ENDROOT
BRANCH   1   7
ATOM      7  C1' I4B d   1      -0.805  -0.244   0.439  0.00  0.00     0.060 C 
BRANCH   7   8
ATOM      8  C2' I4B d   1      -0.473  -1.082  -0.780  0.00  0.00    -0.013 C 
ATOM      9  C4' I4B d   1       0.764  -1.909  -0.553  0.00  0.00     0.013 C 
ATOM     10  C3' I4B d   1      -1.658  -1.951  -1.080  0.00  0.00     0.013 C 
ENDBRANCH   7   8
ENDBRANCH   1   7
TORSDOF 2
ENDMDL
