MODEL 1
REMARK minimizedAffinity -4.7245841
REMARK minimizedRMSD -1
REMARK  2 active torsions:
REMARK  status: ('A' for Active; 'I' for Inactive)
REMARK    1  A    between atoms: C2'_3  and  C1'_4 
REMARK    2  A    between atoms: C1'_4  and  C1_5 
ROOT
ATOM      1  C1  I4B d   1       0.112  -0.405  -0.077  0.00  0.00    -0.075 A 
ATOM      2  C2  I4B d   1       1.227   0.350  -0.343  0.00  0.00     0.003 A 
ATOM      3  C3  I4B d   1       1.496   1.516   0.414  0.00  0.00     0.002 A 
ATOM      4  C4  I4B d   1       0.603   1.915   1.388  0.00  0.00    -0.004 A 
ATOM      5  C5  I4B d   1      -0.515   1.136   1.671  0.00  0.00     0.002 A 
ATOM      6  C6  I4B d   1      -0.756  -0.038   0.943  0.00  0.00     0.003 A 
ENDROOT
BRANCH   1   7
ATOM      7  C1' I4B d   1      -0.159  -1.612  -0.918  0.00  0.00     0.060 C 
BRANCH   7   8
ATOM      8  C2' I4B d   1      -1.495  -1.412  -1.604  0.00  0.00    -0.013 C 
ATOM      9  C4' I4B d   1      -1.325  -1.259  -3.093  0.00  0.00     0.013 C 
ATOM     10  C3' I4B d   1      -2.364  -2.589  -1.276  0.00  0.00     0.013 C 
ENDBRANCH   7   8
ENDBRANCH   1   7
TORSDOF 2
ENDMDL
