MODEL 1
REMARK minimizedAffinity -5.17338562
REMARK minimizedRMSD -1
REMARK  2 active torsions:
REMARK  status: ('A' for Active; 'I' for Inactive)
REMARK    1  A    between atoms: C2'_3  and  C1'_4 
REMARK    2  A    between atoms: C1'_4  and  C1_5 
ROOT
ATOM      1  C1  I4B d   1      -0.572  -0.116  -0.082  0.00  0.00    -0.075 A 
ATOM      2  C2  I4B d   1      -1.373   0.421   0.896  0.00  0.00     0.003 A 
ATOM      3  C3  I4B d   1      -0.906   1.496   1.689  0.00  0.00     0.002 A 
ATOM      4  C4  I4B d   1       0.378   1.968   1.507  0.00  0.00    -0.004 A 
ATOM      5  C5  I4B d   1       1.180   1.439   0.500  0.00  0.00     0.002 A 
ATOM      6  C6  I4B d   1       0.698   0.399  -0.308  0.00  0.00     0.003 A 
ENDROOT
BRANCH   1   7
ATOM      7  C1' I4B d   1      -1.085  -1.273  -0.879  0.00  0.00     0.060 C 
BRANCH   7   8
ATOM      8  C2' I4B d   1      -2.027  -0.731  -1.934  0.00  0.00    -0.013 C 
ATOM      9  C4' I4B d   1      -1.268  -0.094  -3.068  0.00  0.00     0.013 C 
ATOM     10  C3' I4B d   1      -2.878  -1.866  -2.422  0.00  0.00     0.013 C 
ENDBRANCH   7   8
ENDBRANCH   1   7
TORSDOF 2
ENDMDL
