MODEL 1
REMARK minimizedAffinity -5.94220734
REMARK minimizedRMSD -1
REMARK  2 active torsions:
REMARK  status: ('A' for Active; 'I' for Inactive)
REMARK    1  A    between atoms: C2'_3  and  C1'_4 
REMARK    2  A    between atoms: C1'_4  and  C1_5 
ROOT
ATOM      1  C1  I4B d   1       0.405  -0.572  -0.214  0.00  0.00    -0.075 A 
ATOM      2  C2  I4B d   1       1.682  -0.186  -0.537  0.00  0.00     0.003 A 
ATOM      3  C3  I4B d   1       2.203   1.035  -0.045  0.00  0.00     0.002 A 
ATOM      4  C4  I4B d   1       1.401   1.858   0.718  0.00  0.00    -0.004 A 
ATOM      5  C5  I4B d   1       0.114   1.455   1.063  0.00  0.00     0.002 A 
ATOM      6  C6  I4B d   1      -0.384   0.226   0.605  0.00  0.00     0.003 A 
ENDROOT
BRANCH   1   7
ATOM      7  C1' I4B d   1      -0.126  -1.852  -0.778  0.00  0.00     0.060 C 
BRANCH   7   8
ATOM      8  C2' I4B d   1      -1.596  -1.654  -1.085  0.00  0.00    -0.013 C 
ATOM      9  C4' I4B d   1      -1.794  -1.126  -2.482  0.00  0.00     0.013 C 
ATOM     10  C3' I4B d   1      -2.290  -2.970  -0.901  0.00  0.00     0.013 C 
ENDBRANCH   7   8
ENDBRANCH   1   7
TORSDOF 2
ENDMDL
