MODEL 1
REMARK minimizedAffinity -5.06056929
REMARK minimizedRMSD -1
REMARK  2 active torsions:
REMARK  status: ('A' for Active; 'I' for Inactive)
REMARK    1  A    between atoms: C2'_3  and  C1'_4 
REMARK    2  A    between atoms: C1'_4  and  C1_5 
ROOT
ATOM      1  C1  I4B d   1      -0.134   0.596   0.235  0.00  0.00    -0.075 A 
ATOM      2  C2  I4B d   1       0.004   1.158   1.479  0.00  0.00     0.003 A 
ATOM      3  C3  I4B d   1       0.906   2.232   1.680  0.00  0.00     0.002 A 
ATOM      4  C4  I4B d   1       1.680   2.674   0.627  0.00  0.00    -0.004 A 
ATOM      5  C5  I4B d   1       1.522   2.118  -0.639  0.00  0.00     0.002 A 
ATOM      6  C6  I4B d   1       0.600   1.081  -0.840  0.00  0.00     0.003 A 
ENDROOT
BRANCH   1   7
ATOM      7  C1' I4B d   1      -1.072  -0.558   0.065  0.00  0.00     0.060 C 
BRANCH   7   8
ATOM      8  C2' I4B d   1      -0.655  -1.319  -1.177  0.00  0.00    -0.013 C 
ATOM      9  C4' I4B d   1       0.628  -2.074  -0.949  0.00  0.00     0.013 C 
ATOM     10  C3' I4B d   1      -1.772  -2.249  -1.546  0.00  0.00     0.013 C 
ENDBRANCH   7   8
ENDBRANCH   1   7
TORSDOF 2
ENDMDL
