MODEL 1
REMARK minimizedAffinity -3.57127571
REMARK minimizedRMSD -1
REMARK  2 active torsions:
REMARK  status: ('A' for Active; 'I' for Inactive)
REMARK    1  A    between atoms: C2'_3  and  C1'_4 
REMARK    2  A    between atoms: C1'_4  and  C1_5 
ROOT
ATOM      1  C1  I4B d   1       0.742   0.274   0.466  0.00  0.00    -0.075 A 
ATOM      2  C2  I4B d   1       0.870   0.936  -0.730  0.00  0.00     0.003 A 
ATOM      3  C3  I4B d   1       0.964   2.348  -0.757  0.00  0.00     0.002 A 
ATOM      4  C4  I4B d   1       0.875   3.058   0.423  0.00  0.00    -0.004 A 
ATOM      5  C5  I4B d   1       0.769   2.385   1.636  0.00  0.00     0.002 A 
ATOM      6  C6  I4B d   1       0.714   0.983   1.660  0.00  0.00     0.003 A 
ENDROOT
BRANCH   1   7
ATOM      7  C1' I4B d   1       0.612  -1.216   0.455  0.00  0.00     0.060 C 
BRANCH   7   8
ATOM      8  C2' I4B d   1      -0.863  -1.556   0.528  0.00  0.00    -0.013 C 
ATOM      9  C4' I4B d   1      -1.587  -0.641   1.479  0.00  0.00     0.013 C 
ATOM     10  C3' I4B d   1      -1.430  -1.457  -0.857  0.00  0.00     0.013 C 
ENDBRANCH   7   8
ENDBRANCH   1   7
TORSDOF 2
ENDMDL
