MODEL 1
REMARK minimizedAffinity -3.91177726
REMARK minimizedRMSD -1
REMARK  2 active torsions:
REMARK  status: ('A' for Active; 'I' for Inactive)
REMARK    1  A    between atoms: C2'_3  and  C1'_4 
REMARK    2  A    between atoms: C1'_4  and  C1_5 
ROOT
ATOM      1  C1  I4B d   1      -0.094  -0.364  -0.216  0.00  0.00    -0.075 A 
ATOM      2  C2  I4B d   1       1.029   0.324  -0.606  0.00  0.00     0.003 A 
ATOM      3  C3  I4B d   1       1.418   1.500   0.080  0.00  0.00     0.002 A 
ATOM      4  C4  I4B d   1       0.634   1.977   1.110  0.00  0.00    -0.004 A 
ATOM      5  C5  I4B d   1      -0.491   1.267   1.519  0.00  0.00     0.002 A 
ATOM      6  C6  I4B d   1      -0.850   0.082   0.860  0.00  0.00     0.003 A 
ENDROOT
BRANCH   1   7
ATOM      7  C1' I4B d   1      -0.494  -1.584  -0.983  0.00  0.00     0.060 C 
BRANCH   7   8
ATOM      8  C2' I4B d   1      -1.544  -1.174  -1.996  0.00  0.00    -0.013 C 
ATOM      9  C4' I4B d   1      -1.122  -1.537  -3.395  0.00  0.00     0.013 C 
ATOM     10  C3' I4B d   1      -2.832  -1.848  -1.627  0.00  0.00     0.013 C 
ENDBRANCH   7   8
ENDBRANCH   1   7
TORSDOF 2
ENDMDL
