MODEL 1
REMARK minimizedAffinity -4.43949318
REMARK minimizedRMSD -1
REMARK  2 active torsions:
REMARK  status: ('A' for Active; 'I' for Inactive)
REMARK    1  A    between atoms: C2'_3  and  C1'_4 
REMARK    2  A    between atoms: C1'_4  and  C1_5 
ROOT
ATOM      1  C1  I4B d   1       0.150  -0.216  -0.258  0.00  0.00    -0.075 A 
ATOM      2  C2  I4B d   1      -0.438   0.107   0.939  0.00  0.00     0.003 A 
ATOM      3  C3  I4B d   1      -0.053   1.282   1.628  0.00  0.00     0.002 A 
ATOM      4  C4  I4B d   1       0.953   2.074   1.113  0.00  0.00    -0.004 A 
ATOM      5  C5  I4B d   1       1.532   1.757  -0.113  0.00  0.00     0.002 A 
ATOM      6  C6  I4B d   1       1.120   0.611  -0.809  0.00  0.00     0.003 A 
ENDROOT
BRANCH   1   7
ATOM      7  C1' I4B d   1      -0.257  -1.482  -0.943  0.00  0.00     0.060 C 
BRANCH   7   8
ATOM      8  C2' I4B d   1      -1.536  -1.209  -1.707  0.00  0.00    -0.013 C 
ATOM      9  C4' I4B d   1      -1.274  -1.095  -3.186  0.00  0.00     0.013 C 
ATOM     10  C3' I4B d   1      -2.499  -2.321  -1.412  0.00  0.00     0.013 C 
ENDBRANCH   7   8
ENDBRANCH   1   7
TORSDOF 2
ENDMDL
