MODEL 1
REMARK minimizedAffinity -4.58438921
REMARK minimizedRMSD -1
REMARK  2 active torsions:
REMARK  status: ('A' for Active; 'I' for Inactive)
REMARK    1  A    between atoms: C2'_3  and  C1'_4 
REMARK    2  A    between atoms: C1'_4  and  C1_5 
ROOT
ATOM      1  C1  I4B d   1       0.026  -0.219  -0.359  0.00  0.00    -0.075 A 
ATOM      2  C2  I4B d   1      -0.511   0.921   0.187  0.00  0.00     0.003 A 
ATOM      3  C3  I4B d   1       0.323   2.021   0.502  0.00  0.00     0.002 A 
ATOM      4  C4  I4B d   1       1.685   1.921   0.302  0.00  0.00    -0.004 A 
ATOM      5  C5  I4B d   1       2.224   0.774  -0.273  0.00  0.00     0.002 A 
ATOM      6  C6  I4B d   1       1.388  -0.298  -0.618  0.00  0.00     0.003 A 
ENDROOT
BRANCH   1   7
ATOM      7  C1' I4B d   1      -0.879  -1.374  -0.649  0.00  0.00     0.060 C 
BRANCH   7   8
ATOM      8  C2' I4B d   1      -1.936  -0.905  -1.629  0.00  0.00    -0.013 C 
ATOM      9  C4' I4B d   1      -1.317  -0.468  -2.930  0.00  0.00     0.013 C 
ATOM     10  C3' I4B d   1      -2.903  -2.031  -1.840  0.00  0.00     0.013 C 
ENDBRANCH   7   8
ENDBRANCH   1   7
TORSDOF 2
ENDMDL
