MODEL 1
REMARK minimizedAffinity -4.95791101
REMARK minimizedRMSD -1
REMARK  2 active torsions:
REMARK  status: ('A' for Active; 'I' for Inactive)
REMARK    1  A    between atoms: C2'_3  and  C1'_4 
REMARK    2  A    between atoms: C1'_4  and  C1_5 
ROOT
ATOM      1  C1  I4B d   1       0.183   0.217  -0.320  0.00  0.00    -0.075 A 
ATOM      2  C2  I4B d   1      -0.633   0.366   0.773  0.00  0.00     0.003 A 
ATOM      3  C3  I4B d   1      -0.537   1.524   1.582  0.00  0.00     0.002 A 
ATOM      4  C4  I4B d   1       0.417   2.478   1.293  0.00  0.00    -0.004 A 
ATOM      5  C5  I4B d   1       1.229   2.336   0.171  0.00  0.00     0.002 A 
ATOM      6  C6  I4B d   1       1.103   1.204  -0.648  0.00  0.00     0.003 A 
ENDROOT
BRANCH   1   7
ATOM      7  C1' I4B d   1       0.078  -1.034  -1.133  0.00  0.00     0.060 C 
BRANCH   7   8
ATOM      8  C2' I4B d   1      -1.254  -1.011  -1.855  0.00  0.00    -0.013 C 
ATOM      9  C4' I4B d   1      -1.069  -0.791  -3.334  0.00  0.00     0.013 C 
ATOM     10  C3' I4B d   1      -1.951  -2.311  -1.584  0.00  0.00     0.013 C 
ENDBRANCH   7   8
ENDBRANCH   1   7
TORSDOF 2
ENDMDL
