MODEL 1
REMARK minimizedAffinity -3.59654784
REMARK minimizedRMSD -1
REMARK  2 active torsions:
REMARK  status: ('A' for Active; 'I' for Inactive)
REMARK    1  A    between atoms: C2'_3  and  C1'_4 
REMARK    2  A    between atoms: C1'_4  and  C1_5 
ROOT
ATOM      1  C1  I4B d   1      -0.431   0.794   0.831  0.00  0.00    -0.075 A 
ATOM      2  C2  I4B d   1      -1.158   1.304  -0.217  0.00  0.00     0.003 A 
ATOM      3  C3  I4B d   1      -1.462   0.491  -1.335  0.00  0.00     0.002 A 
ATOM      4  C4  I4B d   1      -0.980  -0.801  -1.388  0.00  0.00    -0.004 A 
ATOM      5  C5  I4B d   1      -0.263  -1.323  -0.315  0.00  0.00     0.002 A 
ATOM      6  C6  I4B d   1       0.003  -0.525   0.807  0.00  0.00     0.003 A 
ENDROOT
BRANCH   1   7
ATOM      7  C1' I4B d   1      -0.100   1.691   1.982  0.00  0.00     0.060 C 
BRANCH   7   8
ATOM      8  C2' I4B d   1       1.387   1.581   2.246  0.00  0.00    -0.013 C 
ATOM      9  C4' I4B d   1       2.129   2.768   1.691  0.00  0.00     0.013 C 
ATOM     10  C3' I4B d   1       1.587   1.462   3.728  0.00  0.00     0.013 C 
ENDBRANCH   7   8
ENDBRANCH   1   7
TORSDOF 2
ENDMDL
