MODEL 1
REMARK minimizedAffinity -5.55998373
REMARK minimizedRMSD -1
REMARK  2 active torsions:
REMARK  status: ('A' for Active; 'I' for Inactive)
REMARK    1  A    between atoms: C2'_3  and  C1'_4 
REMARK    2  A    between atoms: C1'_4  and  C1_5 
ROOT
ATOM      1  C1  I4B d   1       0.005  -0.123   0.022  0.00  0.00    -0.075 A 
ATOM      2  C2  I4B d   1      -0.955  -0.159   1.002  0.00  0.00     0.003 A 
ATOM      3  C3  I4B d   1      -0.951   0.806   2.039  0.00  0.00     0.002 A 
ATOM      4  C4  I4B d   1       0.054   1.750   2.085  0.00  0.00    -0.004 A 
ATOM      5  C5  I4B d   1       1.013   1.798   1.078  0.00  0.00     0.002 A 
ATOM      6  C6  I4B d   1       0.982   0.864   0.033  0.00  0.00     0.003 A 
ENDROOT
BRANCH   1   7
ATOM      7  C1' I4B d   1      -0.010  -1.177  -1.040  0.00  0.00     0.060 C 
BRANCH   7   8
ATOM      8  C2' I4B d   1      -1.405  -1.228  -1.627  0.00  0.00    -0.013 C 
ATOM      9  C4' I4B d   1      -1.377  -1.023  -3.119  0.00  0.00     0.013 C 
ATOM     10  C3' I4B d   1      -2.007  -2.556  -1.275  0.00  0.00     0.013 C 
ENDBRANCH   7   8
ENDBRANCH   1   7
TORSDOF 2
ENDMDL
