MODEL 1
REMARK minimizedAffinity 0.558473766
REMARK minimizedRMSD -1
REMARK  2 active torsions:
REMARK  status: ('A' for Active; 'I' for Inactive)
REMARK    1  A    between atoms: C2'_3  and  C1'_4 
REMARK    2  A    between atoms: C1'_4  and  C1_5 
ROOT
ATOM      1  C1  I4B d   1      -0.502  -0.440  -0.107  0.00  0.00    -0.075 A 
ATOM      2  C2  I4B d   1      -1.357   0.141   0.796  0.00  0.00     0.003 A 
ATOM      3  C3  I4B d   1      -0.913   1.210   1.612  0.00  0.00     0.002 A 
ATOM      4  C4  I4B d   1       0.399   1.629   1.529  0.00  0.00    -0.004 A 
ATOM      5  C5  I4B d   1       1.258   1.053   0.597  0.00  0.00     0.002 A 
ATOM      6  C6  I4B d   1       0.802   0.020  -0.234  0.00  0.00     0.003 A 
ENDROOT
BRANCH   1   7
ATOM      7  C1' I4B d   1      -0.994  -1.589  -0.929  0.00  0.00     0.060 C 
BRANCH   7   8
ATOM      8  C2' I4B d   1      -2.188  -1.111  -1.730  0.00  0.00    -0.013 C 
ATOM      9  C4' I4B d   1      -1.830  -0.918  -3.180  0.00  0.00     0.013 C 
ATOM     10  C3' I4B d   1      -3.285  -2.121  -1.574  0.00  0.00     0.013 C 
ENDBRANCH   7   8
ENDBRANCH   1   7
TORSDOF 2
ENDMDL
