MODEL 1
REMARK minimizedAffinity -0.357814759
REMARK minimizedRMSD -1
REMARK  0 active torsions:
REMARK  status: ('A' for Active; 'I' for Inactive)
ROOT
ATOM      1  C   UNL d   1      -1.300  -2.484   0.456  0.00  0.00     0.078 C 
ATOM      2  C1  UNL d   1      -0.637  -2.372  -0.884  0.00  0.00    -0.077 A 
ATOM      3  C2  UNL d   1      -1.388  -2.402  -2.065  0.00  0.00    -0.001 A 
ATOM      4  C3  UNL d   1      -0.756  -2.307  -3.306  0.00  0.00     0.003 A 
ATOM      5  C4  UNL d   1       0.630  -2.182  -3.377  0.00  0.00    -0.005 A 
ATOM      6  C5  UNL d   1       1.386  -2.154  -2.207  0.00  0.00     0.003 A 
ATOM      7  C6  UNL d   1       0.756  -2.249  -0.966  0.00  0.00    -0.001 A 
ENDROOT
TORSDOF 0
ENDMDL
