MODEL 1
REMARK minimizedAffinity -2.67734146
REMARK minimizedRMSD -1
REMARK  0 active torsions:
REMARK  status: ('A' for Active; 'I' for Inactive)
ROOT
ATOM      1  C   UNL d   1      -0.056  -1.618  -3.721  0.00  0.00     0.078 C 
ATOM      2  C1  UNL d   1      -0.439  -2.064  -2.341  0.00  0.00    -0.077 A 
ATOM      3  C2  UNL d   1       0.489  -2.695  -1.504  0.00  0.00    -0.001 A 
ATOM      4  C3  UNL d   1       0.115  -3.113  -0.225  0.00  0.00     0.003 A 
ATOM      5  C4  UNL d   1      -1.186  -2.906   0.226  0.00  0.00    -0.005 A 
ATOM      6  C5  UNL d   1      -2.117  -2.281  -0.601  0.00  0.00     0.003 A 
ATOM      7  C6  UNL d   1      -1.746  -1.862  -1.879  0.00  0.00    -0.001 A 
ENDROOT
TORSDOF 0
ENDMDL
