MODEL 1
REMARK minimizedAffinity -2.25224781
REMARK minimizedRMSD -1
REMARK  0 active torsions:
REMARK  status: ('A' for Active; 'I' for Inactive)
ROOT
ATOM      1  C   UNL d   1      -0.048  -5.526  -3.270  0.00  0.00     0.078 C 
ATOM      2  C1  UNL d   1      -0.236  -4.127  -2.765  0.00  0.00    -0.077 A 
ATOM      3  C2  UNL d   1      -0.605  -3.883  -1.436  0.00  0.00    -0.001 A 
ATOM      4  C3  UNL d   1      -0.786  -2.576  -0.982  0.00  0.00     0.003 A 
ATOM      5  C4  UNL d   1      -0.601  -1.502  -1.851  0.00  0.00    -0.005 A 
ATOM      6  C5  UNL d   1      -0.236  -1.734  -3.175  0.00  0.00     0.003 A 
ATOM      7  C6  UNL d   1      -0.055  -3.041  -3.631  0.00  0.00    -0.001 A 
ENDROOT
TORSDOF 0
ENDMDL
