MODEL 1
REMARK minimizedAffinity -0.466266692
REMARK minimizedRMSD -1
REMARK  0 active torsions:
REMARK  status: ('A' for Active; 'I' for Inactive)
ROOT
ATOM      1  C   UNL d   1       2.150   5.997  -2.833  0.00  0.00     0.078 C 
ATOM      2  C1  UNL d   1       3.488   5.339  -2.998  0.00  0.00    -0.077 A 
ATOM      3  C2  UNL d   1       3.603   4.084  -3.608  0.00  0.00    -0.001 A 
ATOM      4  C3  UNL d   1       4.854   3.479  -3.746  0.00  0.00     0.003 A 
ATOM      5  C4  UNL d   1       5.998   4.121  -3.277  0.00  0.00    -0.005 A 
ATOM      6  C5  UNL d   1       5.892   5.370  -2.667  0.00  0.00     0.003 A 
ATOM      7  C6  UNL d   1       4.643   5.976  -2.527  0.00  0.00    -0.001 A 
ENDROOT
TORSDOF 0
ENDMDL
