MODEL 1
REMARK minimizedAffinity 3.59939456
REMARK minimizedRMSD -1
REMARK  0 active torsions:
REMARK  status: ('A' for Active; 'I' for Inactive)
ROOT
ATOM      1  C   UNL d   1       5.696   2.277  -4.538  0.00  0.00     0.078 C 
ATOM      2  C1  UNL d   1       5.795   3.577  -3.797  0.00  0.00    -0.077 A 
ATOM      3  C2  UNL d   1       5.811   4.798  -4.482  0.00  0.00    -0.001 A 
ATOM      4  C3  UNL d   1       5.913   6.000  -3.780  0.00  0.00     0.003 A 
ATOM      5  C4  UNL d   1       6.000   5.993  -2.390  0.00  0.00    -0.005 A 
ATOM      6  C5  UNL d   1       5.986   4.782  -1.699  0.00  0.00     0.003 A 
ATOM      7  C6  UNL d   1       5.884   3.579  -2.400  0.00  0.00    -0.001 A 
ENDROOT
TORSDOF 0
ENDMDL
