MODEL 1
REMARK minimizedAffinity -1.8774544
REMARK minimizedRMSD -1
REMARK  0 active torsions:
REMARK  status: ('A' for Active; 'I' for Inactive)
ROOT
ATOM      1  C   UNL d   1       5.902   5.248  -1.476  0.00  0.00     0.078 C 
ATOM      2  C1  UNL d   1       5.438   5.143  -2.898  0.00  0.00    -0.077 A 
ATOM      3  C2  UNL d   1       6.000   4.204  -3.772  0.00  0.00    -0.001 A 
ATOM      4  C3  UNL d   1       5.565   4.124  -5.096  0.00  0.00     0.003 A 
ATOM      5  C4  UNL d   1       4.567   4.979  -5.558  0.00  0.00    -0.005 A 
ATOM      6  C5  UNL d   1       4.003   5.918  -4.696  0.00  0.00     0.003 A 
ATOM      7  C6  UNL d   1       4.437   6.000  -3.372  0.00  0.00    -0.001 A 
ENDROOT
TORSDOF 0
ENDMDL
