MODEL 1
REMARK minimizedAffinity 6.01391935
REMARK minimizedRMSD -1
REMARK  0 active torsions:
REMARK  status: ('A' for Active; 'I' for Inactive)
ROOT
ATOM      1  C   UNL d   1       2.558   5.410  -3.001  0.00  0.00     0.078 C 
ATOM      2  C1  UNL d   1       3.758   5.122  -3.852  0.00  0.00    -0.077 A 
ATOM      3  C2  UNL d   1       4.885   4.486  -3.318  0.00  0.00    -0.001 A 
ATOM      4  C3  UNL d   1       6.000   4.234  -4.120  0.00  0.00     0.003 A 
ATOM      5  C4  UNL d   1       5.998   4.616  -5.460  0.00  0.00    -0.005 A 
ATOM      6  C5  UNL d   1       4.882   5.252  -6.000  0.00  0.00     0.003 A 
ATOM      7  C6  UNL d   1       3.767   5.505  -5.200  0.00  0.00    -0.001 A 
ENDROOT
TORSDOF 0
ENDMDL
