MODEL 1
REMARK minimizedAffinity 3.51160002
REMARK minimizedRMSD -1
REMARK  0 active torsions:
REMARK  status: ('A' for Active; 'I' for Inactive)
ROOT
ATOM      1  C   UNL d   1       5.467  -1.746   5.999  0.00  0.00     0.078 C 
ATOM      2  C1  UNL d   1       5.450  -3.093   5.341  0.00  0.00    -0.077 A 
ATOM      3  C2  UNL d   1       4.877  -3.270   4.076  0.00  0.00    -0.001 A 
ATOM      4  C3  UNL d   1       4.859  -4.532   3.479  0.00  0.00     0.003 A 
ATOM      5  C4  UNL d   1       5.411  -5.626   4.141  0.00  0.00    -0.005 A 
ATOM      6  C5  UNL d   1       5.981  -5.461   5.402  0.00  0.00     0.003 A 
ATOM      7  C6  UNL d   1       6.000  -4.200   6.000  0.00  0.00    -0.001 A 
ENDROOT
TORSDOF 0
ENDMDL
