MODEL 1
REMARK minimizedAffinity -0.0727163106
REMARK minimizedRMSD -1
REMARK  0 active torsions:
REMARK  status: ('A' for Active; 'I' for Inactive)
ROOT
ATOM      1  C   UNL d   1       5.997  -3.786   6.000  0.00  0.00     0.078 C 
ATOM      2  C1  UNL d   1       5.138  -3.093   4.985  0.00  0.00    -0.077 A 
ATOM      3  C2  UNL d   1       4.450  -1.916   5.306  0.00  0.00    -0.001 A 
ATOM      4  C3  UNL d   1       3.646  -1.287   4.355  0.00  0.00     0.003 A 
ATOM      5  C4  UNL d   1       3.521  -1.827   3.077  0.00  0.00    -0.005 A 
ATOM      6  C5  UNL d   1       4.199  -2.999   2.749  0.00  0.00     0.003 A 
ATOM      7  C6  UNL d   1       5.004  -3.630   3.699  0.00  0.00    -0.001 A 
ENDROOT
TORSDOF 0
ENDMDL
