MODEL 1
REMARK minimizedAffinity -0.541722357
REMARK minimizedRMSD -1
REMARK  0 active torsions:
REMARK  status: ('A' for Active; 'I' for Inactive)
ROOT
ATOM      1  C   UNL d   1       5.995  -4.386   5.948  0.00  0.00     0.078 C 
ATOM      2  C1  UNL d   1       4.954  -3.504   5.326  0.00  0.00    -0.077 A 
ATOM      3  C2  UNL d   1       4.415  -3.801   4.068  0.00  0.00    -0.001 A 
ATOM      4  C3  UNL d   1       3.454  -2.967   3.497  0.00  0.00     0.003 A 
ATOM      5  C4  UNL d   1       3.023  -1.828   4.176  0.00  0.00    -0.005 A 
ATOM      6  C5  UNL d   1       3.555  -1.523   5.427  0.00  0.00     0.003 A 
ATOM      7  C6  UNL d   1       4.517  -2.357   6.000  0.00  0.00    -0.001 A 
ENDROOT
TORSDOF 0
ENDMDL
