MODEL 1
REMARK minimizedAffinity 1.50624585
REMARK minimizedRMSD -1
REMARK  0 active torsions:
REMARK  status: ('A' for Active; 'I' for Inactive)
ROOT
ATOM      1  C   UNL d   1      -0.254  -1.808  -1.918  0.00  0.00     0.078 C 
ATOM      2  C1  UNL d   1      -1.123  -2.245  -0.777  0.00  0.00    -0.077 A 
ATOM      3  C2  UNL d   1      -0.565  -2.646   0.443  0.00  0.00    -0.001 A 
ATOM      4  C3  UNL d   1      -1.386  -3.059   1.493  0.00  0.00     0.003 A 
ATOM      5  C4  UNL d   1      -2.770  -3.077   1.334  0.00  0.00    -0.005 A 
ATOM      6  C5  UNL d   1      -3.335  -2.682   0.123  0.00  0.00     0.003 A 
ATOM      7  C6  UNL d   1      -2.515  -2.268  -0.929  0.00  0.00    -0.001 A 
ENDROOT
TORSDOF 0
ENDMDL
