MODEL 1
REMARK minimizedAffinity 2.02282143
REMARK minimizedRMSD -1
REMARK  0 active torsions:
REMARK  status: ('A' for Active; 'I' for Inactive)
ROOT
ATOM      1  C   UNL d   1       1.151  -2.092  -3.349  0.00  0.00     0.078 C 
ATOM      2  C1  UNL d   1       0.123  -2.045  -2.258  0.00  0.00    -0.077 A 
ATOM      3  C2  UNL d   1      -1.108  -2.697  -2.398  0.00  0.00    -0.001 A 
ATOM      4  C3  UNL d   1      -2.059  -2.637  -1.378  0.00  0.00     0.003 A 
ATOM      5  C4  UNL d   1      -1.789  -1.924  -0.212  0.00  0.00    -0.005 A 
ATOM      6  C5  UNL d   1      -0.568  -1.270  -0.064  0.00  0.00     0.003 A 
ATOM      7  C6  UNL d   1       0.384  -1.329  -1.083  0.00  0.00    -0.001 A 
ENDROOT
TORSDOF 0
ENDMDL
