MODEL 1
REMARK minimizedAffinity 2.00647163
REMARK minimizedRMSD -1
REMARK  0 active torsions:
REMARK  status: ('A' for Active; 'I' for Inactive)
ROOT
ATOM      1  C   UNL d   1      -0.576  -2.600   0.043  0.00  0.00     0.078 C 
ATOM      2  C1  UNL d   1      -0.242  -3.051  -1.348  0.00  0.00    -0.077 A 
ATOM      3  C2  UNL d   1      -0.311  -4.404  -1.703  0.00  0.00    -0.001 A 
ATOM      4  C3  UNL d   1       0.012  -4.811  -2.998  0.00  0.00     0.003 A 
ATOM      5  C4  UNL d   1       0.408  -3.872  -3.949  0.00  0.00    -0.005 A 
ATOM      6  C5  UNL d   1       0.482  -2.524  -3.604  0.00  0.00     0.003 A 
ATOM      7  C6  UNL d   1       0.159  -2.115  -2.309  0.00  0.00    -0.001 A 
ENDROOT
TORSDOF 0
ENDMDL
