MODEL 1
REMARK minimizedAffinity 1.20683002
REMARK minimizedRMSD -1
REMARK  0 active torsions:
REMARK  status: ('A' for Active; 'I' for Inactive)
ROOT
ATOM      1  C   UNL d   1       5.983   5.999  -1.536  0.00  0.00     0.078 C 
ATOM      2  C1  UNL d   1       5.378   5.463  -2.799  0.00  0.00    -0.077 A 
ATOM      3  C2  UNL d   1       4.188   5.993  -3.311  0.00  0.00    -0.001 A 
ATOM      4  C3  UNL d   1       3.631   5.477  -4.482  0.00  0.00     0.003 A 
ATOM      5  C4  UNL d   1       4.258   4.427  -5.151  0.00  0.00    -0.005 A 
ATOM      6  C5  UNL d   1       5.442   3.891  -4.648  0.00  0.00     0.003 A 
ATOM      7  C6  UNL d   1       5.999   4.406  -3.476  0.00  0.00    -0.001 A 
ENDROOT
TORSDOF 0
ENDMDL
