MODEL 1
REMARK minimizedAffinity 3.32188463
REMARK minimizedRMSD -1
REMARK  0 active torsions:
REMARK  status: ('A' for Active; 'I' for Inactive)
ROOT
ATOM      1  C   UNL d   1       0.555  -1.566  -2.429  0.00  0.00     0.078 C 
ATOM      2  C1  UNL d   1      -0.341  -1.854  -1.262  0.00  0.00    -0.077 A 
ATOM      3  C2  UNL d   1      -0.145  -1.222  -0.028  0.00  0.00    -0.001 A 
ATOM      4  C3  UNL d   1      -0.981  -1.507   1.053  0.00  0.00     0.003 A 
ATOM      5  C4  UNL d   1      -2.019  -2.426   0.911  0.00  0.00    -0.005 A 
ATOM      6  C5  UNL d   1      -2.221  -3.062  -0.312  0.00  0.00     0.003 A 
ATOM      7  C6  UNL d   1      -1.386  -2.778  -1.394  0.00  0.00    -0.001 A 
ENDROOT
TORSDOF 0
ENDMDL
