MODEL 1
REMARK minimizedAffinity -3.10676241
REMARK minimizedRMSD -1
REMARK  0 active torsions:
REMARK  status: ('A' for Active; 'I' for Inactive)
ROOT
ATOM      1  C   UNL d   1       1.987  -1.032   5.969  0.00  0.00     0.078 C 
ATOM      2  C1  UNL d   1       3.118  -1.761   5.307  0.00  0.00    -0.077 A 
ATOM      3  C2  UNL d   1       2.991  -2.258   4.004  0.00  0.00    -0.001 A 
ATOM      4  C3  UNL d   1       4.049  -2.944   3.405  0.00  0.00     0.003 A 
ATOM      5  C4  UNL d   1       5.240  -3.140   4.101  0.00  0.00    -0.005 A 
ATOM      6  C5  UNL d   1       5.374  -2.651   5.398  0.00  0.00     0.003 A 
ATOM      7  C6  UNL d   1       4.318  -1.965   6.000  0.00  0.00    -0.001 A 
ENDROOT
TORSDOF 0
ENDMDL
