MODEL 1
REMARK minimizedAffinity 15.2805367
REMARK minimizedRMSD -1
REMARK  1 active torsions:
REMARK  status: ('A' for Active; 'I' for Inactive)
REMARK    1  A    between atoms: C3_4  and  O_7 
ROOT
ATOM      1  C   UNL d   1      -0.873  -3.296  -3.700  0.00  0.00    -0.033 A 
ATOM      2  C1  UNL d   1      -2.268  -3.238  -3.703  0.00  0.00     0.039 A 
ATOM      3  C2  UNL d   1      -3.004  -4.143  -4.471  0.00  0.00    -0.080 A 
ATOM      4  C3  UNL d   1      -2.334  -5.099  -5.230  0.00  0.00     0.150 A 
ATOM      5  C4  UNL d   1      -0.945  -5.164  -5.228  0.00  0.00    -0.007 A 
ATOM      6  C5  UNL d   1      -0.212  -4.260  -4.461  0.00  0.00     0.039 A 
ENDROOT
BRANCH   4   7
ATOM      7  O   UNL d   1      -3.010  -5.999  -5.999  0.00  0.00    -0.526 OA
ATOM      8  H5  UNL d   1      -3.961  -5.816  -5.924  0.00  0.00     0.418 HD
ENDBRANCH   4   7
TORSDOF 1
ENDMDL
