MODEL 1
REMARK minimizedAffinity 10.919239
REMARK minimizedRMSD -1
REMARK  1 active torsions:
REMARK  status: ('A' for Active; 'I' for Inactive)
REMARK    1  A    between atoms: C3_4  and  O_7 
ROOT
ATOM      1  C   UNL d   1      -1.415  -0.018   1.934  0.00  0.00    -0.033 A 
ATOM      2  C1  UNL d   1      -0.336  -0.898   1.830  0.00  0.00     0.039 A 
ATOM      3  C2  UNL d   1      -0.481  -2.106   1.144  0.00  0.00    -0.080 A 
ATOM      4  C3  UNL d   1      -1.709  -2.420   0.567  0.00  0.00     0.150 A 
ATOM      5  C4  UNL d   1      -2.786  -1.546   0.663  0.00  0.00    -0.007 A 
ATOM      6  C5  UNL d   1      -2.640  -0.341   1.349  0.00  0.00     0.039 A 
ENDROOT
BRANCH   4   7
ATOM      7  O   UNL d   1      -1.900  -3.589  -0.108  0.00  0.00    -0.526 OA
ATOM      8  H5  UNL d   1      -1.078  -4.105  -0.069  0.00  0.00     0.418 HD
ENDBRANCH   4   7
TORSDOF 1
ENDMDL
