MODEL 1
REMARK minimizedAffinity 9.90534973
REMARK minimizedRMSD -1
REMARK  1 active torsions:
REMARK  status: ('A' for Active; 'I' for Inactive)
REMARK    1  A    between atoms: C3_4  and  O_7 
ROOT
ATOM      1  C   UNL d   1       3.425   2.018  -2.102  0.00  0.00    -0.033 A 
ATOM      2  C1  UNL d   1       3.694   2.829  -3.207  0.00  0.00     0.039 A 
ATOM      3  C2  UNL d   1       2.646   3.444  -3.895  0.00  0.00    -0.080 A 
ATOM      4  C3  UNL d   1       1.336   3.241  -3.469  0.00  0.00     0.150 A 
ATOM      5  C4  UNL d   1       1.062   2.438  -2.367  0.00  0.00    -0.007 A 
ATOM      6  C5  UNL d   1       2.109   1.824  -1.682  0.00  0.00     0.039 A 
ENDROOT
BRANCH   4   7
ATOM      7  O   UNL d   1       0.281   3.816  -4.112  0.00  0.00    -0.526 OA
ATOM      8  H5  UNL d   1       0.620   4.320  -4.870  0.00  0.00     0.418 HD
ENDBRANCH   4   7
TORSDOF 1
ENDMDL
