MODEL 1
REMARK minimizedAffinity 10.659585
REMARK minimizedRMSD -1
REMARK  1 active torsions:
REMARK  status: ('A' for Active; 'I' for Inactive)
REMARK    1  A    between atoms: C3_4  and  O_7 
ROOT
ATOM      1  C   UNL d   1       0.594   5.651  -3.708  0.00  0.00    -0.033 A 
ATOM      2  C1  UNL d   1       1.904   5.715  -3.229  0.00  0.00     0.039 A 
ATOM      3  C2  UNL d   1       2.556   4.551  -2.818  0.00  0.00    -0.080 A 
ATOM      4  C3  UNL d   1       1.889   3.331  -2.891  0.00  0.00     0.150 A 
ATOM      5  C4  UNL d   1       0.585   3.260  -3.370  0.00  0.00    -0.007 A 
ATOM      6  C5  UNL d   1      -0.065   4.423  -3.779  0.00  0.00     0.039 A 
ENDROOT
BRANCH   4   7
ATOM      7  O   UNL d   1       2.483   2.169  -2.497  0.00  0.00    -0.526 OA
ATOM      8  H5  UNL d   1       3.372   2.376  -2.162  0.00  0.00     0.418 HD
ENDBRANCH   4   7
TORSDOF 1
ENDMDL
