MODEL 1
REMARK minimizedAffinity 2.18668365
REMARK minimizedRMSD -1
REMARK  1 active torsions:
REMARK  status: ('A' for Active; 'I' for Inactive)
REMARK    1  A    between atoms: C3_4  and  O_7 
ROOT
ATOM      1  C   UNL d   1      -0.758  -1.352   2.082  0.00  0.00    -0.033 A 
ATOM      2  C1  UNL d   1      -1.870  -2.144   1.793  0.00  0.00     0.039 A 
ATOM      3  C2  UNL d   1      -2.985  -1.583   1.166  0.00  0.00    -0.080 A 
ATOM      4  C3  UNL d   1      -2.973  -0.231   0.834  0.00  0.00     0.150 A 
ATOM      5  C4  UNL d   1      -1.866   0.563   1.115  0.00  0.00    -0.007 A 
ATOM      6  C5  UNL d   1      -0.755   0.001   1.742  0.00  0.00     0.039 A 
ENDROOT
BRANCH   4   7
ATOM      7  O   UNL d   1      -4.039   0.363   0.225  0.00  0.00    -0.526 OA
ATOM      8  H5  UNL d   1      -4.741  -0.301   0.119  0.00  0.00     0.418 HD
ENDBRANCH   4   7
TORSDOF 1
ENDMDL
