MODEL 1
REMARK minimizedAffinity 4.03181982
REMARK minimizedRMSD -1
REMARK  1 active torsions:
REMARK  status: ('A' for Active; 'I' for Inactive)
REMARK    1  A    between atoms: C3_4  and  O_7 
ROOT
ATOM      1  C   UNL d   1      -2.249  -5.998  -5.890  0.00  0.00    -0.033 A 
ATOM      2  C1  UNL d   1      -1.127  -5.174  -5.999  0.00  0.00     0.039 A 
ATOM      3  C2  UNL d   1      -0.759  -4.347  -4.935  0.00  0.00    -0.080 A 
ATOM      4  C3  UNL d   1      -1.520  -4.355  -3.770  0.00  0.00     0.150 A 
ATOM      5  C4  UNL d   1      -2.637  -5.176  -3.653  0.00  0.00    -0.007 A 
ATOM      6  C5  UNL d   1      -3.003  -6.000  -4.716  0.00  0.00     0.039 A 
ENDROOT
BRANCH   4   7
ATOM      7  O   UNL d   1      -1.203  -3.562  -2.707  0.00  0.00    -0.526 OA
ATOM      8  H5  UNL d   1      -0.426  -3.029  -2.942  0.00  0.00     0.418 HD
ENDBRANCH   4   7
TORSDOF 1
ENDMDL
