MODEL 1
REMARK minimizedAffinity 6.63194036
REMARK minimizedRMSD -1
REMARK  1 active torsions:
REMARK  status: ('A' for Active; 'I' for Inactive)
REMARK    1  A    between atoms: C3_4  and  O_7 
ROOT
ATOM      1  C   UNL d   1       2.352   3.783  -1.887  0.00  0.00    -0.033 A 
ATOM      2  C1  UNL d   1       1.751   2.633  -2.403  0.00  0.00     0.039 A 
ATOM      3  C2  UNL d   1       0.666   2.741  -3.275  0.00  0.00    -0.080 A 
ATOM      4  C3  UNL d   1       0.193   4.003  -3.624  0.00  0.00     0.150 A 
ATOM      5  C4  UNL d   1       0.789   5.153  -3.118  0.00  0.00    -0.007 A 
ATOM      6  C5  UNL d   1       1.872   5.043  -2.246  0.00  0.00     0.039 A 
ENDROOT
BRANCH   4   7
ATOM      7  O   UNL d   1      -0.866   4.159  -4.468  0.00  0.00    -0.526 OA
ATOM      8  H5  UNL d   1      -1.194   3.278  -4.716  0.00  0.00     0.418 HD
ENDBRANCH   4   7
TORSDOF 1
ENDMDL
