MODEL 1
REMARK minimizedAffinity 10.6723919
REMARK minimizedRMSD -1
REMARK  1 active torsions:
REMARK  status: ('A' for Active; 'I' for Inactive)
REMARK    1  A    between atoms: C3_4  and  O_7 
ROOT
ATOM      1  C   UNL d   1      -1.356  -2.556   1.245  0.00  0.00    -0.033 A 
ATOM      2  C1  UNL d   1      -0.277  -1.910   1.851  0.00  0.00     0.039 A 
ATOM      3  C2  UNL d   1      -0.481  -0.728   2.567  0.00  0.00    -0.080 A 
ATOM      4  C3  UNL d   1      -1.767  -0.206   2.670  0.00  0.00     0.150 A 
ATOM      5  C4  UNL d   1      -2.847  -0.847   2.072  0.00  0.00    -0.007 A 
ATOM      6  C5  UNL d   1      -2.641  -2.025   1.357  0.00  0.00     0.039 A 
ENDROOT
BRANCH   4   7
ATOM      7  O   UNL d   1      -2.015   0.947   3.355  0.00  0.00    -0.526 OA
ATOM      8  H5  UNL d   1      -1.171   1.294   3.689  0.00  0.00     0.418 HD
ENDBRANCH   4   7
TORSDOF 1
ENDMDL
