MODEL 1
REMARK minimizedAffinity 8.02218342
REMARK minimizedRMSD -1
REMARK  1 active torsions:
REMARK  status: ('A' for Active; 'I' for Inactive)
REMARK    1  A    between atoms: C3_4  and  O_7 
ROOT
ATOM      1  C   UNL d   1       2.989   2.624  -2.523  0.00  0.00    -0.033 A 
ATOM      2  C1  UNL d   1       1.605   2.597  -2.701  0.00  0.00     0.039 A 
ATOM      3  C2  UNL d   1       0.837   3.721  -2.389  0.00  0.00    -0.080 A 
ATOM      4  C3  UNL d   1       1.466   4.864  -1.903  0.00  0.00     0.150 A 
ATOM      5  C4  UNL d   1       2.845   4.899  -1.727  0.00  0.00    -0.007 A 
ATOM      6  C5  UNL d   1       3.610   3.776  -2.038  0.00  0.00     0.039 A 
ENDROOT
BRANCH   4   7
ATOM      7  O   UNL d   1       0.758   5.984  -1.581  0.00  0.00    -0.526 OA
ATOM      8  H5  UNL d   1      -0.186   5.804  -1.726  0.00  0.00     0.418 HD
ENDBRANCH   4   7
TORSDOF 1
ENDMDL
