MODEL 1
REMARK minimizedAffinity 10.4223785
REMARK minimizedRMSD -1
REMARK  1 active torsions:
REMARK  status: ('A' for Active; 'I' for Inactive)
REMARK    1  A    between atoms: C3_4  and  O_7 
ROOT
ATOM      1  C   UNL d   1       2.703   1.968  -1.633  0.00  0.00    -0.033 A 
ATOM      2  C1  UNL d   1       3.090   2.717  -2.745  0.00  0.00     0.039 A 
ATOM      3  C2  UNL d   1       2.130   3.387  -3.506  0.00  0.00    -0.080 A 
ATOM      4  C3  UNL d   1       0.789   3.301  -3.143  0.00  0.00     0.150 A 
ATOM      5  C4  UNL d   1       0.397   2.559  -2.034  0.00  0.00    -0.007 A 
ATOM      6  C5  UNL d   1       1.357   1.890  -1.276  0.00  0.00     0.039 A 
ENDROOT
BRANCH   4   7
ATOM      7  O   UNL d   1      -0.185   3.934  -3.858  0.00  0.00    -0.526 OA
ATOM      8  H5  UNL d   1       0.230   4.383  -4.613  0.00  0.00     0.418 HD
ENDBRANCH   4   7
TORSDOF 1
ENDMDL
