MODEL 1
REMARK minimizedAffinity 3.76595211
REMARK minimizedRMSD -1
REMARK  1 active torsions:
REMARK  status: ('A' for Active; 'I' for Inactive)
REMARK    1  A    between atoms: C3_4  and  O_7 
ROOT
ATOM      1  C   UNL d   1      -5.990   1.454  -0.343  0.00  0.00    -0.033 A 
ATOM      2  C1  UNL d   1      -5.960   2.250  -1.490  0.00  0.00     0.039 A 
ATOM      3  C2  UNL d   1      -5.936   1.657  -2.754  0.00  0.00    -0.080 A 
ATOM      4  C3  UNL d   1      -5.943   0.269  -2.857  0.00  0.00     0.150 A 
ATOM      5  C4  UNL d   1      -5.976  -0.531  -1.719  0.00  0.00    -0.007 A 
ATOM      6  C5  UNL d   1      -6.000   0.063  -0.458  0.00  0.00     0.039 A 
ENDROOT
BRANCH   4   7
ATOM      7  O   UNL d   1      -5.915  -0.356  -4.069  0.00  0.00    -0.526 OA
ATOM      8  H5  UNL d   1      -5.864   0.322  -4.763  0.00  0.00     0.418 HD
ENDBRANCH   4   7
TORSDOF 1
ENDMDL
