MODEL 1
REMARK minimizedAffinity 6.16560078
REMARK minimizedRMSD -1
REMARK  1 active torsions:
REMARK  status: ('A' for Active; 'I' for Inactive)
REMARK    1  A    between atoms: C3_4  and  O_7 
ROOT
ATOM      1  C   UNL d   1       2.906   2.397  -1.799  0.00  0.00    -0.033 A 
ATOM      2  C1  UNL d   1       3.129   2.962  -3.056  0.00  0.00     0.039 A 
ATOM      3  C2  UNL d   1       2.052   3.421  -3.818  0.00  0.00    -0.080 A 
ATOM      4  C3  UNL d   1       0.760   3.310  -3.311  0.00  0.00     0.150 A 
ATOM      5  C4  UNL d   1       0.532   2.751  -2.058  0.00  0.00    -0.007 A 
ATOM      6  C5  UNL d   1       1.608   2.293  -1.299  0.00  0.00     0.039 A 
ENDROOT
BRANCH   4   7
ATOM      7  O   UNL d   1      -0.323   3.739  -4.020  0.00  0.00    -0.526 OA
ATOM      8  H5  UNL d   1      -0.015   4.075  -4.878  0.00  0.00     0.418 HD
ENDBRANCH   4   7
TORSDOF 1
ENDMDL
