MODEL 1
REMARK minimizedAffinity 8.18172932
REMARK minimizedRMSD -1
REMARK  1 active torsions:
REMARK  status: ('A' for Active; 'I' for Inactive)
REMARK    1  A    between atoms: C3_4  and  O_7 
ROOT
ATOM      1  C   UNL d   1       4.029   3.710  -4.173  0.00  0.00    -0.033 A 
ATOM      2  C1  UNL d   1       3.352   4.082  -3.009  0.00  0.00     0.039 A 
ATOM      3  C2  UNL d   1       3.999   4.846  -2.037  0.00  0.00    -0.080 A 
ATOM      4  C3  UNL d   1       5.321   5.233  -2.240  0.00  0.00     0.150 A 
ATOM      5  C4  UNL d   1       6.000   4.870  -3.399  0.00  0.00    -0.007 A 
ATOM      6  C5  UNL d   1       5.352   4.106  -4.368  0.00  0.00     0.039 A 
ENDROOT
BRANCH   4   7
ATOM      7  O   UNL d   1       5.996   5.976  -1.317  0.00  0.00    -0.526 OA
ATOM      8  H5  UNL d   1       5.411   6.127  -0.557  0.00  0.00     0.418 HD
ENDBRANCH   4   7
TORSDOF 1
ENDMDL
