MODEL 1
REMARK minimizedAffinity 0.23154211
REMARK minimizedRMSD -1
REMARK  1 active torsions:
REMARK  status: ('A' for Active; 'I' for Inactive)
REMARK    1  A    between atoms: C3_4  and  O_7 
ROOT
ATOM      1  C   UNL d   1       5.988   1.694  -3.877  0.00  0.00    -0.033 A 
ATOM      2  C1  UNL d   1       5.596   0.355  -3.831  0.00  0.00     0.039 A 
ATOM      3  C2  UNL d   1       4.272   0.023  -3.537  0.00  0.00    -0.080 A 
ATOM      4  C3  UNL d   1       3.352   1.038  -3.292  0.00  0.00     0.150 A 
ATOM      5  C4  UNL d   1       3.734   2.374  -3.340  0.00  0.00    -0.007 A 
ATOM      6  C5  UNL d   1       5.057   2.704  -3.633  0.00  0.00     0.039 A 
ENDROOT
BRANCH   4   7
ATOM      7  O   UNL d   1       2.050   0.762  -2.997  0.00  0.00    -0.526 OA
ATOM      8  H5  UNL d   1       1.937  -0.203  -2.970  0.00  0.00     0.418 HD
ENDBRANCH   4   7
TORSDOF 1
ENDMDL
