MODEL 1
REMARK minimizedAffinity 5.68429279
REMARK minimizedRMSD -1
REMARK  1 active torsions:
REMARK  status: ('A' for Active; 'I' for Inactive)
REMARK    1  A    between atoms: C3_4  and  O_7 
ROOT
ATOM      1  C   UNL d   1      -1.122  -5.102  -4.865  0.00  0.00    -0.033 A 
ATOM      2  C1  UNL d   1      -1.877  -5.999  -5.622  0.00  0.00     0.039 A 
ATOM      3  C2  UNL d   1      -3.181  -5.672  -6.000  0.00  0.00    -0.080 A 
ATOM      4  C3  UNL d   1      -3.716  -4.446  -5.615  0.00  0.00     0.150 A 
ATOM      5  C4  UNL d   1      -2.968  -3.546  -4.863  0.00  0.00    -0.007 A 
ATOM      6  C5  UNL d   1      -1.667  -3.875  -4.486  0.00  0.00     0.039 A 
ENDROOT
BRANCH   4   7
ATOM      7  O   UNL d   1      -4.986  -4.085  -5.955  0.00  0.00    -0.526 OA
ATOM      8  H5  UNL d   1      -5.392  -4.816  -6.449  0.00  0.00     0.418 HD
ENDBRANCH   4   7
TORSDOF 1
ENDMDL
