MODEL 1
REMARK minimizedAffinity 1.08852661
REMARK minimizedRMSD -1
REMARK  1 active torsions:
REMARK  status: ('A' for Active; 'I' for Inactive)
REMARK    1  A    between atoms: C3_4  and  O_7 
ROOT
ATOM      1  C   UNL d   1      -1.141  -0.579   2.500  0.00  0.00    -0.033 A 
ATOM      2  C1  UNL d   1       0.196  -0.872   2.774  0.00  0.00     0.039 A 
ATOM      3  C2  UNL d   1       0.876  -1.820   2.006  0.00  0.00    -0.080 A 
ATOM      4  C3  UNL d   1       0.209  -2.465   0.968  0.00  0.00     0.150 A 
ATOM      5  C4  UNL d   1      -1.122  -2.174   0.687  0.00  0.00    -0.007 A 
ATOM      6  C5  UNL d   1      -1.799  -1.229   1.456  0.00  0.00     0.039 A 
ENDROOT
BRANCH   4   7
ATOM      7  O   UNL d   1       0.830  -3.400   0.195  0.00  0.00    -0.526 OA
ATOM      8  H5  UNL d   1       1.737  -3.518   0.523  0.00  0.00     0.418 HD
ENDBRANCH   4   7
TORSDOF 1
ENDMDL
