MODEL 1
REMARK minimizedAffinity -3.57488418
REMARK minimizedRMSD -1
REMARK  1 active torsions:
REMARK  status: ('A' for Active; 'I' for Inactive)
REMARK    1  A    between atoms: C3_4  and  O_7 
ROOT
ATOM      1  C   UNL d   1       0.853   0.722  -0.748  0.00  0.00    -0.033 A 
ATOM      2  C1  UNL d   1       1.892   0.142  -0.018  0.00  0.00     0.039 A 
ATOM      3  C2  UNL d   1       1.624  -0.896   0.877  0.00  0.00    -0.080 A 
ATOM      4  C3  UNL d   1       0.315  -1.343   1.032  0.00  0.00     0.150 A 
ATOM      5  C4  UNL d   1      -0.725  -0.772   0.306  0.00  0.00    -0.007 A 
ATOM      6  C5  UNL d   1      -0.455   0.264  -0.587  0.00  0.00     0.039 A 
ENDROOT
BRANCH   4   7
ATOM      7  O   UNL d   1       0.003  -2.350   1.898  0.00  0.00    -0.526 OA
ATOM      8  H5  UNL d   1       0.817  -2.628   2.351  0.00  0.00     0.418 HD
ENDBRANCH   4   7
TORSDOF 1
ENDMDL
