MODEL 1
REMARK minimizedAffinity -3.15162492
REMARK minimizedRMSD -1
REMARK  1 active torsions:
REMARK  status: ('A' for Active; 'I' for Inactive)
REMARK    1  A    between atoms: C1_2  and  C2_3 
ROOT
ATOM      1  C2  UNL d   1      -0.394  -1.073   0.002  0.00  0.00    -0.073 A 
ATOM      2  C3  UNL d   1      -0.895  -2.303   0.444  0.00  0.00    -0.002 A 
ATOM      3  C4  UNL d   1      -1.050  -3.364  -0.449  0.00  0.00     0.004 A 
ATOM      4  C5  UNL d   1      -0.699  -3.209  -1.790  0.00  0.00    -0.004 A 
ATOM      5  C6  UNL d   1      -0.186  -1.992  -2.249  0.00  0.00    -0.075 A 
ATOM      6  C7  UNL d   1       0.194  -1.808  -3.689  0.00  0.00     0.076 C 
ATOM      7  C8  UNL d   1      -0.036  -0.930  -1.346  0.00  0.00     0.001 A 
ENDROOT
BRANCH   1   8
ATOM      8  C1  UNL d   1      -0.219   0.073   0.964  0.00  0.00     0.053 C 
ATOM      9  C   UNL d   1       0.406   1.287   0.296  0.00  0.00     0.018 C 
ENDBRANCH   1   8
TORSDOF 1
ENDMDL
