MODEL 1
REMARK minimizedAffinity -4.63612318
REMARK minimizedRMSD -1
REMARK  1 active torsions:
REMARK  status: ('A' for Active; 'I' for Inactive)
REMARK    1  A    between atoms: C1_2  and  C2_3 
ROOT
ATOM      1  C2  UNL d   1      -0.500   0.828   0.317  0.00  0.00    -0.073 A 
ATOM      2  C3  UNL d   1      -0.999   0.156   1.439  0.00  0.00    -0.002 A 
ATOM      3  C4  UNL d   1      -1.274  -1.210   1.377  0.00  0.00     0.004 A 
ATOM      4  C5  UNL d   1      -1.047  -1.919   0.198  0.00  0.00    -0.004 A 
ATOM      5  C6  UNL d   1      -0.537  -1.268  -0.930  0.00  0.00    -0.075 A 
ATOM      6  C7  UNL d   1      -0.289  -2.016  -2.207  0.00  0.00     0.076 C 
ATOM      7  C8  UNL d   1      -0.266   0.105  -0.861  0.00  0.00     0.001 A 
ENDROOT
BRANCH   1   8
ATOM      8  C1  UNL d   1      -0.195   2.303   0.382  0.00  0.00     0.053 C 
ATOM      9  C   UNL d   1       1.300   2.575   0.415  0.00  0.00     0.018 C 
ENDBRANCH   1   8
TORSDOF 1
ENDMDL
