MODEL 1
REMARK minimizedAffinity -5.06909561
REMARK minimizedRMSD -1
REMARK  1 active torsions:
REMARK  status: ('A' for Active; 'I' for Inactive)
REMARK    1  A    between atoms: C1_2  and  C2_3 
ROOT
ATOM      1  C2  UNL d   1       0.184  -0.683  -1.319  0.00  0.00    -0.073 A 
ATOM      2  C3  UNL d   1      -0.509  -1.385  -0.326  0.00  0.00    -0.002 A 
ATOM      3  C4  UNL d   1      -0.765  -0.789   0.910  0.00  0.00     0.004 A 
ATOM      4  C5  UNL d   1      -0.337   0.514   1.163  0.00  0.00    -0.004 A 
ATOM      5  C6  UNL d   1       0.347   1.235   0.180  0.00  0.00    -0.075 A 
ATOM      6  C7  UNL d   1       0.816   2.637   0.437  0.00  0.00     0.076 C 
ATOM      7  C8  UNL d   1       0.603   0.630  -1.058  0.00  0.00     0.001 A 
ENDROOT
BRANCH   1   8
ATOM      8  C1  UNL d   1       0.457  -1.320  -2.657  0.00  0.00     0.053 C 
ATOM      9  C   UNL d   1      -0.133  -2.718  -2.755  0.00  0.00     0.018 C 
ENDBRANCH   1   8
TORSDOF 1
ENDMDL
