MODEL 1
REMARK minimizedAffinity -2.18833542
REMARK minimizedRMSD -1
REMARK  1 active torsions:
REMARK  status: ('A' for Active; 'I' for Inactive)
REMARK    1  A    between atoms: C1_2  and  C2_3 
ROOT
ATOM      1  C2  UNL d   1      -0.727  -2.301  -0.783  0.00  0.00    -0.073 A 
ATOM      2  C3  UNL d   1      -0.836  -2.943   0.456  0.00  0.00    -0.002 A 
ATOM      3  C4  UNL d   1      -0.683  -2.220   1.640  0.00  0.00     0.004 A 
ATOM      4  C5  UNL d   1      -0.428  -0.850   1.598  0.00  0.00    -0.004 A 
ATOM      5  C6  UNL d   1      -0.327  -0.188   0.370  0.00  0.00    -0.075 A 
ATOM      6  C7  UNL d   1      -0.051   1.285   0.307  0.00  0.00     0.076 C 
ATOM      7  C8  UNL d   1      -0.479  -0.922  -0.815  0.00  0.00     0.001 A 
ENDROOT
BRANCH   1   8
ATOM      8  C1  UNL d   1      -0.898  -3.076  -2.064  0.00  0.00     0.053 C 
ATOM      9  C   UNL d   1      -0.165  -2.425  -3.226  0.00  0.00     0.018 C 
ENDBRANCH   1   8
TORSDOF 1
ENDMDL
