MODEL 1
REMARK minimizedAffinity -2.67634153
REMARK minimizedRMSD -1
REMARK  1 active torsions:
REMARK  status: ('A' for Active; 'I' for Inactive)
REMARK    1  A    between atoms: C1_2  and  C2_3 
ROOT
ATOM      1  C2  UNL d   1      -0.402  -1.439  -0.819  0.00  0.00    -0.073 A 
ATOM      2  C3  UNL d   1      -0.811  -2.012   0.390  0.00  0.00    -0.002 A 
ATOM      3  C4  UNL d   1      -0.889  -1.237   1.548  0.00  0.00     0.004 A 
ATOM      4  C5  UNL d   1      -0.564   0.119   1.507  0.00  0.00    -0.004 A 
ATOM      5  C6  UNL d   1      -0.164   0.713   0.306  0.00  0.00    -0.075 A 
ATOM      6  C7  UNL d   1       0.190   2.170   0.247  0.00  0.00     0.076 C 
ATOM      7  C8  UNL d   1      -0.086  -0.073  -0.851  0.00  0.00     0.001 A 
ENDROOT
BRANCH   1   8
ATOM      8  C1  UNL d   1      -0.323  -2.270  -2.073  0.00  0.00     0.053 C 
ATOM      9  C   UNL d   1      -1.062  -3.591  -1.928  0.00  0.00     0.018 C 
ENDBRANCH   1   8
TORSDOF 1
ENDMDL
