MODEL 1
REMARK minimizedAffinity -4.10440874
REMARK minimizedRMSD -1
REMARK  1 active torsions:
REMARK  status: ('A' for Active; 'I' for Inactive)
REMARK    1  A    between atoms: C1_2  and  C2_3 
ROOT
ATOM      1  C2  UNL d   1       0.306  -1.000  -0.016  0.00  0.00    -0.073 A 
ATOM      2  C3  UNL d   1      -0.196  -2.078   0.722  0.00  0.00    -0.002 A 
ATOM      3  C4  UNL d   1      -0.439  -3.305   0.102  0.00  0.00     0.004 A 
ATOM      4  C5  UNL d   1      -0.175  -3.469  -1.257  0.00  0.00    -0.004 A 
ATOM      5  C6  UNL d   1       0.338  -2.407  -2.009  0.00  0.00    -0.075 A 
ATOM      6  C7  UNL d   1       0.625  -2.566  -3.473  0.00  0.00     0.076 C 
ATOM      7  C8  UNL d   1       0.576  -1.177  -1.380  0.00  0.00     0.001 A 
ENDROOT
BRANCH   1   8
ATOM      8  C1  UNL d   1       0.575   0.324   0.650  0.00  0.00     0.053 C 
ATOM      9  C   UNL d   1       0.019   1.489  -0.152  0.00  0.00     0.018 C 
ENDBRANCH   1   8
TORSDOF 1
ENDMDL
