MODEL 1
REMARK minimizedAffinity -0.386878073
REMARK minimizedRMSD -1
REMARK  1 active torsions:
REMARK  status: ('A' for Active; 'I' for Inactive)
REMARK    1  A    between atoms: C1_2  and  C2_3 
ROOT
ATOM      1  C2  UNL d   1       0.092   0.199   0.825  0.00  0.00    -0.073 A 
ATOM      2  C3  UNL d   1      -0.896   0.616  -0.074  0.00  0.00    -0.002 A 
ATOM      3  C4  UNL d   1      -0.873   1.909  -0.598  0.00  0.00     0.004 A 
ATOM      4  C5  UNL d   1       0.142   2.795  -0.235  0.00  0.00    -0.004 A 
ATOM      5  C6  UNL d   1       1.145   2.393   0.653  0.00  0.00    -0.075 A 
ATOM      6  C7  UNL d   1       2.242   3.334   1.055  0.00  0.00     0.076 C 
ATOM      7  C8  UNL d   1       1.113   1.093   1.177  0.00  0.00     0.001 A 
ENDROOT
BRANCH   1   8
ATOM      8  C1  UNL d   1       0.074  -1.199   1.388  0.00  0.00     0.053 C 
ATOM      9  C   UNL d   1      -0.941  -2.084   0.684  0.00  0.00     0.018 C 
ENDBRANCH   1   8
TORSDOF 1
ENDMDL
