MODEL 1
REMARK minimizedAffinity -0.535509348
REMARK minimizedRMSD -1
REMARK  1 active torsions:
REMARK  status: ('A' for Active; 'I' for Inactive)
REMARK    1  A    between atoms: C1_2  and  C2_3 
ROOT
ATOM      1  C2  UNL d   1      -0.328   1.068   0.186  0.00  0.00    -0.073 A 
ATOM      2  C3  UNL d   1      -1.037   1.424   1.340  0.00  0.00    -0.002 A 
ATOM      3  C4  UNL d   1      -1.669   0.446   2.109  0.00  0.00     0.004 A 
ATOM      4  C5  UNL d   1      -1.592  -0.897   1.738  0.00  0.00    -0.004 A 
ATOM      5  C6  UNL d   1      -0.879  -1.274   0.596  0.00  0.00    -0.075 A 
ATOM      6  C7  UNL d   1      -0.789  -2.713   0.182  0.00  0.00     0.076 C 
ATOM      7  C8  UNL d   1      -0.250  -0.285  -0.173  0.00  0.00     0.001 A 
ENDROOT
BRANCH   1   8
ATOM      8  C1  UNL d   1       0.360   2.120  -0.644  0.00  0.00     0.053 C 
ATOM      9  C   UNL d   1       0.779   3.320   0.190  0.00  0.00     0.018 C 
ENDBRANCH   1   8
TORSDOF 1
ENDMDL
