MODEL 1
REMARK minimizedAffinity -3.76172781
REMARK minimizedRMSD -1
REMARK  1 active torsions:
REMARK  status: ('A' for Active; 'I' for Inactive)
REMARK    1  A    between atoms: C1_2  and  C2_3 
ROOT
ATOM      1  C2  UNL d   1      -0.171  -0.006  -0.458  0.00  0.00    -0.073 A 
ATOM      2  C3  UNL d   1      -0.516  -0.247   0.877  0.00  0.00    -0.002 A 
ATOM      3  C4  UNL d   1      -0.881  -1.529   1.290  0.00  0.00     0.004 A 
ATOM      4  C5  UNL d   1      -0.897  -2.583   0.376  0.00  0.00    -0.004 A 
ATOM      5  C6  UNL d   1      -0.544  -2.365  -0.959  0.00  0.00    -0.075 A 
ATOM      6  C7  UNL d   1      -0.558  -3.487  -1.955  0.00  0.00     0.076 C 
ATOM      7  C8  UNL d   1      -0.182  -1.074  -1.367  0.00  0.00     0.001 A 
ENDROOT
BRANCH   1   8
ATOM      8  C1  UNL d   1       0.230   1.375  -0.908  0.00  0.00     0.053 C 
ATOM      9  C   UNL d   1       0.394   2.330   0.264  0.00  0.00     0.018 C 
ENDBRANCH   1   8
TORSDOF 1
ENDMDL
