MODEL 1
REMARK minimizedAffinity -2.09150863
REMARK minimizedRMSD -1
REMARK  1 active torsions:
REMARK  status: ('A' for Active; 'I' for Inactive)
REMARK    1  A    between atoms: C1_2  and  C2_3 
ROOT
ATOM      1  C2  UNL d   1       0.084   0.394   0.791  0.00  0.00    -0.073 A 
ATOM      2  C3  UNL d   1      -0.424   0.718  -0.473  0.00  0.00    -0.002 A 
ATOM      3  C4  UNL d   1      -0.060   1.914  -1.093  0.00  0.00     0.004 A 
ATOM      4  C5  UNL d   1       0.817   2.795  -0.461  0.00  0.00    -0.004 A 
ATOM      5  C6  UNL d   1       1.344   2.483   0.797  0.00  0.00    -0.075 A 
ATOM      6  C7  UNL d   1       2.288   3.420   1.492  0.00  0.00     0.076 C 
ATOM      7  C8  UNL d   1       0.973   1.281   1.414  0.00  0.00     0.001 A 
ENDROOT
BRANCH   1   8
ATOM      8  C1  UNL d   1      -0.301  -0.899   1.461  0.00  0.00     0.053 C 
ATOM      9  C   UNL d   1      -1.031  -1.837   0.514  0.00  0.00     0.018 C 
ENDBRANCH   1   8
TORSDOF 1
ENDMDL
