MODEL 1
REMARK minimizedAffinity -3.19317603
REMARK minimizedRMSD -1
REMARK  1 active torsions:
REMARK  status: ('A' for Active; 'I' for Inactive)
REMARK    1  A    between atoms: C1_2  and  C2_3 
ROOT
ATOM      1  C2  UNL d   1      -0.409  -0.490   0.346  0.00  0.00    -0.073 A 
ATOM      2  C3  UNL d   1      -0.912  -1.570   1.079  0.00  0.00    -0.002 A 
ATOM      3  C4  UNL d   1      -1.076  -2.817   0.474  0.00  0.00     0.004 A 
ATOM      4  C5  UNL d   1      -0.733  -2.998  -0.865  0.00  0.00    -0.004 A 
ATOM      5  C6  UNL d   1      -0.217  -1.933  -1.612  0.00  0.00    -0.075 A 
ATOM      6  C7  UNL d   1       0.155  -2.111  -3.054  0.00  0.00     0.076 C 
ATOM      7  C8  UNL d   1      -0.058  -0.684  -0.998  0.00  0.00     0.001 A 
ENDROOT
BRANCH   1   8
ATOM      8  C1  UNL d   1      -0.225   0.857   0.996  0.00  0.00     0.053 C 
ATOM      9  C   UNL d   1       0.244   1.910   0.004  0.00  0.00     0.018 C 
ENDBRANCH   1   8
TORSDOF 1
ENDMDL
