MODEL 1
REMARK minimizedAffinity -2.22246861
REMARK minimizedRMSD -1
REMARK  1 active torsions:
REMARK  status: ('A' for Active; 'I' for Inactive)
REMARK    1  A    between atoms: C1_2  and  C2_3 
ROOT
ATOM      1  C2  UNL d   1       0.146   0.966   0.073  0.00  0.00    -0.073 A 
ATOM      2  C3  UNL d   1      -0.208   0.371   1.290  0.00  0.00    -0.002 A 
ATOM      3  C4  UNL d   1      -0.645  -0.954   1.325  0.00  0.00     0.004 A 
ATOM      4  C5  UNL d   1      -0.726  -1.698   0.149  0.00  0.00    -0.004 A 
ATOM      5  C6  UNL d   1      -0.365  -1.125  -1.075  0.00  0.00    -0.075 A 
ATOM      6  C7  UNL d   1      -0.449  -1.912  -2.350  0.00  0.00     0.076 C 
ATOM      7  C8  UNL d   1       0.070   0.206  -1.103  0.00  0.00     0.001 A 
ENDROOT
BRANCH   1   8
ATOM      8  C1  UNL d   1       0.625   2.394   0.030  0.00  0.00     0.053 C 
ATOM      9  C   UNL d   1       2.109   2.507   0.338  0.00  0.00     0.018 C 
ENDBRANCH   1   8
TORSDOF 1
ENDMDL
