MODEL 1
REMARK minimizedAffinity -1.47199333
REMARK minimizedRMSD -1
REMARK  1 active torsions:
REMARK  status: ('A' for Active; 'I' for Inactive)
REMARK    1  A    between atoms: C1_2  and  C2_3 
ROOT
ATOM      1  C2  UNL d   1      -0.913  -2.355  -0.556  0.00  0.00    -0.073 A 
ATOM      2  C3  UNL d   1      -1.237  -2.488   0.799  0.00  0.00    -0.002 A 
ATOM      3  C4  UNL d   1      -1.159  -1.387   1.653  0.00  0.00     0.004 A 
ATOM      4  C5  UNL d   1      -0.765  -0.143   1.161  0.00  0.00    -0.004 A 
ATOM      5  C6  UNL d   1      -0.449   0.012  -0.192  0.00  0.00    -0.075 A 
ATOM      6  C7  UNL d   1      -0.021   1.343  -0.737  0.00  0.00     0.076 C 
ATOM      7  C8  UNL d   1      -0.526  -1.099  -1.043  0.00  0.00     0.001 A 
ENDROOT
BRANCH   1   8
ATOM      8  C1  UNL d   1      -1.002  -3.540  -1.484  0.00  0.00     0.053 C 
ATOM      9  C   UNL d   1      -0.822  -3.138  -2.939  0.00  0.00     0.018 C 
ENDBRANCH   1   8
TORSDOF 1
ENDMDL
