MODEL 1
REMARK minimizedAffinity -2.95026231
REMARK minimizedRMSD -1
REMARK  1 active torsions:
REMARK  status: ('A' for Active; 'I' for Inactive)
REMARK    1  A    between atoms: C1_2  and  C2_3 
ROOT
ATOM      1  C2  UNL d   1      -0.364  -0.581   0.121  0.00  0.00    -0.073 A 
ATOM      2  C3  UNL d   1      -0.953  -1.667   0.778  0.00  0.00    -0.002 A 
ATOM      3  C4  UNL d   1      -1.096  -2.892   0.126  0.00  0.00     0.004 A 
ATOM      4  C5  UNL d   1      -0.647  -3.046  -1.186  0.00  0.00    -0.004 A 
ATOM      5  C6  UNL d   1      -0.045  -1.976  -1.855  0.00  0.00    -0.075 A 
ATOM      6  C7  UNL d   1       0.442  -2.125  -3.267  0.00  0.00     0.076 C 
ATOM      7  C8  UNL d   1       0.093  -0.748  -1.194  0.00  0.00     0.001 A 
ENDROOT
BRANCH   1   8
ATOM      8  C1  UNL d   1      -0.201   0.742   0.824  0.00  0.00     0.053 C 
ATOM      9  C   UNL d   1       0.763   1.662   0.091  0.00  0.00     0.018 C 
ENDBRANCH   1   8
TORSDOF 1
ENDMDL
