MODEL 1
REMARK minimizedAffinity 9.85888481
REMARK minimizedRMSD -1
REMARK  0 active torsions:
REMARK  status: ('A' for Active; 'I' for Inactive)
ROOT
ATOM      1  C   UNL d   1      -4.056   5.633  -0.393  0.00  0.00    -0.002 A 
ATOM      2  C1  UNL d   1      -3.362   5.880   0.783  0.00  0.00     0.010 A 
ATOM      3  C2  UNL d   1      -2.693   4.847   1.442  0.00  0.00     0.041 A 
ATOM      4  C3  UNL d   1      -2.732   3.550   0.894  0.00  0.00    -0.075 A 
ATOM      5  S   UNL d   1      -1.985   2.131   1.527  0.00  0.00     0.015 SA
ATOM      6  C4  UNL d   1      -2.569   1.164   0.251  0.00  0.00     0.022 A 
ATOM      7  C5  UNL d   1      -3.317   1.889  -0.645  0.00  0.00     0.026 A 
ATOM      8  C6  UNL d   1      -3.423   3.277  -0.290  0.00  0.00    -0.082 A 
ATOM      9  C7  UNL d   1      -4.092   4.345  -0.934  0.00  0.00     0.045 A 
ENDROOT
TORSDOF 0
ENDMDL
