MODEL 1
REMARK minimizedAffinity 26.5404968
REMARK minimizedRMSD -1
REMARK  0 active torsions:
REMARK  status: ('A' for Active; 'I' for Inactive)
ROOT
ATOM      1  C   UNL d   1      -5.025  -5.990  -5.969  0.00  0.00    -0.002 A 
ATOM      2  C1  UNL d   1      -5.938  -5.899  -4.927  0.00  0.00     0.010 A 
ATOM      3  C2  UNL d   1      -5.695  -5.055  -3.841  0.00  0.00     0.041 A 
ATOM      4  C3  UNL d   1      -4.509  -4.295  -3.821  0.00  0.00    -0.075 A 
ATOM      5  S   UNL d   1      -4.000  -3.194  -2.596  0.00  0.00     0.015 SA
ATOM      6  C4  UNL d   1      -2.561  -2.817  -3.427  0.00  0.00     0.022 A 
ATOM      7  C5  UNL d   1      -2.454  -3.506  -4.612  0.00  0.00     0.026 A 
ATOM      8  C6  UNL d   1      -3.575  -4.368  -4.859  0.00  0.00    -0.082 A 
ATOM      9  C7  UNL d   1      -3.850  -5.234  -5.945  0.00  0.00     0.045 A 
ENDROOT
TORSDOF 0
ENDMDL
