MODEL 1
REMARK minimizedAffinity 18.6942387
REMARK minimizedRMSD -1
REMARK  0 active torsions:
REMARK  status: ('A' for Active; 'I' for Inactive)
ROOT
ATOM      1  C   UNL d   1       3.752  -4.148  -4.573  0.00  0.00    -0.002 A 
ATOM      2  C1  UNL d   1       3.087  -2.936  -4.449  0.00  0.00     0.010 A 
ATOM      3  C2  UNL d   1       3.378  -2.072  -3.391  0.00  0.00     0.041 A 
ATOM      4  C3  UNL d   1       4.359  -2.449  -2.453  0.00  0.00    -0.075 A 
ATOM      5  S   UNL d   1       4.881  -1.551  -1.077  0.00  0.00     0.015 SA
ATOM      6  C4  UNL d   1       6.000  -2.754  -0.623  0.00  0.00     0.022 A 
ATOM      7  C5  UNL d   1       5.988  -3.822  -1.489  0.00  0.00     0.026 A 
ATOM      8  C6  UNL d   1       5.042  -3.664  -2.558  0.00  0.00    -0.082 A 
ATOM      9  C7  UNL d   1       4.724  -4.518  -3.641  0.00  0.00     0.045 A 
ENDROOT
TORSDOF 0
ENDMDL
