MODEL 1
REMARK minimizedAffinity 15.247365
REMARK minimizedRMSD -1
REMARK  0 active torsions:
REMARK  status: ('A' for Active; 'I' for Inactive)
ROOT
ATOM      1  C   UNL d   1       5.233   2.336  -5.063  0.00  0.00    -0.002 A 
ATOM      2  C1  UNL d   1       3.899   2.665  -5.253  0.00  0.00     0.010 A 
ATOM      3  C2  UNL d   1       3.303   3.678  -4.498  0.00  0.00     0.041 A 
ATOM      4  C3  UNL d   1       4.079   4.362  -3.542  0.00  0.00    -0.075 A 
ATOM      5  S   UNL d   1       3.562   5.638  -2.504  0.00  0.00     0.015 SA
ATOM      6  C4  UNL d   1       5.101   5.776  -1.784  0.00  0.00     0.022 A 
ATOM      7  C5  UNL d   1       5.999   4.878  -2.311  0.00  0.00     0.026 A 
ATOM      8  C6  UNL d   1       5.425   4.049  -3.333  0.00  0.00    -0.082 A 
ATOM      9  C7  UNL d   1       6.000   3.016  -4.113  0.00  0.00     0.045 A 
ENDROOT
TORSDOF 0
ENDMDL
