MODEL 1
REMARK minimizedAffinity 20.3540306
REMARK minimizedRMSD -1
REMARK  0 active torsions:
REMARK  status: ('A' for Active; 'I' for Inactive)
ROOT
ATOM      1  C   UNL d   1       1.501   5.309  -0.517  0.00  0.00    -0.002 A 
ATOM      2  C1  UNL d   1       2.083   4.957   0.692  0.00  0.00     0.010 A 
ATOM      3  C2  UNL d   1       3.471   4.953   0.838  0.00  0.00     0.041 A 
ATOM      4  C3  UNL d   1       4.273   5.313  -0.263  0.00  0.00    -0.075 A 
ATOM      5  S   UNL d   1       5.995   5.381  -0.316  0.00  0.00     0.015 SA
ATOM      6  C4  UNL d   1       5.999   5.880  -1.946  0.00  0.00     0.022 A 
ATOM      7  C5  UNL d   1       4.726   5.996  -2.453  0.00  0.00     0.026 A 
ATOM      8  C6  UNL d   1       3.710   5.673  -1.491  0.00  0.00    -0.082 A 
ATOM      9  C7  UNL d   1       2.300   5.666  -1.607  0.00  0.00     0.045 A 
ENDROOT
TORSDOF 0
ENDMDL
