MODEL 1
REMARK minimizedAffinity 20.7629204
REMARK minimizedRMSD -1
REMARK  0 active torsions:
REMARK  status: ('A' for Active; 'I' for Inactive)
ROOT
ATOM      1  C   UNL d   1       1.500   5.249  -0.441  0.00  0.00    -0.002 A 
ATOM      2  C1  UNL d   1       2.082   4.835   0.749  0.00  0.00     0.010 A 
ATOM      3  C2  UNL d   1       3.471   4.811   0.890  0.00  0.00     0.041 A 
ATOM      4  C3  UNL d   1       4.273   5.217  -0.195  0.00  0.00    -0.075 A 
ATOM      5  S   UNL d   1       5.995   5.272  -0.251  0.00  0.00     0.015 SA
ATOM      6  C4  UNL d   1       6.000   5.847  -1.855  0.00  0.00     0.022 A 
ATOM      7  C5  UNL d   1       4.727   6.000  -2.351  0.00  0.00     0.026 A 
ATOM      8  C6  UNL d   1       3.711   5.639  -1.403  0.00  0.00    -0.082 A 
ATOM      9  C7  UNL d   1       2.299   5.651  -1.515  0.00  0.00     0.045 A 
ENDROOT
TORSDOF 0
ENDMDL
