MODEL 1
REMARK minimizedAffinity 19.0533237
REMARK minimizedRMSD -1
REMARK  0 active torsions:
REMARK  status: ('A' for Active; 'I' for Inactive)
ROOT
ATOM      1  C   UNL d   1      -5.436   0.831   5.975  0.00  0.00    -0.002 A 
ATOM      2  C1  UNL d   1      -5.798  -0.509   6.000  0.00  0.00     0.010 A 
ATOM      3  C2  UNL d   1      -4.822  -1.507   6.000  0.00  0.00     0.041 A 
ATOM      4  C3  UNL d   1      -3.464  -1.134   5.975  0.00  0.00    -0.075 A 
ATOM      5  S   UNL d   1      -2.096  -2.184   5.971  0.00  0.00     0.015 SA
ATOM      6  C4  UNL d   1      -1.001  -0.879   5.936  0.00  0.00     0.022 A 
ATOM      7  C5  UNL d   1      -1.645   0.336   5.927  0.00  0.00     0.026 A 
ATOM      8  C6  UNL d   1      -3.075   0.209   5.950  0.00  0.00    -0.082 A 
ATOM      9  C7  UNL d   1      -4.088   1.198   5.950  0.00  0.00     0.045 A 
ENDROOT
TORSDOF 0
ENDMDL
