MODEL 1
REMARK minimizedAffinity 18.6874046
REMARK minimizedRMSD -1
REMARK  0 active torsions:
REMARK  status: ('A' for Active; 'I' for Inactive)
ROOT
ATOM      1  C   UNL d   1      -2.377  -2.363  -3.657  0.00  0.00    -0.002 A 
ATOM      2  C1  UNL d   1      -1.485  -2.835  -4.609  0.00  0.00     0.010 A 
ATOM      3  C2  UNL d   1      -1.795  -3.959  -5.378  0.00  0.00     0.041 A 
ATOM      4  C3  UNL d   1      -3.029  -4.606  -5.172  0.00  0.00    -0.075 A 
ATOM      5  S   UNL d   1      -3.623  -5.998  -5.997  0.00  0.00     0.015 SA
ATOM      6  C4  UNL d   1      -5.076  -5.999  -5.105  0.00  0.00     0.022 A 
ATOM      7  C5  UNL d   1      -5.123  -4.970  -4.195  0.00  0.00     0.026 A 
ATOM      8  C6  UNL d   1      -3.945  -4.149  -4.219  0.00  0.00    -0.082 A 
ATOM      9  C7  UNL d   1      -3.600  -3.008  -3.455  0.00  0.00     0.045 A 
ENDROOT
TORSDOF 0
ENDMDL
