MODEL 1
REMARK minimizedAffinity 22.5699749
REMARK minimizedRMSD -1
REMARK  0 active torsions:
REMARK  status: ('A' for Active; 'I' for Inactive)
ROOT
ATOM      1  C   UNL d   1      -0.085  -1.737  -2.839  0.00  0.00    -0.002 A 
ATOM      2  C1  UNL d   1      -0.526  -1.443  -1.556  0.00  0.00     0.010 A 
ATOM      3  C2  UNL d   1       0.388  -1.172  -0.536  0.00  0.00     0.041 A 
ATOM      4  C3  UNL d   1       1.765  -1.201  -0.829  0.00  0.00    -0.075 A 
ATOM      5  S   UNL d   1       3.067  -0.902   0.262  0.00  0.00     0.015 SA
ATOM      6  C4  UNL d   1       4.239  -1.157  -0.949  0.00  0.00     0.022 A 
ATOM      7  C5  UNL d   1       3.669  -1.464  -2.162  0.00  0.00     0.026 A 
ATOM      8  C6  UNL d   1       2.234  -1.494  -2.113  0.00  0.00    -0.082 A 
ATOM      9  C7  UNL d   1       1.283  -1.765  -3.126  0.00  0.00     0.045 A 
ENDROOT
TORSDOF 0
ENDMDL
