MODEL 1
REMARK minimizedAffinity 31.5331669
REMARK minimizedRMSD -1
REMARK  0 active torsions:
REMARK  status: ('A' for Active; 'I' for Inactive)
ROOT
ATOM      1  C   UNL d   1       3.982   1.293  -3.993  0.00  0.00    -0.002 A 
ATOM      2  C1  UNL d   1       5.199   1.953  -4.085  0.00  0.00     0.010 A 
ATOM      3  C2  UNL d   1       5.261   3.345  -3.988  0.00  0.00     0.041 A 
ATOM      4  C3  UNL d   1       4.068   4.068  -3.792  0.00  0.00    -0.075 A 
ATOM      5  S   UNL d   1       3.902   5.778  -3.643  0.00  0.00     0.015 SA
ATOM      6  C4  UNL d   1       2.212   5.671  -3.452  0.00  0.00     0.022 A 
ATOM      7  C5  UNL d   1       1.768   4.371  -3.499  0.00  0.00     0.026 A 
ATOM      8  C6  UNL d   1       2.831   3.425  -3.695  0.00  0.00    -0.082 A 
ATOM      9  C7  UNL d   1       2.801   2.014  -3.799  0.00  0.00     0.045 A 
ENDROOT
TORSDOF 0
ENDMDL
