MODEL 1
REMARK minimizedAffinity 18.9127445
REMARK minimizedRMSD -1
REMARK  0 active torsions:
REMARK  status: ('A' for Active; 'I' for Inactive)
ROOT
ATOM      1  C   UNL d   1       5.630  -5.114   6.000  0.00  0.00    -0.002 A 
ATOM      2  C1  UNL d   1       4.700  -5.997   5.469  0.00  0.00     0.010 A 
ATOM      3  C2  UNL d   1       3.501  -5.527   4.930  0.00  0.00     0.041 A 
ATOM      4  C3  UNL d   1       3.250  -4.140   4.932  0.00  0.00    -0.075 A 
ATOM      5  S   UNL d   1       1.851  -3.336   4.325  0.00  0.00     0.015 SA
ATOM      6  C4  UNL d   1       2.455  -1.802   4.755  0.00  0.00     0.022 A 
ATOM      7  C5  UNL d   1       3.692  -1.882   5.349  0.00  0.00     0.026 A 
ATOM      8  C6  UNL d   1       4.171  -3.231   5.460  0.00  0.00    -0.082 A 
ATOM      9  C7  UNL d   1       5.377  -3.740   6.000  0.00  0.00     0.045 A 
ENDROOT
TORSDOF 0
ENDMDL
