MODEL 1
REMARK minimizedAffinity 23.3199482
REMARK minimizedRMSD -1
REMARK  0 active torsions:
REMARK  status: ('A' for Active; 'I' for Inactive)
ROOT
ATOM      1  C   UNL d   1       1.526   5.274  -3.054  0.00  0.00    -0.002 A 
ATOM      2  C1  UNL d   1       2.169   5.833  -4.150  0.00  0.00     0.010 A 
ATOM      3  C2  UNL d   1       3.556   5.997  -4.152  0.00  0.00     0.041 A 
ATOM      4  C3  UNL d   1       4.293   5.584  -3.025  0.00  0.00    -0.075 A 
ATOM      5  S   UNL d   1       6.000   5.686  -2.805  0.00  0.00     0.015 SA
ATOM      6  C4  UNL d   1       5.916   4.989  -1.251  0.00  0.00     0.022 A 
ATOM      7  C5  UNL d   1       4.625   4.681  -0.893  0.00  0.00     0.026 A 
ATOM      8  C6  UNL d   1       3.668   5.018  -1.910  0.00  0.00    -0.082 A 
ATOM      9  C7  UNL d   1       2.261   4.866  -1.938  0.00  0.00     0.045 A 
ENDROOT
TORSDOF 0
ENDMDL
