MODEL 1
REMARK minimizedAffinity 15.4835167
REMARK minimizedRMSD -1
REMARK  0 active torsions:
REMARK  status: ('A' for Active; 'I' for Inactive)
ROOT
ATOM      1  C   UNL d   1      -0.194  -1.985  -1.829  0.00  0.00    -0.002 A 
ATOM      2  C1  UNL d   1       0.531  -1.444  -0.777  0.00  0.00     0.010 A 
ATOM      3  C2  UNL d   1       1.920  -1.334  -0.853  0.00  0.00     0.041 A 
ATOM      4  C3  UNL d   1       2.576  -1.779  -2.018  0.00  0.00    -0.075 A 
ATOM      5  S   UNL d   1       4.270  -1.742  -2.336  0.00  0.00     0.015 SA
ATOM      6  C4  UNL d   1       4.072  -2.443  -3.877  0.00  0.00     0.022 A 
ATOM      7  C5  UNL d   1       2.752  -2.705  -4.158  0.00  0.00     0.026 A 
ATOM      8  C6  UNL d   1       1.868  -2.326  -3.092  0.00  0.00    -0.082 A 
ATOM      9  C7  UNL d   1       0.460  -2.426  -2.983  0.00  0.00     0.045 A 
ENDROOT
TORSDOF 0
ENDMDL
