MODEL 1
REMARK minimizedAffinity -1.90391314
REMARK minimizedRMSD -1
REMARK  2 active torsions:
REMARK  status: ('A' for Active; 'I' for Inactive)
REMARK    1  A    between atoms: C1_2  and  C2_3 
REMARK    2  A    between atoms: C2_3  and  C3_4 
ROOT
ATOM      1  C3  UNL d   1       5.527  -4.300   4.345  0.00  0.00    -0.075 A 
ATOM      2  C4  UNL d   1       5.823  -5.250   3.356  0.00  0.00     0.002 A 
ATOM      3  C5  UNL d   1       5.999  -4.859   2.028  0.00  0.00     0.002 A 
ATOM      4  C6  UNL d   1       5.872  -3.518   1.671  0.00  0.00    -0.004 A 
ATOM      5  C7  UNL d   1       5.562  -2.569   2.642  0.00  0.00     0.002 A 
ATOM      6  C8  UNL d   1       5.389  -2.956   3.972  0.00  0.00     0.002 A 
ENDROOT
BRANCH   1   7
ATOM      7  C2  UNL d   1       5.364  -4.713   5.788  0.00  0.00     0.056 C 
BRANCH   7   8
ATOM      8  C1  UNL d   1       4.553  -5.998   5.982  0.00  0.00     0.007 C 
ATOM      9  C   UNL d   1       3.201  -5.967   5.282  0.00  0.00     0.009 C 
ENDBRANCH   7   8
ENDBRANCH   1   7
TORSDOF 2
ENDMDL
