MODEL 1
REMARK minimizedAffinity -2.3993566
REMARK minimizedRMSD -1
REMARK  2 active torsions:
REMARK  status: ('A' for Active; 'I' for Inactive)
REMARK    1  A    between atoms: C1_2  and  C2_3 
REMARK    2  A    between atoms: C2_3  and  C3_4 
ROOT
ATOM      1  C3  UNL d   1       5.921  -4.788   4.148  0.00  0.00    -0.075 A 
ATOM      2  C4  UNL d   1       5.869  -3.451   4.569  0.00  0.00     0.002 A 
ATOM      3  C5  UNL d   1       5.869  -2.414   3.636  0.00  0.00     0.002 A 
ATOM      4  C6  UNL d   1       5.931  -2.698   2.274  0.00  0.00    -0.004 A 
ATOM      5  C7  UNL d   1       6.000  -4.022   1.844  0.00  0.00     0.002 A 
ATOM      6  C8  UNL d   1       5.996  -5.062   2.775  0.00  0.00     0.002 A 
ENDROOT
BRANCH   1   7
ATOM      7  C2  UNL d   1       5.892  -5.916   5.151  0.00  0.00     0.056 C 
BRANCH   7   8
ATOM      8  C1  UNL d   1       4.617  -5.962   6.000  0.00  0.00     0.007 C 
ATOM      9  C   UNL d   1       3.342  -5.995   5.168  0.00  0.00     0.009 C 
ENDBRANCH   7   8
ENDBRANCH   1   7
TORSDOF 2
ENDMDL
