MODEL 1
REMARK minimizedAffinity -3.37649512
REMARK minimizedRMSD -1
REMARK  2 active torsions:
REMARK  status: ('A' for Active; 'I' for Inactive)
REMARK    1  A    between atoms: C1_2  and  C2_3 
REMARK    2  A    between atoms: C2_3  and  C3_4 
ROOT
ATOM      1  C3  UNL d   1       5.941  -3.819   4.626  0.00  0.00    -0.075 A 
ATOM      2  C4  UNL d   1       5.999  -2.418   4.628  0.00  0.00     0.002 A 
ATOM      3  C5  UNL d   1       5.999  -1.708   3.427  0.00  0.00     0.002 A 
ATOM      4  C6  UNL d   1       5.951  -2.388   2.212  0.00  0.00    -0.004 A 
ATOM      5  C7  UNL d   1       5.910  -3.780   2.198  0.00  0.00     0.002 A 
ATOM      6  C8  UNL d   1       5.906  -4.493   3.398  0.00  0.00     0.002 A 
ENDROOT
BRANCH   1   7
ATOM      7  C2  UNL d   1       5.912  -4.592   5.923  0.00  0.00     0.056 C 
BRANCH   7   8
ATOM      8  C1  UNL d   1       5.308  -5.995   5.799  0.00  0.00     0.007 C 
ATOM      9  C   UNL d   1       3.786  -5.998   5.823  0.00  0.00     0.009 C 
ENDBRANCH   7   8
ENDBRANCH   1   7
TORSDOF 2
ENDMDL
