MODEL 1
REMARK minimizedAffinity -0.726654291
REMARK minimizedRMSD -1
REMARK  2 active torsions:
REMARK  status: ('A' for Active; 'I' for Inactive)
REMARK    1  A    between atoms: C1_2  and  C2_3 
REMARK    2  A    between atoms: C2_3  and  C3_4 
ROOT
ATOM      1  C3  UNL d   1       5.272  -4.158   4.120  0.00  0.00    -0.075 A 
ATOM      2  C4  UNL d   1       5.997  -4.777   5.148  0.00  0.00     0.002 A 
ATOM      3  C5  UNL d   1       5.378  -5.693   5.999  0.00  0.00     0.002 A 
ATOM      4  C6  UNL d   1       4.028  -5.994   5.839  0.00  0.00    -0.004 A 
ATOM      5  C7  UNL d   1       3.293  -5.373   4.831  0.00  0.00     0.002 A 
ATOM      6  C8  UNL d   1       3.911  -4.459   3.976  0.00  0.00     0.002 A 
ENDROOT
BRANCH   1   7
ATOM      7  C2  UNL d   1       5.943  -3.187   3.177  0.00  0.00     0.056 C 
BRANCH   7   8
ATOM      8  C1  UNL d   1       5.969  -3.653   1.718  0.00  0.00     0.007 C 
ATOM      9  C   UNL d   1       5.998  -5.168   1.571  0.00  0.00     0.009 C 
ENDBRANCH   7   8
ENDBRANCH   1   7
TORSDOF 2
ENDMDL
