MODEL 1
REMARK minimizedAffinity -2.33972955
REMARK minimizedRMSD -1
REMARK  2 active torsions:
REMARK  status: ('A' for Active; 'I' for Inactive)
REMARK    1  A    between atoms: C1_2  and  C2_3 
REMARK    2  A    between atoms: C2_3  and  C3_4 
ROOT
ATOM      1  C3  UNL d   1       5.504  -4.461   4.768  0.00  0.00    -0.075 A 
ATOM      2  C4  UNL d   1       5.695  -5.032   3.501  0.00  0.00     0.002 A 
ATOM      3  C5  UNL d   1       5.946  -4.226   2.391  0.00  0.00     0.002 A 
ATOM      4  C6  UNL d   1       6.000  -2.840   2.530  0.00  0.00    -0.004 A 
ATOM      5  C7  UNL d   1       5.796  -2.261   3.781  0.00  0.00     0.002 A 
ATOM      6  C8  UNL d   1       5.549  -3.066   4.894  0.00  0.00     0.002 A 
ENDROOT
BRANCH   1   7
ATOM      7  C2  UNL d   1       5.262  -5.330   5.979  0.00  0.00     0.056 C 
BRANCH   7   8
ATOM      8  C1  UNL d   1       3.883  -5.999   6.000  0.00  0.00     0.007 C 
ATOM      9  C   UNL d   1       2.821  -5.209   5.247  0.00  0.00     0.009 C 
ENDBRANCH   7   8
ENDBRANCH   1   7
TORSDOF 2
ENDMDL
