MODEL 1
REMARK minimizedAffinity -2.53507471
REMARK minimizedRMSD -1
REMARK  2 active torsions:
REMARK  status: ('A' for Active; 'I' for Inactive)
REMARK    1  A    between atoms: C1_2  and  C2_3 
REMARK    2  A    between atoms: C2_3  and  C3_4 
ROOT
ATOM      1  C3  UNL d   1       5.651  -4.611   4.265  0.00  0.00    -0.075 A 
ATOM      2  C4  UNL d   1       5.580  -3.277   4.692  0.00  0.00     0.002 A 
ATOM      3  C5  UNL d   1       5.569  -2.236   3.762  0.00  0.00     0.002 A 
ATOM      4  C6  UNL d   1       5.637  -2.515   2.399  0.00  0.00    -0.004 A 
ATOM      5  C7  UNL d   1       5.724  -3.836   1.965  0.00  0.00     0.002 A 
ATOM      6  C8  UNL d   1       5.732  -4.879   2.892  0.00  0.00     0.002 A 
ENDROOT
BRANCH   1   7
ATOM      7  C2  UNL d   1       5.634  -5.743   5.265  0.00  0.00     0.056 C 
BRANCH   7   8
ATOM      8  C1  UNL d   1       4.286  -5.934   5.968  0.00  0.00     0.007 C 
ATOM      9  C   UNL d   1       3.106  -5.421   5.154  0.00  0.00     0.009 C 
ENDBRANCH   7   8
ENDBRANCH   1   7
TORSDOF 2
ENDMDL
