MODEL 1
REMARK minimizedAffinity -0.491028398
REMARK minimizedRMSD -1
REMARK  2 active torsions:
REMARK  status: ('A' for Active; 'I' for Inactive)
REMARK    1  A    between atoms: C1_2  and  C2_3 
REMARK    2  A    between atoms: C2_3  and  C3_4 
ROOT
ATOM      1  C3  UNL d   1       5.546  -3.454   4.448  0.00  0.00    -0.075 A 
ATOM      2  C4  UNL d   1       4.678  -3.578   5.542  0.00  0.00     0.002 A 
ATOM      3  C5  UNL d   1       4.287  -4.839   5.996  0.00  0.00     0.002 A 
ATOM      4  C6  UNL d   1       4.749  -5.987   5.358  0.00  0.00    -0.004 A 
ATOM      5  C7  UNL d   1       5.599  -5.874   4.259  0.00  0.00     0.002 A 
ATOM      6  C8  UNL d   1       5.996  -4.615   3.806  0.00  0.00     0.002 A 
ENDROOT
BRANCH   1   7
ATOM      7  C2  UNL d   1       5.996  -2.094   3.971  0.00  0.00     0.056 C 
BRANCH   7   8
ATOM      8  C1  UNL d   1       5.284  -1.611   2.703  0.00  0.00     0.007 C 
ATOM      9  C   UNL d   1       5.997  -2.019   1.421  0.00  0.00     0.009 C 
ENDBRANCH   7   8
ENDBRANCH   1   7
TORSDOF 2
ENDMDL
