MODEL 1
REMARK minimizedAffinity -3.8772223
REMARK minimizedRMSD -1
REMARK  2 active torsions:
REMARK  status: ('A' for Active; 'I' for Inactive)
REMARK    1  A    between atoms: C1_2  and  C2_3 
REMARK    2  A    between atoms: C2_3  and  C3_4 
ROOT
ATOM      1  C3  UNL d   1       5.286  -3.760   4.569  0.00  0.00    -0.075 A 
ATOM      2  C4  UNL d   1       5.656  -4.653   3.553  0.00  0.00     0.002 A 
ATOM      3  C5  UNL d   1       6.000  -4.180   2.286  0.00  0.00     0.002 A 
ATOM      4  C6  UNL d   1       5.968  -2.814   2.016  0.00  0.00    -0.004 A 
ATOM      5  C7  UNL d   1       5.586  -1.920   3.014  0.00  0.00     0.002 A 
ATOM      6  C8  UNL d   1       5.246  -2.389   4.284  0.00  0.00     0.002 A 
ENDROOT
BRANCH   1   7
ATOM      7  C2  UNL d   1       4.942  -4.263   5.951  0.00  0.00     0.056 C 
BRANCH   7   8
ATOM      8  C1  UNL d   1       4.408  -5.699   5.977  0.00  0.00     0.007 C 
ATOM      9  C   UNL d   1       2.932  -5.798   5.617  0.00  0.00     0.009 C 
ENDBRANCH   7   8
ENDBRANCH   1   7
TORSDOF 2
ENDMDL
