MODEL 1
REMARK minimizedAffinity 0.00947798882
REMARK minimizedRMSD -1
REMARK  2 active torsions:
REMARK  status: ('A' for Active; 'I' for Inactive)
REMARK    1  A    between atoms: C1_2  and  C2_3 
REMARK    2  A    between atoms: C2_3  and  C3_4 
ROOT
ATOM      1  C3  UNL d   1       5.361  -3.539   3.916  0.00  0.00    -0.075 A 
ATOM      2  C4  UNL d   1       5.183  -3.063   2.609  0.00  0.00     0.002 A 
ATOM      3  C5  UNL d   1       5.333  -3.918   1.517  0.00  0.00     0.002 A 
ATOM      4  C6  UNL d   1       5.671  -5.254   1.716  0.00  0.00    -0.004 A 
ATOM      5  C7  UNL d   1       5.867  -5.734   3.010  0.00  0.00     0.002 A 
ATOM      6  C8  UNL d   1       5.713  -4.882   4.104  0.00  0.00     0.002 A 
ENDROOT
BRANCH   1   7
ATOM      7  C2  UNL d   1       5.171  -2.625   5.103  0.00  0.00     0.056 C 
BRANCH   7   8
ATOM      8  C1  UNL d   1       3.876  -2.876   5.883  0.00  0.00     0.007 C 
ATOM      9  C   UNL d   1       3.518  -4.352   5.993  0.00  0.00     0.009 C 
ENDBRANCH   7   8
ENDBRANCH   1   7
TORSDOF 2
ENDMDL
