MODEL 1
REMARK minimizedAffinity -2.12879848
REMARK minimizedRMSD -1
REMARK  2 active torsions:
REMARK  status: ('A' for Active; 'I' for Inactive)
REMARK    1  A    between atoms: C1_2  and  C2_3 
REMARK    2  A    between atoms: C2_3  and  C3_4 
ROOT
ATOM      1  C3  UNL d   1       5.595  -4.486   3.634  0.00  0.00    -0.075 A 
ATOM      2  C4  UNL d   1       5.347  -4.897   4.952  0.00  0.00     0.002 A 
ATOM      3  C5  UNL d   1       4.955  -3.972   5.920  0.00  0.00     0.002 A 
ATOM      4  C6  UNL d   1       4.817  -2.627   5.588  0.00  0.00    -0.004 A 
ATOM      5  C7  UNL d   1       5.077  -2.204   4.286  0.00  0.00     0.002 A 
ATOM      6  C8  UNL d   1       5.465  -3.128   3.313  0.00  0.00     0.002 A 
ENDROOT
BRANCH   1   7
ATOM      7  C2  UNL d   1       5.991  -5.486   2.574  0.00  0.00     0.056 C 
BRANCH   7   8
ATOM      8  C1  UNL d   1       5.985  -4.921   1.150  0.00  0.00     0.007 C 
ATOM      9  C   UNL d   1       6.000  -6.000   0.076  0.00  0.00     0.009 C 
ENDBRANCH   7   8
ENDBRANCH   1   7
TORSDOF 2
ENDMDL
