MODEL 1
REMARK minimizedAffinity -3.49035311
REMARK minimizedRMSD -1
REMARK  2 active torsions:
REMARK  status: ('A' for Active; 'I' for Inactive)
REMARK    1  A    between atoms: C1_2  and  C2_3 
REMARK    2  A    between atoms: C2_3  and  C3_4 
ROOT
ATOM      1  C3  UNL d   1       5.218  -3.736   4.204  0.00  0.00    -0.075 A 
ATOM      2  C4  UNL d   1       4.998  -2.574   3.451  0.00  0.00     0.002 A 
ATOM      3  C5  UNL d   1       5.264  -2.556   2.081  0.00  0.00     0.002 A 
ATOM      4  C6  UNL d   1       5.762  -3.695   1.451  0.00  0.00    -0.004 A 
ATOM      5  C7  UNL d   1       6.000  -4.850   2.193  0.00  0.00     0.002 A 
ATOM      6  C8  UNL d   1       5.730  -4.871   3.562  0.00  0.00     0.002 A 
ENDROOT
BRANCH   1   7
ATOM      7  C2  UNL d   1       4.904  -3.770   5.681  0.00  0.00     0.056 C 
BRANCH   7   8
ATOM      8  C1  UNL d   1       3.406  -3.798   6.000  0.00  0.00     0.007 C 
ATOM      9  C   UNL d   1       2.642  -4.847   5.202  0.00  0.00     0.009 C 
ENDBRANCH   7   8
ENDBRANCH   1   7
TORSDOF 2
ENDMDL
