MODEL 1
REMARK minimizedAffinity -3.12178493
REMARK minimizedRMSD -1
REMARK  2 active torsions:
REMARK  status: ('A' for Active; 'I' for Inactive)
REMARK    1  A    between atoms: C1_2  and  C2_3 
REMARK    2  A    between atoms: C2_3  and  C3_4 
ROOT
ATOM      1  C3  UNL d   1       5.818  -3.883   3.520  0.00  0.00    -0.075 A 
ATOM      2  C4  UNL d   1       5.862  -3.371   2.215  0.00  0.00     0.002 A 
ATOM      3  C5  UNL d   1       5.942  -1.995   1.997  0.00  0.00     0.002 A 
ATOM      4  C6  UNL d   1       5.969  -1.115   3.076  0.00  0.00    -0.004 A 
ATOM      5  C7  UNL d   1       5.909  -1.612   4.377  0.00  0.00     0.002 A 
ATOM      6  C8  UNL d   1       5.833  -2.988   4.599  0.00  0.00     0.002 A 
ENDROOT
BRANCH   1   7
ATOM      7  C2  UNL d   1       5.760  -5.372   3.764  0.00  0.00     0.056 C 
BRANCH   7   8
ATOM      8  C1  UNL d   1       5.995  -5.774   5.224  0.00  0.00     0.007 C 
ATOM      9  C   UNL d   1       4.704  -6.000   6.000  0.00  0.00     0.009 C 
ENDBRANCH   7   8
ENDBRANCH   1   7
TORSDOF 2
ENDMDL
