MODEL 1
REMARK minimizedAffinity -1.37195051
REMARK minimizedRMSD -1
REMARK  0 active torsions:
REMARK  status: ('A' for Active; 'I' for Inactive)
ROOT
ATOM      1  C1  DEN d   1       1.695  -0.339   2.386  0.00  0.00     0.130 A 
ATOM      2  C2  DEN d   1       2.125  -0.827   1.079  0.00  0.00    -0.031 A 
ATOM      3  C3  DEN d   1       1.009  -0.638   0.130  0.00  0.00     0.027 A 
ATOM      4  C4  DEN d   1      -1.330   0.362   0.556  0.00  0.00     0.027 A 
ATOM      5  C5  DEN d   1      -2.162   0.904   1.511  0.00  0.00    -0.003 A 
ATOM      6  C6  DEN d   1      -1.783   1.036   2.820  0.00  0.00     0.001 A 
ATOM      7  C7  DEN d   1      -0.521   0.664   3.202  0.00  0.00     0.017 A 
ATOM      8  C8  DEN d   1       0.321   0.110   2.247  0.00  0.00    -0.094 A 
ATOM      9  C9  DEN d   1      -0.077  -0.004   0.926  0.00  0.00    -0.072 A 
ENDROOT
TORSDOF 0
ENDMDL
