MODEL 1
REMARK minimizedAffinity -3.29764199
REMARK minimizedRMSD -1
REMARK  0 active torsions:
REMARK  status: ('A' for Active; 'I' for Inactive)
ROOT
ATOM      1  C1  DEN d   1      -2.227   0.302   1.900  0.00  0.00     0.130 A 
ATOM      2  C2  DEN d   1      -2.838   0.307   0.574  0.00  0.00    -0.031 A 
ATOM      3  C3  DEN d   1      -1.787  -0.011  -0.414  0.00  0.00     0.027 A 
ATOM      4  C4  DEN d   1       0.712  -0.513  -0.020  0.00  0.00     0.027 A 
ATOM      5  C5  DEN d   1       1.698  -0.622   0.936  0.00  0.00    -0.003 A 
ATOM      6  C6  DEN d   1       1.454  -0.400   2.265  0.00  0.00     0.001 A 
ATOM      7  C7  DEN d   1       0.184  -0.100   2.681  0.00  0.00     0.017 A 
ATOM      8  C8  DEN d   1      -0.814   0.019   1.723  0.00  0.00    -0.094 A 
ATOM      9  C9  DEN d   1      -0.550  -0.222   0.385  0.00  0.00    -0.072 A 
ENDROOT
TORSDOF 0
ENDMDL
