MODEL 1
REMARK minimizedAffinity -4.86930418
REMARK minimizedRMSD -1
REMARK  0 active torsions:
REMARK  status: ('A' for Active; 'I' for Inactive)
ROOT
ATOM      1  C1  DEN d   1       0.998  -0.526  -0.344  0.00  0.00     0.130 A 
ATOM      2  C2  DEN d   1      -0.212  -0.500  -1.160  0.00  0.00    -0.031 A 
ATOM      3  C3  DEN d   1      -1.257   0.220  -0.405  0.00  0.00     0.027 A 
ATOM      4  C4  DEN d   1      -1.118   1.296   1.935  0.00  0.00     0.027 A 
ATOM      5  C5  DEN d   1      -0.300   1.520   3.020  0.00  0.00    -0.003 A 
ATOM      6  C6  DEN d   1       0.987   1.053   3.074  0.00  0.00     0.001 A 
ATOM      7  C7  DEN d   1       1.508   0.375   2.004  0.00  0.00     0.017 A 
ATOM      8  C8  DEN d   1       0.687   0.138   0.909  0.00  0.00    -0.094 A 
ATOM      9  C9  DEN d   1      -0.607   0.630   0.869  0.00  0.00    -0.072 A 
ENDROOT
TORSDOF 0
ENDMDL
