MODEL 1
REMARK minimizedAffinity -5.01944113
REMARK minimizedRMSD -1
REMARK  0 active torsions:
REMARK  status: ('A' for Active; 'I' for Inactive)
ROOT
ATOM      1  C1  DEN d   1       1.470  -0.604  -0.032  0.00  0.00     0.130 A 
ATOM      2  C2  DEN d   1       0.486  -0.639  -1.111  0.00  0.00    -0.031 A 
ATOM      3  C3  DEN d   1      -0.733   0.047  -0.639  0.00  0.00     0.027 A 
ATOM      4  C4  DEN d   1      -1.189   1.159   1.644  0.00  0.00     0.027 A 
ATOM      5  C5  DEN d   1      -0.659   1.431   2.885  0.00  0.00    -0.003 A 
ATOM      6  C6  DEN d   1       0.595   1.018   3.251  0.00  0.00     0.001 A 
ATOM      7  C7  DEN d   1       1.379   0.349   2.348  0.00  0.00     0.017 A 
ATOM      8  C8  DEN d   1       0.848   0.064   1.097  0.00  0.00    -0.094 A 
ATOM      9  C9  DEN d   1      -0.417   0.500   0.743  0.00  0.00    -0.072 A 
ENDROOT
TORSDOF 0
ENDMDL
