MODEL 1
REMARK minimizedAffinity -0.213424504
REMARK minimizedRMSD -1
REMARK  0 active torsions:
REMARK  status: ('A' for Active; 'I' for Inactive)
ROOT
ATOM      1  C   UNL d   1       0.751   0.411  -0.758  0.00  0.00     0.124 A 
ATOM      2  C1  UNL d   1      -0.576   0.524  -1.149  0.00  0.00     0.062 A 
ATOM      3  C2  UNL d   1      -1.586   0.573  -0.192  0.00  0.00     0.162 A 
ATOM      4  C3  UNL d   1      -1.273   0.510   1.166  0.00  0.00    -0.034 A 
ATOM      5  C4  UNL d   1       0.064   0.397   1.551  0.00  0.00     0.162 A 
ATOM      6  C5  UNL d   1       1.070   0.348   0.591  0.00  0.00     0.062 A 
ATOM      7  F   UNL d   1       2.351   0.239   0.971  0.00  0.00    -0.097 F 
ATOM      8  F1  UNL d   1       0.401   0.334   2.848  0.00  0.00    -0.096 F 
ATOM      9  I   UNL d   1      -2.780   0.584   2.599  0.00  0.00    -0.060 I 
ATOM     10  F2  UNL d   1      -2.860   0.681  -0.599  0.00  0.00    -0.096 F 
ATOM     11  F3  UNL d   1      -0.887   0.584  -2.452  0.00  0.00    -0.097 F 
ATOM     12  F4  UNL d   1       1.721   0.363  -1.681  0.00  0.00    -0.092 F 
ENDROOT
TORSDOF 0
ENDMDL
