MODEL 1
REMARK minimizedAffinity 4.02225256
REMARK minimizedRMSD -1
REMARK  0 active torsions:
REMARK  status: ('A' for Active; 'I' for Inactive)
ROOT
ATOM      1  C   UNL d   1      -1.417   0.325   1.733  0.00  0.00     0.124 A 
ATOM      2  C1  UNL d   1      -2.046   0.085   0.519  0.00  0.00     0.062 A 
ATOM      3  C2  UNL d   1      -1.293  -0.055  -0.644  0.00  0.00     0.162 A 
ATOM      4  C3  UNL d   1       0.097   0.044  -0.598  0.00  0.00    -0.034 A 
ATOM      5  C4  UNL d   1       0.723   0.287   0.626  0.00  0.00     0.162 A 
ATOM      6  C5  UNL d   1      -0.034   0.426   1.785  0.00  0.00     0.062 A 
ATOM      7  F   UNL d   1       0.576   0.658   2.957  0.00  0.00    -0.097 F 
ATOM      8  F1  UNL d   1       2.058   0.388   0.705  0.00  0.00    -0.096 F 
ATOM      9  I   UNL d   1       1.226  -0.164  -2.335  0.00  0.00    -0.060 I 
ATOM     10  F2  UNL d   1      -1.928  -0.286  -1.803  0.00  0.00    -0.096 F 
ATOM     11  F3  UNL d   1      -3.382  -0.011   0.466  0.00  0.00    -0.097 F 
ATOM     12  F4  UNL d   1      -2.143   0.460   2.850  0.00  0.00    -0.092 F 
ENDROOT
TORSDOF 0
ENDMDL
