MODEL 1
REMARK minimizedAffinity -4.90782833
REMARK minimizedRMSD -1
REMARK  0 active torsions:
REMARK  status: ('A' for Active; 'I' for Inactive)
ROOT
ATOM      1  C   UNL d   1      -1.677  -0.114   2.357  0.00  0.00     0.124 A 
ATOM      2  C1  UNL d   1      -0.310  -0.304   2.207  0.00  0.00     0.062 A 
ATOM      3  C2  UNL d   1       0.283  -0.159   0.956  0.00  0.00     0.162 A 
ATOM      4  C3  UNL d   1      -0.490   0.180  -0.155  0.00  0.00    -0.034 A 
ATOM      5  C4  UNL d   1      -1.864   0.369   0.005  0.00  0.00     0.162 A 
ATOM      6  C5  UNL d   1      -2.452   0.222   1.257  0.00  0.00     0.062 A 
ATOM      7  F   UNL d   1      -3.773   0.406   1.401  0.00  0.00    -0.097 F 
ATOM      8  F1  UNL d   1      -2.637   0.695  -1.042  0.00  0.00    -0.096 F 
ATOM      9  I   UNL d   1       0.393   0.398  -2.027  0.00  0.00    -0.060 I 
ATOM     10  F2  UNL d   1       1.606  -0.349   0.839  0.00  0.00    -0.096 F 
ATOM     11  F3  UNL d   1       0.441  -0.630   3.268  0.00  0.00    -0.097 F 
ATOM     12  F4  UNL d   1      -2.245  -0.255   3.562  0.00  0.00    -0.092 F 
ENDROOT
TORSDOF 0
ENDMDL
