MODEL 1
REMARK minimizedAffinity -0.34191525
REMARK minimizedRMSD -1
REMARK  0 active torsions:
REMARK  status: ('A' for Active; 'I' for Inactive)
ROOT
ATOM      1  C   UNL d   1       1.172   0.613   0.550  0.00  0.00     0.124 A 
ATOM      2  C1  UNL d   1       0.576   0.514   1.800  0.00  0.00     0.062 A 
ATOM      3  C2  UNL d   1      -0.809   0.440   1.911  0.00  0.00     0.162 A 
ATOM      4  C3  UNL d   1      -1.609   0.462   0.769  0.00  0.00    -0.034 A 
ATOM      5  C4  UNL d   1      -1.003   0.563  -0.485  0.00  0.00     0.162 A 
ATOM      6  C5  UNL d   1       0.382   0.637  -0.591  0.00  0.00     0.062 A 
ATOM      7  F   UNL d   1       0.955   0.732  -1.799  0.00  0.00    -0.097 F 
ATOM      8  F1  UNL d   1      -1.743   0.587  -1.603  0.00  0.00    -0.096 F 
ATOM      9  I   UNL d   1      -3.681   0.351   0.932  0.00  0.00    -0.060 I 
ATOM     10  F2  UNL d   1      -1.357   0.345   3.132  0.00  0.00    -0.096 F 
ATOM     11  F3  UNL d   1       1.337   0.492   2.904  0.00  0.00    -0.097 F 
ATOM     12  F4  UNL d   1       2.505   0.686   0.446  0.00  0.00    -0.092 F 
ENDROOT
TORSDOF 0
ENDMDL
