MODEL 1
REMARK minimizedAffinity -0.541089118
REMARK minimizedRMSD -1
REMARK  0 active torsions:
REMARK  status: ('A' for Active; 'I' for Inactive)
ROOT
ATOM      1  C   UNL d   1      -1.688   0.668   2.356  0.00  0.00     0.124 A 
ATOM      2  C1  UNL d   1      -2.311   0.836   1.127  0.00  0.00     0.062 A 
ATOM      3  C2  UNL d   1      -1.596   0.645  -0.052  0.00  0.00     0.162 A 
ATOM      4  C3  UNL d   1      -0.250   0.283  -0.007  0.00  0.00    -0.034 A 
ATOM      5  C4  UNL d   1       0.370   0.117   1.233  0.00  0.00     0.162 A 
ATOM      6  C5  UNL d   1      -0.349   0.309   2.408  0.00  0.00     0.062 A 
ATOM      7  F   UNL d   1       0.255   0.147   3.594  0.00  0.00    -0.097 F 
ATOM      8  F1  UNL d   1       1.663  -0.230   1.311  0.00  0.00    -0.096 F 
ATOM      9  I   UNL d   1       0.823  -0.003  -1.768  0.00  0.00    -0.060 I 
ATOM     10  F2  UNL d   1      -2.224   0.814  -1.225  0.00  0.00    -0.096 F 
ATOM     11  F3  UNL d   1      -3.605   1.184   1.075  0.00  0.00    -0.097 F 
ATOM     12  F4  UNL d   1      -2.378   0.853   3.489  0.00  0.00    -0.092 F 
ENDROOT
TORSDOF 0
ENDMDL
