MODEL 1
REMARK minimizedAffinity 1.03741562
REMARK minimizedRMSD -1
REMARK  0 active torsions:
REMARK  status: ('A' for Active; 'I' for Inactive)
ROOT
ATOM      1  C   UNL d   1      -1.076   0.301   2.437  0.00  0.00     0.124 A 
ATOM      2  C1  UNL d   1       0.291   0.122   2.275  0.00  0.00     0.062 A 
ATOM      3  C2  UNL d   1       0.846   0.097   0.999  0.00  0.00     0.162 A 
ATOM      4  C3  UNL d   1       0.035   0.251  -0.125  0.00  0.00    -0.034 A 
ATOM      5  C4  UNL d   1      -1.339   0.430   0.046  0.00  0.00     0.162 A 
ATOM      6  C5  UNL d   1      -1.889   0.455   1.323  0.00  0.00     0.062 A 
ATOM      7  F   UNL d   1      -3.210   0.628   1.478  0.00  0.00    -0.097 F 
ATOM      8  F1  UNL d   1      -2.147   0.582  -1.013  0.00  0.00    -0.096 F 
ATOM      9  I   UNL d   1       0.863   0.214  -2.035  0.00  0.00    -0.060 I 
ATOM     10  F2  UNL d   1       2.170  -0.078   0.872  0.00  0.00    -0.096 F 
ATOM     11  F3  UNL d   1       1.078  -0.027   3.350  0.00  0.00    -0.097 F 
ATOM     12  F4  UNL d   1      -1.608   0.324   3.666  0.00  0.00    -0.092 F 
ENDROOT
TORSDOF 0
ENDMDL
