MODEL 1
REMARK minimizedAffinity -0.444818527
REMARK minimizedRMSD -1
REMARK  0 active torsions:
REMARK  status: ('A' for Active; 'I' for Inactive)
ROOT
ATOM      1  C   UNL d   1      -0.425   0.360   1.704  0.00  0.00     0.124 A 
ATOM      2  C1  UNL d   1      -1.180   0.271   0.543  0.00  0.00     0.062 A 
ATOM      3  C2  UNL d   1      -0.554   0.077  -0.685  0.00  0.00     0.162 A 
ATOM      4  C3  UNL d   1       0.835  -0.030  -0.759  0.00  0.00    -0.034 A 
ATOM      5  C4  UNL d   1       1.587   0.062   0.413  0.00  0.00     0.162 A 
ATOM      6  C5  UNL d   1       0.957   0.256   1.639  0.00  0.00     0.062 A 
ATOM      7  F   UNL d   1       1.688   0.342   2.760  0.00  0.00    -0.097 F 
ATOM      8  F1  UNL d   1       2.925  -0.037   0.379  0.00  0.00    -0.096 F 
ATOM      9  I   UNL d   1       1.774  -0.320  -2.593  0.00  0.00    -0.060 I 
ATOM     10  F2  UNL d   1      -1.308  -0.006  -1.791  0.00  0.00    -0.096 F 
ATOM     11  F3  UNL d   1      -2.515   0.372   0.603  0.00  0.00    -0.097 F 
ATOM     12  F4  UNL d   1      -1.029   0.547   2.884  0.00  0.00    -0.092 F 
ENDROOT
TORSDOF 0
ENDMDL
