MODEL 1
REMARK minimizedAffinity -1.80646062
REMARK minimizedRMSD -1
REMARK  0 active torsions:
REMARK  status: ('A' for Active; 'I' for Inactive)
ROOT
ATOM      1  C   UNL d   1      -1.499   0.878   1.969  0.00  0.00     0.124 A 
ATOM      2  C1  UNL d   1      -2.189   0.970   0.768  0.00  0.00     0.062 A 
ATOM      3  C2  UNL d   1      -1.503   0.895  -0.441  0.00  0.00     0.162 A 
ATOM      4  C3  UNL d   1      -0.119   0.724  -0.455  0.00  0.00    -0.034 A 
ATOM      5  C4  UNL d   1       0.568   0.632   0.757  0.00  0.00     0.162 A 
ATOM      6  C5  UNL d   1      -0.122   0.709   1.962  0.00  0.00     0.062 A 
ATOM      7  F   UNL d   1       0.546   0.619   3.122  0.00  0.00    -0.097 F 
ATOM      8  F1  UNL d   1       1.899   0.468   0.780  0.00  0.00    -0.096 F 
ATOM      9  I   UNL d   1       0.911   0.610  -2.260  0.00  0.00    -0.060 I 
ATOM     10  F2  UNL d   1      -2.195   0.987  -1.586  0.00  0.00    -0.096 F 
ATOM     11  F3  UNL d   1      -3.519   1.135   0.772  0.00  0.00    -0.097 F 
ATOM     12  F4  UNL d   1      -2.161   0.952   3.130  0.00  0.00    -0.092 F 
ENDROOT
TORSDOF 0
ENDMDL
