MODEL 1
REMARK minimizedAffinity -1.54770231
REMARK minimizedRMSD -1
REMARK  0 active torsions:
REMARK  status: ('A' for Active; 'I' for Inactive)
ROOT
ATOM      1  C   UNL d   1      -1.430   0.535   1.672  0.00  0.00     0.124 A 
ATOM      2  C1  UNL d   1      -2.058   0.541   0.434  0.00  0.00     0.062 A 
ATOM      3  C2  UNL d   1      -1.312   0.380  -0.730  0.00  0.00     0.162 A 
ATOM      4  C3  UNL d   1       0.071   0.209  -0.662  0.00  0.00    -0.034 A 
ATOM      5  C4  UNL d   1       0.695   0.204   0.587  0.00  0.00     0.162 A 
ATOM      6  C5  UNL d   1      -0.055   0.366   1.747  0.00  0.00     0.062 A 
ATOM      7  F   UNL d   1       0.554   0.360   2.942  0.00  0.00    -0.097 F 
ATOM      8  F1  UNL d   1       2.023   0.042   0.689  0.00  0.00    -0.096 F 
ATOM      9  I   UNL d   1       1.190  -0.034  -2.400  0.00  0.00    -0.060 I 
ATOM     10  F2  UNL d   1      -1.945   0.390  -1.913  0.00  0.00    -0.096 F 
ATOM     11  F3  UNL d   1      -3.386   0.705   0.358  0.00  0.00    -0.097 F 
ATOM     12  F4  UNL d   1      -2.150   0.692   2.790  0.00  0.00    -0.092 F 
ENDROOT
TORSDOF 0
ENDMDL
