MODEL 1
REMARK minimizedAffinity 1.58635747
REMARK minimizedRMSD -1
REMARK  0 active torsions:
REMARK  status: ('A' for Active; 'I' for Inactive)
ROOT
ATOM      1  C   UNL d   1      -2.092   1.394   3.112  0.00  0.00     0.124 A 
ATOM      2  C1  UNL d   1      -0.726   1.539   2.913  0.00  0.00     0.062 A 
ATOM      3  C2  UNL d   1      -0.135   1.070   1.743  0.00  0.00     0.162 A 
ATOM      4  C3  UNL d   1      -0.911   0.453   0.761  0.00  0.00    -0.034 A 
ATOM      5  C4  UNL d   1      -2.284   0.310   0.969  0.00  0.00     0.162 A 
ATOM      6  C5  UNL d   1      -2.869   0.780   2.140  0.00  0.00     0.062 A 
ATOM      7  F   UNL d   1      -4.189   0.640   2.330  0.00  0.00    -0.097 F 
ATOM      8  F1  UNL d   1      -3.059  -0.278   0.046  0.00  0.00    -0.096 F 
ATOM      9  I   UNL d   1      -0.031  -0.249  -0.989  0.00  0.00    -0.060 I 
ATOM     10  F2  UNL d   1       1.187   1.224   1.578  0.00  0.00    -0.096 F 
ATOM     11  F3  UNL d   1       0.028   2.131   3.851  0.00  0.00    -0.097 F 
ATOM     12  F4  UNL d   1      -2.658   1.845   4.239  0.00  0.00    -0.092 F 
ENDROOT
TORSDOF 0
ENDMDL
