MODEL 1
REMARK minimizedAffinity 4.539958
REMARK minimizedRMSD -1
REMARK  0 active torsions:
REMARK  status: ('A' for Active; 'I' for Inactive)
ROOT
ATOM      1  C   UNL d   1      -1.256   0.982   3.002  0.00  0.00     0.124 A 
ATOM      2  C1  UNL d   1      -2.149   0.451   2.080  0.00  0.00     0.062 A 
ATOM      3  C2  UNL d   1      -1.705   0.065   0.819  0.00  0.00     0.162 A 
ATOM      4  C3  UNL d   1      -0.362   0.207   0.471  0.00  0.00    -0.034 A 
ATOM      5  C4  UNL d   1       0.529   0.743   1.402  0.00  0.00     0.162 A 
ATOM      6  C5  UNL d   1       0.081   1.127   2.662  0.00  0.00     0.062 A 
ATOM      7  F   UNL d   1       0.945   1.640   3.551  0.00  0.00    -0.097 F 
ATOM      8  F1  UNL d   1       1.828   0.894   1.101  0.00  0.00    -0.096 F 
ATOM      9  I   UNL d   1       0.305  -0.369  -1.415  0.00  0.00    -0.060 I 
ATOM     10  F2  UNL d   1      -2.589  -0.445  -0.052  0.00  0.00    -0.096 F 
ATOM     11  F3  UNL d   1      -3.442   0.310   2.406  0.00  0.00    -0.097 F 
ATOM     12  F4  UNL d   1      -1.686   1.353   4.214  0.00  0.00    -0.092 F 
ENDROOT
TORSDOF 0
ENDMDL
