MODEL 1
REMARK minimizedAffinity 0.0904422104
REMARK minimizedRMSD -1
REMARK  0 active torsions:
REMARK  status: ('A' for Active; 'I' for Inactive)
ROOT
ATOM      1  C   UNL d   1      -1.570   0.564   1.906  0.00  0.00     0.124 A 
ATOM      2  C1  UNL d   1      -2.166   0.587   0.652  0.00  0.00     0.062 A 
ATOM      3  C2  UNL d   1      -1.395   0.408  -0.492  0.00  0.00     0.162 A 
ATOM      4  C3  UNL d   1      -0.019   0.203  -0.389  0.00  0.00    -0.034 A 
ATOM      5  C4  UNL d   1       0.573   0.181   0.875  0.00  0.00     0.162 A 
ATOM      6  C5  UNL d   1      -0.202   0.361   2.016  0.00  0.00     0.062 A 
ATOM      7  F   UNL d   1       0.375   0.338   3.226  0.00  0.00    -0.097 F 
ATOM      8  F1  UNL d   1       1.893  -0.014   1.011  0.00  0.00    -0.096 F 
ATOM      9  I   UNL d   1       1.138  -0.065  -2.098  0.00  0.00    -0.060 I 
ATOM     10  F2  UNL d   1      -1.997   0.436  -1.691  0.00  0.00    -0.096 F 
ATOM     11  F3  UNL d   1      -3.488   0.784   0.543  0.00  0.00    -0.097 F 
ATOM     12  F4  UNL d   1      -2.315   0.737   3.006  0.00  0.00    -0.092 F 
ENDROOT
TORSDOF 0
ENDMDL
