MODEL 1
REMARK minimizedAffinity -3.05412769
REMARK minimizedRMSD -1
REMARK  0 active torsions:
REMARK  status: ('A' for Active; 'I' for Inactive)
ROOT
ATOM      1  C   UNL d   1      -0.222   0.802  -0.229  0.00  0.00     0.172 C 
ATOM      2  N   UNL d   1       0.310  -0.515   0.026  0.00  0.00    -0.070 N 
ATOM      3  C1  UNL d   1       1.519  -0.789   0.609  0.00  0.00    -0.004 A 
ATOM      4  C2  UNL d   1       1.656  -2.158   0.674  0.00  0.00    -0.047 A 
ATOM      5  C3  UNL d   1       0.490  -2.728   0.109  0.00  0.00    -0.047 A 
ATOM      6  C4  UNL d   1      -0.326  -1.688  -0.283  0.00  0.00    -0.004 A 
ENDROOT
TORSDOF 0
ENDMDL
