MODEL 1
REMARK minimizedAffinity -3.37115884
REMARK minimizedRMSD -1
REMARK  0 active torsions:
REMARK  status: ('A' for Active; 'I' for Inactive)
ROOT
ATOM      1  C   UNL d   1      -0.480   0.898  -0.423  0.00  0.00     0.172 C 
ATOM      2  N   UNL d   1       0.334  -0.215   0.004  0.00  0.00    -0.070 N 
ATOM      3  C1  UNL d   1       0.127  -0.972   1.126  0.00  0.00    -0.004 A 
ATOM      4  C2  UNL d   1       1.116  -1.931   1.177  0.00  0.00    -0.047 A 
ATOM      5  C3  UNL d   1       1.947  -1.742   0.048  0.00  0.00    -0.047 A 
ATOM      6  C4  UNL d   1       1.441  -0.674  -0.661  0.00  0.00    -0.004 A 
ENDROOT
TORSDOF 0
ENDMDL
