MODEL 1
REMARK minimizedAffinity -3.15301251
REMARK minimizedRMSD -1
REMARK  0 active torsions:
REMARK  status: ('A' for Active; 'I' for Inactive)
ROOT
ATOM      1  C   UNL d   1      -0.790   0.721  -0.745  0.00  0.00     0.172 C 
ATOM      2  N   UNL d   1       0.044  -0.314  -0.182  0.00  0.00    -0.070 N 
ATOM      3  C1  UNL d   1       1.387  -0.213   0.061  0.00  0.00    -0.004 A 
ATOM      4  C2  UNL d   1       1.810  -1.409   0.599  0.00  0.00    -0.047 A 
ATOM      5  C3  UNL d   1       0.682  -2.260   0.680  0.00  0.00    -0.047 A 
ATOM      6  C4  UNL d   1      -0.398  -1.557   0.190  0.00  0.00    -0.004 A 
ENDROOT
TORSDOF 0
ENDMDL
