MODEL 1
REMARK minimizedAffinity -3.86446285
REMARK minimizedRMSD -1
REMARK  0 active torsions:
REMARK  status: ('A' for Active; 'I' for Inactive)
ROOT
ATOM      1  C   UNL d   1      -0.729   0.452  -0.078  0.00  0.00     0.172 C 
ATOM      2  N   UNL d   1       0.037  -0.739   0.209  0.00  0.00    -0.070 N 
ATOM      3  C1  UNL d   1      -0.461  -1.900   0.736  0.00  0.00    -0.004 A 
ATOM      4  C2  UNL d   1       0.583  -2.791   0.856  0.00  0.00    -0.047 A 
ATOM      5  C3  UNL d   1       1.750  -2.142   0.386  0.00  0.00    -0.047 A 
ATOM      6  C4  UNL d   1       1.383  -0.873  -0.009  0.00  0.00    -0.004 A 
ENDROOT
TORSDOF 0
ENDMDL
