MODEL 1
REMARK minimizedAffinity -4.09100199
REMARK minimizedRMSD -1
REMARK  0 active torsions:
REMARK  status: ('A' for Active; 'I' for Inactive)
ROOT
ATOM      1  C   UNL d   1      -0.506   0.789  -0.020  0.00  0.00     0.172 C 
ATOM      2  N   UNL d   1      -0.096  -0.423   0.648  0.00  0.00    -0.070 N 
ATOM      3  C1  UNL d   1      -0.781  -1.052   1.654  0.00  0.00    -0.004 A 
ATOM      4  C2  UNL d   1      -0.062  -2.170   2.020  0.00  0.00    -0.047 A 
ATOM      5  C3  UNL d   1       1.096  -2.213   1.207  0.00  0.00    -0.047 A 
ATOM      6  C4  UNL d   1       1.049  -1.121   0.367  0.00  0.00    -0.004 A 
ENDROOT
TORSDOF 0
ENDMDL
