MODEL 1
REMARK minimizedAffinity -1.76623416
REMARK minimizedRMSD -1
REMARK  0 active torsions:
REMARK  status: ('A' for Active; 'I' for Inactive)
ROOT
ATOM      1  C   UNL d   1       1.003  -6.000  -6.000  0.00  0.00     0.172 C 
ATOM      2  N   UNL d   1      -0.185  -5.563  -5.305  0.00  0.00    -0.070 N 
ATOM      3  C1  UNL d   1      -0.383  -5.616  -3.951  0.00  0.00    -0.004 A 
ATOM      4  C2  UNL d   1      -1.637  -5.107  -3.688  0.00  0.00    -0.047 A 
ATOM      5  C3  UNL d   1      -2.212  -4.736  -4.927  0.00  0.00    -0.047 A 
ATOM      6  C4  UNL d   1      -1.292  -5.029  -5.911  0.00  0.00    -0.004 A 
ENDROOT
TORSDOF 0
ENDMDL
