MODEL 1
REMARK minimizedAffinity -3.92346406
REMARK minimizedRMSD -1
REMARK  0 active torsions:
REMARK  status: ('A' for Active; 'I' for Inactive)
ROOT
ATOM      1  C   UNL d   1      -0.098   0.357  -0.059  0.00  0.00     0.172 C 
ATOM      2  N   UNL d   1       0.293  -0.756   0.773  0.00  0.00    -0.070 N 
ATOM      3  C1  UNL d   1      -0.412  -1.239   1.843  0.00  0.00    -0.004 A 
ATOM      4  C2  UNL d   1       0.291  -2.302   2.368  0.00  0.00    -0.047 A 
ATOM      5  C3  UNL d   1       1.460  -2.462   1.586  0.00  0.00    -0.047 A 
ATOM      6  C4  UNL d   1       1.436  -1.492   0.606  0.00  0.00    -0.004 A 
ENDROOT
TORSDOF 0
ENDMDL
