MODEL 1
REMARK minimizedAffinity -3.69034719
REMARK minimizedRMSD -1
REMARK  0 active torsions:
REMARK  status: ('A' for Active; 'I' for Inactive)
ROOT
ATOM      1  C   UNL d   1      -0.874   0.905  -0.361  0.00  0.00     0.172 C 
ATOM      2  N   UNL d   1      -0.043  -0.242  -0.079  0.00  0.00    -0.070 N 
ATOM      3  C1  UNL d   1      -0.395  -1.311   0.702  0.00  0.00    -0.004 A 
ATOM      4  C2  UNL d   1       0.668  -2.188   0.720  0.00  0.00    -0.047 A 
ATOM      5  C3  UNL d   1       1.694  -1.627  -0.077  0.00  0.00    -0.047 A 
ATOM      6  C4  UNL d   1       1.227  -0.423  -0.559  0.00  0.00    -0.004 A 
ENDROOT
TORSDOF 0
ENDMDL
