MODEL 1
REMARK minimizedAffinity -3.94343281
REMARK minimizedRMSD -1
REMARK  0 active torsions:
REMARK  status: ('A' for Active; 'I' for Inactive)
ROOT
ATOM      1  C   UNL d   1      -0.402   0.824  -0.276  0.00  0.00     0.172 C 
ATOM      2  N   UNL d   1       0.249  -0.414   0.083  0.00  0.00    -0.070 N 
ATOM      3  C1  UNL d   1       1.525  -0.774  -0.260  0.00  0.00    -0.004 A 
ATOM      4  C2  UNL d   1       1.769  -2.022   0.272  0.00  0.00    -0.047 A 
ATOM      5  C3  UNL d   1       0.599  -2.426   0.958  0.00  0.00    -0.047 A 
ATOM      6  C4  UNL d   1      -0.326  -1.412   0.824  0.00  0.00    -0.004 A 
ENDROOT
TORSDOF 0
ENDMDL
