MODEL 1
REMARK minimizedAffinity -3.356179
REMARK minimizedRMSD -1
REMARK  0 active torsions:
REMARK  status: ('A' for Active; 'I' for Inactive)
ROOT
ATOM      1  C   UNL d   1       1.458  -2.777   0.867  0.00  0.00     0.172 C 
ATOM      2  N   UNL d   1       0.858  -1.467   0.779  0.00  0.00    -0.070 N 
ATOM      3  C1  UNL d   1      -0.326  -1.091   1.354  0.00  0.00    -0.004 A 
ATOM      4  C2  UNL d   1      -0.548   0.232   1.038  0.00  0.00    -0.047 A 
ATOM      5  C3  UNL d   1       0.541   0.666   0.245  0.00  0.00    -0.047 A 
ATOM      6  C4  UNL d   1       1.396  -0.406   0.100  0.00  0.00    -0.004 A 
ENDROOT
TORSDOF 0
ENDMDL
