MODEL 1
REMARK minimizedAffinity -2.90152907
REMARK minimizedRMSD -1
REMARK  0 active torsions:
REMARK  status: ('A' for Active; 'I' for Inactive)
ROOT
ATOM      1  C   UNL d   1      -0.742   0.894   0.331  0.00  0.00     0.172 C 
ATOM      2  N   UNL d   1      -0.062  -0.254   0.883  0.00  0.00    -0.070 N 
ATOM      3  C1  UNL d   1      -0.459  -0.964   1.985  0.00  0.00    -0.004 A 
ATOM      4  C2  UNL d   1       0.451  -1.979   2.184  0.00  0.00    -0.047 A 
ATOM      5  C3  UNL d   1       1.431  -1.875   1.168  0.00  0.00    -0.047 A 
ATOM      6  C4  UNL d   1       1.088  -0.799   0.376  0.00  0.00    -0.004 A 
ENDROOT
TORSDOF 0
ENDMDL
