MODEL 1
REMARK minimizedAffinity -2.88240862
REMARK minimizedRMSD -1
REMARK  0 active torsions:
REMARK  status: ('A' for Active; 'I' for Inactive)
ROOT
ATOM      1  C   UNL d   1       1.894  -2.495   1.203  0.00  0.00     0.172 C 
ATOM      2  N   UNL d   1       1.223  -1.356   0.620  0.00  0.00    -0.070 N 
ATOM      3  C1  UNL d   1      -0.036  -0.924   0.938  0.00  0.00    -0.004 A 
ATOM      4  C2  UNL d   1      -0.309   0.185   0.166  0.00  0.00    -0.047 A 
ATOM      5  C3  UNL d   1       0.826   0.427  -0.644  0.00  0.00    -0.047 A 
ATOM      6  C4  UNL d   1       1.760  -0.542  -0.342  0.00  0.00    -0.004 A 
ENDROOT
TORSDOF 0
ENDMDL
