MODEL 1
REMARK minimizedAffinity -1.23504758
REMARK minimizedRMSD -1
REMARK  0 active torsions:
REMARK  status: ('A' for Active; 'I' for Inactive)
ROOT
ATOM      1  C   UNL d   1      -0.821   1.146   0.113  0.00  0.00     0.172 C 
ATOM      2  N   UNL d   1      -1.536   1.389  -1.119  0.00  0.00    -0.070 N 
ATOM      3  C1  UNL d   1      -1.184   2.299  -2.080  0.00  0.00    -0.004 A 
ATOM      4  C2  UNL d   1      -2.116   2.224  -3.092  0.00  0.00    -0.047 A 
ATOM      5  C3  UNL d   1      -3.061   1.236  -2.726  0.00  0.00    -0.047 A 
ATOM      6  C4  UNL d   1      -2.678   0.735  -1.500  0.00  0.00    -0.004 A 
ENDROOT
TORSDOF 0
ENDMDL
