MODEL 1
REMARK minimizedAffinity -2.46770144
REMARK minimizedRMSD -1
REMARK  0 active torsions:
REMARK  status: ('A' for Active; 'I' for Inactive)
ROOT
ATOM      1  C   UNL d   1       1.351  -2.250   1.094  0.00  0.00     0.172 C 
ATOM      2  N   UNL d   1       0.651  -1.072   0.639  0.00  0.00    -0.070 N 
ATOM      3  C1  UNL d   1      -0.625  -0.717   0.987  0.00  0.00    -0.004 A 
ATOM      4  C2  UNL d   1      -0.925   0.465   0.346  0.00  0.00    -0.047 A 
ATOM      5  C3  UNL d   1       0.210   0.834  -0.414  0.00  0.00    -0.047 A 
ATOM      6  C4  UNL d   1       1.171  -0.135  -0.215  0.00  0.00    -0.004 A 
ENDROOT
TORSDOF 0
ENDMDL
