MODEL 1
REMARK minimizedAffinity -3.9748323
REMARK minimizedRMSD -1
REMARK  0 active torsions:
REMARK  status: ('A' for Active; 'I' for Inactive)
ROOT
ATOM      1  C   UNL d   1      -0.703  -1.734   3.442  0.00  0.00     0.172 C 
ATOM      2  N   UNL d   1       0.064  -1.820   2.221  0.00  0.00    -0.070 N 
ATOM      3  C1  UNL d   1      -0.144  -1.072   1.093  0.00  0.00    -0.004 A 
ATOM      4  C2  UNL d   1       0.793  -1.452   0.157  0.00  0.00    -0.047 A 
ATOM      5  C3  UNL d   1       1.591  -2.464   0.741  0.00  0.00    -0.047 A 
ATOM      6  C4  UNL d   1       1.117  -2.673   2.020  0.00  0.00    -0.004 A 
ENDROOT
TORSDOF 0
ENDMDL
