MODEL 1
REMARK minimizedAffinity -4.01421547
REMARK minimizedRMSD -1
REMARK  0 active torsions:
REMARK  status: ('A' for Active; 'I' for Inactive)
ROOT
ATOM      1  C   UNL d   1      -0.944  -1.631   2.999  0.00  0.00     0.172 C 
ATOM      2  N   UNL d   1      -0.074  -1.729   1.850  0.00  0.00    -0.070 N 
ATOM      3  C1  UNL d   1      -0.209  -1.023   0.684  0.00  0.00    -0.004 A 
ATOM      4  C2  UNL d   1       0.814  -1.400  -0.158  0.00  0.00    -0.047 A 
ATOM      5  C3  UNL d   1       1.590  -2.367   0.524  0.00  0.00    -0.047 A 
ATOM      6  C4  UNL d   1       1.017  -2.552   1.764  0.00  0.00    -0.004 A 
ENDROOT
TORSDOF 0
ENDMDL
