MODEL 1
REMARK minimizedAffinity -2.71244931
REMARK minimizedRMSD -1
REMARK  0 active torsions:
REMARK  status: ('A' for Active; 'I' for Inactive)
ROOT
ATOM      1  C   UNL d   1      -0.733   1.113   0.161  0.00  0.00     0.172 C 
ATOM      2  N   UNL d   1       0.098  -0.044   0.400  0.00  0.00    -0.070 N 
ATOM      3  C1  UNL d   1      -0.325  -1.235   0.927  0.00  0.00    -0.004 A 
ATOM      4  C2  UNL d   1       0.765  -2.077   0.994  0.00  0.00    -0.047 A 
ATOM      5  C3  UNL d   1       1.881  -1.366   0.492  0.00  0.00    -0.047 A 
ATOM      6  C4  UNL d   1       1.440  -0.111   0.131  0.00  0.00    -0.004 A 
ENDROOT
TORSDOF 0
ENDMDL
