MODEL 1
REMARK minimizedAffinity -3.6958375
REMARK minimizedRMSD -1
REMARK  0 active torsions:
REMARK  status: ('A' for Active; 'I' for Inactive)
ROOT
ATOM      1  C   UNL d   1      -0.550   0.554  -0.217  0.00  0.00     0.172 C 
ATOM      2  N   UNL d   1       0.240  -0.594   0.160  0.00  0.00    -0.070 N 
ATOM      3  C1  UNL d   1      -0.254  -1.796   0.592  0.00  0.00    -0.004 A 
ATOM      4  C2  UNL d   1       0.816  -2.625   0.848  0.00  0.00    -0.047 A 
ATOM      5  C3  UNL d   1       1.995  -1.896   0.561  0.00  0.00    -0.047 A 
ATOM      6  C4  UNL d   1       1.609  -0.642   0.137  0.00  0.00    -0.004 A 
ENDROOT
TORSDOF 0
ENDMDL
