MODEL 1
REMARK minimizedAffinity -1.5139091
REMARK minimizedRMSD -1
REMARK  0 active torsions:
REMARK  status: ('A' for Active; 'I' for Inactive)
ROOT
ATOM      1  C   UNL d   1       0.767   1.892  -2.203  0.00  0.00     0.077 C 
ATOM      2  C1  UNL d   1       0.967   2.968  -3.228  0.00  0.00    -0.074 A 
ATOM      3  C2  UNL d   1       2.246   3.287  -3.696  0.00  0.00    -0.005 A 
ATOM      4  C3  UNL d   1       2.416   4.283  -4.657  0.00  0.00     0.006 A 
ATOM      5  C4  UNL d   1       1.310   4.970  -5.159  0.00  0.00    -0.005 A 
ATOM      6  C5  UNL d   1       0.023   4.665  -4.704  0.00  0.00    -0.074 A 
ATOM      7  C6  UNL d   1      -1.177   5.388  -5.240  0.00  0.00     0.077 C 
ATOM      8  C7  UNL d   1      -0.139   3.658  -3.743  0.00  0.00    -0.001 A 
ENDROOT
TORSDOF 0
ENDMDL
