MODEL 1
REMARK minimizedAffinity 10.6378298
REMARK minimizedRMSD -1
REMARK  0 active torsions:
REMARK  status: ('A' for Active; 'I' for Inactive)
ROOT
ATOM      1  C   UNL d   1      -1.585   4.514  -5.999  0.00  0.00     0.077 C 
ATOM      2  C1  UNL d   1      -0.255   4.635  -5.317  0.00  0.00    -0.074 A 
ATOM      3  C2  UNL d   1       0.689   5.574  -5.745  0.00  0.00    -0.005 A 
ATOM      4  C3  UNL d   1       1.919   5.681  -5.095  0.00  0.00     0.006 A 
ATOM      5  C4  UNL d   1       2.216   4.851  -4.013  0.00  0.00    -0.005 A 
ATOM      6  C5  UNL d   1       1.284   3.907  -3.571  0.00  0.00    -0.074 A 
ATOM      7  C6  UNL d   1       1.584   3.014  -2.404  0.00  0.00     0.077 C 
ATOM      8  C7  UNL d   1       0.048   3.810  -4.225  0.00  0.00    -0.001 A 
ENDROOT
TORSDOF 0
ENDMDL
