MODEL 1
REMARK minimizedAffinity 0.873179853
REMARK minimizedRMSD -1
REMARK  0 active torsions:
REMARK  status: ('A' for Active; 'I' for Inactive)
ROOT
ATOM      1  C   UNL d   1       1.859   3.532  -2.559  0.00  0.00     0.077 C 
ATOM      2  C1  UNL d   1       1.303   4.252  -3.751  0.00  0.00    -0.074 A 
ATOM      3  C2  UNL d   1       2.082   4.460  -4.893  0.00  0.00    -0.005 A 
ATOM      4  C3  UNL d   1       1.547   5.123  -5.998  0.00  0.00     0.006 A 
ATOM      5  C4  UNL d   1       0.230   5.584  -5.971  0.00  0.00    -0.005 A 
ATOM      6  C5  UNL d   1      -0.564   5.385  -4.837  0.00  0.00    -0.074 A 
ATOM      7  C6  UNL d   1      -1.984   5.866  -4.796  0.00  0.00     0.077 C 
ATOM      8  C7  UNL d   1      -0.022   4.712  -3.734  0.00  0.00    -0.001 A 
ENDROOT
TORSDOF 0
ENDMDL
