MODEL 1
REMARK minimizedAffinity 9.41759682
REMARK minimizedRMSD -1
REMARK  0 active torsions:
REMARK  status: ('A' for Active; 'I' for Inactive)
ROOT
ATOM      1  C   UNL d   1       3.695  -0.222   1.093  0.00  0.00     0.077 C 
ATOM      2  C1  UNL d   1       2.867   0.740   0.295  0.00  0.00    -0.074 A 
ATOM      3  C2  UNL d   1       2.923   0.749  -1.102  0.00  0.00    -0.005 A 
ATOM      4  C3  UNL d   1       2.139   1.644  -1.831  0.00  0.00     0.006 A 
ATOM      5  C4  UNL d   1       1.294   2.537  -1.172  0.00  0.00    -0.005 A 
ATOM      6  C5  UNL d   1       1.225   2.542   0.225  0.00  0.00    -0.074 A 
ATOM      7  C6  UNL d   1       0.314   3.488   0.949  0.00  0.00     0.077 C 
ATOM      8  C7  UNL d   1       2.009   1.635   0.950  0.00  0.00    -0.001 A 
ENDROOT
TORSDOF 0
ENDMDL
