MODEL 1
REMARK minimizedAffinity 13.8856974
REMARK minimizedRMSD -1
REMARK  0 active torsions:
REMARK  status: ('A' for Active; 'I' for Inactive)
ROOT
ATOM      1  C   UNL d   1      -6.000  -2.084  -5.999  0.00  0.00     0.077 C 
ATOM      2  C1  UNL d   1      -5.987  -1.035  -4.927  0.00  0.00    -0.074 A 
ATOM      3  C2  UNL d   1      -6.000   0.326  -5.252  0.00  0.00    -0.005 A 
ATOM      4  C3  UNL d   1      -5.998   1.290  -4.245  0.00  0.00     0.006 A 
ATOM      5  C4  UNL d   1      -5.983   0.905  -2.904  0.00  0.00    -0.005 A 
ATOM      6  C5  UNL d   1      -5.971  -0.451  -2.559  0.00  0.00    -0.074 A 
ATOM      7  C6  UNL d   1      -5.965  -0.882  -1.122  0.00  0.00     0.077 C 
ATOM      8  C7  UNL d   1      -5.980  -1.414  -3.577  0.00  0.00    -0.001 A 
ENDROOT
TORSDOF 0
ENDMDL
