MODEL 1
REMARK minimizedAffinity 9.18952179
REMARK minimizedRMSD -1
REMARK  0 active torsions:
REMARK  status: ('A' for Active; 'I' for Inactive)
ROOT
ATOM      1  C   UNL d   1       5.998   3.369  -2.626  0.00  0.00     0.077 C 
ATOM      2  C1  UNL d   1       4.573   2.917  -2.737  0.00  0.00    -0.074 A 
ATOM      3  C2  UNL d   1       3.988   2.685  -3.986  0.00  0.00    -0.005 A 
ATOM      4  C3  UNL d   1       2.664   2.255  -4.074  0.00  0.00     0.006 A 
ATOM      5  C4  UNL d   1       1.913   2.053  -2.915  0.00  0.00    -0.005 A 
ATOM      6  C5  UNL d   1       2.481   2.278  -1.657  0.00  0.00    -0.074 A 
ATOM      7  C6  UNL d   1       1.691   2.057  -0.402  0.00  0.00     0.077 C 
ATOM      8  C7  UNL d   1       3.814   2.704  -1.578  0.00  0.00    -0.001 A 
ENDROOT
TORSDOF 0
ENDMDL
