MODEL 1
REMARK minimizedAffinity 2.72526979
REMARK minimizedRMSD -1
REMARK  0 active torsions:
REMARK  status: ('A' for Active; 'I' for Inactive)
ROOT
ATOM      1  C   UNL d   1      -5.907   0.571  -1.616  0.00  0.00     0.077 C 
ATOM      2  C1  UNL d   1      -5.946   0.578  -3.115  0.00  0.00    -0.074 A 
ATOM      3  C2  UNL d   1      -5.970   1.782  -3.828  0.00  0.00    -0.005 A 
ATOM      4  C3  UNL d   1      -5.997   1.773  -5.222  0.00  0.00     0.006 A 
ATOM      5  C4  UNL d   1      -6.000   0.563  -5.917  0.00  0.00    -0.005 A 
ATOM      6  C5  UNL d   1      -5.975  -0.650  -5.222  0.00  0.00    -0.074 A 
ATOM      7  C6  UNL d   1      -5.968  -1.960  -5.953  0.00  0.00     0.077 C 
ATOM      8  C7  UNL d   1      -5.941  -0.633  -3.821  0.00  0.00    -0.001 A 
ENDROOT
TORSDOF 0
ENDMDL
