MODEL 1
REMARK minimizedAffinity 0.851302207
REMARK minimizedRMSD -1
REMARK  0 active torsions:
REMARK  status: ('A' for Active; 'I' for Inactive)
ROOT
ATOM      1  C   UNL d   1       0.687  -2.628   2.583  0.00  0.00     0.077 C 
ATOM      2  C1  UNL d   1      -0.562  -1.805   2.690  0.00  0.00    -0.074 A 
ATOM      3  C2  UNL d   1      -1.446  -1.696   1.611  0.00  0.00    -0.005 A 
ATOM      4  C3  UNL d   1      -2.608  -0.935   1.728  0.00  0.00     0.006 A 
ATOM      5  C4  UNL d   1      -2.899  -0.275   2.923  0.00  0.00    -0.005 A 
ATOM      6  C5  UNL d   1      -2.027  -0.372   4.012  0.00  0.00    -0.074 A 
ATOM      7  C6  UNL d   1      -2.330   0.323   5.307  0.00  0.00     0.077 C 
ATOM      8  C7  UNL d   1      -0.865  -1.145   3.889  0.00  0.00    -0.001 A 
ENDROOT
TORSDOF 0
ENDMDL
