MODEL 1
REMARK minimizedAffinity -0.21152477
REMARK minimizedRMSD -1
REMARK  0 active torsions:
REMARK  status: ('A' for Active; 'I' for Inactive)
ROOT
ATOM      1  C   UNL d   1      -5.113  -1.538   1.927  0.00  0.00     0.077 C 
ATOM      2  C1  UNL d   1      -3.818  -1.155   2.578  0.00  0.00    -0.074 A 
ATOM      3  C2  UNL d   1      -2.622  -1.153   1.853  0.00  0.00    -0.005 A 
ATOM      4  C3  UNL d   1      -1.426  -0.784   2.469  0.00  0.00     0.006 A 
ATOM      5  C4  UNL d   1      -1.414  -0.414   3.815  0.00  0.00    -0.005 A 
ATOM      6  C5  UNL d   1      -2.600  -0.409   4.556  0.00  0.00    -0.074 A 
ATOM      7  C6  UNL d   1      -2.606  -0.005   6.000  0.00  0.00     0.077 C 
ATOM      8  C7  UNL d   1      -3.799  -0.774   3.927  0.00  0.00    -0.001 A 
ENDROOT
TORSDOF 0
ENDMDL
