MODEL 1
REMARK minimizedAffinity 5.54198599
REMARK minimizedRMSD -1
REMARK  0 active torsions:
REMARK  status: ('A' for Active; 'I' for Inactive)
ROOT
ATOM      1  C   UNL d   1      -5.995  -0.904  -5.096  0.00  0.00     0.077 C 
ATOM      2  C1  UNL d   1      -5.981  -0.099  -3.831  0.00  0.00    -0.074 A 
ATOM      3  C2  UNL d   1      -6.000   1.299  -3.868  0.00  0.00    -0.005 A 
ATOM      4  C3  UNL d   1      -5.996   2.033  -2.682  0.00  0.00     0.006 A 
ATOM      5  C4  UNL d   1      -5.974   1.379  -1.450  0.00  0.00    -0.005 A 
ATOM      6  C5  UNL d   1      -5.956  -0.018  -1.393  0.00  0.00    -0.074 A 
ATOM      7  C6  UNL d   1      -5.941  -0.737  -0.077  0.00  0.00     0.077 C 
ATOM      8  C7  UNL d   1      -5.967  -0.750  -2.589  0.00  0.00    -0.001 A 
ENDROOT
TORSDOF 0
ENDMDL
