MODEL 1
REMARK minimizedAffinity 0.937853396
REMARK minimizedRMSD -1
REMARK  0 active torsions:
REMARK  status: ('A' for Active; 'I' for Inactive)
ROOT
ATOM      1  C   UNL d   1      -5.884  -2.122   3.358  0.00  0.00     0.077 C 
ATOM      2  C1  UNL d   1      -4.457  -1.809   3.018  0.00  0.00    -0.074 A 
ATOM      3  C2  UNL d   1      -3.871  -2.305   1.849  0.00  0.00    -0.005 A 
ATOM      4  C3  UNL d   1      -2.546  -1.998   1.542  0.00  0.00     0.006 A 
ATOM      5  C4  UNL d   1      -1.794  -1.194   2.399  0.00  0.00    -0.005 A 
ATOM      6  C5  UNL d   1      -2.363  -0.689   3.572  0.00  0.00    -0.074 A 
ATOM      7  C6  UNL d   1      -1.571   0.185   4.500  0.00  0.00     0.077 C 
ATOM      8  C7  UNL d   1      -3.697  -0.996   3.871  0.00  0.00    -0.001 A 
ENDROOT
TORSDOF 0
ENDMDL
