MODEL 1
REMARK minimizedAffinity 9.21942902
REMARK minimizedRMSD -1
REMARK  0 active torsions:
REMARK  status: ('A' for Active; 'I' for Inactive)
ROOT
ATOM      1  C   UNL d   1      -5.999  -0.680  -0.154  0.00  0.00     0.077 C 
ATOM      2  C1  UNL d   1      -6.000   0.094  -1.438  0.00  0.00    -0.074 A 
ATOM      3  C2  UNL d   1      -6.000   1.493  -1.434  0.00  0.00    -0.005 A 
ATOM      4  C3  UNL d   1      -5.991   2.199  -2.637  0.00  0.00     0.006 A 
ATOM      5  C4  UNL d   1      -5.982   1.516  -3.854  0.00  0.00    -0.005 A 
ATOM      6  C5  UNL d   1      -5.981   0.118  -3.877  0.00  0.00    -0.074 A 
ATOM      7  C6  UNL d   1      -5.961  -0.632  -5.176  0.00  0.00     0.077 C 
ATOM      8  C7  UNL d   1      -5.983  -0.585  -2.665  0.00  0.00    -0.001 A 
ENDROOT
TORSDOF 0
ENDMDL
