MODEL 1
REMARK minimizedAffinity 3.30328774
REMARK minimizedRMSD -1
REMARK  0 active torsions:
REMARK  status: ('A' for Active; 'I' for Inactive)
ROOT
ATOM      1  C   UNL d   1      -5.912   2.567  -1.761  0.00  0.00     0.077 C 
ATOM      2  C1  UNL d   1      -5.902   1.231  -2.442  0.00  0.00    -0.074 A 
ATOM      3  C2  UNL d   1      -6.000   0.047  -1.704  0.00  0.00    -0.005 A 
ATOM      4  C3  UNL d   1      -5.999  -1.188  -2.352  0.00  0.00     0.006 A 
ATOM      5  C4  UNL d   1      -5.900  -1.252  -3.743  0.00  0.00    -0.005 A 
ATOM      6  C5  UNL d   1      -5.803  -0.078  -4.498  0.00  0.00    -0.074 A 
ATOM      7  C6  UNL d   1      -5.706  -0.128  -5.993  0.00  0.00     0.077 C 
ATOM      8  C7  UNL d   1      -5.811   1.159  -3.839  0.00  0.00    -0.001 A 
ENDROOT
TORSDOF 0
ENDMDL
