MODEL 1
REMARK minimizedAffinity 0.959370792
REMARK minimizedRMSD -1
REMARK  0 active torsions:
REMARK  status: ('A' for Active; 'I' for Inactive)
ROOT
ATOM      1  C   UNL d   1      -5.998   0.857   0.705  0.00  0.00     0.077 C 
ATOM      2  C1  UNL d   1      -5.997   1.296  -0.729  0.00  0.00    -0.074 A 
ATOM      3  C2  UNL d   1      -5.975   2.654  -1.065  0.00  0.00    -0.005 A 
ATOM      4  C3  UNL d   1      -5.965   3.047  -2.403  0.00  0.00     0.006 A 
ATOM      5  C4  UNL d   1      -5.976   2.089  -3.417  0.00  0.00    -0.005 A 
ATOM      6  C5  UNL d   1      -5.996   0.727  -3.101  0.00  0.00    -0.074 A 
ATOM      7  C6  UNL d   1      -5.998  -0.316  -4.179  0.00  0.00     0.077 C 
ATOM      8  C7  UNL d   1      -5.999   0.339  -1.754  0.00  0.00    -0.001 A 
ENDROOT
TORSDOF 0
ENDMDL
