MODEL 1
REMARK minimizedAffinity 4.55762911
REMARK minimizedRMSD -1
REMARK  0 active torsions:
REMARK  status: ('A' for Active; 'I' for Inactive)
ROOT
ATOM      1  C   UNL d   1      -5.997   1.440  -3.847  0.00  0.00     0.077 C 
ATOM      2  C1  UNL d   1      -5.988   2.055  -2.479  0.00  0.00    -0.074 A 
ATOM      3  C2  UNL d   1      -5.997   3.444  -2.315  0.00  0.00    -0.005 A 
ATOM      4  C3  UNL d   1      -5.998   4.001  -1.036  0.00  0.00     0.006 A 
ATOM      5  C4  UNL d   1      -5.990   3.176   0.090  0.00  0.00    -0.005 A 
ATOM      6  C5  UNL d   1      -5.982   1.785  -0.055  0.00  0.00    -0.074 A 
ATOM      7  C6  UNL d   1      -5.984   0.885   1.144  0.00  0.00     0.077 C 
ATOM      8  C7  UNL d   1      -5.988   1.233  -1.343  0.00  0.00    -0.001 A 
ENDROOT
TORSDOF 0
ENDMDL
