MODEL 1
REMARK minimizedAffinity 2.76517034
REMARK minimizedRMSD -1
REMARK  0 active torsions:
REMARK  status: ('A' for Active; 'I' for Inactive)
ROOT
ATOM      1  C   UNL d   1      -1.527  -0.267   2.991  0.00  0.00     0.077 C 
ATOM      2  C1  UNL d   1      -2.684  -1.128   2.579  0.00  0.00    -0.074 A 
ATOM      3  C2  UNL d   1      -2.698  -1.765   1.334  0.00  0.00    -0.005 A 
ATOM      4  C3  UNL d   1      -3.777  -2.570   0.969  0.00  0.00     0.006 A 
ATOM      5  C4  UNL d   1      -4.850  -2.746   1.843  0.00  0.00    -0.005 A 
ATOM      6  C5  UNL d   1      -4.853  -2.117   3.092  0.00  0.00    -0.074 A 
ATOM      7  C6  UNL d   1      -5.994  -2.304   4.047  0.00  0.00     0.077 C 
ATOM      8  C7  UNL d   1      -3.762  -1.316   3.455  0.00  0.00    -0.001 A 
ENDROOT
TORSDOF 0
ENDMDL
