MODEL 1
REMARK minimizedAffinity -2.0263598
REMARK minimizedRMSD -1
REMARK  1 active torsions:
REMARK  status: ('A' for Active; 'I' for Inactive)
REMARK    1  A    between atoms: C1_2  and  C2_3 
ROOT
ATOM      1  C2  UNL d   1       0.491  -1.691  -1.018  0.00  0.00    -0.077 A 
ATOM      2  C3  UNL d   1       0.644  -1.326   0.327  0.00  0.00     0.002 A 
ATOM      3  C4  UNL d   1       0.382  -0.018   0.739  0.00  0.00     0.002 A 
ATOM      4  C5  UNL d   1      -0.040   0.934  -0.187  0.00  0.00    -0.004 A 
ATOM      5  C6  UNL d   1      -0.194   0.582  -1.527  0.00  0.00     0.002 A 
ATOM      6  C7  UNL d   1       0.070  -0.725  -1.941  0.00  0.00     0.002 A 
ENDROOT
BRANCH   1   7
ATOM      7  C1  UNL d   1       0.726  -3.113  -1.455  0.00  0.00     0.055 C 
ATOM      8  C   UNL d   1      -0.585  -3.821  -1.766  0.00  0.00     0.019 C 
ENDBRANCH   1   7
TORSDOF 1
ENDMDL
