MODEL 1
REMARK minimizedAffinity -6.40650654
REMARK minimizedRMSD -1
REMARK  1 active torsions:
REMARK  status: ('A' for Active; 'I' for Inactive)
REMARK    1  A    between atoms: C1_2  and  C2_3 
ROOT
ATOM      1  C2  UNL d   1      -0.417   0.858   0.299  0.00  0.00    -0.077 A 
ATOM      2  C3  UNL d   1      -0.741   1.707  -0.768  0.00  0.00     0.002 A 
ATOM      3  C4  UNL d   1      -1.266   2.978  -0.524  0.00  0.00     0.002 A 
ATOM      4  C5  UNL d   1      -1.467   3.412   0.784  0.00  0.00    -0.004 A 
ATOM      5  C6  UNL d   1      -1.149   2.573   1.852  0.00  0.00     0.002 A 
ATOM      6  C7  UNL d   1      -0.626   1.302   1.611  0.00  0.00     0.002 A 
ENDROOT
BRANCH   1   7
ATOM      7  C1  UNL d   1       0.195  -0.494   0.040  0.00  0.00     0.055 C 
ATOM      8  C   UNL d   1       0.367  -0.747  -1.451  0.00  0.00     0.019 C 
ENDBRANCH   1   7
TORSDOF 1
ENDMDL
