MODEL 1
REMARK minimizedAffinity -5.09635448
REMARK minimizedRMSD -1
REMARK  1 active torsions:
REMARK  status: ('A' for Active; 'I' for Inactive)
REMARK    1  A    between atoms: C1_2  and  C2_3 
ROOT
ATOM      1  C2  UNL d   1       0.016   0.113   0.097  0.00  0.00    -0.077 A 
ATOM      2  C3  UNL d   1      -0.509   1.058  -0.796  0.00  0.00     0.002 A 
ATOM      3  C4  UNL d   1      -1.077   2.241  -0.319  0.00  0.00     0.002 A 
ATOM      4  C5  UNL d   1      -1.123   2.491   1.050  0.00  0.00    -0.004 A 
ATOM      5  C6  UNL d   1      -0.606   1.557   1.947  0.00  0.00     0.002 A 
ATOM      6  C7  UNL d   1      -0.039   0.374   1.473  0.00  0.00     0.002 A 
ENDROOT
BRANCH   1   7
ATOM      7  C1  UNL d   1       0.674  -1.141  -0.417  0.00  0.00     0.055 C 
ATOM      8  C   UNL d   1      -0.360  -2.183  -0.819  0.00  0.00     0.019 C 
ENDBRANCH   1   7
TORSDOF 1
ENDMDL
