MODEL 1
REMARK minimizedAffinity -6.00769615
REMARK minimizedRMSD -1
REMARK  1 active torsions:
REMARK  status: ('A' for Active; 'I' for Inactive)
REMARK    1  A    between atoms: C1_2  and  C2_3 
ROOT
ATOM      1  C2  UNL d   1      -0.002   1.480  -0.537  0.00  0.00    -0.077 A 
ATOM      2  C3  UNL d   1      -0.094   2.586  -1.394  0.00  0.00     0.002 A 
ATOM      3  C4  UNL d   1      -0.703   3.766  -0.961  0.00  0.00     0.002 A 
ATOM      4  C5  UNL d   1      -1.220   3.853   0.330  0.00  0.00    -0.004 A 
ATOM      5  C6  UNL d   1      -1.135   2.758   1.189  0.00  0.00     0.002 A 
ATOM      6  C7  UNL d   1      -0.528   1.577   0.758  0.00  0.00     0.002 A 
ENDROOT
BRANCH   1   7
ATOM      7  C1  UNL d   1       0.697   0.224  -0.985  0.00  0.00     0.055 C 
ATOM      8  C   UNL d   1       0.079  -1.012  -0.347  0.00  0.00     0.019 C 
ENDBRANCH   1   7
TORSDOF 1
ENDMDL
