MODEL 1
REMARK minimizedAffinity 3.00060701
REMARK minimizedRMSD -1
REMARK  1 active torsions:
REMARK  status: ('A' for Active; 'I' for Inactive)
REMARK    1  A    between atoms: C1_2  and  C2_3 
ROOT
ATOM      1  C2  UNL d   1       0.007   1.497   0.298  0.00  0.00    -0.077 A 
ATOM      2  C3  UNL d   1       0.380   2.832   0.091  0.00  0.00     0.002 A 
ATOM      3  C4  UNL d   1       0.550   3.695   1.175  0.00  0.00     0.002 A 
ATOM      4  C5  UNL d   1       0.354   3.231   2.474  0.00  0.00    -0.004 A 
ATOM      5  C6  UNL d   1      -0.020   1.905   2.691  0.00  0.00     0.002 A 
ATOM      6  C7  UNL d   1      -0.192   1.042   1.608  0.00  0.00     0.002 A 
ENDROOT
BRANCH   1   7
ATOM      7  C1  UNL d   1      -0.129   0.552  -0.867  0.00  0.00     0.055 C 
ATOM      8  C   UNL d   1       0.633  -0.742  -0.623  0.00  0.00     0.019 C 
ENDBRANCH   1   7
TORSDOF 1
ENDMDL
