MODEL 1
REMARK minimizedAffinity 5.8979044
REMARK minimizedRMSD -1
REMARK  0 active torsions:
REMARK  status: ('A' for Active; 'I' for Inactive)
ROOT
ATOM      1  C   UNL d   1      -5.247  -1.506  -4.234  0.00  0.00     0.077 C 
ATOM      2  C1  UNL d   1      -4.760  -0.212  -4.813  0.00  0.00    -0.074 A 
ATOM      3  C2  UNL d   1      -3.521  -0.133  -5.457  0.00  0.00    -0.005 A 
ATOM      4  C3  UNL d   1      -3.086   1.076  -6.000  0.00  0.00     0.006 A 
ATOM      5  C4  UNL d   1      -3.883   2.217  -5.903  0.00  0.00    -0.005 A 
ATOM      6  C5  UNL d   1      -5.125   2.158  -5.263  0.00  0.00    -0.074 A 
ATOM      7  C6  UNL d   1      -5.998   3.372  -5.159  0.00  0.00     0.077 C 
ATOM      8  C7  UNL d   1      -5.559   0.937  -4.727  0.00  0.00    -0.001 A 
ENDROOT
TORSDOF 0
ENDMDL
