MODEL 1
REMARK minimizedAffinity 7.27533531
REMARK minimizedRMSD -1
REMARK  0 active torsions:
REMARK  status: ('A' for Active; 'I' for Inactive)
ROOT
ATOM      1  C   UNL d   1      -3.587   0.955   2.967  0.00  0.00     0.077 C 
ATOM      2  C1  UNL d   1      -2.359   0.136   2.701  0.00  0.00    -0.074 A 
ATOM      3  C2  UNL d   1      -2.313  -0.761   1.628  0.00  0.00    -0.005 A 
ATOM      4  C3  UNL d   1      -1.161  -1.509   1.387  0.00  0.00     0.006 A 
ATOM      5  C4  UNL d   1      -0.046  -1.369   2.214  0.00  0.00    -0.005 A 
ATOM      6  C5  UNL d   1      -0.073  -0.477   3.290  0.00  0.00    -0.074 A 
ATOM      7  C6  UNL d   1       1.120  -0.307   4.183  0.00  0.00     0.077 C 
ATOM      8  C7  UNL d   1      -1.232   0.277   3.522  0.00  0.00    -0.001 A 
ENDROOT
TORSDOF 0
ENDMDL
