MODEL 1
REMARK minimizedAffinity 5.52103996
REMARK minimizedRMSD -1
REMARK  0 active torsions:
REMARK  status: ('A' for Active; 'I' for Inactive)
ROOT
ATOM      1  C   UNL d   1       1.978  -2.047   0.125  0.00  0.00     0.077 C 
ATOM      2  C1  UNL d   1       1.215  -1.458   1.274  0.00  0.00    -0.074 A 
ATOM      3  C2  UNL d   1       1.867  -1.078   2.452  0.00  0.00    -0.005 A 
ATOM      4  C3  UNL d   1       1.145  -0.523   3.508  0.00  0.00     0.006 A 
ATOM      5  C4  UNL d   1      -0.234  -0.342   3.398  0.00  0.00    -0.005 A 
ATOM      6  C5  UNL d   1      -0.903  -0.715   2.228  0.00  0.00    -0.074 A 
ATOM      7  C6  UNL d   1      -2.384  -0.518   2.090  0.00  0.00     0.077 C 
ATOM      8  C7  UNL d   1      -0.170  -1.266   1.168  0.00  0.00    -0.001 A 
ENDROOT
TORSDOF 0
ENDMDL
