MODEL 1
REMARK minimizedAffinity 1.10601401
REMARK minimizedRMSD -1
REMARK  0 active torsions:
REMARK  status: ('A' for Active; 'I' for Inactive)
ROOT
ATOM      1  C   UNL d   1       2.184  -2.480   0.943  0.00  0.00     0.077 C 
ATOM      2  C1  UNL d   1       1.791  -1.336   0.057  0.00  0.00    -0.074 A 
ATOM      3  C2  UNL d   1       0.592  -1.365  -0.664  0.00  0.00    -0.005 A 
ATOM      4  C3  UNL d   1       0.235  -0.290  -1.478  0.00  0.00     0.006 A 
ATOM      5  C4  UNL d   1       1.071   0.823  -1.578  0.00  0.00    -0.005 A 
ATOM      6  C5  UNL d   1       2.273   0.870  -0.865  0.00  0.00    -0.074 A 
ATOM      7  C6  UNL d   1       3.178   2.062  -0.954  0.00  0.00     0.077 C 
ATOM      8  C7  UNL d   1       2.621  -0.212  -0.044  0.00  0.00    -0.001 A 
ENDROOT
TORSDOF 0
ENDMDL
