MODEL 1
REMARK minimizedAffinity -3.73561001
REMARK minimizedRMSD -1
REMARK  0 active torsions:
REMARK  status: ('A' for Active; 'I' for Inactive)
ROOT
ATOM      1  C   UNL d   1      -0.816  -1.455   2.841  0.00  0.00     0.077 C 
ATOM      2  C1  UNL d   1      -0.659  -0.719   1.544  0.00  0.00    -0.074 A 
ATOM      3  C2  UNL d   1      -1.706   0.046   1.020  0.00  0.00    -0.005 A 
ATOM      4  C3  UNL d   1      -1.541   0.733  -0.183  0.00  0.00     0.006 A 
ATOM      5  C4  UNL d   1      -0.331   0.661  -0.874  0.00  0.00    -0.005 A 
ATOM      6  C5  UNL d   1       0.727  -0.099  -0.365  0.00  0.00    -0.074 A 
ATOM      7  C6  UNL d   1       2.038  -0.179  -1.090  0.00  0.00     0.077 C 
ATOM      8  C7  UNL d   1       0.557  -0.780   0.848  0.00  0.00    -0.001 A 
ENDROOT
TORSDOF 0
ENDMDL
