MODEL 1
REMARK minimizedAffinity 4.59683514
REMARK minimizedRMSD -1
REMARK  0 active torsions:
REMARK  status: ('A' for Active; 'I' for Inactive)
ROOT
ATOM      1  C   UNL d   1       0.696   3.416  -0.222  0.00  0.00     0.023 A 
ATOM      2  C1  UNL d   1       0.473   4.581  -0.957  0.00  0.00     0.003 A 
ATOM      3  C2  UNL d   1       1.521   5.171  -1.667  0.00  0.00     0.048 A 
ATOM      4  C3  UNL d   1       2.788   4.591  -1.639  0.00  0.00     0.023 A 
ATOM      5  C4  UNL d   1       3.016   3.425  -0.906  0.00  0.00     0.048 A 
ATOM      6  C5  UNL d   1       1.965   2.839  -0.197  0.00  0.00     0.003 A 
ATOM      7  I   UNL d   1       4.349   5.467  -2.695  0.00  0.00    -0.146 I 
ENDROOT
TORSDOF 0
ENDMDL
