MODEL 1
REMARK minimizedAffinity 9.13725471
REMARK minimizedRMSD -1
REMARK  0 active torsions:
REMARK  status: ('A' for Active; 'I' for Inactive)
ROOT
ATOM      1  C   UNL d   1       1.611  -3.266  -1.055  0.00  0.00     0.023 A 
ATOM      2  C1  UNL d   1       0.703  -3.088  -2.098  0.00  0.00     0.003 A 
ATOM      3  C2  UNL d   1      -0.438  -2.306  -1.907  0.00  0.00     0.048 A 
ATOM      4  C3  UNL d   1      -0.664  -1.703  -0.670  0.00  0.00     0.023 A 
ATOM      5  C4  UNL d   1       0.243  -1.877   0.377  0.00  0.00     0.048 A 
ATOM      6  C5  UNL d   1       1.382  -2.661   0.181  0.00  0.00     0.003 A 
ATOM      7  I   UNL d   1      -2.361  -0.539  -0.383  0.00  0.00    -0.146 I 
ENDROOT
TORSDOF 0
ENDMDL
