MODEL 1
REMARK minimizedAffinity 2.95942283
REMARK minimizedRMSD -1
REMARK  0 active torsions:
REMARK  status: ('A' for Active; 'I' for Inactive)
ROOT
ATOM      1  C   UNL d   1       4.174  -2.971  -3.071  0.00  0.00     0.023 A 
ATOM      2  C1  UNL d   1       3.891  -1.905  -2.217  0.00  0.00     0.003 A 
ATOM      3  C2  UNL d   1       2.574  -1.650  -1.829  0.00  0.00     0.048 A 
ATOM      4  C3  UNL d   1       1.545  -2.465  -2.299  0.00  0.00     0.023 A 
ATOM      5  C4  UNL d   1       1.824  -3.533  -3.153  0.00  0.00     0.048 A 
ATOM      6  C5  UNL d   1       3.142  -3.784  -3.539  0.00  0.00     0.003 A 
ATOM      7  I   UNL d   1      -0.416  -2.087  -1.723  0.00  0.00    -0.146 I 
ENDROOT
TORSDOF 0
ENDMDL
