MODEL 1
REMARK minimizedAffinity 3.52871275
REMARK minimizedRMSD -1
REMARK  0 active torsions:
REMARK  status: ('A' for Active; 'I' for Inactive)
ROOT
ATOM      1  C   UNL d   1       1.772   1.079   1.724  0.00  0.00     0.023 A 
ATOM      2  C1  UNL d   1       1.246  -0.199   1.533  0.00  0.00     0.003 A 
ATOM      3  C2  UNL d   1       1.592  -0.935   0.398  0.00  0.00     0.048 A 
ATOM      4  C3  UNL d   1       2.465  -0.388  -0.541  0.00  0.00     0.023 A 
ATOM      5  C4  UNL d   1       2.994   0.890  -0.354  0.00  0.00     0.048 A 
ATOM      6  C5  UNL d   1       2.645   1.623   0.782  0.00  0.00     0.003 A 
ATOM      7  I   UNL d   1       2.981  -1.482  -2.231  0.00  0.00    -0.146 I 
ENDROOT
TORSDOF 0
ENDMDL
