MODEL 1
REMARK minimizedAffinity 3.5733366
REMARK minimizedRMSD -1
REMARK  0 active torsions:
REMARK  status: ('A' for Active; 'I' for Inactive)
ROOT
ATOM      1  C   UNL d   1       2.777  -0.168   2.912  0.00  0.00     0.023 A 
ATOM      2  C1  UNL d   1       1.929  -1.250   3.152  0.00  0.00     0.003 A 
ATOM      3  C2  UNL d   1       1.046  -1.680   2.160  0.00  0.00     0.048 A 
ATOM      4  C3  UNL d   1       1.017  -1.025   0.929  0.00  0.00     0.023 A 
ATOM      5  C4  UNL d   1       1.864   0.057   0.684  0.00  0.00     0.048 A 
ATOM      6  C5  UNL d   1       2.744   0.484   1.680  0.00  0.00     0.003 A 
ATOM      7  I   UNL d   1      -0.296  -1.664  -0.550  0.00  0.00    -0.146 I 
ENDROOT
TORSDOF 0
ENDMDL
