MODEL 1
REMARK minimizedAffinity -4.04464102
REMARK minimizedRMSD -1
REMARK  1 active torsions:
REMARK  status: ('A' for Active; 'I' for Inactive)
REMARK    1  A    between atoms: N_2  and  C1_3 
ROOT
ATOM      1  C1  UNL d   1      -0.945  -0.666  -0.269  0.00  0.00     0.143 A 
ATOM      2  C2  UNL d   1       0.333  -0.107  -0.380  0.00  0.00    -0.057 A 
ATOM      3  C3  UNL d   1       1.415  -0.618   0.346  0.00  0.00     0.033 A 
ATOM      4  C4  UNL d   1       1.233  -1.684   1.220  0.00  0.00    -0.042 A 
ATOM      5  C5  UNL d   1      -0.034  -2.240   1.365  0.00  0.00     0.033 A 
ATOM      6  C6  UNL d   1      -1.109  -1.729   0.633  0.00  0.00    -0.057 A 
ENDROOT
BRANCH   1   7
ATOM      7  N   UNL d   1      -2.081  -0.140  -0.889  0.00  0.00    -0.732 N 
ATOM      8  C   UNL d   1      -3.333  -0.866  -0.870  0.00  0.00     0.284 C 
ATOM      9  H3  UNL d   1      -2.178   0.861  -0.736  0.00  0.00     0.395 HD
ENDBRANCH   1   7
TORSDOF 1
ENDMDL
