MODEL 1
REMARK minimizedAffinity -4.00833797
REMARK minimizedRMSD -1
REMARK  1 active torsions:
REMARK  status: ('A' for Active; 'I' for Inactive)
REMARK    1  A    between atoms: N_2  and  C1_3 
ROOT
ATOM      1  C1  UNL d   1      -0.969  -0.359   0.214  0.00  0.00     0.143 A 
ATOM      2  C2  UNL d   1      -0.270  -1.191   1.095  0.00  0.00    -0.057 A 
ATOM      3  C3  UNL d   1       1.100  -1.015   1.326  0.00  0.00     0.033 A 
ATOM      4  C4  UNL d   1       1.802  -0.019   0.655  0.00  0.00    -0.042 A 
ATOM      5  C5  UNL d   1       1.133   0.803  -0.244  0.00  0.00     0.033 A 
ATOM      6  C6  UNL d   1      -0.237   0.627  -0.465  0.00  0.00    -0.057 A 
ENDROOT
BRANCH   1   7
ATOM      7  N   UNL d   1      -2.310  -0.545  -0.133  0.00  0.00    -0.732 N 
ATOM      8  C   UNL d   1      -2.669  -1.323  -1.299  0.00  0.00     0.284 C 
ATOM      9  H3  UNL d   1      -2.901  -0.715   0.678  0.00  0.00     0.395 HD
ENDBRANCH   1   7
TORSDOF 1
ENDMDL
