MODEL 1
REMARK minimizedAffinity -4.20506954
REMARK minimizedRMSD -1
REMARK  1 active torsions:
REMARK  status: ('A' for Active; 'I' for Inactive)
REMARK    1  A    between atoms: N_2  and  C1_3 
ROOT
ATOM      1  C1  UNL d   1       0.715   0.386  -0.354  0.00  0.00     0.143 A 
ATOM      2  C2  UNL d   1      -0.052  -0.435   0.479  0.00  0.00    -0.057 A 
ATOM      3  C3  UNL d   1      -1.325  -0.874   0.094  0.00  0.00     0.033 A 
ATOM      4  C4  UNL d   1      -1.865  -0.476  -1.124  0.00  0.00    -0.042 A 
ATOM      5  C5  UNL d   1      -1.131   0.360  -1.958  0.00  0.00     0.033 A 
ATOM      6  C6  UNL d   1       0.142   0.790  -1.570  0.00  0.00    -0.057 A 
ENDROOT
BRANCH   1   7
ATOM      7  N   UNL d   1       1.945   0.936   0.015  0.00  0.00    -0.732 N 
ATOM      8  C   UNL d   1       2.016   1.976   1.019  0.00  0.00     0.284 C 
ATOM      9  H3  UNL d   1       2.678   0.234   0.090  0.00  0.00     0.395 HD
ENDBRANCH   1   7
TORSDOF 1
ENDMDL
