MODEL 1
REMARK minimizedAffinity -5.08688354
REMARK minimizedRMSD -1
REMARK  1 active torsions:
REMARK  status: ('A' for Active; 'I' for Inactive)
REMARK    1  A    between atoms: N_2  and  C1_3 
ROOT
ATOM      1  C1  UNL d   1      -0.896  -0.297   0.337  0.00  0.00     0.143 A 
ATOM      2  C2  UNL d   1      -1.070  -1.469   1.081  0.00  0.00    -0.057 A 
ATOM      3  C3  UNL d   1      -2.240  -2.230   0.973  0.00  0.00     0.033 A 
ATOM      4  C4  UNL d   1      -3.272  -1.816   0.137  0.00  0.00    -0.042 A 
ATOM      5  C5  UNL d   1      -3.131  -0.641  -0.593  0.00  0.00     0.033 A 
ATOM      6  C6  UNL d   1      -1.958   0.112  -0.485  0.00  0.00    -0.057 A 
ENDROOT
BRANCH   1   7
ATOM      7  N   UNL d   1       0.202   0.556   0.475  0.00  0.00    -0.732 N 
ATOM      8  C   UNL d   1       1.535   0.100   0.144  0.00  0.00     0.284 C 
ATOM      9  H3  UNL d   1      -0.002   1.504   0.167  0.00  0.00     0.395 HD
ENDBRANCH   1   7
TORSDOF 1
ENDMDL
