MODEL 1
REMARK minimizedAffinity -2.54205847
REMARK minimizedRMSD -1
REMARK  1 active torsions:
REMARK  status: ('A' for Active; 'I' for Inactive)
REMARK    1  A    between atoms: N_2  and  C1_3 
ROOT
ATOM      1  C1  UNL d   1       2.721   3.090  -0.137  0.00  0.00     0.143 A 
ATOM      2  C2  UNL d   1       2.577   3.451   1.207  0.00  0.00    -0.057 A 
ATOM      3  C3  UNL d   1       2.255   2.501   2.184  0.00  0.00     0.033 A 
ATOM      4  C4  UNL d   1       2.042   1.173   1.828  0.00  0.00    -0.042 A 
ATOM      5  C5  UNL d   1       2.155   0.796   0.494  0.00  0.00     0.033 A 
ATOM      6  C6  UNL d   1       2.483   1.749  -0.475  0.00  0.00    -0.057 A 
ENDROOT
BRANCH   1   7
ATOM      7  N   UNL d   1       2.943   4.005  -1.168  0.00  0.00    -0.732 N 
ATOM      8  C   UNL d   1       4.064   3.843  -2.069  0.00  0.00     0.284 C 
ATOM      9  H3  UNL d   1       2.080   4.292  -1.626  0.00  0.00     0.395 HD
ENDBRANCH   1   7
TORSDOF 1
ENDMDL
