MODEL 1
REMARK minimizedAffinity -3.54768491
REMARK minimizedRMSD -1
REMARK  1 active torsions:
REMARK  status: ('A' for Active; 'I' for Inactive)
REMARK    1  A    between atoms: N_2  and  C1_3 
ROOT
ATOM      1  C1  UNL d   1       0.122  -0.012   0.107  0.00  0.00     0.143 A 
ATOM      2  C2  UNL d   1      -0.613  -0.386   1.238  0.00  0.00    -0.057 A 
ATOM      3  C3  UNL d   1      -1.940  -0.821   1.130  0.00  0.00     0.033 A 
ATOM      4  C4  UNL d   1      -2.566  -0.862  -0.111  0.00  0.00    -0.042 A 
ATOM      5  C5  UNL d   1      -1.863  -0.472  -1.245  0.00  0.00     0.033 A 
ATOM      6  C6  UNL d   1      -0.536  -0.045  -1.132  0.00  0.00    -0.057 A 
ENDROOT
BRANCH   1   7
ATOM      7  N   UNL d   1       1.411   0.522   0.160  0.00  0.00    -0.732 N 
ATOM      8  C   UNL d   1       1.637   1.854   0.678  0.00  0.00     0.284 C 
ATOM      9  H3  UNL d   1       2.104  -0.162   0.456  0.00  0.00     0.395 HD
ENDBRANCH   1   7
TORSDOF 1
ENDMDL
