MODEL 1
REMARK minimizedAffinity -4.54190826
REMARK minimizedRMSD -1
REMARK  1 active torsions:
REMARK  status: ('A' for Active; 'I' for Inactive)
REMARK    1  A    between atoms: N_2  and  C1_3 
ROOT
ATOM      1  C1  UNL d   1       0.041   0.007   0.230  0.00  0.00     0.143 A 
ATOM      2  C2  UNL d   1      -0.676   0.213  -0.953  0.00  0.00    -0.057 A 
ATOM      3  C3  UNL d   1      -1.997  -0.231  -1.088  0.00  0.00     0.033 A 
ATOM      4  C4  UNL d   1      -2.616  -0.917  -0.048  0.00  0.00    -0.042 A 
ATOM      5  C5  UNL d   1      -1.914  -1.155   1.128  0.00  0.00     0.033 A 
ATOM      6  C6  UNL d   1      -0.597  -0.703   1.259  0.00  0.00    -0.057 A 
ENDROOT
BRANCH   1   7
ATOM      7  N   UNL d   1       1.389   0.338   0.390  0.00  0.00    -0.732 N 
ATOM      8  C   UNL d   1       1.776   1.521   1.129  0.00  0.00     0.284 C 
ATOM      9  H3  UNL d   1       1.969  -0.477   0.577  0.00  0.00     0.395 HD
ENDBRANCH   1   7
TORSDOF 1
ENDMDL
