MODEL 1
REMARK minimizedAffinity -4.06481934
REMARK minimizedRMSD -1
REMARK  1 active torsions:
REMARK  status: ('A' for Active; 'I' for Inactive)
REMARK    1  A    between atoms: N_2  and  C1_3 
ROOT
ATOM      1  C1  UNL d   1      -0.566  -0.429  -0.061  0.00  0.00     0.143 A 
ATOM      2  C2  UNL d   1      -1.077  -0.683  -1.338  0.00  0.00    -0.057 A 
ATOM      3  C3  UNL d   1      -2.433  -0.974  -1.533  0.00  0.00     0.033 A 
ATOM      4  C4  UNL d   1      -3.298  -1.046  -0.447  0.00  0.00    -0.042 A 
ATOM      5  C5  UNL d   1      -2.807  -0.822   0.835  0.00  0.00     0.033 A 
ATOM      6  C6  UNL d   1      -1.454  -0.525   1.022  0.00  0.00    -0.057 A 
ENDROOT
BRANCH   1   7
ATOM      7  N   UNL d   1       0.790  -0.231   0.209  0.00  0.00    -0.732 N 
ATOM      8  C   UNL d   1       1.437   1.015  -0.141  0.00  0.00     0.284 C 
ATOM      9  H3  UNL d   1       1.064  -0.600   1.117  0.00  0.00     0.395 HD
ENDBRANCH   1   7
TORSDOF 1
ENDMDL
