MODEL 1
REMARK minimizedAffinity -4.98310614
REMARK minimizedRMSD -1
REMARK  1 active torsions:
REMARK  status: ('A' for Active; 'I' for Inactive)
REMARK    1  A    between atoms: N_2  and  C1_3 
ROOT
ATOM      1  C1  UNL d   1       0.135   0.078  -0.092  0.00  0.00     0.143 A 
ATOM      2  C2  UNL d   1      -0.435  -0.033  -1.365  0.00  0.00    -0.057 A 
ATOM      3  C3  UNL d   1      -1.782  -0.377  -1.530  0.00  0.00     0.033 A 
ATOM      4  C4  UNL d   1      -2.578  -0.646  -0.422  0.00  0.00    -0.042 A 
ATOM      5  C5  UNL d   1      -2.027  -0.565   0.852  0.00  0.00     0.033 A 
ATOM      6  C6  UNL d   1      -0.683  -0.215   1.011  0.00  0.00    -0.057 A 
ENDROOT
BRANCH   1   7
ATOM      7  N   UNL d   1       1.492   0.320   0.135  0.00  0.00    -0.732 N 
ATOM      8  C   UNL d   1       1.931   1.569   0.720  0.00  0.00     0.284 C 
ATOM      9  H3  UNL d   1       1.979  -0.500   0.491  0.00  0.00     0.395 HD
ENDBRANCH   1   7
TORSDOF 1
ENDMDL
