MODEL 1
REMARK minimizedAffinity -3.81171632
REMARK minimizedRMSD -1
REMARK  1 active torsions:
REMARK  status: ('A' for Active; 'I' for Inactive)
REMARK    1  A    between atoms: N_2  and  C1_3 
ROOT
ATOM      1  C1  UNL d   1      -0.838  -0.519  -0.080  0.00  0.00     0.143 A 
ATOM      2  C2  UNL d   1      -1.988  -0.624  -0.871  0.00  0.00    -0.057 A 
ATOM      3  C3  UNL d   1      -2.886  -1.686  -0.709  0.00  0.00     0.033 A 
ATOM      4  C4  UNL d   1      -2.634  -2.681   0.230  0.00  0.00    -0.042 A 
ATOM      5  C5  UNL d   1      -1.484  -2.611   1.009  0.00  0.00     0.033 A 
ATOM      6  C6  UNL d   1      -0.595  -1.544   0.847  0.00  0.00    -0.057 A 
ENDROOT
BRANCH   1   7
ATOM      7  N   UNL d   1       0.143   0.459  -0.260  0.00  0.00    -0.732 N 
ATOM      8  C   UNL d   1       1.435   0.334   0.380  0.00  0.00     0.284 C 
ATOM      9  H3  UNL d   1       0.186   0.794  -1.220  0.00  0.00     0.395 HD
ENDBRANCH   1   7
TORSDOF 1
ENDMDL
