MODEL 1
REMARK minimizedAffinity -4.86891603
REMARK minimizedRMSD -1
REMARK  1 active torsions:
REMARK  status: ('A' for Active; 'I' for Inactive)
REMARK    1  A    between atoms: N_2  and  C1_3 
ROOT
ATOM      1  C1  UNL d   1       0.005  -0.260  -0.046  0.00  0.00     0.143 A 
ATOM      2  C2  UNL d   1      -1.031  -0.770   0.745  0.00  0.00    -0.057 A 
ATOM      3  C3  UNL d   1      -2.369  -0.668   0.343  0.00  0.00     0.033 A 
ATOM      4  C4  UNL d   1      -2.697  -0.026  -0.847  0.00  0.00    -0.042 A 
ATOM      5  C5  UNL d   1      -1.686   0.510  -1.636  0.00  0.00     0.033 A 
ATOM      6  C6  UNL d   1      -0.352   0.399  -1.233  0.00  0.00    -0.057 A 
ENDROOT
BRANCH   1   7
ATOM      7  N   UNL d   1       1.345  -0.244   0.346  0.00  0.00    -0.732 N 
ATOM      8  C   UNL d   1       2.054   1.009   0.495  0.00  0.00     0.284 C 
ATOM      9  H3  UNL d   1       1.546  -0.924   1.075  0.00  0.00     0.395 HD
ENDBRANCH   1   7
TORSDOF 1
ENDMDL
