MODEL 1
REMARK minimizedAffinity -2.48486543
REMARK minimizedRMSD -1
REMARK  1 active torsions:
REMARK  status: ('A' for Active; 'I' for Inactive)
REMARK    1  A    between atoms: N_2  and  C1_3 
ROOT
ATOM      1  C1  UNL d   1       0.097   0.168  -0.282  0.00  0.00     0.143 A 
ATOM      2  C2  UNL d   1      -0.564   0.834  -1.320  0.00  0.00    -0.057 A 
ATOM      3  C3  UNL d   1      -1.921   0.608  -1.579  0.00  0.00     0.033 A 
ATOM      4  C4  UNL d   1      -2.637  -0.312  -0.820  0.00  0.00    -0.042 A 
ATOM      5  C5  UNL d   1      -1.994  -1.003   0.201  0.00  0.00     0.033 A 
ATOM      6  C6  UNL d   1      -0.640  -0.768   0.459  0.00  0.00    -0.057 A 
ENDROOT
BRANCH   1   7
ATOM      7  N   UNL d   1       1.468   0.276  -0.038  0.00  0.00    -0.732 N 
ATOM      8  C   UNL d   1       2.044   1.533   0.390  0.00  0.00     0.284 C 
ATOM      9  H3  UNL d   1       1.842  -0.538   0.444  0.00  0.00     0.395 HD
ENDBRANCH   1   7
TORSDOF 1
ENDMDL
