MODEL 1
REMARK minimizedAffinity 5.88507414
REMARK minimizedRMSD -1
REMARK  0 active torsions:
REMARK  status: ('A' for Active; 'I' for Inactive)
ROOT
ATOM      1  C2' OXE d   1      -2.538   0.505  -1.137  0.00  0.00     0.078 C 
ATOM      2  C1' OXE d   1      -1.699  -0.171   1.455  0.00  0.00     0.078 C 
ATOM      3  C1  OXE d   1      -1.341  -1.113   0.332  0.00  0.00    -0.078 A 
ATOM      4  C2  OXE d   1      -1.796  -0.798  -0.926  0.00  0.00    -0.078 A 
ATOM      5  C3  OXE d   1      -1.449  -1.603  -2.007  0.00  0.00     0.003 A 
ATOM      6  C4  OXE d   1      -0.771  -2.811  -1.801  0.00  0.00    -0.002 A 
ATOM      7  C5  OXE d   1      -0.333  -3.171  -0.522  0.00  0.00    -0.002 A 
ATOM      8  C6  OXE d   1      -0.572  -2.314   0.546  0.00  0.00     0.003 A 
ENDROOT
TORSDOF 0
ENDMDL
