MODEL 1
REMARK minimizedAffinity -0.0575060397
REMARK minimizedRMSD -1
REMARK  0 active torsions:
REMARK  status: ('A' for Active; 'I' for Inactive)
ROOT
ATOM      1  C2' OXE d   1      -0.750   0.523  -0.053  0.00  0.00     0.078 C 
ATOM      2  C1' OXE d   1       0.261   0.041   2.521  0.00  0.00     0.078 C 
ATOM      3  C1  OXE d   1      -1.224   0.259   2.378  0.00  0.00    -0.078 A 
ATOM      4  C2  OXE d   1      -1.704   0.541   1.122  0.00  0.00    -0.078 A 
ATOM      5  C3  OXE d   1      -3.074   0.696   0.926  0.00  0.00     0.003 A 
ATOM      6  C4  OXE d   1      -3.948   0.721   2.019  0.00  0.00    -0.002 A 
ATOM      7  C5  OXE d   1      -3.474   0.476   3.312  0.00  0.00    -0.002 A 
ATOM      8  C6  OXE d   1      -2.125   0.202   3.503  0.00  0.00     0.003 A 
ENDROOT
TORSDOF 0
ENDMDL
