MODEL 1
REMARK minimizedAffinity 4.82502031
REMARK minimizedRMSD -1
REMARK  0 active torsions:
REMARK  status: ('A' for Active; 'I' for Inactive)
ROOT
ATOM      1  C2' OXE d   1      -0.465  -2.530  -0.469  0.00  0.00     0.078 C 
ATOM      2  C1' OXE d   1      -1.933  -0.464   0.738  0.00  0.00     0.078 C 
ATOM      3  C1  OXE d   1      -0.951  -0.090  -0.344  0.00  0.00    -0.078 A 
ATOM      4  C2  OXE d   1      -0.203  -1.102  -0.897  0.00  0.00    -0.078 A 
ATOM      5  C3  OXE d   1       0.678  -0.820  -1.937  0.00  0.00     0.003 A 
ATOM      6  C4  OXE d   1       0.921   0.505  -2.319  0.00  0.00    -0.002 A 
ATOM      7  C5  OXE d   1       0.199   1.555  -1.742  0.00  0.00    -0.002 A 
ATOM      8  C6  OXE d   1      -0.769   1.271  -0.785  0.00  0.00     0.003 A 
ENDROOT
TORSDOF 0
ENDMDL
