MODEL 1
REMARK minimizedAffinity 8.59727383
REMARK minimizedRMSD -1
REMARK  0 active torsions:
REMARK  status: ('A' for Active; 'I' for Inactive)
ROOT
ATOM      1  C2' OXE d   1      -3.290  -0.339   3.701  0.00  0.00     0.078 C 
ATOM      2  C1' OXE d   1      -0.564  -0.476   3.045  0.00  0.00     0.078 C 
ATOM      3  C1  OXE d   1      -1.529  -0.061   1.962  0.00  0.00    -0.078 A 
ATOM      4  C2  OXE d   1      -2.865  -0.042   2.279  0.00  0.00    -0.078 A 
ATOM      5  C3  OXE d   1      -3.792   0.387   1.333  0.00  0.00     0.003 A 
ATOM      6  C4  OXE d   1      -3.392   0.650   0.017  0.00  0.00    -0.002 A 
ATOM      7  C5  OXE d   1      -2.040   0.597  -0.337  0.00  0.00    -0.002 A 
ATOM      8  C6  OXE d   1      -1.093   0.286   0.632  0.00  0.00     0.003 A 
ENDROOT
TORSDOF 0
ENDMDL
