MODEL 1
REMARK minimizedAffinity 1.41154945
REMARK minimizedRMSD -1
REMARK  0 active torsions:
REMARK  status: ('A' for Active; 'I' for Inactive)
ROOT
ATOM      1  C2' OXE d   1      -1.148   0.860  -0.782  0.00  0.00     0.078 C 
ATOM      2  C1' OXE d   1      -2.980   0.582   1.327  0.00  0.00     0.078 C 
ATOM      3  C1  OXE d   1      -1.515   0.411   1.640  0.00  0.00    -0.078 A 
ATOM      4  C2  OXE d   1      -0.629   0.502   0.594  0.00  0.00    -0.078 A 
ATOM      5  C3  OXE d   1       0.738   0.407   0.837  0.00  0.00     0.003 A 
ATOM      6  C4  OXE d   1       1.209   0.066   2.111  0.00  0.00    -0.002 A 
ATOM      7  C5  OXE d   1       0.321  -0.071   3.183  0.00  0.00    -0.002 A 
ATOM      8  C6  OXE d   1      -1.037   0.140   2.974  0.00  0.00     0.003 A 
ENDROOT
TORSDOF 0
ENDMDL
