MODEL 1
REMARK minimizedAffinity -2.66689849
REMARK minimizedRMSD -1
REMARK  0 active torsions:
REMARK  status: ('A' for Active; 'I' for Inactive)
ROOT
ATOM      1  C2' OXE d   1      -0.546  -0.722   3.482  0.00  0.00     0.078 C 
ATOM      2  C1' OXE d   1      -3.270  -1.090   4.053  0.00  0.00     0.078 C 
ATOM      3  C1  OXE d   1      -2.906  -0.482   2.722  0.00  0.00    -0.078 A 
ATOM      4  C2  OXE d   1      -1.573  -0.262   2.470  0.00  0.00    -0.078 A 
ATOM      5  C3  OXE d   1      -1.179   0.246   1.235  0.00  0.00     0.003 A 
ATOM      6  C4  OXE d   1      -2.136   0.678   0.309  0.00  0.00    -0.002 A 
ATOM      7  C5  OXE d   1      -3.501   0.500   0.562  0.00  0.00    -0.002 A 
ATOM      8  C6  OXE d   1      -3.900  -0.116   1.743  0.00  0.00     0.003 A 
ENDROOT
TORSDOF 0
ENDMDL
