MODEL 1
REMARK minimizedAffinity -5.07374716
REMARK minimizedRMSD -1
REMARK  0 active torsions:
REMARK  status: ('A' for Active; 'I' for Inactive)
ROOT
ATOM      1  C2' OXE d   1       0.847  -0.033   2.169  0.00  0.00     0.078 C 
ATOM      2  C1' OXE d   1      -1.651   0.142   0.899  0.00  0.00     0.078 C 
ATOM      3  C1  OXE d   1      -1.627  -0.260   2.353  0.00  0.00    -0.078 A 
ATOM      4  C2  OXE d   1      -0.398  -0.388   2.954  0.00  0.00    -0.078 A 
ATOM      5  C3  OXE d   1      -0.322  -0.702   4.308  0.00  0.00     0.003 A 
ATOM      6  C4  OXE d   1      -1.477  -1.039   5.023  0.00  0.00    -0.002 A 
ATOM      7  C5  OXE d   1      -2.736  -0.953   4.420  0.00  0.00    -0.002 A 
ATOM      8  C6  OXE d   1      -2.832  -0.525   3.100  0.00  0.00     0.003 A 
ENDROOT
TORSDOF 0
ENDMDL
