MODEL 1
REMARK minimizedAffinity 2.52424526
REMARK minimizedRMSD -1
REMARK  0 active torsions:
REMARK  status: ('A' for Active; 'I' for Inactive)
ROOT
ATOM      1  C2' OXE d   1      -1.305   0.371  -0.589  0.00  0.00     0.078 C 
ATOM      2  C1' OXE d   1      -3.754   0.565   0.769  0.00  0.00     0.078 C 
ATOM      3  C1  OXE d   1      -2.517   0.290   1.586  0.00  0.00    -0.078 A 
ATOM      4  C2  OXE d   1      -1.330   0.150   0.908  0.00  0.00    -0.078 A 
ATOM      5  C3  OXE d   1      -0.150  -0.050   1.618  0.00  0.00     0.003 A 
ATOM      6  C4  OXE d   1      -0.183  -0.264   3.002  0.00  0.00    -0.002 A 
ATOM      7  C5  OXE d   1      -1.387  -0.165   3.707  0.00  0.00    -0.002 A 
ATOM      8  C6  OXE d   1      -2.554   0.153   3.021  0.00  0.00     0.003 A 
ENDROOT
TORSDOF 0
ENDMDL
