MODEL 1
REMARK minimizedAffinity 6.11125946
REMARK minimizedRMSD -1
REMARK  0 active torsions:
REMARK  status: ('A' for Active; 'I' for Inactive)
ROOT
ATOM      1  C2' OXE d   1       5.969   1.063   4.223  0.00  0.00     0.078 C 
ATOM      2  C1' OXE d   1       5.941  -0.001   1.625  0.00  0.00     0.078 C 
ATOM      3  C1  OXE d   1       5.919  -0.969   2.783  0.00  0.00    -0.078 A 
ATOM      4  C2  OXE d   1       5.980  -0.440   4.050  0.00  0.00    -0.078 A 
ATOM      5  C3  OXE d   1       5.907  -1.285   5.153  0.00  0.00     0.003 A 
ATOM      6  C4  OXE d   1       5.928  -2.675   4.984  0.00  0.00    -0.002 A 
ATOM      7  C5  OXE d   1       5.905  -3.235   3.702  0.00  0.00    -0.002 A 
ATOM      8  C6  OXE d   1       5.858  -2.397   2.594  0.00  0.00     0.003 A 
ENDROOT
TORSDOF 0
ENDMDL
