MODEL 1
REMARK minimizedAffinity 6.33554506
REMARK minimizedRMSD -1
REMARK  0 active torsions:
REMARK  status: ('A' for Active; 'I' for Inactive)
ROOT
ATOM      1  C2' OXE d   1      -0.435   0.309   2.998  0.00  0.00     0.078 C 
ATOM      2  C1' OXE d   1      -3.159   0.971   3.137  0.00  0.00     0.078 C 
ATOM      3  C1  OXE d   1      -2.596   0.588   1.792  0.00  0.00    -0.078 A 
ATOM      4  C2  OXE d   1      -1.252   0.310   1.724  0.00  0.00    -0.078 A 
ATOM      5  C3  OXE d   1      -0.693  -0.102   0.518  0.00  0.00     0.003 A 
ATOM      6  C4  OXE d   1      -1.454  -0.088  -0.657  0.00  0.00    -0.002 A 
ATOM      7  C5  OXE d   1      -2.815   0.229  -0.618  0.00  0.00    -0.002 A 
ATOM      8  C6  OXE d   1      -3.410   0.528   0.603  0.00  0.00     0.003 A 
ENDROOT
TORSDOF 0
ENDMDL
