MODEL 1
REMARK minimizedAffinity 6.33320045
REMARK minimizedRMSD -1
REMARK  0 active torsions:
REMARK  status: ('A' for Active; 'I' for Inactive)
ROOT
ATOM      1  C2' OXE d   1      -3.465   0.522   1.590  0.00  0.00     0.078 C 
ATOM      2  C1' OXE d   1      -3.341   2.980   2.940  0.00  0.00     0.078 C 
ATOM      3  C1  OXE d   1      -2.130   2.084   2.998  0.00  0.00    -0.078 A 
ATOM      4  C2  OXE d   1      -2.216   0.862   2.374  0.00  0.00    -0.078 A 
ATOM      5  C3  OXE d   1      -1.108   0.020   2.350  0.00  0.00     0.003 A 
ATOM      6  C4  OXE d   1       0.040   0.339   3.086  0.00  0.00    -0.002 A 
ATOM      7  C5  OXE d   1       0.134   1.560   3.762  0.00  0.00    -0.002 A 
ATOM      8  C6  OXE d   1      -0.923   2.460   3.693  0.00  0.00     0.003 A 
ENDROOT
TORSDOF 0
ENDMDL
