MODEL 1
REMARK minimizedAffinity 7.72733736
REMARK minimizedRMSD -1
REMARK  0 active torsions:
REMARK  status: ('A' for Active; 'I' for Inactive)
ROOT
ATOM      1  C2' OXE d   1       3.808   1.229  -2.940  0.00  0.00     0.078 C 
ATOM      2  C1' OXE d   1       5.522   2.978  -4.311  0.00  0.00     0.078 C 
ATOM      3  C1  OXE d   1       4.123   3.455  -4.012  0.00  0.00    -0.078 A 
ATOM      4  C2  OXE d   1       3.276   2.575  -3.382  0.00  0.00    -0.078 A 
ATOM      5  C3  OXE d   1       1.992   2.983  -3.034  0.00  0.00     0.003 A 
ATOM      6  C4  OXE d   1       1.505   4.226  -3.455  0.00  0.00    -0.002 A 
ATOM      7  C5  OXE d   1       2.338   5.122  -4.133  0.00  0.00    -0.002 A 
ATOM      8  C6  OXE d   1       3.660   4.770  -4.382  0.00  0.00     0.003 A 
ENDROOT
TORSDOF 0
ENDMDL
