MODEL 1
REMARK minimizedAffinity 5.68030977
REMARK minimizedRMSD -1
REMARK  0 active torsions:
REMARK  status: ('A' for Active; 'I' for Inactive)
ROOT
ATOM      1  C2' OXE d   1      -3.489  -0.197  -0.936  0.00  0.00     0.078 C 
ATOM      2  C1' OXE d   1      -0.848  -1.137  -0.789  0.00  0.00     0.078 C 
ATOM      3  C1  OXE d   1      -1.450  -0.533   0.455  0.00  0.00    -0.078 A 
ATOM      4  C2  OXE d   1      -2.726  -0.033   0.361  0.00  0.00    -0.078 A 
ATOM      5  C3  OXE d   1      -3.348   0.485   1.493  0.00  0.00     0.003 A 
ATOM      6  C4  OXE d   1      -2.633   0.642   2.687  0.00  0.00    -0.002 A 
ATOM      7  C5  OXE d   1      -1.318   0.175   2.792  0.00  0.00    -0.002 A 
ATOM      8  C6  OXE d   1      -0.728  -0.452   1.701  0.00  0.00     0.003 A 
ENDROOT
TORSDOF 0
ENDMDL
