MODEL 1
REMARK minimizedAffinity 7.44475269
REMARK minimizedRMSD -1
REMARK  0 active torsions:
REMARK  status: ('A' for Active; 'I' for Inactive)
ROOT
ATOM      1  C2' OXE d   1      -0.270  -2.660  -1.976  0.00  0.00     0.078 C 
ATOM      2  C1' OXE d   1      -2.417  -2.529  -3.779  0.00  0.00     0.078 C 
ATOM      3  C1  OXE d   1      -2.521  -1.733  -2.503  0.00  0.00    -0.078 A 
ATOM      4  C2  OXE d   1      -1.486  -1.840  -1.605  0.00  0.00    -0.078 A 
ATOM      5  C3  OXE d   1      -1.507  -1.084  -0.436  0.00  0.00     0.003 A 
ATOM      6  C4  OXE d   1      -2.640  -0.335  -0.096  0.00  0.00    -0.002 A 
ATOM      7  C5  OXE d   1      -3.722  -0.244  -0.978  0.00  0.00    -0.002 A 
ATOM      8  C6  OXE d   1      -3.660  -0.902  -2.202  0.00  0.00     0.003 A 
ENDROOT
TORSDOF 0
ENDMDL
