MODEL 1
REMARK minimizedAffinity 7.0244031
REMARK minimizedRMSD -1
REMARK  0 active torsions:
REMARK  status: ('A' for Active; 'I' for Inactive)
ROOT
ATOM      1  C2' OXE d   1      -3.348  -0.651   0.412  0.00  0.00     0.078 C 
ATOM      2  C1' OXE d   1      -2.838  -3.407   0.574  0.00  0.00     0.078 C 
ATOM      3  C1  OXE d   1      -2.091  -2.613  -0.469  0.00  0.00    -0.078 A 
ATOM      4  C2  OXE d   1      -2.381  -1.274  -0.572  0.00  0.00    -0.078 A 
ATOM      5  C3  OXE d   1      -1.681  -0.484  -1.480  0.00  0.00     0.003 A 
ATOM      6  C4  OXE d   1      -0.796  -1.070  -2.393  0.00  0.00    -0.002 A 
ATOM      7  C5  OXE d   1      -0.515  -2.439  -2.332  0.00  0.00    -0.002 A 
ATOM      8  C6  OXE d   1      -1.121  -3.215  -1.350  0.00  0.00     0.003 A 
ENDROOT
TORSDOF 0
ENDMDL
