MODEL 1
REMARK minimizedAffinity 1.75342965
REMARK minimizedRMSD -1
REMARK  0 active torsions:
REMARK  status: ('A' for Active; 'I' for Inactive)
ROOT
ATOM      1  C2' OXE d   1       2.669   1.243  -4.481  0.00  0.00     0.078 C 
ATOM      2  C1' OXE d   1       4.267   2.981  -5.999  0.00  0.00     0.078 C 
ATOM      3  C1  OXE d   1       3.158   3.585  -5.175  0.00  0.00    -0.078 A 
ATOM      4  C2  OXE d   1       2.351   2.722  -4.472  0.00  0.00    -0.078 A 
ATOM      5  C3  OXE d   1       1.347   3.231  -3.652  0.00  0.00     0.003 A 
ATOM      6  C4  OXE d   1       1.054   4.600  -3.657  0.00  0.00    -0.002 A 
ATOM      7  C5  OXE d   1       1.838   5.491  -4.397  0.00  0.00    -0.002 A 
ATOM      8  C6  OXE d   1       2.918   5.006  -5.126  0.00  0.00     0.003 A 
ENDROOT
TORSDOF 0
ENDMDL
