MODEL 1
REMARK minimizedAffinity 2.85627246
REMARK minimizedRMSD -1
REMARK  0 active torsions:
REMARK  status: ('A' for Active; 'I' for Inactive)
ROOT
ATOM      1  C   UNL d   1      -0.759   3.464  -3.098  0.00  0.00    -0.002 A 
ATOM      2  C1  UNL d   1      -2.021   2.890  -3.031  0.00  0.00     0.010 A 
ATOM      3  C2  UNL d   1      -2.257   1.789  -2.206  0.00  0.00     0.041 A 
ATOM      4  C3  UNL d   1      -1.195   1.271  -1.439  0.00  0.00    -0.075 A 
ATOM      5  S   UNL d   1      -1.251  -0.070  -0.357  0.00  0.00     0.015 SA
ATOM      6  C4  UNL d   1       0.398   0.088   0.043  0.00  0.00     0.022 A 
ATOM      7  C5  UNL d   1       0.992   1.133  -0.624  0.00  0.00     0.026 A 
ATOM      8  C6  UNL d   1       0.084   1.832  -1.488  0.00  0.00    -0.082 A 
ATOM      9  C7  UNL d   1       0.292   2.947  -2.336  0.00  0.00     0.045 A 
ENDROOT
TORSDOF 0
ENDMDL
