MODEL 1
REMARK minimizedAffinity 0.596843362
REMARK minimizedRMSD -1
REMARK  0 active torsions:
REMARK  status: ('A' for Active; 'I' for Inactive)
ROOT
ATOM      1  C   UNL d   1       1.307  -1.880   2.378  0.00  0.00    -0.002 A 
ATOM      2  C1  UNL d   1       0.216  -1.057   2.615  0.00  0.00     0.010 A 
ATOM      3  C2  UNL d   1      -0.312  -0.265   1.594  0.00  0.00     0.041 A 
ATOM      4  C3  UNL d   1       0.280  -0.315   0.317  0.00  0.00    -0.075 A 
ATOM      5  S   UNL d   1      -0.197   0.566  -1.086  0.00  0.00     0.015 SA
ATOM      6  C4  UNL d   1       1.037  -0.130  -2.034  0.00  0.00     0.022 A 
ATOM      7  C5  UNL d   1       1.803  -1.016  -1.314  0.00  0.00     0.026 A 
ATOM      8  C6  UNL d   1       1.380  -1.137   0.053  0.00  0.00    -0.082 A 
ATOM      9  C7  UNL d   1       1.892  -1.928   1.109  0.00  0.00     0.045 A 
ENDROOT
TORSDOF 0
ENDMDL
