MODEL 1
REMARK minimizedAffinity -5.11711836
REMARK minimizedRMSD -1
REMARK  0 active torsions:
REMARK  status: ('A' for Active; 'I' for Inactive)
ROOT
ATOM      1  C   UNL d   1       2.244  -1.085   3.363  0.00  0.00    -0.002 A 
ATOM      2  C1  UNL d   1       2.862  -1.615   2.239  0.00  0.00     0.010 A 
ATOM      3  C2  UNL d   1       2.236  -1.560   0.992  0.00  0.00     0.041 A 
ATOM      4  C3  UNL d   1       0.967  -0.957   0.892  0.00  0.00    -0.075 A 
ATOM      5  S   UNL d   1       0.011  -0.775  -0.531  0.00  0.00     0.015 SA
ATOM      6  C4  UNL d   1      -1.240   0.011   0.319  0.00  0.00     0.022 A 
ATOM      7  C5  UNL d   1      -0.952   0.140   1.657  0.00  0.00     0.026 A 
ATOM      8  C6  UNL d   1       0.325  -0.415   2.010  0.00  0.00    -0.082 A 
ATOM      9  C7  UNL d   1       0.985  -0.487   3.260  0.00  0.00     0.045 A 
ENDROOT
TORSDOF 0
ENDMDL
