MODEL 1
REMARK minimizedAffinity -3.41209483
REMARK minimizedRMSD -1
REMARK  0 active torsions:
REMARK  status: ('A' for Active; 'I' for Inactive)
ROOT
ATOM      1  C   UNL d   1      -1.234  -0.328   2.412  0.00  0.00    -0.002 A 
ATOM      2  C1  UNL d   1      -1.498   0.262   1.184  0.00  0.00     0.010 A 
ATOM      3  C2  UNL d   1      -0.703  -0.023   0.073  0.00  0.00     0.041 A 
ATOM      4  C3  UNL d   1       0.372  -0.923   0.217  0.00  0.00    -0.075 A 
ATOM      5  S   UNL d   1       1.480  -1.423  -1.005  0.00  0.00     0.015 SA
ATOM      6  C4  UNL d   1       2.330  -2.433   0.073  0.00  0.00     0.022 A 
ATOM      7  C5  UNL d   1       1.795  -2.401   1.339  0.00  0.00     0.026 A 
ATOM      8  C6  UNL d   1       0.657  -1.531   1.443  0.00  0.00    -0.082 A 
ATOM      9  C7  UNL d   1      -0.167  -1.220   2.551  0.00  0.00     0.045 A 
ENDROOT
TORSDOF 0
ENDMDL
