MODEL 1
REMARK minimizedAffinity -5.31622458
REMARK minimizedRMSD -1
REMARK  3 active torsions:
REMARK  status: ('A' for Active; 'I' for Inactive)
REMARK    1  A    between atoms: C3'_2  and  C2'_3 
REMARK    2  A    between atoms: C2'_3  and  C1'_4 
REMARK    3  A    between atoms: C1'_4  and  C1_5 
ROOT
ATOM      1  C1  N4B d   1       0.430  -0.206   0.618  0.00  0.00    -0.075 A 
ATOM      2  C2  N4B d   1       0.475  -0.474   2.003  0.00  0.00     0.002 A 
ATOM      3  C3  N4B d   1       1.426  -1.328   2.506  0.00  0.00     0.002 A 
ATOM      4  C4  N4B d   1       2.326  -1.937   1.644  0.00  0.00    -0.004 A 
ATOM      5  C5  N4B d   1       2.291  -1.653   0.310  0.00  0.00     0.002 A 
ATOM      6  C6  N4B d   1       1.344  -0.794  -0.208  0.00  0.00     0.002 A 
ENDROOT
BRANCH   1   7
ATOM      7  C1' N4B d   1      -0.645   0.653   0.010  0.00  0.00     0.057 C 
BRANCH   7   8
ATOM      8  C2' N4B d   1      -0.383   0.800  -1.486  0.00  0.00     0.009 C 
BRANCH   8   9
ATOM      9  C3' N4B d   1      -0.140   2.246  -1.881  0.00  0.00     0.004 C 
ATOM     10  C4' N4B d   1      -1.287   2.841  -2.642  0.00  0.00     0.003 C 
ENDBRANCH   8   9
ENDBRANCH   7   8
ENDBRANCH   1   7
TORSDOF 3
ENDMDL
