MODEL 1
REMARK minimizedAffinity -2.13860893
REMARK minimizedRMSD -1
REMARK  3 active torsions:
REMARK  status: ('A' for Active; 'I' for Inactive)
REMARK    1  A    between atoms: C3'_2  and  C2'_3 
REMARK    2  A    between atoms: C2'_3  and  C1'_4 
REMARK    3  A    between atoms: C1'_4  and  C1_5 
ROOT
ATOM      1  C1  N4B d   1      -0.246   0.930  -1.530  0.00  0.00    -0.075 A 
ATOM      2  C2  N4B d   1      -1.513   1.304  -2.028  0.00  0.00     0.002 A 
ATOM      3  C3  N4B d   1      -1.716   2.577  -2.501  0.00  0.00     0.002 A 
ATOM      4  C4  N4B d   1      -0.677   3.495  -2.468  0.00  0.00    -0.004 A 
ATOM      5  C5  N4B d   1       0.551   3.118  -2.009  0.00  0.00     0.002 A 
ATOM      6  C6  N4B d   1       0.771   1.840  -1.534  0.00  0.00     0.002 A 
ENDROOT
BRANCH   1   7
ATOM      7  C1' N4B d   1       0.001  -0.425  -0.923  0.00  0.00     0.057 C 
BRANCH   7   8
ATOM      8  C2' N4B d   1      -1.237  -0.857  -0.143  0.00  0.00     0.009 C 
BRANCH   8   9
ATOM      9  C3' N4B d   1      -1.028  -0.751   1.358  0.00  0.00     0.004 C 
ATOM     10  C4' N4B d   1      -1.310   0.623   1.888  0.00  0.00     0.003 C 
ENDBRANCH   8   9
ENDBRANCH   7   8
ENDBRANCH   1   7
TORSDOF 3
ENDMDL
