MODEL 1
REMARK minimizedAffinity 2.25930715
REMARK minimizedRMSD -1
REMARK  3 active torsions:
REMARK  status: ('A' for Active; 'I' for Inactive)
REMARK    1  A    between atoms: C3'_2  and  C2'_3 
REMARK    2  A    between atoms: C2'_3  and  C1'_4 
REMARK    3  A    between atoms: C1'_4  and  C1_5 
ROOT
ATOM      1  C1  N4B d   1      -0.084   0.170   0.247  0.00  0.00    -0.075 A 
ATOM      2  C2  N4B d   1       0.865  -0.843   0.506  0.00  0.00     0.002 A 
ATOM      3  C3  N4B d   1       0.798  -1.564   1.673  0.00  0.00     0.002 A 
ATOM      4  C4  N4B d   1      -0.193  -1.279   2.600  0.00  0.00    -0.004 A 
ATOM      5  C5  N4B d   1      -1.121  -0.316   2.331  0.00  0.00     0.002 A 
ATOM      6  C6  N4B d   1      -1.068   0.414   1.161  0.00  0.00     0.002 A 
ENDROOT
BRANCH   1   7
ATOM      7  C1' N4B d   1       0.000   1.044  -0.975  0.00  0.00     0.057 C 
BRANCH   7   8
ATOM      8  C2' N4B d   1      -1.322   1.784  -1.153  0.00  0.00     0.009 C 
BRANCH   8   9
ATOM      9  C3' N4B d   1      -1.161   3.041  -1.990  0.00  0.00     0.004 C 
ATOM     10  C4' N4B d   1       0.107   3.047  -2.791  0.00  0.00     0.003 C 
ENDBRANCH   8   9
ENDBRANCH   7   8
ENDBRANCH   1   7
TORSDOF 3
ENDMDL
