MODEL 1
REMARK minimizedAffinity 20.0607452
REMARK minimizedRMSD -1
REMARK  0 active torsions:
REMARK  status: ('A' for Active; 'I' for Inactive)
ROOT
ATOM      1  C   UNL d   1      -1.796   2.017  -4.151  0.00  0.00     0.124 A 
ATOM      2  C1  UNL d   1      -1.873   0.760  -3.566  0.00  0.00     0.062 A 
ATOM      3  C2  UNL d   1      -0.743   0.186  -2.991  0.00  0.00     0.162 A 
ATOM      4  C3  UNL d   1       0.474   0.867  -2.998  0.00  0.00    -0.034 A 
ATOM      5  C4  UNL d   1       0.544   2.130  -3.590  0.00  0.00     0.162 A 
ATOM      6  C5  UNL d   1      -0.588   2.700  -4.162  0.00  0.00     0.062 A 
ATOM      7  F   UNL d   1      -0.512   3.914  -4.727  0.00  0.00    -0.097 F 
ATOM      8  F1  UNL d   1       1.698   2.813  -3.614  0.00  0.00    -0.096 F 
ATOM      9  I   UNL d   1       2.166   0.011  -2.140  0.00  0.00    -0.060 I 
ATOM     10  F2  UNL d   1      -0.846  -1.030  -2.433  0.00  0.00    -0.096 F 
ATOM     11  F3  UNL d   1      -3.038   0.098  -3.555  0.00  0.00    -0.097 F 
ATOM     12  F4  UNL d   1      -2.884   2.567  -4.704  0.00  0.00    -0.092 F 
ENDROOT
TORSDOF 0
ENDMDL
