MODEL 1
REMARK minimizedAffinity 31.5690632
REMARK minimizedRMSD -1
REMARK  0 active torsions:
REMARK  status: ('A' for Active; 'I' for Inactive)
ROOT
ATOM      1  C   UNL d   1      -0.423   2.546  -4.142  0.00  0.00     0.124 A 
ATOM      2  C1  UNL d   1       0.670   1.822  -3.687  0.00  0.00     0.062 A 
ATOM      3  C2  UNL d   1       0.481   0.629  -2.996  0.00  0.00     0.162 A 
ATOM      4  C3  UNL d   1      -0.807   0.151  -2.755  0.00  0.00    -0.034 A 
ATOM      5  C4  UNL d   1      -1.902   0.885  -3.214  0.00  0.00     0.162 A 
ATOM      6  C5  UNL d   1      -1.708   2.077  -3.905  0.00  0.00     0.062 A 
ATOM      7  F   UNL d   1      -2.766   2.775  -4.343  0.00  0.00    -0.097 F 
ATOM      8  F1  UNL d   1      -3.154   0.455  -3.000  0.00  0.00    -0.096 F 
ATOM      9  I   UNL d   1      -1.094  -1.633  -1.721  0.00  0.00    -0.060 I 
ATOM     10  F2  UNL d   1       1.556  -0.050  -2.568  0.00  0.00    -0.096 F 
ATOM     11  F3  UNL d   1       1.912   2.273  -3.914  0.00  0.00    -0.097 F 
ATOM     12  F4  UNL d   1      -0.239   3.694  -4.806  0.00  0.00    -0.092 F 
ENDROOT
TORSDOF 0
ENDMDL
