MODEL 1
REMARK minimizedAffinity 23.0502033
REMARK minimizedRMSD -1
REMARK  0 active torsions:
REMARK  status: ('A' for Active; 'I' for Inactive)
ROOT
ATOM      1  C   UNL d   1      -1.716   2.323  -4.123  0.00  0.00     0.124 A 
ATOM      2  C1  UNL d   1      -0.417   2.759  -4.346  0.00  0.00     0.062 A 
ATOM      3  C2  UNL d   1       0.661   1.939  -4.029  0.00  0.00     0.162 A 
ATOM      4  C3  UNL d   1       0.446   0.672  -3.487  0.00  0.00    -0.034 A 
ATOM      5  C4  UNL d   1      -0.863   0.240  -3.264  0.00  0.00     0.162 A 
ATOM      6  C5  UNL d   1      -1.937   1.064  -3.582  0.00  0.00     0.062 A 
ATOM      7  F   UNL d   1      -3.191   0.641  -3.366  0.00  0.00    -0.097 F 
ATOM      8  F1  UNL d   1      -1.105  -0.972  -2.744  0.00  0.00    -0.096 F 
ATOM      9  I   UNL d   1       2.056  -0.559  -3.013  0.00  0.00    -0.060 I 
ATOM     10  F2  UNL d   1       1.905   2.386  -4.256  0.00  0.00    -0.096 F 
ATOM     11  F3  UNL d   1      -0.201   3.976  -4.867  0.00  0.00    -0.097 F 
ATOM     12  F4  UNL d   1      -2.752   3.115  -4.427  0.00  0.00    -0.092 F 
ENDROOT
TORSDOF 0
ENDMDL
