MODEL 1
REMARK minimizedAffinity 27.1433907
REMARK minimizedRMSD -1
REMARK  0 active torsions:
REMARK  status: ('A' for Active; 'I' for Inactive)
ROOT
ATOM      1  C   UNL d   1      -0.549  -4.295  -0.215  0.00  0.00     0.124 A 
ATOM      2  C1  UNL d   1      -0.670  -4.459  -1.588  0.00  0.00     0.062 A 
ATOM      3  C2  UNL d   1      -1.114  -3.406  -2.383  0.00  0.00     0.162 A 
ATOM      4  C3  UNL d   1      -1.440  -2.179  -1.806  0.00  0.00    -0.034 A 
ATOM      5  C4  UNL d   1      -1.317  -2.022  -0.424  0.00  0.00     0.162 A 
ATOM      6  C5  UNL d   1      -0.872  -3.077   0.365  0.00  0.00     0.062 A 
ATOM      7  F   UNL d   1      -0.756  -2.917   1.692  0.00  0.00    -0.097 F 
ATOM      8  F1  UNL d   1      -1.621  -0.855   0.163  0.00  0.00    -0.096 F 
ATOM      9  I   UNL d   1      -2.104  -0.601  -2.990  0.00  0.00    -0.060 I 
ATOM     10  F2  UNL d   1      -1.221  -3.593  -3.707  0.00  0.00    -0.096 F 
ATOM     11  F3  UNL d   1      -0.358  -5.636  -2.152  0.00  0.00    -0.097 F 
ATOM     12  F4  UNL d   1      -0.122  -5.311   0.547  0.00  0.00    -0.092 F 
ENDROOT
TORSDOF 0
ENDMDL
