MODEL 1
REMARK minimizedAffinity 21.7491341
REMARK minimizedRMSD -1
REMARK  0 active torsions:
REMARK  status: ('A' for Active; 'I' for Inactive)
ROOT
ATOM      1  C   UNL d   1      -1.549   1.984  -4.167  0.00  0.00     0.124 A 
ATOM      2  C1  UNL d   1      -1.623   0.750  -3.534  0.00  0.00     0.062 A 
ATOM      3  C2  UNL d   1      -0.460   0.097  -3.136  0.00  0.00     0.162 A 
ATOM      4  C3  UNL d   1       0.788   0.677  -3.368  0.00  0.00    -0.034 A 
ATOM      5  C4  UNL d   1       0.854   1.916  -4.006  0.00  0.00     0.162 A 
ATOM      6  C5  UNL d   1      -0.311   2.565  -4.402  0.00  0.00     0.062 A 
ATOM      7  F   UNL d   1      -0.237   3.756  -5.014  0.00  0.00    -0.097 F 
ATOM      8  F1  UNL d   1       2.037   2.502  -4.245  0.00  0.00    -0.096 F 
ATOM      9  I   UNL d   1       2.528  -0.297  -2.773  0.00  0.00    -0.060 I 
ATOM     10  F2  UNL d   1      -0.561  -1.093  -2.526  0.00  0.00    -0.096 F 
ATOM     11  F3  UNL d   1      -2.817   0.186  -3.307  0.00  0.00    -0.097 F 
ATOM     12  F4  UNL d   1      -2.669   2.609  -4.551  0.00  0.00    -0.092 F 
ENDROOT
TORSDOF 0
ENDMDL
