MODEL 1
REMARK minimizedAffinity 33.422226
REMARK minimizedRMSD -1
REMARK  0 active torsions:
REMARK  status: ('A' for Active; 'I' for Inactive)
ROOT
ATOM      1  C   UNL d   1      -2.526  -2.305   1.321  0.00  0.00     0.124 A 
ATOM      2  C1  UNL d   1      -2.545  -2.782   2.624  0.00  0.00     0.062 A 
ATOM      3  C2  UNL d   1      -1.716  -3.837   2.995  0.00  0.00     0.162 A 
ATOM      4  C3  UNL d   1      -0.860  -4.422   2.062  0.00  0.00    -0.034 A 
ATOM      5  C4  UNL d   1      -0.848  -3.937   0.753  0.00  0.00     0.162 A 
ATOM      6  C5  UNL d   1      -1.678  -2.883   0.387  0.00  0.00     0.062 A 
ATOM      7  F   UNL d   1      -1.658  -2.423  -0.873  0.00  0.00    -0.097 F 
ATOM      8  F1  UNL d   1      -0.037  -4.476  -0.170  0.00  0.00    -0.096 F 
ATOM      9  I   UNL d   1       0.380  -5.999   2.614  0.00  0.00    -0.060 I 
ATOM     10  F2  UNL d   1      -1.756  -4.278   4.262  0.00  0.00    -0.096 F 
ATOM     11  F3  UNL d   1      -3.365  -2.226   3.528  0.00  0.00    -0.097 F 
ATOM     12  F4  UNL d   1      -3.325  -1.291   0.966  0.00  0.00    -0.092 F 
ENDROOT
TORSDOF 0
ENDMDL
