MODEL 1
REMARK minimizedAffinity 29.553009
REMARK minimizedRMSD -1
REMARK  0 active torsions:
REMARK  status: ('A' for Active; 'I' for Inactive)
ROOT
ATOM      1  C   UNL d   1      -0.772   2.724  -4.194  0.00  0.00     0.124 A 
ATOM      2  C1  UNL d   1       0.376   2.057  -3.789  0.00  0.00     0.062 A 
ATOM      3  C2  UNL d   1       0.281   0.827  -3.143  0.00  0.00     0.162 A 
ATOM      4  C3  UNL d   1      -0.968   0.256  -2.898  0.00  0.00    -0.034 A 
ATOM      5  C4  UNL d   1      -2.118   0.934  -3.307  0.00  0.00     0.162 A 
ATOM      6  C5  UNL d   1      -2.017   2.162  -3.952  0.00  0.00     0.062 A 
ATOM      7  F   UNL d   1      -3.128   2.805  -4.342  0.00  0.00    -0.097 F 
ATOM      8  F1  UNL d   1      -3.334   0.413  -3.087  0.00  0.00    -0.096 F 
ATOM      9  I   UNL d   1      -1.115  -1.581  -1.933  0.00  0.00    -0.060 I 
ATOM     10  F2  UNL d   1       1.407   0.205  -2.764  0.00  0.00    -0.096 F 
ATOM     11  F3  UNL d   1       1.581   2.598  -4.021  0.00  0.00    -0.097 F 
ATOM     12  F4  UNL d   1      -0.677   3.907  -4.814  0.00  0.00    -0.092 F 
ENDROOT
TORSDOF 0
ENDMDL
