MODEL 1
REMARK minimizedAffinity 13.0226822
REMARK minimizedRMSD -1
REMARK  0 active torsions:
REMARK  status: ('A' for Active; 'I' for Inactive)
ROOT
ATOM      1  C   UNL d   1       4.131   3.244   0.277  0.00  0.00     0.124 A 
ATOM      2  C1  UNL d   1       3.704   2.309   1.209  0.00  0.00     0.062 A 
ATOM      3  C2  UNL d   1       3.905   2.533   2.568  0.00  0.00     0.162 A 
ATOM      4  C3  UNL d   1       4.535   3.699   3.003  0.00  0.00    -0.034 A 
ATOM      5  C4  UNL d   1       4.962   4.635   2.060  0.00  0.00     0.162 A 
ATOM      6  C5  UNL d   1       4.759   4.406   0.703  0.00  0.00     0.062 A 
ATOM      7  F   UNL d   1       5.172   5.310  -0.197  0.00  0.00    -0.097 F 
ATOM      8  F1  UNL d   1       5.572   5.766   2.443  0.00  0.00    -0.096 F 
ATOM      9  I   UNL d   1       4.838   4.038   5.034  0.00  0.00    -0.060 I 
ATOM     10  F2  UNL d   1       3.482   1.612   3.447  0.00  0.00    -0.096 F 
ATOM     11  F3  UNL d   1       3.097   1.185   0.801  0.00  0.00    -0.097 F 
ATOM     12  F4  UNL d   1       3.937   3.025  -1.030  0.00  0.00    -0.092 F 
ENDROOT
TORSDOF 0
ENDMDL
