MODEL 1
REMARK minimizedAffinity 13.3397331
REMARK minimizedRMSD -1
REMARK  0 active torsions:
REMARK  status: ('A' for Active; 'I' for Inactive)
ROOT
ATOM      1  C   UNL d   1      -1.744   3.807  -5.343  0.00  0.00     0.124 A 
ATOM      2  C1  UNL d   1      -0.362   3.685  -5.296  0.00  0.00     0.062 A 
ATOM      3  C2  UNL d   1       0.224   2.622  -4.615  0.00  0.00     0.162 A 
ATOM      4  C3  UNL d   1      -0.571   1.670  -3.977  0.00  0.00    -0.034 A 
ATOM      5  C4  UNL d   1      -1.960   1.800  -4.028  0.00  0.00     0.162 A 
ATOM      6  C5  UNL d   1      -2.541   2.864  -4.710  0.00  0.00     0.062 A 
ATOM      7  F   UNL d   1      -3.877   2.980  -4.754  0.00  0.00    -0.097 F 
ATOM      8  F1  UNL d   1      -2.755   0.903  -3.426  0.00  0.00    -0.096 F 
ATOM      9  I   UNL d   1       0.301   0.079  -2.959  0.00  0.00    -0.060 I 
ATOM     10  F2  UNL d   1       1.562   2.529  -4.586  0.00  0.00    -0.096 F 
ATOM     11  F3  UNL d   1       0.411   4.595  -5.906  0.00  0.00    -0.097 F 
ATOM     12  F4  UNL d   1      -2.305   4.831  -5.998  0.00  0.00    -0.092 F 
ENDROOT
TORSDOF 0
ENDMDL
