MODEL 1
REMARK minimizedAffinity 15.2012577
REMARK minimizedRMSD -1
REMARK  0 active torsions:
REMARK  status: ('A' for Active; 'I' for Inactive)
ROOT
ATOM      1  C   UNL d   1      -1.476  -2.563   0.001  0.00  0.00     0.124 A 
ATOM      2  C1  UNL d   1      -0.930  -3.816  -0.237  0.00  0.00     0.062 A 
ATOM      3  C2  UNL d   1      -0.970  -4.796   0.750  0.00  0.00     0.162 A 
ATOM      4  C3  UNL d   1      -1.560  -4.527   1.985  0.00  0.00    -0.034 A 
ATOM      5  C4  UNL d   1      -2.106  -3.264   2.218  0.00  0.00     0.162 A 
ATOM      6  C5  UNL d   1      -2.063  -2.288   1.228  0.00  0.00     0.062 A 
ATOM      7  F   UNL d   1      -2.591  -1.077   1.460  0.00  0.00    -0.097 F 
ATOM      8  F1  UNL d   1      -2.681  -2.971   3.394  0.00  0.00    -0.096 F 
ATOM      9  I   UNL d   1      -1.622  -5.990   3.464  0.00  0.00    -0.060 I 
ATOM     10  F2  UNL d   1      -0.435  -5.999   0.492  0.00  0.00    -0.096 F 
ATOM     11  F3  UNL d   1      -0.361  -4.084  -1.422  0.00  0.00    -0.097 F 
ATOM     12  F4  UNL d   1      -1.435  -1.621  -0.951  0.00  0.00    -0.092 F 
ENDROOT
TORSDOF 0
ENDMDL
