MODEL 1
REMARK minimizedAffinity 26.7120132
REMARK minimizedRMSD -1
REMARK  0 active torsions:
REMARK  status: ('A' for Active; 'I' for Inactive)
ROOT
ATOM      1  C   UNL d   1      -1.368  -2.795   0.173  0.00  0.00     0.124 A 
ATOM      2  C1  UNL d   1      -0.736  -4.027   0.274  0.00  0.00     0.062 A 
ATOM      3  C2  UNL d   1      -0.830  -4.767   1.449  0.00  0.00     0.162 A 
ATOM      4  C3  UNL d   1      -1.561  -4.279   2.532  0.00  0.00    -0.034 A 
ATOM      5  C4  UNL d   1      -2.193  -3.039   2.423  0.00  0.00     0.162 A 
ATOM      6  C5  UNL d   1      -2.096  -2.302   1.247  0.00  0.00     0.062 A 
ATOM      7  F   UNL d   1      -2.707  -1.113   1.150  0.00  0.00    -0.097 F 
ATOM      8  F1  UNL d   1      -2.904  -2.539   3.445  0.00  0.00    -0.096 F 
ATOM      9  I   UNL d   1      -1.705  -5.383   4.291  0.00  0.00    -0.060 I 
ATOM     10  F2  UNL d   1      -0.210  -5.954   1.519  0.00  0.00    -0.096 F 
ATOM     11  F3  UNL d   1      -0.031  -4.505  -0.761  0.00  0.00    -0.097 F 
ATOM     12  F4  UNL d   1      -1.274  -2.085  -0.958  0.00  0.00    -0.092 F 
ENDROOT
TORSDOF 0
ENDMDL
