MODEL 1
REMARK minimizedAffinity 26.1028996
REMARK minimizedRMSD -1
REMARK  0 active torsions:
REMARK  status: ('A' for Active; 'I' for Inactive)
ROOT
ATOM      1  C   UNL d   1       2.591  -0.386  -1.569  0.00  0.00     0.124 A 
ATOM      2  C1  UNL d   1       2.776   0.951  -1.248  0.00  0.00     0.062 A 
ATOM      3  C2  UNL d   1       2.097   1.941  -1.954  0.00  0.00     0.162 A 
ATOM      4  C3  UNL d   1       1.227   1.596  -2.988  0.00  0.00    -0.034 A 
ATOM      5  C4  UNL d   1       1.048   0.249  -3.306  0.00  0.00     0.162 A 
ATOM      6  C5  UNL d   1       1.728  -0.736  -2.597  0.00  0.00     0.062 A 
ATOM      7  F   UNL d   1       1.549  -2.028  -2.909  0.00  0.00    -0.097 F 
ATOM      8  F1  UNL d   1       0.219  -0.118  -4.295  0.00  0.00    -0.096 F 
ATOM      9  I   UNL d   1       0.211   3.072  -4.046  0.00  0.00    -0.060 I 
ATOM     10  F2  UNL d   1       2.294   3.225  -1.621  0.00  0.00    -0.096 F 
ATOM     11  F3  UNL d   1       3.610   1.292  -0.255  0.00  0.00    -0.097 F 
ATOM     12  F4  UNL d   1       3.246  -1.336  -0.888  0.00  0.00    -0.092 F 
ENDROOT
TORSDOF 0
ENDMDL
