MODEL 1
REMARK minimizedAffinity 29.4049168
REMARK minimizedRMSD -1
REMARK  0 active torsions:
REMARK  status: ('A' for Active; 'I' for Inactive)
ROOT
ATOM      1  C   UNL d   1      -2.293  -2.095   1.443  0.00  0.00     0.124 A 
ATOM      2  C1  UNL d   1      -2.349  -2.682   2.699  0.00  0.00     0.062 A 
ATOM      3  C2  UNL d   1      -1.567  -3.797   2.986  0.00  0.00     0.162 A 
ATOM      4  C3  UNL d   1      -0.721  -4.332   2.014  0.00  0.00    -0.034 A 
ATOM      5  C4  UNL d   1      -0.672  -3.737   0.752  0.00  0.00     0.162 A 
ATOM      6  C5  UNL d   1      -1.455  -2.622   0.471  0.00  0.00     0.062 A 
ATOM      7  F   UNL d   1      -1.400  -2.056  -0.743  0.00  0.00    -0.097 F 
ATOM      8  F1  UNL d   1       0.130  -4.225  -0.205  0.00  0.00    -0.096 F 
ATOM      9  I   UNL d   1       0.450  -6.000   2.438  0.00  0.00    -0.060 I 
ATOM     10  F2  UNL d   1      -1.640  -4.344   4.208  0.00  0.00    -0.096 F 
ATOM     11  F3  UNL d   1      -3.158  -2.175   3.640  0.00  0.00    -0.097 F 
ATOM     12  F4  UNL d   1      -3.048  -1.022   1.170  0.00  0.00    -0.092 F 
ENDROOT
TORSDOF 0
ENDMDL
