MODEL 1
REMARK minimizedAffinity 28.2489872
REMARK minimizedRMSD -1
REMARK  0 active torsions:
REMARK  status: ('A' for Active; 'I' for Inactive)
ROOT
ATOM      1  C   UNL d   1       3.449   3.373  -0.421  0.00  0.00     0.124 A 
ATOM      2  C1  UNL d   1       4.102   4.554  -0.097  0.00  0.00     0.062 A 
ATOM      3  C2  UNL d   1       4.406   4.845   1.229  0.00  0.00     0.162 A 
ATOM      4  C3  UNL d   1       4.059   3.952   2.243  0.00  0.00    -0.034 A 
ATOM      5  C4  UNL d   1       3.401   2.767   1.910  0.00  0.00     0.162 A 
ATOM      6  C5  UNL d   1       3.099   2.480   0.583  0.00  0.00     0.062 A 
ATOM      7  F   UNL d   1       2.468   1.339   0.272  0.00  0.00    -0.097 F 
ATOM      8  F1  UNL d   1       3.052   1.886   2.860  0.00  0.00    -0.096 F 
ATOM      9  I   UNL d   1       4.512   4.384   4.228  0.00  0.00    -0.060 I 
ATOM     10  F2  UNL d   1       5.038   5.994   1.513  0.00  0.00    -0.096 F 
ATOM     11  F3  UNL d   1       4.440   5.418  -1.065  0.00  0.00    -0.097 F 
ATOM     12  F4  UNL d   1       3.157   3.096  -1.698  0.00  0.00    -0.092 F 
ENDROOT
TORSDOF 0
ENDMDL
