MODEL 1
REMARK minimizedAffinity 18.8009224
REMARK minimizedRMSD -1
REMARK  0 active torsions:
REMARK  status: ('A' for Active; 'I' for Inactive)
ROOT
ATOM      1  C   UNL d   1      -1.718  -4.320   2.318  0.00  0.00     0.124 A 
ATOM      2  C1  UNL d   1      -2.381  -3.119   2.107  0.00  0.00     0.062 A 
ATOM      3  C2  UNL d   1      -2.224  -2.434   0.905  0.00  0.00     0.162 A 
ATOM      4  C3  UNL d   1      -1.401  -2.950  -0.096  0.00  0.00    -0.034 A 
ATOM      5  C4  UNL d   1      -0.736  -4.158   0.125  0.00  0.00     0.162 A 
ATOM      6  C5  UNL d   1      -0.897  -4.838   1.327  0.00  0.00     0.062 A 
ATOM      7  F   UNL d   1      -0.256  -5.998   1.530  0.00  0.00    -0.097 F 
ATOM      8  F1  UNL d   1       0.063  -4.682  -0.817  0.00  0.00    -0.096 F 
ATOM      9  I   UNL d   1      -1.163  -1.930  -1.894  0.00  0.00    -0.060 I 
ATOM     10  F2  UNL d   1      -2.877  -1.276   0.729  0.00  0.00    -0.096 F 
ATOM     11  F3  UNL d   1      -3.175  -2.615   3.063  0.00  0.00    -0.097 F 
ATOM     12  F4  UNL d   1      -1.871  -4.976   3.476  0.00  0.00    -0.092 F 
ENDROOT
TORSDOF 0
ENDMDL
