MODEL 1
REMARK minimizedAffinity 16.7616081
REMARK minimizedRMSD -1
REMARK  0 active torsions:
REMARK  status: ('A' for Active; 'I' for Inactive)
ROOT
ATOM      1  C   UNL d   1      -1.443  -3.526   1.526  0.00  0.00     0.124 A 
ATOM      2  C1  UNL d   1      -0.821  -4.339   0.588  0.00  0.00     0.062 A 
ATOM      3  C2  UNL d   1      -0.794  -3.967  -0.753  0.00  0.00     0.162 A 
ATOM      4  C3  UNL d   1      -1.392  -2.776  -1.165  0.00  0.00    -0.034 A 
ATOM      5  C4  UNL d   1      -2.018  -1.965  -0.216  0.00  0.00     0.162 A 
ATOM      6  C5  UNL d   1      -2.041  -2.341   1.123  0.00  0.00     0.062 A 
ATOM      7  F   UNL d   1      -2.644  -1.555   2.027  0.00  0.00    -0.097 F 
ATOM      8  F1  UNL d   1      -2.602  -0.813  -0.578  0.00  0.00    -0.096 F 
ATOM      9  I   UNL d   1      -1.355  -2.217  -3.169  0.00  0.00    -0.060 I 
ATOM     10  F2  UNL d   1      -0.185  -4.771  -1.637  0.00  0.00    -0.096 F 
ATOM     11  F3  UNL d   1      -0.243  -5.485   0.975  0.00  0.00    -0.097 F 
ATOM     12  F4  UNL d   1      -1.468  -3.887   2.815  0.00  0.00    -0.092 F 
ENDROOT
TORSDOF 0
ENDMDL
