MODEL 1
REMARK minimizedAffinity -2.9038806
REMARK minimizedRMSD -1
REMARK  1 active torsions:
REMARK  status: ('A' for Active; 'I' for Inactive)
REMARK    1  A    between atoms: C1_2  and  C2_3 
ROOT
ATOM      1  C2  UNL d   1       3.031   0.905  -0.435  0.00  0.00    -0.081 A 
ATOM      2  C3  UNL d   1       3.393  -0.444  -0.540  0.00  0.00     0.006 A 
ATOM      3  C4  UNL d   1       2.421  -1.445  -0.474  0.00  0.00     0.002 A 
ATOM      4  C5  UNL d   1       1.071  -1.114  -0.310  0.00  0.00    -0.080 A 
ATOM      5  C6  UNL d   1       0.015  -2.178  -0.269  0.00  0.00     0.076 C 
ATOM      6  C7  UNL d   1       0.712   0.232  -0.188  0.00  0.00     0.002 A 
ATOM      7  C8  UNL d   1       1.683   1.233  -0.253  0.00  0.00     0.006 A 
ENDROOT
BRANCH   1   8
ATOM      8  C1  UNL d   1       4.069   1.990  -0.570  0.00  0.00     0.054 C 
ATOM      9  C   UNL d   1       5.453   1.405  -0.809  0.00  0.00     0.018 C 
ENDBRANCH   1   8
TORSDOF 1
ENDMDL
