MODEL 1
REMARK minimizedAffinity 1.01059151
REMARK minimizedRMSD -1
REMARK  1 active torsions:
REMARK  status: ('A' for Active; 'I' for Inactive)
REMARK    1  A    between atoms: C1_2  and  C2_3 
ROOT
ATOM      1  C2  UNL d   1       3.173  -1.621  -1.049  0.00  0.00    -0.081 A 
ATOM      2  C3  UNL d   1       3.364  -2.148  -2.332  0.00  0.00     0.006 A 
ATOM      3  C4  UNL d   1       4.250  -1.539  -3.223  0.00  0.00     0.002 A 
ATOM      4  C5  UNL d   1       4.967  -0.399  -2.844  0.00  0.00    -0.080 A 
ATOM      5  C6  UNL d   1       5.945   0.247  -3.780  0.00  0.00     0.076 C 
ATOM      6  C7  UNL d   1       4.764   0.138  -1.568  0.00  0.00     0.002 A 
ATOM      7  C8  UNL d   1       3.877  -0.470  -0.677  0.00  0.00     0.006 A 
ENDROOT
BRANCH   1   8
ATOM      8  C1  UNL d   1       2.266  -2.313  -0.063  0.00  0.00     0.054 C 
ATOM      9  C   UNL d   1       0.803  -2.147  -0.447  0.00  0.00     0.018 C 
ENDBRANCH   1   8
TORSDOF 1
ENDMDL
