MODEL 1
REMARK minimizedAffinity -2.61245418
REMARK minimizedRMSD -1
REMARK  1 active torsions:
REMARK  status: ('A' for Active; 'I' for Inactive)
REMARK    1  A    between atoms: C1_2  and  C2_3 
ROOT
ATOM      1  C2  UNL d   1       2.168   0.569  -0.331  0.00  0.00    -0.081 A 
ATOM      2  C3  UNL d   1       2.655  -0.742  -0.414  0.00  0.00     0.006 A 
ATOM      3  C4  UNL d   1       1.778  -1.811  -0.610  0.00  0.00     0.002 A 
ATOM      4  C5  UNL d   1       0.402  -1.588  -0.734  0.00  0.00    -0.080 A 
ATOM      5  C6  UNL d   1      -0.547  -2.724  -0.975  0.00  0.00     0.076 C 
ATOM      6  C7  UNL d   1      -0.085  -0.280  -0.634  0.00  0.00     0.002 A 
ATOM      7  C8  UNL d   1       0.791   0.789  -0.437  0.00  0.00     0.006 A 
ENDROOT
BRANCH   1   8
ATOM      8  C1  UNL d   1       3.118   1.730  -0.184  0.00  0.00     0.054 C 
ATOM      9  C   UNL d   1       4.287   1.615  -1.152  0.00  0.00     0.018 C 
ENDBRANCH   1   8
TORSDOF 1
ENDMDL
