MODEL 1
REMARK minimizedAffinity 1.84154201
REMARK minimizedRMSD -1
REMARK  1 active torsions:
REMARK  status: ('A' for Active; 'I' for Inactive)
REMARK    1  A    between atoms: C1_2  and  C2_3 
ROOT
ATOM      1  C2  UNL d   1       0.612   0.866   0.647  0.00  0.00    -0.081 A 
ATOM      2  C3  UNL d   1      -0.021   1.432  -0.466  0.00  0.00     0.006 A 
ATOM      3  C4  UNL d   1      -0.457   0.624  -1.520  0.00  0.00     0.002 A 
ATOM      4  C5  UNL d   1      -0.274  -0.762  -1.474  0.00  0.00    -0.080 A 
ATOM      5  C6  UNL d   1      -0.764  -1.644  -2.584  0.00  0.00     0.076 C 
ATOM      6  C7  UNL d   1       0.374  -1.326  -0.370  0.00  0.00     0.002 A 
ATOM      7  C8  UNL d   1       0.811  -0.519   0.683  0.00  0.00     0.006 A 
ENDROOT
BRANCH   1   8
ATOM      8  C1  UNL d   1       1.025   1.727   1.813  0.00  0.00     0.054 C 
ATOM      9  C   UNL d   1      -0.176   2.414   2.447  0.00  0.00     0.018 C 
ENDBRANCH   1   8
TORSDOF 1
ENDMDL
