MODEL 1
REMARK minimizedAffinity -4.95925856
REMARK minimizedRMSD -1
REMARK  0 active torsions:
REMARK  status: ('A' for Active; 'I' for Inactive)
ROOT
ATOM      1  C2' OXE d   1      -2.350   0.178  -0.155  0.00  0.00     0.078 C 
ATOM      2  C1' OXE d   1       0.278  -0.319  -1.007  0.00  0.00     0.078 C 
ATOM      3  C1  OXE d   1       0.078   0.181   0.402  0.00  0.00    -0.078 A 
ATOM      4  C2  OXE d   1      -1.207   0.466   0.795  0.00  0.00    -0.078 A 
ATOM      5  C3  OXE d   1      -1.453   0.878   2.102  0.00  0.00     0.003 A 
ATOM      6  C4  OXE d   1      -0.390   1.151   2.971  0.00  0.00    -0.002 A 
ATOM      7  C5  OXE d   1       0.929   0.906   2.577  0.00  0.00    -0.002 A 
ATOM      8  C6  OXE d   1       1.177   0.381   1.314  0.00  0.00     0.003 A 
ENDROOT
TORSDOF 0
ENDMDL
