MODEL 1
REMARK minimizedAffinity -5.53995991
REMARK minimizedRMSD -1
REMARK  0 active torsions:
REMARK  status: ('A' for Active; 'I' for Inactive)
ROOT
ATOM      1  C2' OXE d   1      -2.147  -0.128  -0.300  0.00  0.00     0.078 C 
ATOM      2  C1' OXE d   1       0.598  -0.466  -0.781  0.00  0.00     0.078 C 
ATOM      3  C1  OXE d   1       0.187   0.218   0.499  0.00  0.00    -0.078 A 
ATOM      4  C2  OXE d   1      -1.157   0.421   0.704  0.00  0.00    -0.078 A 
ATOM      5  C3  OXE d   1      -1.594   0.997   1.893  0.00  0.00     0.003 A 
ATOM      6  C4  OXE d   1      -0.671   1.511   2.813  0.00  0.00    -0.002 A 
ATOM      7  C5  OXE d   1       0.703   1.351   2.605  0.00  0.00    -0.002 A 
ATOM      8  C6  OXE d   1       1.146   0.671   1.476  0.00  0.00     0.003 A 
ENDROOT
TORSDOF 0
ENDMDL
