MODEL 1
REMARK minimizedAffinity -2.43487501
REMARK minimizedRMSD -1
REMARK  0 active torsions:
REMARK  status: ('A' for Active; 'I' for Inactive)
ROOT
ATOM      1  C2' OXE d   1      -2.445   0.006   0.384  0.00  0.00     0.078 C 
ATOM      2  C1' OXE d   1      -1.195   0.939   2.718  0.00  0.00     0.078 C 
ATOM      3  C1  OXE d   1      -0.334   0.261   1.682  0.00  0.00    -0.078 A 
ATOM      4  C2  OXE d   1      -0.961  -0.234   0.564  0.00  0.00    -0.078 A 
ATOM      5  C3  OXE d   1      -0.206  -0.819  -0.449  0.00  0.00     0.003 A 
ATOM      6  C4  OXE d   1       1.164  -1.045  -0.270  0.00  0.00    -0.002 A 
ATOM      7  C5  OXE d   1       1.816  -0.585   0.879  0.00  0.00    -0.002 A 
ATOM      8  C6  OXE d   1       1.091   0.107   1.843  0.00  0.00     0.003 A 
ENDROOT
TORSDOF 0
ENDMDL
