MODEL 1
REMARK minimizedAffinity -4.88626051
REMARK minimizedRMSD -1
REMARK  0 active torsions:
REMARK  status: ('A' for Active; 'I' for Inactive)
ROOT
ATOM      1  C2' OXE d   1       1.733   0.891   2.171  0.00  0.00     0.078 C 
ATOM      2  C1' OXE d   1      -0.841   1.383   3.178  0.00  0.00     0.078 C 
ATOM      3  C1  OXE d   1      -0.728   0.703   1.836  0.00  0.00    -0.078 A 
ATOM      4  C2  OXE d   1       0.534   0.508   1.330  0.00  0.00    -0.078 A 
ATOM      5  C3  OXE d   1       0.696  -0.164   0.122  0.00  0.00     0.003 A 
ATOM      6  C4  OXE d   1      -0.418  -0.505  -0.654  0.00  0.00    -0.002 A 
ATOM      7  C5  OXE d   1      -1.713  -0.280  -0.175  0.00  0.00    -0.002 A 
ATOM      8  C6  OXE d   1      -1.885   0.283   1.084  0.00  0.00     0.003 A 
ENDROOT
TORSDOF 0
ENDMDL
