MODEL 1
REMARK minimizedAffinity -4.25576258
REMARK minimizedRMSD -1
REMARK  0 active torsions:
REMARK  status: ('A' for Active; 'I' for Inactive)
ROOT
ATOM      1  C2' OXE d   1      -2.607   0.693   0.636  0.00  0.00     0.078 C 
ATOM      2  C1' OXE d   1      -0.834   1.820   2.497  0.00  0.00     0.078 C 
ATOM      3  C1  OXE d   1      -0.279   0.821   1.512  0.00  0.00    -0.078 A 
ATOM      4  C2  OXE d   1      -1.163   0.239   0.636  0.00  0.00    -0.078 A 
ATOM      5  C3  OXE d   1      -0.695  -0.648  -0.329  0.00  0.00     0.003 A 
ATOM      6  C4  OXE d   1       0.640  -1.069  -0.316  0.00  0.00    -0.002 A 
ATOM      7  C5  OXE d   1       1.549  -0.519   0.594  0.00  0.00    -0.002 A 
ATOM      8  C6  OXE d   1       1.116   0.456   1.485  0.00  0.00     0.003 A 
ENDROOT
TORSDOF 0
ENDMDL
