MODEL 1
REMARK minimizedAffinity -5.75876713
REMARK minimizedRMSD -1
REMARK  0 active torsions:
REMARK  status: ('A' for Active; 'I' for Inactive)
ROOT
ATOM      1  C2' OXE d   1      -2.468  -0.444  -0.325  0.00  0.00     0.078 C 
ATOM      2  C1' OXE d   1       0.261  -0.357  -0.975  0.00  0.00     0.078 C 
ATOM      3  C1  OXE d   1      -0.179   0.310   0.304  0.00  0.00    -0.078 A 
ATOM      4  C2  OXE d   1      -1.523   0.303   0.591  0.00  0.00    -0.078 A 
ATOM      5  C3  OXE d   1      -1.975   0.855   1.786  0.00  0.00     0.003 A 
ATOM      6  C4  OXE d   1      -1.096   1.553   2.622  0.00  0.00    -0.002 A 
ATOM      7  C5  OXE d   1       0.271   1.606   2.329  0.00  0.00    -0.002 A 
ATOM      8  C6  OXE d   1       0.751   0.955   1.198  0.00  0.00     0.003 A 
ENDROOT
TORSDOF 0
ENDMDL
