MODEL 1
REMARK minimizedAffinity -3.40069318
REMARK minimizedRMSD -1
REMARK  0 active torsions:
REMARK  status: ('A' for Active; 'I' for Inactive)
ROOT
ATOM      1  C2' OXE d   1      -0.835   1.536   2.784  0.00  0.00     0.078 C 
ATOM      2  C1' OXE d   1       1.646   0.431   2.073  0.00  0.00     0.078 C 
ATOM      3  C1  OXE d   1       0.498   0.261   1.109  0.00  0.00    -0.078 A 
ATOM      4  C2  OXE d   1      -0.724   0.764   1.486  0.00  0.00    -0.078 A 
ATOM      5  C3  OXE d   1      -1.803   0.683   0.611  0.00  0.00     0.003 A 
ATOM      6  C4  OXE d   1      -1.694  -0.041  -0.583  0.00  0.00    -0.002 A 
ATOM      7  C5  OXE d   1      -0.469  -0.595  -0.968  0.00  0.00    -0.002 A 
ATOM      8  C6  OXE d   1       0.645  -0.417  -0.155  0.00  0.00     0.003 A 
ENDROOT
TORSDOF 0
ENDMDL
