MODEL 1
REMARK minimizedAffinity -1.06085682
REMARK minimizedRMSD -1
REMARK  0 active torsions:
REMARK  status: ('A' for Active; 'I' for Inactive)
ROOT
ATOM      1  C2' OXE d   1      -1.040  -0.115   2.562  0.00  0.00     0.078 C 
ATOM      2  C1' OXE d   1       1.568   0.765   2.013  0.00  0.00     0.078 C 
ATOM      3  C1  OXE d   1       0.737   0.264   0.858  0.00  0.00    -0.078 A 
ATOM      4  C2  OXE d   1      -0.521  -0.209   1.143  0.00  0.00    -0.078 A 
ATOM      5  C3  OXE d   1      -1.350  -0.632   0.108  0.00  0.00     0.003 A 
ATOM      6  C4  OXE d   1      -0.858  -0.725  -1.200  0.00  0.00    -0.002 A 
ATOM      7  C5  OXE d   1       0.434  -0.286  -1.506  0.00  0.00    -0.002 A 
ATOM      8  C6  OXE d   1       1.228   0.249  -0.498  0.00  0.00     0.003 A 
ENDROOT
TORSDOF 0
ENDMDL
