MODEL 1
REMARK minimizedAffinity -3.53956223
REMARK minimizedRMSD -1
REMARK  0 active torsions:
REMARK  status: ('A' for Active; 'I' for Inactive)
ROOT
ATOM      1  C2' OXE d   1      -2.793   0.063  -0.158  0.00  0.00     0.078 C 
ATOM      2  C1' OXE d   1      -1.661   0.831   2.293  0.00  0.00     0.078 C 
ATOM      3  C1  OXE d   1      -0.791   0.072   1.324  0.00  0.00    -0.078 A 
ATOM      4  C2  OXE d   1      -1.366  -0.341   0.146  0.00  0.00    -0.078 A 
ATOM      5  C3  OXE d   1      -0.593  -0.997  -0.807  0.00  0.00     0.003 A 
ATOM      6  C4  OXE d   1       0.723  -1.376  -0.513  0.00  0.00    -0.002 A 
ATOM      7  C5  OXE d   1       1.316  -1.000   0.697  0.00  0.00    -0.002 A 
ATOM      8  C6  OXE d   1       0.588  -0.241   1.606  0.00  0.00     0.003 A 
ENDROOT
TORSDOF 0
ENDMDL
