MODEL 1
REMARK minimizedAffinity -4.4156599
REMARK minimizedRMSD -1
REMARK  0 active torsions:
REMARK  status: ('A' for Active; 'I' for Inactive)
ROOT
ATOM      1  C2' OXE d   1      -2.199   0.104  -0.351  0.00  0.00     0.078 C 
ATOM      2  C1' OXE d   1      -1.222   0.935   2.146  0.00  0.00     0.078 C 
ATOM      3  C1  OXE d   1      -0.279   0.190   1.234  0.00  0.00    -0.078 A 
ATOM      4  C2  OXE d   1      -0.780  -0.254   0.034  0.00  0.00    -0.078 A 
ATOM      5  C3  OXE d   1       0.062  -0.899  -0.868  0.00  0.00     0.003 A 
ATOM      6  C4  OXE d   1       1.371  -1.234  -0.500  0.00  0.00    -0.002 A 
ATOM      7  C5  OXE d   1       1.888  -0.826   0.734  0.00  0.00    -0.002 A 
ATOM      8  C6  OXE d   1       1.091  -0.078   1.593  0.00  0.00     0.003 A 
ENDROOT
TORSDOF 0
ENDMDL
