MODEL 1
REMARK minimizedAffinity 2.07296586
REMARK minimizedRMSD -1
REMARK  0 active torsions:
REMARK  status: ('A' for Active; 'I' for Inactive)
ROOT
ATOM      1  C2' OXE d   1      -0.637  -0.788  -0.908  0.00  0.00     0.078 C 
ATOM      2  C1' OXE d   1       2.107  -0.918  -0.333  0.00  0.00     0.078 C 
ATOM      3  C1  OXE d   1       1.697  -0.430  -1.700  0.00  0.00    -0.078 A 
ATOM      4  C2  OXE d   1       0.354  -0.414  -1.989  0.00  0.00    -0.078 A 
ATOM      5  C3  OXE d   1      -0.081   0.079  -3.215  0.00  0.00     0.003 A 
ATOM      6  C4  OXE d   1       0.842   0.414  -4.213  0.00  0.00    -0.002 A 
ATOM      7  C5  OXE d   1       2.216   0.368  -3.953  0.00  0.00    -0.002 A 
ATOM      8  C6  OXE d   1       2.658  -0.011  -2.690  0.00  0.00     0.003 A 
ENDROOT
TORSDOF 0
ENDMDL
