MODEL 1
REMARK minimizedAffinity -2.6086781
REMARK minimizedRMSD -1
REMARK  0 active torsions:
REMARK  status: ('A' for Active; 'I' for Inactive)
ROOT
ATOM      1  C   UNL d   1       0.396  -0.989   2.906  0.00  0.00     0.020 A 
ATOM      2  C1  UNL d   1      -0.672  -0.170   2.541  0.00  0.00     0.020 A 
ATOM      3  C2  UNL d   1      -0.832   0.215   1.209  0.00  0.00     0.034 A 
ATOM      4  C3  UNL d   1       0.077  -0.217   0.237  0.00  0.00     0.017 A 
ATOM      5  C4  UNL d   1       1.148  -1.040   0.604  0.00  0.00     0.017 A 
ATOM      6  C5  UNL d   1       1.304  -1.423   1.940  0.00  0.00     0.034 A 
ATOM      7 Cl   UNL d   1       2.310  -1.614  -0.539  0.00  0.00    -0.070 Cl
ATOM      8 Cl1  UNL d   1      -0.183   0.298  -1.392  0.00  0.00    -0.070 Cl
ENDROOT
TORSDOF 0
ENDMDL
