MODEL 1
REMARK minimizedAffinity -1.75262487
REMARK minimizedRMSD -1
REMARK  0 active torsions:
REMARK  status: ('A' for Active; 'I' for Inactive)
ROOT
ATOM      1  C   UNL d   1      -2.435   2.561  -1.669  0.00  0.00     0.020 A 
ATOM      2  C1  UNL d   1      -1.768   3.640  -2.248  0.00  0.00     0.020 A 
ATOM      3  C2  UNL d   1      -0.576   3.432  -2.946  0.00  0.00     0.034 A 
ATOM      4  C3  UNL d   1      -0.048   2.142  -3.067  0.00  0.00     0.017 A 
ATOM      5  C4  UNL d   1      -0.718   1.059  -2.486  0.00  0.00     0.017 A 
ATOM      6  C5  UNL d   1      -1.911   1.273  -1.788  0.00  0.00     0.034 A 
ATOM      7 Cl   UNL d   1      -0.127  -0.562  -2.593  0.00  0.00    -0.070 Cl
ATOM      8 Cl1  UNL d   1       1.430   1.958  -3.944  0.00  0.00    -0.070 Cl
ENDROOT
TORSDOF 0
ENDMDL
