MODEL 1
REMARK minimizedAffinity -0.167178273
REMARK minimizedRMSD -1
REMARK  0 active torsions:
REMARK  status: ('A' for Active; 'I' for Inactive)
ROOT
ATOM      1  C   UNL d   1       0.151  -1.062   2.623  0.00  0.00     0.020 A 
ATOM      2  C1  UNL d   1       0.645  -1.419   1.369  0.00  0.00     0.020 A 
ATOM      3  C2  UNL d   1       0.274  -0.688   0.239  0.00  0.00     0.034 A 
ATOM      4  C3  UNL d   1      -0.593   0.404   0.360  0.00  0.00     0.017 A 
ATOM      5  C4  UNL d   1      -1.089   0.761   1.619  0.00  0.00     0.017 A 
ATOM      6  C5  UNL d   1      -0.714   0.026   2.748  0.00  0.00     0.034 A 
ATOM      7 Cl   UNL d   1      -2.163   2.096   1.847  0.00  0.00    -0.070 Cl
ATOM      8 Cl1  UNL d   1      -1.009   1.263  -1.080  0.00  0.00    -0.070 Cl
ENDROOT
TORSDOF 0
ENDMDL
