MODEL 1
REMARK minimizedAffinity -0.788685024
REMARK minimizedRMSD -1
REMARK  0 active torsions:
REMARK  status: ('A' for Active; 'I' for Inactive)
ROOT
ATOM      1  C   UNL d   1      -0.063   0.311  -1.452  0.00  0.00     0.020 A 
ATOM      2  C1  UNL d   1      -0.875   0.584  -0.352  0.00  0.00     0.020 A 
ATOM      3  C2  UNL d   1      -0.652  -0.073   0.860  0.00  0.00     0.034 A 
ATOM      4  C3  UNL d   1       0.385  -1.006   0.975  0.00  0.00     0.017 A 
ATOM      5  C4  UNL d   1       1.199  -1.279  -0.130  0.00  0.00     0.017 A 
ATOM      6  C5  UNL d   1       0.972  -0.618  -1.341  0.00  0.00     0.034 A 
ATOM      7 Cl   UNL d   1       2.498  -2.418  -0.065  0.00  0.00    -0.070 Cl
ATOM      8 Cl1  UNL d   1       0.603  -1.781   2.504  0.00  0.00    -0.070 Cl
ENDROOT
TORSDOF 0
ENDMDL
