MODEL 1
REMARK minimizedAffinity -1.9604373
REMARK minimizedRMSD -1
REMARK  0 active torsions:
REMARK  status: ('A' for Active; 'I' for Inactive)
ROOT
ATOM      1  C   UNL d   1       0.515   0.301   0.537  0.00  0.00     0.020 A 
ATOM      2  C1  UNL d   1      -0.238  -0.652  -0.147  0.00  0.00     0.020 A 
ATOM      3  C2  UNL d   1      -1.006  -0.274  -1.250  0.00  0.00     0.034 A 
ATOM      4  C3  UNL d   1      -1.023   1.060  -1.673  0.00  0.00     0.017 A 
ATOM      5  C4  UNL d   1      -0.266   2.016  -0.986  0.00  0.00     0.017 A 
ATOM      6  C5  UNL d   1       0.501   1.632   0.119  0.00  0.00     0.034 A 
ATOM      7 Cl   UNL d   1      -0.235   3.681  -1.448  0.00  0.00    -0.070 Cl
ATOM      8 Cl1  UNL d   1      -1.995   1.456  -3.045  0.00  0.00    -0.070 Cl
ENDROOT
TORSDOF 0
ENDMDL
