MODEL 1
REMARK minimizedAffinity -4.20625162
REMARK minimizedRMSD -1
REMARK  0 active torsions:
REMARK  status: ('A' for Active; 'I' for Inactive)
ROOT
ATOM      1  C   UNL d   1      -0.346  -0.141  -1.089  0.00  0.00     0.020 A 
ATOM      2  C1  UNL d   1       0.865   0.092  -0.439  0.00  0.00     0.020 A 
ATOM      3  C2  UNL d   1       1.508   1.323  -0.581  0.00  0.00     0.034 A 
ATOM      4  C3  UNL d   1       0.940   2.327  -1.375  0.00  0.00     0.017 A 
ATOM      5  C4  UNL d   1      -0.276   2.092  -2.026  0.00  0.00     0.017 A 
ATOM      6  C5  UNL d   1      -0.916   0.857  -1.881  0.00  0.00     0.034 A 
ATOM      7 Cl   UNL d   1      -1.039   3.281  -3.022  0.00  0.00    -0.070 Cl
ATOM      8 Cl1  UNL d   1       1.790   3.825  -1.505  0.00  0.00    -0.070 Cl
ENDROOT
TORSDOF 0
ENDMDL
