MODEL 1
REMARK minimizedAffinity -3.49411607
REMARK minimizedRMSD -1
REMARK  0 active torsions:
REMARK  status: ('A' for Active; 'I' for Inactive)
ROOT
ATOM      1  C   UNL d   1      -0.323  -0.794   2.593  0.00  0.00     0.020 A 
ATOM      2  C1  UNL d   1      -1.260  -0.056   1.871  0.00  0.00     0.020 A 
ATOM      3  C2  UNL d   1      -1.118   0.091   0.489  0.00  0.00     0.034 A 
ATOM      4  C3  UNL d   1      -0.036  -0.500  -0.174  0.00  0.00     0.017 A 
ATOM      5  C4  UNL d   1       0.904  -1.240   0.552  0.00  0.00     0.017 A 
ATOM      6  C5  UNL d   1       0.756  -1.385   1.935  0.00  0.00     0.034 A 
ATOM      7 Cl   UNL d   1       2.264  -1.999  -0.196  0.00  0.00    -0.070 Cl
ATOM      8 Cl1  UNL d   1       0.077  -0.276  -1.883  0.00  0.00    -0.070 Cl
ENDROOT
TORSDOF 0
ENDMDL
