MODEL 1
REMARK minimizedAffinity -1.76563907
REMARK minimizedRMSD -1
REMARK  0 active torsions:
REMARK  status: ('A' for Active; 'I' for Inactive)
ROOT
ATOM      1  C   UNL d   1      -1.130   2.075  -0.241  0.00  0.00     0.020 A 
ATOM      2  C1  UNL d   1      -0.649   1.854  -1.531  0.00  0.00     0.020 A 
ATOM      3  C2  UNL d   1       0.065   0.689  -1.819  0.00  0.00     0.034 A 
ATOM      4  C3  UNL d   1       0.301  -0.259  -0.816  0.00  0.00     0.017 A 
ATOM      5  C4  UNL d   1      -0.182  -0.036   0.478  0.00  0.00     0.017 A 
ATOM      6  C5  UNL d   1      -0.897   1.132   0.761  0.00  0.00     0.034 A 
ATOM      7 Cl   UNL d   1       0.069  -1.159   1.768  0.00  0.00    -0.070 Cl
ATOM      8 Cl1  UNL d   1       1.191  -1.677  -1.244  0.00  0.00    -0.070 Cl
ENDROOT
TORSDOF 0
ENDMDL
