MODEL 1
REMARK minimizedAffinity -1.94093311
REMARK minimizedRMSD -1
REMARK  0 active torsions:
REMARK  status: ('A' for Active; 'I' for Inactive)
ROOT
ATOM      1  C   UNL d   1       0.195  -0.366  -1.641  0.00  0.00     0.020 A 
ATOM      2  C1  UNL d   1       1.346  -0.913  -1.076  0.00  0.00     0.020 A 
ATOM      3  C2  UNL d   1       1.379  -1.214   0.287  0.00  0.00     0.034 A 
ATOM      4  C3  UNL d   1       0.260  -0.968   1.090  0.00  0.00     0.017 A 
ATOM      5  C4  UNL d   1      -0.895  -0.418   0.522  0.00  0.00     0.017 A 
ATOM      6  C5  UNL d   1      -0.923  -0.118  -0.844  0.00  0.00     0.034 A 
ATOM      7 Cl   UNL d   1      -2.316  -0.085   1.448  0.00  0.00    -0.070 Cl
ATOM      8 Cl1  UNL d   1       0.371  -1.365   2.768  0.00  0.00    -0.070 Cl
ENDROOT
TORSDOF 0
ENDMDL
