MODEL 1
REMARK minimizedAffinity 1.54090095
REMARK minimizedRMSD -1
REMARK  1 active torsions:
REMARK  status: ('A' for Active; 'I' for Inactive)
REMARK    1  A    between atoms: C1_2  and  C2_3 
ROOT
ATOM      1  C2  UNL d   1       1.041   2.255  -1.217  0.00  0.00    -0.076 A 
ATOM      2  C3  UNL d   1       1.453   1.360  -2.220  0.00  0.00     0.004 A 
ATOM      3  C4  UNL d   1       1.602   0.000  -1.951  0.00  0.00    -0.003 A 
ATOM      4  C5  UNL d   1       1.340  -0.487  -0.675  0.00  0.00     0.000 A 
ATOM      5  C6  UNL d   1       0.914   0.384   0.327  0.00  0.00     0.000 A 
ATOM      6  C7  UNL d   1       0.743   1.755   0.069  0.00  0.00    -0.073 A 
ATOM      7  C8  UNL d   1       0.287   2.649   1.189  0.00  0.00     0.078 C 
ENDROOT
BRANCH   1   8
ATOM      8  C1  UNL d   1       0.924   3.723  -1.559  0.00  0.00     0.053 C 
ATOM      9  C   UNL d   1       0.113   3.963  -2.824  0.00  0.00     0.018 C 
ENDBRANCH   1   8
TORSDOF 1
ENDMDL
