MODEL 1
REMARK minimizedAffinity 4.93296623
REMARK minimizedRMSD -1
REMARK  1 active torsions:
REMARK  status: ('A' for Active; 'I' for Inactive)
REMARK    1  A    between atoms: C1_2  and  C2_3 
ROOT
ATOM      1  C2  UNL d   1       1.450   1.996  -0.017  0.00  0.00    -0.076 A 
ATOM      2  C3  UNL d   1       1.489   1.467  -1.319  0.00  0.00     0.004 A 
ATOM      3  C4  UNL d   1       1.065   2.221  -2.412  0.00  0.00    -0.003 A 
ATOM      4  C5  UNL d   1       0.597   3.516  -2.222  0.00  0.00     0.000 A 
ATOM      5  C6  UNL d   1       0.568   4.063  -0.939  0.00  0.00     0.000 A 
ATOM      6  C7  UNL d   1       1.007   3.322   0.172  0.00  0.00    -0.073 A 
ATOM      7  C8  UNL d   1       0.948   3.960   1.533  0.00  0.00     0.078 C 
ENDROOT
BRANCH   1   8
ATOM      8  C1  UNL d   1       1.897   1.122   1.133  0.00  0.00     0.053 C 
ATOM      9  C   UNL d   1       3.391   0.840   1.104  0.00  0.00     0.018 C 
ENDBRANCH   1   8
TORSDOF 1
ENDMDL
