MODEL 1
REMARK minimizedAffinity -1.65507138
REMARK minimizedRMSD -1
REMARK  1 active torsions:
REMARK  status: ('A' for Active; 'I' for Inactive)
REMARK    1  A    between atoms: C1_2  and  C2_3 
ROOT
ATOM      1  C2  UNL d   1       1.155   1.170  -0.808  0.00  0.00    -0.076 A 
ATOM      2  C3  UNL d   1       0.971   2.176  -1.773  0.00  0.00     0.004 A 
ATOM      3  C4  UNL d   1       0.821   3.510  -1.398  0.00  0.00    -0.003 A 
ATOM      4  C5  UNL d   1       0.852   3.860  -0.052  0.00  0.00     0.000 A 
ATOM      5  C6  UNL d   1       1.051   2.877   0.917  0.00  0.00     0.000 A 
ATOM      6  C7  UNL d   1       1.221   1.530   0.555  0.00  0.00    -0.073 A 
ATOM      7  C8  UNL d   1       1.426   0.511   1.642  0.00  0.00     0.078 C 
ENDROOT
BRANCH   1   8
ATOM      8  C1  UNL d   1       1.285  -0.263  -1.272  0.00  0.00     0.053 C 
ATOM      9  C   UNL d   1       0.284  -1.187  -0.598  0.00  0.00     0.018 C 
ENDBRANCH   1   8
TORSDOF 1
ENDMDL
