MODEL 1
REMARK minimizedAffinity 0.533843577
REMARK minimizedRMSD -1
REMARK  1 active torsions:
REMARK  status: ('A' for Active; 'I' for Inactive)
REMARK    1  A    between atoms: C1_2  and  C2_3 
ROOT
ATOM      1  C2  UNL d   1       0.873   1.912  -0.147  0.00  0.00    -0.076 A 
ATOM      2  C3  UNL d   1       0.674   2.942  -1.083  0.00  0.00     0.004 A 
ATOM      3  C4  UNL d   1       0.734   2.688  -2.452  0.00  0.00    -0.003 A 
ATOM      4  C5  UNL d   1       0.993   1.400  -2.908  0.00  0.00     0.000 A 
ATOM      5  C6  UNL d   1       1.175   0.363  -1.993  0.00  0.00     0.000 A 
ATOM      6  C7  UNL d   1       1.102   0.599  -0.610  0.00  0.00    -0.073 A 
ATOM      7  C8  UNL d   1       1.313  -0.556   0.332  0.00  0.00     0.078 C 
ENDROOT
BRANCH   1   8
ATOM      8  C1  UNL d   1       0.824   2.252   1.326  0.00  0.00     0.053 C 
ATOM      9  C   UNL d   1       1.160   3.711   1.598  0.00  0.00     0.018 C 
ENDBRANCH   1   8
TORSDOF 1
ENDMDL
