MODEL 1
REMARK minimizedAffinity 3.88359165
REMARK minimizedRMSD -1
REMARK  1 active torsions:
REMARK  status: ('A' for Active; 'I' for Inactive)
REMARK    1  A    between atoms: C1_2  and  C2_3 
ROOT
ATOM      1  C2  UNL d   1       0.845   1.318  -0.895  0.00  0.00    -0.076 A 
ATOM      2  C3  UNL d   1       1.094   1.912   0.355  0.00  0.00     0.004 A 
ATOM      3  C4  UNL d   1       1.139   1.145   1.517  0.00  0.00    -0.003 A 
ATOM      4  C5  UNL d   1       0.936  -0.229   1.450  0.00  0.00     0.000 A 
ATOM      5  C6  UNL d   1       0.705  -0.838   0.216  0.00  0.00     0.000 A 
ATOM      6  C7  UNL d   1       0.673  -0.081  -0.968  0.00  0.00    -0.073 A 
ATOM      7  C8  UNL d   1       0.414  -0.789  -2.270  0.00  0.00     0.078 C 
ENDROOT
BRANCH   1   8
ATOM      8  C1  UNL d   1       0.781   2.204  -2.118  0.00  0.00     0.053 C 
ATOM      9  C   UNL d   1       1.379   3.581  -1.872  0.00  0.00     0.018 C 
ENDBRANCH   1   8
TORSDOF 1
ENDMDL
