MODEL 1
REMARK minimizedAffinity -4.24069786
REMARK minimizedRMSD -1
REMARK  1 active torsions:
REMARK  status: ('A' for Active; 'I' for Inactive)
REMARK    1  A    between atoms: C1_2  and  C2_3 
ROOT
ATOM      1  C2  UNL d   1       1.908   0.869  -0.350  0.00  0.00    -0.076 A 
ATOM      2  C3  UNL d   1       1.895   1.704   0.780  0.00  0.00     0.004 A 
ATOM      3  C4  UNL d   1       1.398   3.004   0.707  0.00  0.00    -0.003 A 
ATOM      4  C5  UNL d   1       0.905   3.490  -0.499  0.00  0.00     0.000 A 
ATOM      5  C6  UNL d   1       0.894   2.670  -1.627  0.00  0.00     0.000 A 
ATOM      6  C7  UNL d   1       1.376   1.351  -1.565  0.00  0.00    -0.073 A 
ATOM      7  C8  UNL d   1       1.346   0.512  -2.814  0.00  0.00     0.078 C 
ENDROOT
BRANCH   1   8
ATOM      8  C1  UNL d   1       2.485  -0.523  -0.217  0.00  0.00     0.053 C 
ATOM      9  C   UNL d   1       1.421  -1.567   0.085  0.00  0.00     0.018 C 
ENDBRANCH   1   8
TORSDOF 1
ENDMDL
