MODEL 1
REMARK minimizedAffinity 13.3666306
REMARK minimizedRMSD -1
REMARK  1 active torsions:
REMARK  status: ('A' for Active; 'I' for Inactive)
REMARK    1  A    between atoms: C1_2  and  C2_3 
ROOT
ATOM      1  C2  UNL d   1       0.104   2.178  -1.555  0.00  0.00    -0.076 A 
ATOM      2  C3  UNL d   1      -1.201   1.664  -1.647  0.00  0.00     0.004 A 
ATOM      3  C4  UNL d   1      -2.246   2.444  -2.140  0.00  0.00    -0.003 A 
ATOM      4  C5  UNL d   1      -2.002   3.751  -2.549  0.00  0.00     0.000 A 
ATOM      5  C6  UNL d   1      -0.710   4.271  -2.481  0.00  0.00     0.000 A 
ATOM      6  C7  UNL d   1       0.358   3.492  -2.002  0.00  0.00    -0.073 A 
ATOM      7  C8  UNL d   1       1.730   4.106  -1.944  0.00  0.00     0.078 C 
ENDROOT
BRANCH   1   8
ATOM      8  C1  UNL d   1       1.192   1.294  -0.987  0.00  0.00     0.053 C 
ATOM      9  C   UNL d   1       1.251  -0.066  -1.665  0.00  0.00     0.018 C 
ENDBRANCH   1   8
TORSDOF 1
ENDMDL
