MODEL 1
REMARK minimizedAffinity 2.5261178
REMARK minimizedRMSD -1
REMARK  1 active torsions:
REMARK  status: ('A' for Active; 'I' for Inactive)
REMARK    1  A    between atoms: C1_2  and  C2_3 
ROOT
ATOM      1  C2  UNL d   1       0.934   2.999  -0.837  0.00  0.00    -0.076 A 
ATOM      2  C3  UNL d   1       0.676   2.879  -2.213  0.00  0.00     0.004 A 
ATOM      3  C4  UNL d   1       0.791   1.649  -2.860  0.00  0.00    -0.003 A 
ATOM      4  C5  UNL d   1       1.165   0.520  -2.140  0.00  0.00     0.000 A 
ATOM      5  C6  UNL d   1       1.407   0.617  -0.771  0.00  0.00     0.000 A 
ATOM      6  C7  UNL d   1       1.280   1.846  -0.100  0.00  0.00    -0.073 A 
ATOM      7  C8  UNL d   1       1.558   1.894   1.377  0.00  0.00     0.078 C 
ENDROOT
BRANCH   1   8
ATOM      8  C1  UNL d   1       0.819   4.363  -0.195  0.00  0.00     0.053 C 
ATOM      9  C   UNL d   1       1.664   5.412  -0.901  0.00  0.00     0.018 C 
ENDBRANCH   1   8
TORSDOF 1
ENDMDL
