MODEL 1
REMARK minimizedAffinity 6.4999938
REMARK minimizedRMSD -1
REMARK  1 active torsions:
REMARK  status: ('A' for Active; 'I' for Inactive)
REMARK    1  A    between atoms: C1_2  and  C2_3 
ROOT
ATOM      1  C2  UNL d   1       1.459   0.040  -0.604  0.00  0.00    -0.076 A 
ATOM      2  C3  UNL d   1       1.109   1.088   0.265  0.00  0.00     0.004 A 
ATOM      3  C4  UNL d   1       0.762   2.344  -0.229  0.00  0.00    -0.003 A 
ATOM      4  C5  UNL d   1       0.759   2.573  -1.601  0.00  0.00     0.000 A 
ATOM      5  C6  UNL d   1       1.087   1.539  -2.478  0.00  0.00     0.000 A 
ATOM      6  C7  UNL d   1       1.423   0.262  -1.997  0.00  0.00    -0.073 A 
ATOM      7  C8  UNL d   1       1.774  -0.813  -2.988  0.00  0.00     0.078 C 
ENDROOT
BRANCH   1   8
ATOM      8  C1  UNL d   1       1.853  -1.293  -0.009  0.00  0.00     0.053 C 
ATOM      9  C   UNL d   1       3.360  -1.461   0.098  0.00  0.00     0.018 C 
ENDBRANCH   1   8
TORSDOF 1
ENDMDL
