MODEL 1
REMARK minimizedAffinity 4.09081841
REMARK minimizedRMSD -1
REMARK  1 active torsions:
REMARK  status: ('A' for Active; 'I' for Inactive)
REMARK    1  A    between atoms: C1_2  and  C2_3 
ROOT
ATOM      1  C2  UNL d   1       1.279   2.536  -1.001  0.00  0.00    -0.076 A 
ATOM      2  C3  UNL d   1       1.644   1.412  -1.763  0.00  0.00     0.004 A 
ATOM      3  C4  UNL d   1       2.197   0.285  -1.158  0.00  0.00    -0.003 A 
ATOM      4  C5  UNL d   1       2.395   0.263   0.218  0.00  0.00     0.000 A 
ATOM      5  C6  UNL d   1       2.023   1.363   0.991  0.00  0.00     0.000 A 
ATOM      6  C7  UNL d   1       1.449   2.501   0.399  0.00  0.00    -0.073 A 
ATOM      7  C8  UNL d   1       1.072   3.661   1.280  0.00  0.00     0.078 C 
ENDROOT
BRANCH   1   8
ATOM      8  C1  UNL d   1       0.708   3.741  -1.716  0.00  0.00     0.053 C 
ATOM      9  C   UNL d   1       1.388   5.038  -1.305  0.00  0.00     0.018 C 
ENDBRANCH   1   8
TORSDOF 1
ENDMDL
