MODEL 1
REMARK minimizedAffinity 1.12038636
REMARK minimizedRMSD -1
REMARK  1 active torsions:
REMARK  status: ('A' for Active; 'I' for Inactive)
REMARK    1  A    between atoms: C1_2  and  C2_3 
ROOT
ATOM      1  C2  UNL d   1       0.772   1.003  -0.657  0.00  0.00    -0.076 A 
ATOM      2  C3  UNL d   1       0.592   0.103  -1.722  0.00  0.00     0.004 A 
ATOM      3  C4  UNL d   1       0.772  -1.267  -1.541  0.00  0.00    -0.003 A 
ATOM      4  C5  UNL d   1       1.133  -1.760  -0.292  0.00  0.00     0.000 A 
ATOM      5  C6  UNL d   1       1.298  -0.883   0.780  0.00  0.00     0.000 A 
ATOM      6  C7  UNL d   1       1.105   0.500   0.618  0.00  0.00    -0.073 A 
ATOM      7  C8  UNL d   1       1.303   1.400   1.807  0.00  0.00     0.078 C 
ENDROOT
BRANCH   1   8
ATOM      8  C1  UNL d   1       0.590   2.481  -0.920  0.00  0.00     0.053 C 
ATOM      9  C   UNL d   1       1.159   2.909  -2.264  0.00  0.00     0.018 C 
ENDBRANCH   1   8
TORSDOF 1
ENDMDL
