MODEL 1
REMARK minimizedAffinity 13.1651402
REMARK minimizedRMSD -1
REMARK  1 active torsions:
REMARK  status: ('A' for Active; 'I' for Inactive)
REMARK    1  A    between atoms: C1_2  and  C2_3 
ROOT
ATOM      1  C2  UNL d   1       0.705   3.557  -1.598  0.00  0.00    -0.076 A 
ATOM      2  C3  UNL d   1       1.717   2.704  -1.124  0.00  0.00     0.004 A 
ATOM      3  C4  UNL d   1       1.740   1.355  -1.474  0.00  0.00    -0.003 A 
ATOM      4  C5  UNL d   1       0.752   0.837  -2.304  0.00  0.00     0.000 A 
ATOM      5  C6  UNL d   1      -0.249   1.673  -2.798  0.00  0.00     0.000 A 
ATOM      6  C7  UNL d   1      -0.278   3.039  -2.468  0.00  0.00    -0.073 A 
ATOM      7  C8  UNL d   1      -1.384   3.893  -3.024  0.00  0.00     0.078 C 
ENDROOT
BRANCH   1   8
ATOM      8  C1  UNL d   1       0.716   5.005  -1.162  0.00  0.00     0.053 C 
ATOM      9  C   UNL d   1       1.990   5.727  -1.572  0.00  0.00     0.018 C 
ENDBRANCH   1   8
TORSDOF 1
ENDMDL
