MODEL 1
REMARK minimizedAffinity 7.07216358
REMARK minimizedRMSD -1
REMARK  1 active torsions:
REMARK  status: ('A' for Active; 'I' for Inactive)
REMARK    1  A    between atoms: C1_2  and  C2_3 
ROOT
ATOM      1  C2  UNL d   1       0.804   2.425  -1.257  0.00  0.00    -0.076 A 
ATOM      2  C3  UNL d   1       0.741   1.279  -2.068  0.00  0.00     0.004 A 
ATOM      3  C4  UNL d   1       1.021   0.016  -1.548  0.00  0.00    -0.003 A 
ATOM      4  C5  UNL d   1       1.368  -0.121  -0.209  0.00  0.00     0.000 A 
ATOM      5  C6  UNL d   1       1.419   1.004   0.614  0.00  0.00     0.000 A 
ATOM      6  C7  UNL d   1       1.124   2.282   0.110  0.00  0.00    -0.073 A 
ATOM      7  C8  UNL d   1       1.200   3.460   1.042  0.00  0.00     0.078 C 
ENDROOT
BRANCH   1   8
ATOM      8  C1  UNL d   1       0.517   3.771  -1.883  0.00  0.00     0.053 C 
ATOM      9  C   UNL d   1      -0.316   3.659  -3.150  0.00  0.00     0.018 C 
ENDBRANCH   1   8
TORSDOF 1
ENDMDL
