MODEL 1
REMARK minimizedAffinity 0.349532425
REMARK minimizedRMSD -1
REMARK  1 active torsions:
REMARK  status: ('A' for Active; 'I' for Inactive)
REMARK    1  A    between atoms: C1_2  and  C2_3 
ROOT
ATOM      1  C2  UNL d   1       1.191   0.238  -1.390  0.00  0.00    -0.076 A 
ATOM      2  C3  UNL d   1       0.336  -0.567  -2.163  0.00  0.00     0.004 A 
ATOM      3  C4  UNL d   1       0.099  -1.897  -1.821  0.00  0.00    -0.003 A 
ATOM      4  C5  UNL d   1       0.713  -2.444  -0.699  0.00  0.00     0.000 A 
ATOM      5  C6  UNL d   1       1.550  -1.655   0.089  0.00  0.00     0.000 A 
ATOM      6  C7  UNL d   1       1.786  -0.308  -0.233  0.00  0.00    -0.073 A 
ATOM      7  C8  UNL d   1       2.702   0.495   0.650  0.00  0.00     0.078 C 
ENDROOT
BRANCH   1   8
ATOM      8  C1  UNL d   1       1.431   1.666  -1.825  0.00  0.00     0.053 C 
ATOM      9  C   UNL d   1       0.393   2.627  -1.267  0.00  0.00     0.018 C 
ENDBRANCH   1   8
TORSDOF 1
ENDMDL
