MODEL 1
REMARK minimizedAffinity 10.7899017
REMARK minimizedRMSD -1
REMARK  0 active torsions:
REMARK  status: ('A' for Active; 'I' for Inactive)
ROOT
ATOM      1  C   UNL d   1       5.193   0.129  -2.955  0.00  0.00     0.077 C 
ATOM      2  C1  UNL d   1       3.729   0.074  -2.632  0.00  0.00    -0.074 A 
ATOM      3  C2  UNL d   1       3.269  -0.592  -1.491  0.00  0.00    -0.005 A 
ATOM      4  C3  UNL d   1       1.906  -0.626  -1.199  0.00  0.00     0.006 A 
ATOM      5  C4  UNL d   1       0.990   0.004  -2.042  0.00  0.00    -0.005 A 
ATOM      6  C5  UNL d   1       1.432   0.676  -3.186  0.00  0.00    -0.074 A 
ATOM      7  C6  UNL d   1       0.462   1.367  -4.098  0.00  0.00     0.077 C 
ATOM      8  C7  UNL d   1       2.804   0.712  -3.470  0.00  0.00    -0.001 A 
ENDROOT
TORSDOF 0
ENDMDL
