MODEL 1
REMARK minimizedAffinity 11.1979599
REMARK minimizedRMSD -1
REMARK  0 active torsions:
REMARK  status: ('A' for Active; 'I' for Inactive)
ROOT
ATOM      1  C   UNL d   1      -3.396   3.687   2.383  0.00  0.00     0.077 C 
ATOM      2  C1  UNL d   1      -3.276   4.499   3.638  0.00  0.00    -0.074 A 
ATOM      3  C2  UNL d   1      -4.413   4.886   4.355  0.00  0.00    -0.005 A 
ATOM      4  C3  UNL d   1      -4.286   5.633   5.526  0.00  0.00     0.006 A 
ATOM      5  C4  UNL d   1      -3.022   6.000   5.991  0.00  0.00    -0.005 A 
ATOM      6  C5  UNL d   1      -1.874   5.622   5.288  0.00  0.00    -0.074 A 
ATOM      7  C6  UNL d   1      -0.508   6.000   5.780  0.00  0.00     0.077 C 
ATOM      8  C7  UNL d   1      -2.010   4.865   4.116  0.00  0.00    -0.001 A 
ENDROOT
TORSDOF 0
ENDMDL
