MODEL 1
REMARK minimizedAffinity -0.593726814
REMARK minimizedRMSD -1
REMARK  0 active torsions:
REMARK  status: ('A' for Active; 'I' for Inactive)
ROOT
ATOM      1  C   UNL d   1      -2.893   5.852   5.193  0.00  0.00     0.077 C 
ATOM      2  C1  UNL d   1      -3.557   5.564   3.879  0.00  0.00    -0.074 A 
ATOM      3  C2  UNL d   1      -4.950   5.587   3.758  0.00  0.00    -0.005 A 
ATOM      4  C3  UNL d   1      -5.553   5.327   2.527  0.00  0.00     0.006 A 
ATOM      5  C4  UNL d   1      -4.771   5.041   1.408  0.00  0.00    -0.005 A 
ATOM      6  C5  UNL d   1      -3.376   5.014   1.510  0.00  0.00    -0.074 A 
ATOM      7  C6  UNL d   1      -2.520   4.719   0.315  0.00  0.00     0.077 C 
ATOM      8  C7  UNL d   1      -2.778   5.284   2.748  0.00  0.00    -0.001 A 
ENDROOT
TORSDOF 0
ENDMDL
