MODEL 1
REMARK minimizedAffinity 12.5903692
REMARK minimizedRMSD -1
REMARK  0 active torsions:
REMARK  status: ('A' for Active; 'I' for Inactive)
ROOT
ATOM      1  C   UNL d   1       3.397  -1.102   3.014  0.00  0.00     0.077 C 
ATOM      2  C1  UNL d   1       4.312  -1.678   4.052  0.00  0.00    -0.074 A 
ATOM      3  C2  UNL d   1       5.161  -0.855   4.800  0.00  0.00    -0.005 A 
ATOM      4  C3  UNL d   1       6.000  -1.404   5.769  0.00  0.00     0.006 A 
ATOM      5  C4  UNL d   1       5.999  -2.780   6.000  0.00  0.00    -0.005 A 
ATOM      6  C5  UNL d   1       5.157  -3.619   5.263  0.00  0.00    -0.074 A 
ATOM      7  C6  UNL d   1       5.137  -5.099   5.506  0.00  0.00     0.077 C 
ATOM      8  C7  UNL d   1       4.312  -3.059   4.296  0.00  0.00    -0.001 A 
ENDROOT
TORSDOF 0
ENDMDL
