MODEL 1
REMARK minimizedAffinity 10.4653072
REMARK minimizedRMSD -1
REMARK  0 active torsions:
REMARK  status: ('A' for Active; 'I' for Inactive)
ROOT
ATOM      1  C   UNL d   1      -2.615   0.810   2.596  0.00  0.00     0.077 C 
ATOM      2  C1  UNL d   1      -3.173   2.201   2.637  0.00  0.00    -0.074 A 
ATOM      3  C2  UNL d   1      -4.132   2.619   1.708  0.00  0.00    -0.005 A 
ATOM      4  C3  UNL d   1      -4.649   3.913   1.765  0.00  0.00     0.006 A 
ATOM      5  C4  UNL d   1      -4.214   4.801   2.750  0.00  0.00    -0.005 A 
ATOM      6  C5  UNL d   1      -3.257   4.400   3.688  0.00  0.00    -0.074 A 
ATOM      7  C6  UNL d   1      -2.786   5.339   4.759  0.00  0.00     0.077 C 
ATOM      8  C7  UNL d   1      -2.747   3.096   3.628  0.00  0.00    -0.001 A 
ENDROOT
TORSDOF 0
ENDMDL
