MODEL 1
REMARK minimizedAffinity 0.62354511
REMARK minimizedRMSD -1
REMARK  0 active torsions:
REMARK  status: ('A' for Active; 'I' for Inactive)
ROOT
ATOM      1  C   UNL d   1       5.867  -2.160   5.996  0.00  0.00     0.077 C 
ATOM      2  C1  UNL d   1       5.348  -3.503   5.577  0.00  0.00    -0.074 A 
ATOM      3  C2  UNL d   1       5.974  -4.680   6.000  0.00  0.00    -0.005 A 
ATOM      4  C3  UNL d   1       5.474  -5.922   5.609  0.00  0.00     0.006 A 
ATOM      5  C4  UNL d   1       4.345  -6.000   4.794  0.00  0.00    -0.005 A 
ATOM      6  C5  UNL d   1       3.705  -4.834   4.362  0.00  0.00    -0.074 A 
ATOM      7  C6  UNL d   1       2.484  -4.900   3.493  0.00  0.00     0.077 C 
ATOM      8  C7  UNL d   1       4.209  -3.589   4.764  0.00  0.00    -0.001 A 
ENDROOT
TORSDOF 0
ENDMDL
