MODEL 1
REMARK minimizedAffinity 12.3021917
REMARK minimizedRMSD -1
REMARK  0 active torsions:
REMARK  status: ('A' for Active; 'I' for Inactive)
ROOT
ATOM      1  C   UNL d   1      -2.593   2.552   3.458  0.00  0.00     0.077 C 
ATOM      2  C1  UNL d   1      -2.731   1.191   2.843  0.00  0.00    -0.074 A 
ATOM      3  C2  UNL d   1      -3.419   0.169   3.505  0.00  0.00    -0.005 A 
ATOM      4  C3  UNL d   1      -3.547  -1.089   2.915  0.00  0.00     0.006 A 
ATOM      5  C4  UNL d   1      -2.990  -1.337   1.660  0.00  0.00    -0.005 A 
ATOM      6  C5  UNL d   1      -2.300  -0.327   0.983  0.00  0.00    -0.074 A 
ATOM      7  C6  UNL d   1      -1.704  -0.574  -0.371  0.00  0.00     0.077 C 
ATOM      8  C7  UNL d   1      -2.181   0.936   1.578  0.00  0.00    -0.001 A 
ENDROOT
TORSDOF 0
ENDMDL
