MODEL 1
REMARK minimizedAffinity 14.3458509
REMARK minimizedRMSD -1
REMARK  0 active torsions:
REMARK  status: ('A' for Active; 'I' for Inactive)
ROOT
ATOM      1  C   UNL d   1      -3.484  -2.501   0.009  0.00  0.00     0.077 C 
ATOM      2  C1  UNL d   1      -3.333  -1.412   1.029  0.00  0.00    -0.074 A 
ATOM      3  C2  UNL d   1      -2.572  -0.271   0.756  0.00  0.00    -0.005 A 
ATOM      4  C3  UNL d   1      -2.449   0.737   1.712  0.00  0.00     0.006 A 
ATOM      5  C4  UNL d   1      -3.085   0.616   2.948  0.00  0.00    -0.005 A 
ATOM      6  C5  UNL d   1      -3.851  -0.517   3.238  0.00  0.00    -0.074 A 
ATOM      7  C6  UNL d   1      -4.549  -0.659   4.558  0.00  0.00     0.077 C 
ATOM      8  C7  UNL d   1      -3.976  -1.523   2.271  0.00  0.00    -0.001 A 
ENDROOT
TORSDOF 0
ENDMDL
