MODEL 1
REMARK minimizedAffinity 13.8337698
REMARK minimizedRMSD -1
REMARK  0 active torsions:
REMARK  status: ('A' for Active; 'I' for Inactive)
ROOT
ATOM      1  C   UNL d   1      -0.990   0.324   0.107  0.00  0.00     0.077 C 
ATOM      2  C1  UNL d   1      -0.022   0.477  -1.030  0.00  0.00    -0.074 A 
ATOM      3  C2  UNL d   1       1.243  -0.116  -0.981  0.00  0.00    -0.005 A 
ATOM      4  C3  UNL d   1       2.129   0.027  -2.049  0.00  0.00     0.006 A 
ATOM      5  C4  UNL d   1       1.758   0.763  -3.175  0.00  0.00    -0.005 A 
ATOM      6  C5  UNL d   1       0.496   1.362  -3.242  0.00  0.00    -0.074 A 
ATOM      7  C6  UNL d   1       0.078   2.148  -4.449  0.00  0.00     0.077 C 
ATOM      8  C7  UNL d   1      -0.391   1.208  -2.168  0.00  0.00    -0.001 A 
ENDROOT
TORSDOF 0
ENDMDL
