MODEL 1
REMARK minimizedAffinity 8.38515282
REMARK minimizedRMSD -1
REMARK  0 active torsions:
REMARK  status: ('A' for Active; 'I' for Inactive)
ROOT
ATOM      1  C   UNL d   1       0.417   1.241  -5.855  0.00  0.00     0.077 C 
ATOM      2  C1  UNL d   1       0.891   1.199  -4.433  0.00  0.00    -0.074 A 
ATOM      3  C2  UNL d   1       0.722   0.052  -3.652  0.00  0.00    -0.005 A 
ATOM      4  C3  UNL d   1       1.176   0.025  -2.333  0.00  0.00     0.006 A 
ATOM      5  C4  UNL d   1       1.804   1.143  -1.784  0.00  0.00    -0.005 A 
ATOM      6  C5  UNL d   1       1.984   2.299  -2.550  0.00  0.00    -0.074 A 
ATOM      7  C6  UNL d   1       2.666   3.506  -1.978  0.00  0.00     0.077 C 
ATOM      8  C7  UNL d   1       1.530   2.316  -3.876  0.00  0.00    -0.001 A 
ENDROOT
TORSDOF 0
ENDMDL
