MODEL 1
REMARK minimizedAffinity 1.95934546
REMARK minimizedRMSD -1
REMARK  0 active torsions:
REMARK  status: ('A' for Active; 'I' for Inactive)
ROOT
ATOM      1  C   UNL d   1      -5.766  -0.262   5.954  0.00  0.00     0.077 C 
ATOM      2  C1  UNL d   1      -5.288   0.804   5.013  0.00  0.00    -0.074 A 
ATOM      3  C2  UNL d   1      -5.095   0.530   3.655  0.00  0.00    -0.005 A 
ATOM      4  C3  UNL d   1      -4.659   1.534   2.790  0.00  0.00     0.006 A 
ATOM      5  C4  UNL d   1      -4.411   2.819   3.274  0.00  0.00    -0.005 A 
ATOM      6  C5  UNL d   1      -4.599   3.112   4.628  0.00  0.00    -0.074 A 
ATOM      7  C6  UNL d   1      -4.347   4.490   5.163  0.00  0.00     0.077 C 
ATOM      8  C7  UNL d   1      -5.044   2.100   5.490  0.00  0.00    -0.001 A 
ENDROOT
TORSDOF 0
ENDMDL
