MODEL 1
REMARK minimizedAffinity 4.06320572
REMARK minimizedRMSD -1
REMARK  0 active torsions:
REMARK  status: ('A' for Active; 'I' for Inactive)
ROOT
ATOM      1  C   UNL d   1       1.863   1.941  -4.780  0.00  0.00     0.077 C 
ATOM      2  C1  UNL d   1       1.769   1.767  -3.294  0.00  0.00    -0.074 A 
ATOM      3  C2  UNL d   1       1.331   0.561  -2.737  0.00  0.00    -0.005 A 
ATOM      4  C3  UNL d   1       1.258   0.411  -1.353  0.00  0.00     0.006 A 
ATOM      5  C4  UNL d   1       1.621   1.464  -0.511  0.00  0.00    -0.005 A 
ATOM      6  C5  UNL d   1       2.062   2.677  -1.049  0.00  0.00    -0.074 A 
ATOM      7  C6  UNL d   1       2.465   3.815  -0.160  0.00  0.00     0.077 C 
ATOM      8  C7  UNL d   1       2.139   2.818  -2.442  0.00  0.00    -0.001 A 
ENDROOT
TORSDOF 0
ENDMDL
