MODEL 1
REMARK minimizedAffinity 14.1069813
REMARK minimizedRMSD -1
REMARK  0 active torsions:
REMARK  status: ('A' for Active; 'I' for Inactive)
ROOT
ATOM      1  C   UNL d   1      -6.000  -0.025   5.750  0.00  0.00     0.077 C 
ATOM      2  C1  UNL d   1      -5.321  -0.263   4.434  0.00  0.00    -0.074 A 
ATOM      3  C2  UNL d   1      -4.067   0.293   4.161  0.00  0.00    -0.005 A 
ATOM      4  C3  UNL d   1      -3.443   0.055   2.937  0.00  0.00     0.006 A 
ATOM      5  C4  UNL d   1      -4.066  -0.739   1.973  0.00  0.00    -0.005 A 
ATOM      6  C5  UNL d   1      -5.320  -1.304   2.228  0.00  0.00    -0.074 A 
ATOM      7  C6  UNL d   1      -5.999  -2.169   1.208  0.00  0.00     0.077 C 
ATOM      8  C7  UNL d   1      -5.937  -1.067   3.464  0.00  0.00    -0.001 A 
ENDROOT
TORSDOF 0
ENDMDL
