MODEL 1
REMARK minimizedAffinity 9.63572693
REMARK minimizedRMSD -1
REMARK  0 active torsions:
REMARK  status: ('A' for Active; 'I' for Inactive)
ROOT
ATOM      1  C   UNL d   1       1.264   0.120  -5.403  0.00  0.00     0.077 C 
ATOM      2  C1  UNL d   1       1.551   0.090  -3.931  0.00  0.00    -0.074 A 
ATOM      3  C2  UNL d   1       1.741   1.273  -3.211  0.00  0.00    -0.005 A 
ATOM      4  C3  UNL d   1       1.998   1.229  -1.840  0.00  0.00     0.006 A 
ATOM      5  C4  UNL d   1       2.068   0.004  -1.178  0.00  0.00    -0.005 A 
ATOM      6  C5  UNL d   1       1.881  -1.190  -1.881  0.00  0.00    -0.074 A 
ATOM      7  C6  UNL d   1       1.943  -2.516  -1.182  0.00  0.00     0.077 C 
ATOM      8  C7  UNL d   1       1.616  -1.138  -3.256  0.00  0.00    -0.001 A 
ENDROOT
TORSDOF 0
ENDMDL
