MODEL 1
REMARK minimizedAffinity 6.87774944
REMARK minimizedRMSD -1
REMARK  0 active torsions:
REMARK  status: ('A' for Active; 'I' for Inactive)
ROOT
ATOM      1  C   UNL d   1       5.109   0.786  -3.115  0.00  0.00     0.077 C 
ATOM      2  C1  UNL d   1       3.674   0.465  -2.818  0.00  0.00    -0.074 A 
ATOM      3  C2  UNL d   1       2.728   1.483  -2.658  0.00  0.00    -0.005 A 
ATOM      4  C3  UNL d   1       1.395   1.169  -2.392  0.00  0.00     0.006 A 
ATOM      5  C4  UNL d   1       0.996  -0.164  -2.283  0.00  0.00    -0.005 A 
ATOM      6  C5  UNL d   1       1.927  -1.195  -2.440  0.00  0.00    -0.074 A 
ATOM      7  C6  UNL d   1       1.513  -2.633  -2.336  0.00  0.00     0.077 C 
ATOM      8  C7  UNL d   1       3.263  -0.871  -2.715  0.00  0.00    -0.001 A 
ENDROOT
TORSDOF 0
ENDMDL
