MODEL 1
REMARK minimizedAffinity 10.1839466
REMARK minimizedRMSD -1
REMARK  0 active torsions:
REMARK  status: ('A' for Active; 'I' for Inactive)
ROOT
ATOM      1  C   UNL d   1       3.073  -1.566  -0.057  0.00  0.00     0.023 A 
ATOM      2  C1  UNL d   1       3.011  -2.959  -0.020  0.00  0.00     0.003 A 
ATOM      3  C2  UNL d   1       2.228  -3.649  -0.947  0.00  0.00     0.048 A 
ATOM      4  C3  UNL d   1       1.511  -2.940  -1.910  0.00  0.00     0.023 A 
ATOM      5  C4  UNL d   1       1.570  -1.546  -1.952  0.00  0.00     0.048 A 
ATOM      6  C5  UNL d   1       2.354  -0.860  -1.022  0.00  0.00     0.003 A 
ATOM      7  I   UNL d   1       0.345  -3.966  -3.292  0.00  0.00    -0.146 I 
ENDROOT
TORSDOF 0
ENDMDL
