MODEL 1
REMARK minimizedAffinity 9.13747597
REMARK minimizedRMSD -1
REMARK  0 active torsions:
REMARK  status: ('A' for Active; 'I' for Inactive)
ROOT
ATOM      1  C   UNL d   1       2.862  -0.571  -0.337  0.00  0.00     0.023 A 
ATOM      2  C1  UNL d   1       2.157  -0.110  -1.449  0.00  0.00     0.003 A 
ATOM      3  C2  UNL d   1       1.448  -1.008  -2.250  0.00  0.00     0.048 A 
ATOM      4  C3  UNL d   1       1.447  -2.366  -1.932  0.00  0.00     0.023 A 
ATOM      5  C4  UNL d   1       2.149  -2.832  -0.820  0.00  0.00     0.048 A 
ATOM      6  C5  UNL d   1       2.858  -1.930  -0.023  0.00  0.00     0.003 A 
ATOM      7  I   UNL d   1       0.392  -3.704  -3.122  0.00  0.00    -0.146 I 
ENDROOT
TORSDOF 0
ENDMDL
