MODEL 1
REMARK minimizedAffinity 11.7331514
REMARK minimizedRMSD -1
REMARK  0 active torsions:
REMARK  status: ('A' for Active; 'I' for Inactive)
ROOT
ATOM      1  C   UNL d   1       2.804  -2.398  -0.109  0.00  0.00     0.023 A 
ATOM      2  C1  UNL d   1       2.026  -1.313  -0.512  0.00  0.00     0.003 A 
ATOM      3  C2  UNL d   1       2.427  -0.011  -0.202  0.00  0.00     0.048 A 
ATOM      4  C3  UNL d   1       3.607   0.197   0.512  0.00  0.00     0.023 A 
ATOM      5  C4  UNL d   1       4.389  -0.886   0.916  0.00  0.00     0.048 A 
ATOM      6  C5  UNL d   1       3.984  -2.185   0.605  0.00  0.00     0.003 A 
ATOM      7  I   UNL d   1       4.205   2.133   0.975  0.00  0.00    -0.146 I 
ENDROOT
TORSDOF 0
ENDMDL
