MODEL 1
REMARK minimizedAffinity 11.5354862
REMARK minimizedRMSD -1
REMARK  0 active torsions:
REMARK  status: ('A' for Active; 'I' for Inactive)
ROOT
ATOM      1  C   UNL d   1      -4.465  -3.556  -6.000  0.00  0.00     0.023 A 
ATOM      2  C1  UNL d   1      -3.901  -4.831  -6.000  0.00  0.00     0.003 A 
ATOM      3  C2  UNL d   1      -2.860  -5.136  -5.120  0.00  0.00     0.048 A 
ATOM      4  C3  UNL d   1      -2.390  -4.160  -4.242  0.00  0.00     0.023 A 
ATOM      5  C4  UNL d   1      -2.952  -2.882  -4.237  0.00  0.00     0.048 A 
ATOM      6  C5  UNL d   1      -3.992  -2.583  -5.120  0.00  0.00     0.003 A 
ATOM      7  I   UNL d   1      -0.841  -4.611  -2.931  0.00  0.00    -0.146 I 
ENDROOT
TORSDOF 0
ENDMDL
