MODEL 1
REMARK minimizedAffinity 8.51378727
REMARK minimizedRMSD -1
REMARK  0 active torsions:
REMARK  status: ('A' for Active; 'I' for Inactive)
ROOT
ATOM      1  C   UNL d   1       4.619   2.242  -0.163  0.00  0.00     0.023 A 
ATOM      2  C1  UNL d   1       3.615   1.338  -0.510  0.00  0.00     0.003 A 
ATOM      3  C2  UNL d   1       2.529   1.138   0.345  0.00  0.00     0.048 A 
ATOM      4  C3  UNL d   1       2.453   1.846   1.544  0.00  0.00     0.023 A 
ATOM      5  C4  UNL d   1       3.455   2.752   1.894  0.00  0.00     0.048 A 
ATOM      6  C5  UNL d   1       4.539   2.948   1.037  0.00  0.00     0.003 A 
ATOM      7  I   UNL d   1       0.837   1.550   2.818  0.00  0.00    -0.146 I 
ENDROOT
TORSDOF 0
ENDMDL
