MODEL 1
REMARK minimizedAffinity 11.4495983
REMARK minimizedRMSD -1
REMARK  0 active torsions:
REMARK  status: ('A' for Active; 'I' for Inactive)
ROOT
ATOM      1  C   UNL d   1       2.008  -4.450  -1.692  0.00  0.00     0.023 A 
ATOM      2  C1  UNL d   1       2.816  -4.151  -0.595  0.00  0.00     0.003 A 
ATOM      3  C2  UNL d   1       2.937  -2.831  -0.155  0.00  0.00     0.048 A 
ATOM      4  C3  UNL d   1       2.247  -1.816  -0.816  0.00  0.00     0.023 A 
ATOM      5  C4  UNL d   1       1.437  -2.110  -1.914  0.00  0.00     0.048 A 
ATOM      6  C5  UNL d   1       1.320  -3.431  -2.351  0.00  0.00     0.003 A 
ATOM      7  I   UNL d   1       2.425   0.150  -0.163  0.00  0.00    -0.146 I 
ENDROOT
TORSDOF 0
ENDMDL
