MODEL 1
REMARK minimizedAffinity 19.846447
REMARK minimizedRMSD -1
REMARK  0 active torsions:
REMARK  status: ('A' for Active; 'I' for Inactive)
ROOT
ATOM      1  C   UNL d   1       3.898   0.871  -0.058  0.00  0.00     0.023 A 
ATOM      2  C1  UNL d   1       2.706   0.177  -0.265  0.00  0.00     0.003 A 
ATOM      3  C2  UNL d   1       1.628   0.361   0.604  0.00  0.00     0.048 A 
ATOM      4  C3  UNL d   1       1.749   1.243   1.677  0.00  0.00     0.023 A 
ATOM      5  C4  UNL d   1       2.939   1.941   1.888  0.00  0.00     0.048 A 
ATOM      6  C5  UNL d   1       4.014   1.752   1.018  0.00  0.00     0.003 A 
ATOM      7  I   UNL d   1       0.146   1.520   2.971  0.00  0.00    -0.146 I 
ENDROOT
TORSDOF 0
ENDMDL
