MODEL 1
REMARK minimizedAffinity 4.8505888
REMARK minimizedRMSD -1
REMARK  0 active torsions:
REMARK  status: ('A' for Active; 'I' for Inactive)
ROOT
ATOM      1  C   UNL d   1      -0.519  -5.994  -2.282  0.00  0.00     0.023 A 
ATOM      2  C1  UNL d   1      -1.914  -6.000  -2.263  0.00  0.00     0.003 A 
ATOM      3  C2  UNL d   1      -2.630  -5.413  -3.307  0.00  0.00     0.048 A 
ATOM      4  C3  UNL d   1      -1.946  -4.822  -4.369  0.00  0.00     0.023 A 
ATOM      5  C4  UNL d   1      -0.550  -4.814  -4.393  0.00  0.00     0.048 A 
ATOM      6  C5  UNL d   1       0.162  -5.402  -3.346  0.00  0.00     0.003 A 
ATOM      7  I   UNL d   1      -3.010  -3.947  -5.925  0.00  0.00    -0.146 I 
ENDROOT
TORSDOF 0
ENDMDL
