MODEL 1
REMARK minimizedAffinity 16.8129444
REMARK minimizedRMSD -1
REMARK  0 active torsions:
REMARK  status: ('A' for Active; 'I' for Inactive)
ROOT
ATOM      1  C   UNL d   1       4.448  -4.832   0.276  0.00  0.00     0.023 A 
ATOM      2  C1  UNL d   1       5.113  -3.628   0.043  0.00  0.00     0.003 A 
ATOM      3  C2  UNL d   1       4.383  -2.461  -0.193  0.00  0.00     0.048 A 
ATOM      4  C3  UNL d   1       2.989  -2.505  -0.193  0.00  0.00     0.023 A 
ATOM      5  C4  UNL d   1       2.320  -3.707   0.040  0.00  0.00     0.048 A 
ATOM      6  C5  UNL d   1       3.054  -4.872   0.275  0.00  0.00     0.003 A 
ATOM      7  I   UNL d   1       1.902  -0.769  -0.544  0.00  0.00    -0.146 I 
ENDROOT
TORSDOF 0
ENDMDL
