MODEL 1
REMARK minimizedAffinity 10.8547344
REMARK minimizedRMSD -1
REMARK  0 active torsions:
REMARK  status: ('A' for Active; 'I' for Inactive)
ROOT
ATOM      1  C   UNL d   1       3.163   0.995   1.598  0.00  0.00     0.023 A 
ATOM      2  C1  UNL d   1       1.985   0.458   1.078  0.00  0.00     0.003 A 
ATOM      3  C2  UNL d   1       1.952  -0.870   0.649  0.00  0.00     0.048 A 
ATOM      4  C3  UNL d   1       3.099  -1.656   0.744  0.00  0.00     0.023 A 
ATOM      5  C4  UNL d   1       4.280  -1.124   1.265  0.00  0.00     0.048 A 
ATOM      6  C5  UNL d   1       4.309   0.205   1.691  0.00  0.00     0.003 A 
ATOM      7  I   UNL d   1       3.052  -3.634   0.106  0.00  0.00    -0.146 I 
ENDROOT
TORSDOF 0
ENDMDL
