MODEL 1
REMARK minimizedAffinity 11.4166098
REMARK minimizedRMSD -1
REMARK  0 active torsions:
REMARK  status: ('A' for Active; 'I' for Inactive)
ROOT
ATOM      1  C   UNL d   1      -3.429   1.714   4.864  0.00  0.00     0.023 A 
ATOM      2  C1  UNL d   1      -3.085   0.981   6.000  0.00  0.00     0.003 A 
ATOM      3  C2  UNL d   1      -3.070  -0.414   5.954  0.00  0.00     0.048 A 
ATOM      4  C3  UNL d   1      -3.400  -1.070   4.769  0.00  0.00     0.023 A 
ATOM      5  C4  UNL d   1      -3.744  -0.341   3.629  0.00  0.00     0.048 A 
ATOM      6  C5  UNL d   1      -3.758   1.054   3.680  0.00  0.00     0.003 A 
ATOM      7  I   UNL d   1      -3.379  -3.147   4.698  0.00  0.00    -0.146 I 
ENDROOT
TORSDOF 0
ENDMDL
