MODEL 1
REMARK minimizedAffinity 17.9267426
REMARK minimizedRMSD -1
REMARK  0 active torsions:
REMARK  status: ('A' for Active; 'I' for Inactive)
ROOT
ATOM      1  C   UNL d   1       1.497   1.461   5.618  0.00  0.00     0.023 A 
ATOM      2  C1  UNL d   1       0.206   1.826   6.000  0.00  0.00     0.003 A 
ATOM      3  C2  UNL d   1      -0.868   1.604   5.135  0.00  0.00     0.048 A 
ATOM      4  C3  UNL d   1      -0.643   1.016   3.890  0.00  0.00     0.023 A 
ATOM      5  C4  UNL d   1       0.647   0.649   3.505  0.00  0.00     0.048 A 
ATOM      6  C5  UNL d   1       1.717   0.874   4.373  0.00  0.00     0.003 A 
ATOM      7  I   UNL d   1      -2.240   0.685   2.601  0.00  0.00    -0.146 I 
ENDROOT
TORSDOF 0
ENDMDL
