MODEL 1
REMARK minimizedAffinity 16.4595833
REMARK minimizedRMSD -1
REMARK  0 active torsions:
REMARK  status: ('A' for Active; 'I' for Inactive)
ROOT
ATOM      1  C   UNL d   1       1.268  -2.963  -1.567  0.00  0.00     0.023 A 
ATOM      2  C1  UNL d   1       1.941  -3.045  -0.348  0.00  0.00     0.003 A 
ATOM      3  C2  UNL d   1       2.612  -1.929   0.156  0.00  0.00     0.048 A 
ATOM      4  C3  UNL d   1       2.606  -0.735  -0.563  0.00  0.00     0.023 A 
ATOM      5  C4  UNL d   1       1.934  -0.648  -1.783  0.00  0.00     0.048 A 
ATOM      6  C5  UNL d   1       1.264  -1.767  -2.284  0.00  0.00     0.003 A 
ATOM      7  I   UNL d   1       3.605   0.927   0.185  0.00  0.00    -0.146 I 
ENDROOT
TORSDOF 0
ENDMDL
