MODEL 1
REMARK minimizedAffinity 2.93895912
REMARK minimizedRMSD -1
REMARK  0 active torsions:
REMARK  status: ('A' for Active; 'I' for Inactive)
ROOT
ATOM      1  C   UNL d   1       2.489  -5.735  -1.464  0.00  0.00     0.023 A 
ATOM      2  C1  UNL d   1       1.513  -5.137  -2.262  0.00  0.00     0.003 A 
ATOM      3  C2  UNL d   1       1.449  -3.746  -2.362  0.00  0.00     0.048 A 
ATOM      4  C3  UNL d   1       2.363  -2.959  -1.663  0.00  0.00     0.023 A 
ATOM      5  C4  UNL d   1       3.341  -3.553  -0.864  0.00  0.00     0.048 A 
ATOM      6  C5  UNL d   1       3.402  -4.944  -0.766  0.00  0.00     0.003 A 
ATOM      7  I   UNL d   1       2.269  -0.888  -1.811  0.00  0.00    -0.146 I 
ENDROOT
TORSDOF 0
ENDMDL
