MODEL 1
REMARK minimizedAffinity 11.6133423
REMARK minimizedRMSD -1
REMARK  0 active torsions:
REMARK  status: ('A' for Active; 'I' for Inactive)
ROOT
ATOM      1  C2' OXE d   1       2.686   1.032   0.004  0.00  0.00     0.078 C 
ATOM      2  C1' OXE d   1       1.465   1.348  -2.503  0.00  0.00     0.078 C 
ATOM      3  C1  OXE d   1       2.897   0.876  -2.473  0.00  0.00    -0.078 A 
ATOM      4  C2  OXE d   1       3.501   0.769  -1.244  0.00  0.00    -0.078 A 
ATOM      5  C3  OXE d   1       4.804   0.285  -1.156  0.00  0.00     0.003 A 
ATOM      6  C4  OXE d   1       5.554   0.054  -2.316  0.00  0.00    -0.002 A 
ATOM      7  C5  OXE d   1       4.970   0.195  -3.579  0.00  0.00    -0.002 A 
ATOM      8  C6  OXE d   1       3.632   0.564  -3.674  0.00  0.00     0.003 A 
ENDROOT
TORSDOF 0
ENDMDL
