MODEL 1
REMARK minimizedAffinity 5.82936049
REMARK minimizedRMSD -1
REMARK  0 active torsions:
REMARK  status: ('A' for Active; 'I' for Inactive)
ROOT
ATOM      1  C2' OXE d   1      -5.658   3.915  -5.250  0.00  0.00     0.078 C 
ATOM      2  C1' OXE d   1      -3.751   5.931  -4.826  0.00  0.00     0.078 C 
ATOM      3  C1  OXE d   1      -3.256   4.572  -5.254  0.00  0.00    -0.078 A 
ATOM      4  C2  OXE d   1      -4.192   3.579  -5.414  0.00  0.00    -0.078 A 
ATOM      5  C3  OXE d   1      -3.794   2.323  -5.861  0.00  0.00     0.003 A 
ATOM      6  C4  OXE d   1      -2.435   2.017  -6.000  0.00  0.00    -0.002 A 
ATOM      7  C5  OXE d   1      -1.462   3.003  -5.803  0.00  0.00    -0.002 A 
ATOM      8  C6  OXE d   1      -1.857   4.294  -5.472  0.00  0.00     0.003 A 
ENDROOT
TORSDOF 0
ENDMDL
