MODEL 1
REMARK minimizedAffinity 7.25351763
REMARK minimizedRMSD -1
REMARK  0 active torsions:
REMARK  status: ('A' for Active; 'I' for Inactive)
ROOT
ATOM      1  C2' OXE d   1       1.133   0.332  -1.955  0.00  0.00     0.078 C 
ATOM      2  C1' OXE d   1      -1.142  -1.162  -1.267  0.00  0.00     0.078 C 
ATOM      3  C1  OXE d   1       0.036  -1.203  -0.327  0.00  0.00    -0.078 A 
ATOM      4  C2  OXE d   1       1.162  -0.506  -0.694  0.00  0.00    -0.078 A 
ATOM      5  C3  OXE d   1       2.258  -0.465   0.163  0.00  0.00     0.003 A 
ATOM      6  C4  OXE d   1       2.281  -1.251   1.322  0.00  0.00    -0.002 A 
ATOM      7  C5  OXE d   1       1.159  -1.999   1.694  0.00  0.00    -0.002 A 
ATOM      8  C6  OXE d   1       0.016  -1.953   0.905  0.00  0.00     0.003 A 
ENDROOT
TORSDOF 0
ENDMDL
