MODEL 1
REMARK minimizedAffinity 4.94220209
REMARK minimizedRMSD -1
REMARK  0 active torsions:
REMARK  status: ('A' for Active; 'I' for Inactive)
ROOT
ATOM      1  C2' OXE d   1      -1.614  -0.958   2.951  0.00  0.00     0.078 C 
ATOM      2  C1' OXE d   1       0.835   0.203   3.682  0.00  0.00     0.078 C 
ATOM      3  C1  OXE d   1       0.874  -1.073   2.879  0.00  0.00    -0.078 A 
ATOM      4  C2  OXE d   1      -0.329  -1.659   2.565  0.00  0.00    -0.078 A 
ATOM      5  C3  OXE d   1      -0.352  -2.807   1.779  0.00  0.00     0.003 A 
ATOM      6  C4  OXE d   1       0.841  -3.455   1.435  0.00  0.00    -0.002 A 
ATOM      7  C5  OXE d   1       2.076  -2.896   1.778  0.00  0.00    -0.002 A 
ATOM      8  C6  OXE d   1       2.111  -1.686   2.462  0.00  0.00     0.003 A 
ENDROOT
TORSDOF 0
ENDMDL
