MODEL 1
REMARK minimizedAffinity 12.5121403
REMARK minimizedRMSD -1
REMARK  0 active torsions:
REMARK  status: ('A' for Active; 'I' for Inactive)
ROOT
ATOM      1  C2' OXE d   1      -2.412  -1.678  -1.043  0.00  0.00     0.078 C 
ATOM      2  C1' OXE d   1      -3.803   0.761  -1.071  0.00  0.00     0.078 C 
ATOM      3  C1  OXE d   1      -4.166  -0.268  -2.113  0.00  0.00    -0.078 A 
ATOM      4  C2  OXE d   1      -3.448  -1.440  -2.121  0.00  0.00    -0.078 A 
ATOM      5  C3  OXE d   1      -3.779  -2.445  -3.025  0.00  0.00     0.003 A 
ATOM      6  C4  OXE d   1      -4.732  -2.213  -4.025  0.00  0.00    -0.002 A 
ATOM      7  C5  OXE d   1      -5.447  -1.011  -4.059  0.00  0.00    -0.002 A 
ATOM      8  C6  OXE d   1      -5.206  -0.047  -3.086  0.00  0.00     0.003 A 
ENDROOT
TORSDOF 0
ENDMDL
