MODEL 1
REMARK minimizedAffinity 11.9494505
REMARK minimizedRMSD -1
REMARK  0 active torsions:
REMARK  status: ('A' for Active; 'I' for Inactive)
ROOT
ATOM      1  C2' OXE d   1       1.184   0.905  -0.918  0.00  0.00     0.078 C 
ATOM      2  C1' OXE d   1      -0.824  -1.055  -0.968  0.00  0.00     0.078 C 
ATOM      3  C1  OXE d   1       0.247  -1.172   0.088  0.00  0.00    -0.078 A 
ATOM      4  C2  OXE d   1       1.252  -0.235   0.075  0.00  0.00    -0.078 A 
ATOM      5  C3  OXE d   1       2.235  -0.265   1.060  0.00  0.00     0.003 A 
ATOM      6  C4  OXE d   1       2.295  -1.328   1.969  0.00  0.00    -0.002 A 
ATOM      7  C5  OXE d   1       1.304  -2.315   1.974  0.00  0.00    -0.002 A 
ATOM      8  C6  OXE d   1       0.252  -2.229   1.069  0.00  0.00     0.003 A 
ENDROOT
TORSDOF 0
ENDMDL
