MODEL 1
REMARK minimizedAffinity 14.1328468
REMARK minimizedRMSD -1
REMARK  0 active torsions:
REMARK  status: ('A' for Active; 'I' for Inactive)
ROOT
ATOM      1  C2' OXE d   1       0.443  -2.582   1.501  0.00  0.00     0.078 C 
ATOM      2  C1' OXE d   1      -0.913  -1.559  -0.734  0.00  0.00     0.078 C 
ATOM      3  C1  OXE d   1       0.311  -0.820  -0.255  0.00  0.00    -0.078 A 
ATOM      4  C2  OXE d   1       0.941  -1.301   0.867  0.00  0.00    -0.078 A 
ATOM      5  C3  OXE d   1       2.107  -0.689   1.320  0.00  0.00     0.003 A 
ATOM      6  C4  OXE d   1       2.555   0.501   0.734  0.00  0.00    -0.002 A 
ATOM      7  C5  OXE d   1       1.905   1.031  -0.386  0.00  0.00    -0.002 A 
ATOM      8  C6  OXE d   1       0.809   0.360  -0.917  0.00  0.00     0.003 A 
ENDROOT
TORSDOF 0
ENDMDL
