MODEL 1
REMARK minimizedAffinity 7.66486788
REMARK minimizedRMSD -1
REMARK  0 active torsions:
REMARK  status: ('A' for Active; 'I' for Inactive)
ROOT
ATOM      1  C2' OXE d   1       2.840  -2.628   1.931  0.00  0.00     0.078 C 
ATOM      2  C1' OXE d   1       5.522  -1.880   1.572  0.00  0.00     0.078 C 
ATOM      3  C1  OXE d   1       5.093  -3.230   1.054  0.00  0.00    -0.078 A 
ATOM      4  C2  OXE d   1       3.790  -3.607   1.276  0.00  0.00    -0.078 A 
ATOM      5  C3  OXE d   1       3.328  -4.819   0.771  0.00  0.00     0.003 A 
ATOM      6  C4  OXE d   1       4.216  -5.723   0.175  0.00  0.00    -0.002 A 
ATOM      7  C5  OXE d   1       5.556  -5.375  -0.025  0.00  0.00    -0.002 A 
ATOM      8  C6  OXE d   1       6.000  -4.118   0.370  0.00  0.00     0.003 A 
ENDROOT
TORSDOF 0
ENDMDL
