MODEL 1
REMARK minimizedAffinity 14.6549931
REMARK minimizedRMSD -1
REMARK  0 active torsions:
REMARK  status: ('A' for Active; 'I' for Inactive)
ROOT
ATOM      1  C2' OXE d   1      -3.881   0.852  -1.148  0.00  0.00     0.078 C 
ATOM      2  C1' OXE d   1      -5.999   0.728  -2.986  0.00  0.00     0.078 C 
ATOM      3  C1  OXE d   1      -5.044  -0.438  -2.934  0.00  0.00    -0.078 A 
ATOM      4  C2  OXE d   1      -3.983  -0.348  -2.065  0.00  0.00    -0.078 A 
ATOM      5  C3  OXE d   1      -3.104  -1.419  -1.938  0.00  0.00     0.003 A 
ATOM      6  C4  OXE d   1      -3.200  -2.521  -2.796  0.00  0.00    -0.002 A 
ATOM      7  C5  OXE d   1      -4.249  -2.615  -3.717  0.00  0.00    -0.002 A 
ATOM      8  C6  OXE d   1      -5.202  -1.603  -3.769  0.00  0.00     0.003 A 
ENDROOT
TORSDOF 0
ENDMDL
