MODEL 1
REMARK minimizedAffinity 11.4812975
REMARK minimizedRMSD -1
REMARK  0 active torsions:
REMARK  status: ('A' for Active; 'I' for Inactive)
ROOT
ATOM      1  C2' OXE d   1       0.742  -1.705   1.376  0.00  0.00     0.078 C 
ATOM      2  C1' OXE d   1      -0.732  -1.557  -1.009  0.00  0.00     0.078 C 
ATOM      3  C1  OXE d   1       0.392  -0.570  -0.813  0.00  0.00    -0.078 A 
ATOM      4  C2  OXE d   1       1.077  -0.619   0.377  0.00  0.00    -0.078 A 
ATOM      5  C3  OXE d   1       2.158   0.232   0.586  0.00  0.00     0.003 A 
ATOM      6  C4  OXE d   1       2.455   1.240  -0.339  0.00  0.00    -0.002 A 
ATOM      7  C5  OXE d   1       1.744   1.334  -1.540  0.00  0.00    -0.002 A 
ATOM      8  C6  OXE d   1       0.740   0.412  -1.811  0.00  0.00     0.003 A 
ENDROOT
TORSDOF 0
ENDMDL
