MODEL 1
REMARK minimizedAffinity 6.47376966
REMARK minimizedRMSD -1
REMARK  0 active torsions:
REMARK  status: ('A' for Active; 'I' for Inactive)
ROOT
ATOM      1  C2' OXE d   1       3.905   5.174   5.999  0.00  0.00     0.078 C 
ATOM      2  C1' OXE d   1       3.387   3.580   3.747  0.00  0.00     0.078 C 
ATOM      3  C1  OXE d   1       2.246   4.387   4.315  0.00  0.00    -0.078 A 
ATOM      4  C2  OXE d   1       2.497   5.127   5.445  0.00  0.00    -0.078 A 
ATOM      5  C3  OXE d   1       1.495   5.933   5.978  0.00  0.00     0.003 A 
ATOM      6  C4  OXE d   1       0.193   5.876   5.465  0.00  0.00    -0.002 A 
ATOM      7  C5  OXE d   1      -0.094   5.098   4.339  0.00  0.00    -0.002 A 
ATOM      8  C6  OXE d   1       0.929   4.382   3.728  0.00  0.00     0.003 A 
ENDROOT
TORSDOF 0
ENDMDL
