MODEL 1
REMARK minimizedAffinity 13.3780851
REMARK minimizedRMSD -1
REMARK  0 active torsions:
REMARK  status: ('A' for Active; 'I' for Inactive)
ROOT
ATOM      1  C2' OXE d   1      -2.965  -1.960  -0.547  0.00  0.00     0.078 C 
ATOM      2  C1' OXE d   1      -4.151   0.562  -0.886  0.00  0.00     0.078 C 
ATOM      3  C1  OXE d   1      -4.423  -0.489  -1.933  0.00  0.00    -0.078 A 
ATOM      4  C2  OXE d   1      -3.801  -1.705  -1.783  0.00  0.00    -0.078 A 
ATOM      5  C3  OXE d   1      -4.061  -2.728  -2.691  0.00  0.00     0.003 A 
ATOM      6  C4  OXE d   1      -4.827  -2.482  -3.837  0.00  0.00    -0.002 A 
ATOM      7  C5  OXE d   1      -5.437  -1.238  -4.028  0.00  0.00    -0.002 A 
ATOM      8  C6  OXE d   1      -5.280  -0.246  -3.066  0.00  0.00     0.003 A 
ENDROOT
TORSDOF 0
ENDMDL
