MODEL 1
REMARK minimizedAffinity 11.5380249
REMARK minimizedRMSD -1
REMARK  0 active torsions:
REMARK  status: ('A' for Active; 'I' for Inactive)
ROOT
ATOM      1  C2' OXE d   1       1.660  -1.879   1.569  0.00  0.00     0.078 C 
ATOM      2  C1' OXE d   1       3.073   0.391   0.715  0.00  0.00     0.078 C 
ATOM      3  C1  OXE d   1       1.881  -0.043  -0.100  0.00  0.00    -0.078 A 
ATOM      4  C2  OXE d   1       1.224  -1.182   0.298  0.00  0.00    -0.078 A 
ATOM      5  C3  OXE d   1       0.085  -1.596  -0.386  0.00  0.00     0.003 A 
ATOM      6  C4  OXE d   1      -0.307  -0.952  -1.566  0.00  0.00    -0.002 A 
ATOM      7  C5  OXE d   1       0.373   0.187  -2.012  0.00  0.00    -0.002 A 
ATOM      8  C6  OXE d   1       1.440   0.678  -1.269  0.00  0.00     0.003 A 
ENDROOT
TORSDOF 0
ENDMDL
