MODEL 1
REMARK minimizedAffinity -2.21307397
REMARK minimizedRMSD -1
REMARK  3 active torsions:
REMARK  status: ('A' for Active; 'I' for Inactive)
REMARK    1  A    between atoms: C3'_2  and  C2'_3 
REMARK    2  A    between atoms: C2'_3  and  C1'_4 
REMARK    3  A    between atoms: C1'_4  and  C1_5 
ROOT
ATOM      1  C1  N4B d   1      -0.746  -1.241   1.261  0.00  0.00    -0.075 A 
ATOM      2  C2  N4B d   1       0.131  -0.511   0.429  0.00  0.00     0.002 A 
ATOM      3  C3  N4B d   1      -0.113   0.816   0.172  0.00  0.00     0.002 A 
ATOM      4  C4  N4B d   1      -1.233   1.426   0.719  0.00  0.00    -0.004 A 
ATOM      5  C5  N4B d   1      -2.060   0.720   1.542  0.00  0.00     0.002 A 
ATOM      6  C6  N4B d   1      -1.825  -0.613   1.812  0.00  0.00     0.002 A 
ENDROOT
BRANCH   1   7
ATOM      7  C1' N4B d   1      -0.568  -2.716   1.502  0.00  0.00     0.057 C 
BRANCH   7   8
ATOM      8  C2' N4B d   1      -1.320  -3.493   0.426  0.00  0.00     0.009 C 
BRANCH   8   9
ATOM      9  C3' N4B d   1      -2.822  -3.463   0.650  0.00  0.00     0.004 C 
ATOM     10  C4' N4B d   1      -3.589  -3.132  -0.596  0.00  0.00     0.003 C 
ENDBRANCH   8   9
ENDBRANCH   7   8
ENDBRANCH   1   7
TORSDOF 3
ENDMDL
