MODEL 1
REMARK minimizedAffinity 0.683832765
REMARK minimizedRMSD -1
REMARK  3 active torsions:
REMARK  status: ('A' for Active; 'I' for Inactive)
REMARK    1  A    between atoms: C3'_2  and  C2'_3 
REMARK    2  A    between atoms: C2'_3  and  C1'_4 
REMARK    3  A    between atoms: C1'_4  and  C1_5 
ROOT
ATOM      1  C1  N4B d   1      -0.846  -1.289   0.601  0.00  0.00    -0.075 A 
ATOM      2  C2  N4B d   1       0.405  -1.171  -0.044  0.00  0.00     0.002 A 
ATOM      3  C3  N4B d   1       1.015  -2.284  -0.569  0.00  0.00     0.002 A 
ATOM      4  C4  N4B d   1       0.404  -3.523  -0.444  0.00  0.00    -0.004 A 
ATOM      5  C5  N4B d   1      -0.816  -3.625   0.158  0.00  0.00     0.002 A 
ATOM      6  C6  N4B d   1      -1.442  -2.514   0.686  0.00  0.00     0.002 A 
ENDROOT
BRANCH   1   7
ATOM      7  C1' N4B d   1      -1.511  -0.114   1.265  0.00  0.00     0.057 C 
BRANCH   7   8
ATOM      8  C2' N4B d   1      -2.659  -0.616   2.136  0.00  0.00     0.009 C 
BRANCH   8   9
ATOM      9  C3' N4B d   1      -3.929   0.190   1.922  0.00  0.00     0.004 C 
ATOM     10  C4' N4B d   1      -4.452   0.798   3.190  0.00  0.00     0.003 C 
ENDBRANCH   8   9
ENDBRANCH   7   8
ENDBRANCH   1   7
TORSDOF 3
ENDMDL
