MODEL 1
REMARK minimizedAffinity -6.07262659
REMARK minimizedRMSD -1
REMARK  3 active torsions:
REMARK  status: ('A' for Active; 'I' for Inactive)
REMARK    1  A    between atoms: C3'_2  and  C2'_3 
REMARK    2  A    between atoms: C2'_3  and  C1'_4 
REMARK    3  A    between atoms: C1'_4  and  C1_5 
ROOT
ATOM      1  C1  N4B d   1      -0.284   0.285   0.266  0.00  0.00    -0.075 A 
ATOM      2  C2  N4B d   1      -1.286  -0.034   1.209  0.00  0.00     0.002 A 
ATOM      3  C3  N4B d   1      -1.530  -1.346   1.533  0.00  0.00     0.002 A 
ATOM      4  C4  N4B d   1      -0.803  -2.352   0.916  0.00  0.00    -0.004 A 
ATOM      5  C5  N4B d   1       0.181  -2.035   0.025  0.00  0.00     0.002 A 
ATOM      6  C6  N4B d   1       0.440  -0.720  -0.307  0.00  0.00     0.002 A 
ENDROOT
BRANCH   1   7
ATOM      7  C1' N4B d   1      -0.039   1.699  -0.185  0.00  0.00     0.057 C 
BRANCH   7   8
ATOM      8  C2' N4B d   1       1.460   1.983  -0.149  0.00  0.00     0.009 C 
BRANCH   8   9
ATOM      9  C3' N4B d   1       1.759   3.400   0.308  0.00  0.00     0.004 C 
ATOM     10  C4' N4B d   1       2.278   3.460   1.713  0.00  0.00     0.003 C 
ENDBRANCH   8   9
ENDBRANCH   7   8
ENDBRANCH   1   7
TORSDOF 3
ENDMDL
