MODEL 1
REMARK minimizedAffinity -5.81019211
REMARK minimizedRMSD -1
REMARK  3 active torsions:
REMARK  status: ('A' for Active; 'I' for Inactive)
REMARK    1  A    between atoms: C3'_2  and  C2'_3 
REMARK    2  A    between atoms: C2'_3  and  C1'_4 
REMARK    3  A    between atoms: C1'_4  and  C1_5 
ROOT
ATOM      1  C1  N4B d   1      -0.321  -0.448   0.279  0.00  0.00    -0.075 A 
ATOM      2  C2  N4B d   1      -1.318  -0.904   1.169  0.00  0.00     0.002 A 
ATOM      3  C3  N4B d   1      -1.402  -2.240   1.479  0.00  0.00     0.002 A 
ATOM      4  C4  N4B d   1      -0.516  -3.136   0.900  0.00  0.00    -0.004 A 
ATOM      5  C5  N4B d   1       0.460  -2.683   0.060  0.00  0.00     0.002 A 
ATOM      6  C6  N4B d   1       0.559  -1.344  -0.257  0.00  0.00     0.002 A 
ENDROOT
BRANCH   1   7
ATOM      7  C1' N4B d   1      -0.243   0.990  -0.157  0.00  0.00     0.057 C 
BRANCH   7   8
ATOM      8  C2' N4B d   1       1.130   1.548   0.202  0.00  0.00     0.009 C 
BRANCH   8   9
ATOM      9  C3' N4B d   1       1.049   2.982   0.697  0.00  0.00     0.004 C 
ATOM     10  C4' N4B d   1       2.304   3.432   1.383  0.00  0.00     0.003 C 
ENDBRANCH   8   9
ENDBRANCH   7   8
ENDBRANCH   1   7
TORSDOF 3
ENDMDL
