MODEL 1
REMARK minimizedAffinity -4.92682552
REMARK minimizedRMSD -1
REMARK  3 active torsions:
REMARK  status: ('A' for Active; 'I' for Inactive)
REMARK    1  A    between atoms: C3'_2  and  C2'_3 
REMARK    2  A    between atoms: C2'_3  and  C1'_4 
REMARK    3  A    between atoms: C1'_4  and  C1_5 
ROOT
ATOM      1  C1  N4B d   1      -0.370  -1.252   0.248  0.00  0.00    -0.075 A 
ATOM      2  C2  N4B d   1      -0.878  -2.301   1.044  0.00  0.00     0.002 A 
ATOM      3  C3  N4B d   1      -0.918  -3.582   0.549  0.00  0.00     0.002 A 
ATOM      4  C4  N4B d   1      -0.475  -3.832  -0.741  0.00  0.00    -0.004 A 
ATOM      5  C5  N4B d   1       0.039  -2.817  -1.494  0.00  0.00     0.002 A 
ATOM      6  C6  N4B d   1       0.089  -1.526  -1.007  0.00  0.00     0.002 A 
ENDROOT
BRANCH   1   7
ATOM      7  C1' N4B d   1      -0.385   0.178   0.715  0.00  0.00     0.057 C 
BRANCH   7   8
ATOM      8  C2' N4B d   1       0.531   1.007  -0.180  0.00  0.00     0.009 C 
BRANCH   8   9
ATOM      9  C3' N4B d   1       0.777   2.395   0.388  0.00  0.00     0.004 C 
ATOM     10  C4' N4B d   1       2.235   2.733   0.485  0.00  0.00     0.003 C 
ENDBRANCH   8   9
ENDBRANCH   7   8
ENDBRANCH   1   7
TORSDOF 3
ENDMDL
