MODEL 1
REMARK minimizedAffinity -3.27098846
REMARK minimizedRMSD -1
REMARK  0 active torsions:
REMARK  status: ('A' for Active; 'I' for Inactive)
ROOT
ATOM      1  C   UNL d   1       1.881  -1.133   0.045  0.00  0.00     0.023 A 
ATOM      2  C1  UNL d   1       1.712   0.191   0.449  0.00  0.00     0.003 A 
ATOM      3  C2  UNL d   1       0.439   0.764   0.453  0.00  0.00     0.048 A 
ATOM      4  C3  UNL d   1      -0.661   0.007   0.052  0.00  0.00     0.023 A 
ATOM      5  C4  UNL d   1      -0.497  -1.319  -0.352  0.00  0.00     0.048 A 
ATOM      6  C5  UNL d   1       0.778  -1.887  -0.356  0.00  0.00     0.003 A 
ATOM      7  I   UNL d   1      -2.557   0.858   0.057  0.00  0.00    -0.146 I 
ENDROOT
TORSDOF 0
ENDMDL
