MODEL 1
REMARK minimizedAffinity 3.27605939
REMARK minimizedRMSD -1
REMARK  0 active torsions:
REMARK  status: ('A' for Active; 'I' for Inactive)
ROOT
ATOM      1  C   UNL d   1       3.530   0.961   1.415  0.00  0.00     0.023 A 
ATOM      2  C1  UNL d   1       2.437   1.085   0.559  0.00  0.00     0.003 A 
ATOM      3  C2  UNL d   1       1.783  -0.056   0.089  0.00  0.00     0.048 A 
ATOM      4  C3  UNL d   1       2.228  -1.318   0.481  0.00  0.00     0.023 A 
ATOM      5  C4  UNL d   1       3.322  -1.447   1.339  0.00  0.00     0.048 A 
ATOM      6  C5  UNL d   1       3.973  -0.303   1.805  0.00  0.00     0.003 A 
ATOM      7  I   UNL d   1       1.257  -3.018  -0.217  0.00  0.00    -0.146 I 
ENDROOT
TORSDOF 0
ENDMDL
