MODEL 1
REMARK minimizedAffinity -4.27263308
REMARK minimizedRMSD -1
REMARK  0 active torsions:
REMARK  status: ('A' for Active; 'I' for Inactive)
ROOT
ATOM      1  C   UNL d   1      -2.497   1.608   0.059  0.00  0.00     0.023 A 
ATOM      2  C1  UNL d   1      -1.930   1.234  -1.159  0.00  0.00     0.003 A 
ATOM      3  C2  UNL d   1      -0.874   0.322  -1.189  0.00  0.00     0.048 A 
ATOM      4  C3  UNL d   1      -0.389  -0.213   0.004  0.00  0.00     0.023 A 
ATOM      5  C4  UNL d   1      -0.953   0.157   1.226  0.00  0.00     0.048 A 
ATOM      6  C5  UNL d   1      -2.009   1.071   1.250  0.00  0.00     0.003 A 
ATOM      7  I   UNL d   1       1.184  -1.572  -0.037  0.00  0.00    -0.146 I 
ENDROOT
TORSDOF 0
ENDMDL
