MODEL 1
REMARK minimizedAffinity -3.27441692
REMARK minimizedRMSD -1
REMARK  0 active torsions:
REMARK  status: ('A' for Active; 'I' for Inactive)
ROOT
ATOM      1  C   UNL d   1      -1.015   1.144  -0.739  0.00  0.00     0.023 A 
ATOM      2  C1  UNL d   1       0.116   1.638  -0.090  0.00  0.00     0.003 A 
ATOM      3  C2  UNL d   1       1.183   0.786   0.202  0.00  0.00     0.048 A 
ATOM      4  C3  UNL d   1       1.112  -0.560  -0.158  0.00  0.00     0.023 A 
ATOM      5  C4  UNL d   1      -0.018  -1.058  -0.808  0.00  0.00     0.048 A 
ATOM      6  C5  UNL d   1      -1.083  -0.203  -1.097  0.00  0.00     0.003 A 
ATOM      7  I   UNL d   1       2.698  -1.830   0.276  0.00  0.00    -0.146 I 
ENDROOT
TORSDOF 0
ENDMDL
