MODEL 1
REMARK minimizedAffinity -3.61186099
REMARK minimizedRMSD -1
REMARK  0 active torsions:
REMARK  status: ('A' for Active; 'I' for Inactive)
ROOT
ATOM      1  C   UNL d   1       3.864   0.363  -0.046  0.00  0.00     0.023 A 
ATOM      2  C1  UNL d   1       3.174   1.575  -0.050  0.00  0.00     0.003 A 
ATOM      3  C2  UNL d   1       1.782   1.587  -0.152  0.00  0.00     0.048 A 
ATOM      4  C3  UNL d   1       1.085   0.383  -0.249  0.00  0.00     0.023 A 
ATOM      5  C4  UNL d   1       1.771  -0.832  -0.244  0.00  0.00     0.048 A 
ATOM      6  C5  UNL d   1       3.163  -0.840  -0.142  0.00  0.00     0.003 A 
ATOM      7  I   UNL d   1      -0.988   0.399  -0.401  0.00  0.00    -0.146 I 
ENDROOT
TORSDOF 0
ENDMDL
