MODEL 1
REMARK minimizedAffinity -2.76559877
REMARK minimizedRMSD -1
REMARK  0 active torsions:
REMARK  status: ('A' for Active; 'I' for Inactive)
ROOT
ATOM      1  C   UNL d   1      -5.010   1.518   1.311  0.00  0.00     0.023 A 
ATOM      2  C1  UNL d   1      -4.930   0.850   0.089  0.00  0.00     0.003 A 
ATOM      3  C2  UNL d   1      -3.685   0.507  -0.441  0.00  0.00     0.048 A 
ATOM      4  C3  UNL d   1      -2.523   0.834   0.257  0.00  0.00     0.023 A 
ATOM      5  C4  UNL d   1      -2.598   1.502   1.480  0.00  0.00     0.048 A 
ATOM      6  C5  UNL d   1      -3.845   1.844   2.006  0.00  0.00     0.003 A 
ATOM      7  I   UNL d   1      -0.668   0.324  -0.529  0.00  0.00    -0.146 I 
ENDROOT
TORSDOF 0
ENDMDL
