MODEL 1
REMARK minimizedAffinity -1.75504637
REMARK minimizedRMSD -1
REMARK  0 active torsions:
REMARK  status: ('A' for Active; 'I' for Inactive)
ROOT
ATOM      1  C   UNL d   1       2.700  -1.626   0.738  0.00  0.00     0.023 A 
ATOM      2  C1  UNL d   1       2.212  -0.676   1.635  0.00  0.00     0.003 A 
ATOM      3  C2  UNL d   1       1.134   0.135   1.276  0.00  0.00     0.048 A 
ATOM      4  C3  UNL d   1       0.548  -0.010   0.019  0.00  0.00     0.023 A 
ATOM      5  C4  UNL d   1       1.033  -0.960  -0.882  0.00  0.00     0.048 A 
ATOM      6  C5  UNL d   1       2.111  -1.768  -0.519  0.00  0.00     0.003 A 
ATOM      7  I   UNL d   1      -1.057   1.197  -0.518  0.00  0.00    -0.146 I 
ENDROOT
TORSDOF 0
ENDMDL
