MODEL 1
REMARK minimizedAffinity -2.46573234
REMARK minimizedRMSD -1
REMARK  0 active torsions:
REMARK  status: ('A' for Active; 'I' for Inactive)
ROOT
ATOM      1  C   UNL d   1       2.019  -1.512  -0.257  0.00  0.00     0.023 A 
ATOM      2  C1  UNL d   1       0.782  -2.122  -0.469  0.00  0.00     0.003 A 
ATOM      3  C2  UNL d   1      -0.396  -1.400  -0.268  0.00  0.00     0.048 A 
ATOM      4  C3  UNL d   1      -0.331  -0.070   0.143  0.00  0.00     0.023 A 
ATOM      5  C4  UNL d   1       0.904   0.544   0.356  0.00  0.00     0.048 A 
ATOM      6  C5  UNL d   1       2.080  -0.181   0.155  0.00  0.00     0.003 A 
ATOM      7  I   UNL d   1      -2.084   1.006   0.443  0.00  0.00    -0.146 I 
ENDROOT
TORSDOF 0
ENDMDL
