MODEL 1
REMARK minimizedAffinity -1.94265616
REMARK minimizedRMSD -1
REMARK  0 active torsions:
REMARK  status: ('A' for Active; 'I' for Inactive)
ROOT
ATOM      1  O1  BZF d   1       0.158   0.172  -1.267  0.00  0.00    -0.204 OA
ATOM      2  C2  BZF d   1       0.876  -0.937  -0.863  0.00  0.00     0.174 A 
ATOM      3  C3  BZF d   1       0.784  -1.107   0.471  0.00  0.00    -0.012 A 
ATOM      4  C3A BZF d   1      -0.119  -0.091   0.919  0.00  0.00    -0.107 A 
ATOM      5  C4  BZF d   1      -0.622   0.245   2.143  0.00  0.00     0.055 A 
ATOM      6  C5  BZF d   1      -1.424   1.337   2.250  0.00  0.00    -0.016 A 
ATOM      7  C6  BZF d   1      -1.738   2.117   1.157  0.00  0.00     0.022 A 
ATOM      8  C7  BZF d   1      -1.267   1.821  -0.079  0.00  0.00     0.029 A 
ATOM      9  C7A BZF d   1      -0.483   0.699  -0.196  0.00  0.00     0.058 A 
ENDROOT
TORSDOF 0
ENDMDL
