MODEL 1
REMARK minimizedAffinity -3.74589276
REMARK minimizedRMSD -1
REMARK  0 active torsions:
REMARK  status: ('A' for Active; 'I' for Inactive)
ROOT
ATOM      1  O1  BZF d   1       0.668  -0.348   1.284  0.00  0.00    -0.204 OA
ATOM      2  C2  BZF d   1       1.050  -0.729   0.011  0.00  0.00     0.174 A 
ATOM      3  C3  BZF d   1       0.235  -0.183  -0.915  0.00  0.00    -0.012 A 
ATOM      4  C3A BZF d   1      -0.658   0.660  -0.182  0.00  0.00    -0.107 A 
ATOM      5  C4  BZF d   1      -1.686   1.481  -0.547  0.00  0.00     0.055 A 
ATOM      6  C5  BZF d   1      -2.405   2.109   0.420  0.00  0.00    -0.016 A 
ATOM      7  C6  BZF d   1      -2.127   1.935   1.760  0.00  0.00     0.022 A 
ATOM      8  C7  BZF d   1      -1.113   1.135   2.171  0.00  0.00     0.029 A 
ATOM      9  C7A BZF d   1      -0.364   0.525   1.195  0.00  0.00     0.058 A 
ENDROOT
TORSDOF 0
ENDMDL
