MODEL 1
REMARK minimizedAffinity -1.14180601
REMARK minimizedRMSD -1
REMARK  0 active torsions:
REMARK  status: ('A' for Active; 'I' for Inactive)
ROOT
ATOM      1  O1  BZF d   1      -1.038   0.917   2.331  0.00  0.00    -0.204 OA
ATOM      2  C2  BZF d   1      -2.015   1.882   2.183  0.00  0.00     0.174 A 
ATOM      3  C3  BZF d   1      -2.103   2.279   0.897  0.00  0.00    -0.012 A 
ATOM      4  C3A BZF d   1      -1.183   1.448   0.182  0.00  0.00    -0.107 A 
ATOM      5  C4  BZF d   1      -0.831   1.353  -1.134  0.00  0.00     0.055 A 
ATOM      6  C5  BZF d   1       0.153   0.488  -1.493  0.00  0.00    -0.016 A 
ATOM      7  C6  BZF d   1       0.810  -0.292  -0.564  0.00  0.00     0.022 A 
ATOM      8  C7  BZF d   1       0.492  -0.236   0.753  0.00  0.00     0.029 A 
ATOM      9  C7A BZF d   1      -0.525   0.613   1.115  0.00  0.00     0.058 A 
ENDROOT
TORSDOF 0
ENDMDL
