MODEL 1
REMARK minimizedAffinity -3.71763015
REMARK minimizedRMSD -1
REMARK  0 active torsions:
REMARK  status: ('A' for Active; 'I' for Inactive)
ROOT
ATOM      1  O1  BZF d   1       0.024  -0.225  -1.001  0.00  0.00    -0.204 OA
ATOM      2  C2  BZF d   1       0.842  -0.960  -0.164  0.00  0.00     0.174 A 
ATOM      3  C3  BZF d   1       0.702  -0.557   1.115  0.00  0.00    -0.012 A 
ATOM      4  C3A BZF d   1      -0.331   0.432   1.088  0.00  0.00    -0.107 A 
ATOM      5  C4  BZF d   1      -0.931   1.191   2.053  0.00  0.00     0.055 A 
ATOM      6  C5  BZF d   1      -1.856   2.116   1.685  0.00  0.00    -0.016 A 
ATOM      7  C6  BZF d   1      -2.201   2.312   0.364  0.00  0.00     0.022 A 
ATOM      8  C7  BZF d   1      -1.638   1.580  -0.627  0.00  0.00     0.029 A 
ATOM      9  C7A BZF d   1      -0.727   0.622  -0.256  0.00  0.00     0.058 A 
ENDROOT
TORSDOF 0
ENDMDL
