MODEL 1
REMARK minimizedAffinity -4.41406298
REMARK minimizedRMSD -1
REMARK  0 active torsions:
REMARK  status: ('A' for Active; 'I' for Inactive)
ROOT
ATOM      1  O1  BZF d   1      -1.141   3.054  -0.338  0.00  0.00    -0.204 OA
ATOM      2  C2  BZF d   1      -2.024   3.135   0.722  0.00  0.00     0.174 A 
ATOM      3  C3  BZF d   1      -1.956   2.026   1.487  0.00  0.00    -0.012 A 
ATOM      4  C3A BZF d   1      -0.902   1.242   0.919  0.00  0.00    -0.107 A 
ATOM      5  C4  BZF d   1      -0.348   0.037   1.246  0.00  0.00     0.055 A 
ATOM      6  C5  BZF d   1       0.617  -0.485   0.444  0.00  0.00    -0.016 A 
ATOM      7  C6  BZF d   1       1.047   0.166  -0.693  0.00  0.00     0.022 A 
ATOM      8  C7  BZF d   1       0.531   1.366  -1.055  0.00  0.00     0.029 A 
ATOM      9  C7A BZF d   1      -0.421   1.912  -0.229  0.00  0.00     0.058 A 
ENDROOT
TORSDOF 0
ENDMDL
