MODEL 1
REMARK minimizedAffinity -3.51187444
REMARK minimizedRMSD -1
REMARK  0 active torsions:
REMARK  status: ('A' for Active; 'I' for Inactive)
ROOT
ATOM      1  O1  BZF d   1      -0.593   1.994   1.162  0.00  0.00    -0.204 OA
ATOM      2  C2  BZF d   1      -1.106   1.080   2.061  0.00  0.00     0.174 A 
ATOM      3  C3  BZF d   1      -0.809  -0.181   1.683  0.00  0.00    -0.012 A 
ATOM      4  C3A BZF d   1       0.015  -0.041   0.522  0.00  0.00    -0.107 A 
ATOM      5  C4  BZF d   1       0.639  -0.936  -0.299  0.00  0.00     0.055 A 
ATOM      6  C5  BZF d   1       1.308  -0.477  -1.389  0.00  0.00    -0.016 A 
ATOM      7  C6  BZF d   1       1.369   0.868  -1.691  0.00  0.00     0.022 A 
ATOM      8  C7  BZF d   1       0.770   1.794  -0.903  0.00  0.00     0.029 A 
ATOM      9  C7A BZF d   1       0.121   1.336   0.218  0.00  0.00     0.058 A 
ENDROOT
TORSDOF 0
ENDMDL
