MODEL 1
REMARK minimizedAffinity -2.6086123
REMARK minimizedRMSD -1
REMARK  0 active torsions:
REMARK  status: ('A' for Active; 'I' for Inactive)
ROOT
ATOM      1  O1  BZF d   1       0.899  -0.821   0.732  0.00  0.00    -0.204 OA
ATOM      2  C2  BZF d   1       1.199  -0.951  -0.610  0.00  0.00     0.174 A 
ATOM      3  C3  BZF d   1       0.299  -0.292  -1.367  0.00  0.00    -0.012 A 
ATOM      4  C3A BZF d   1      -0.568   0.363  -0.437  0.00  0.00    -0.107 A 
ATOM      5  C4  BZF d   1      -1.651   1.183  -0.579  0.00  0.00     0.055 A 
ATOM      6  C5  BZF d   1      -2.320   1.593   0.531  0.00  0.00    -0.016 A 
ATOM      7  C6  BZF d   1      -1.937   1.199   1.796  0.00  0.00     0.022 A 
ATOM      8  C7  BZF d   1      -0.867   0.390   1.988  0.00  0.00     0.029 A 
ATOM      9  C7A BZF d   1      -0.169   0.001   0.871  0.00  0.00     0.058 A 
ENDROOT
TORSDOF 0
ENDMDL
