MODEL 1
REMARK minimizedAffinity -4.88175154
REMARK minimizedRMSD -1
REMARK  0 active torsions:
REMARK  status: ('A' for Active; 'I' for Inactive)
ROOT
ATOM      1  O1  BZF d   1       1.284  -0.298  -0.996  0.00  0.00    -0.204 OA
ATOM      2  C2  BZF d   1       1.366  -1.270  -0.017  0.00  0.00     0.174 A 
ATOM      3  C3  BZF d   1       0.487  -1.023   0.976  0.00  0.00    -0.012 A 
ATOM      4  C3A BZF d   1      -0.250   0.126   0.549  0.00  0.00    -0.107 A 
ATOM      5  C4  BZF d   1      -1.274   0.843   1.100  0.00  0.00     0.055 A 
ATOM      6  C5  BZF d   1      -1.720   1.957   0.462  0.00  0.00    -0.016 A 
ATOM      7  C6  BZF d   1      -1.161   2.386  -0.724  0.00  0.00     0.022 A 
ATOM      8  C7  BZF d   1      -0.147   1.705  -1.312  0.00  0.00     0.029 A 
ATOM      9  C7A BZF d   1       0.283   0.561  -0.686  0.00  0.00     0.058 A 
ENDROOT
TORSDOF 0
ENDMDL
