MODEL 1
REMARK minimizedAffinity -4.08192873
REMARK minimizedRMSD -1
REMARK  0 active torsions:
REMARK  status: ('A' for Active; 'I' for Inactive)
ROOT
ATOM      1  O1  BZF d   1      -1.439   2.154   0.194  0.00  0.00    -0.204 OA
ATOM      2  C2  BZF d   1      -2.066   2.183   1.425  0.00  0.00     0.174 A 
ATOM      3  C3  BZF d   1      -1.796   1.063   2.126  0.00  0.00    -0.012 A 
ATOM      4  C3A BZF d   1      -0.872   0.327   1.319  0.00  0.00    -0.107 A 
ATOM      5  C4  BZF d   1      -0.223  -0.863   1.482  0.00  0.00     0.055 A 
ATOM      6  C5  BZF d   1       0.555  -1.336   0.473  0.00  0.00    -0.016 A 
ATOM      7  C6  BZF d   1       0.702  -0.647  -0.713  0.00  0.00     0.022 A 
ATOM      8  C7  BZF d   1       0.082   0.540  -0.920  0.00  0.00     0.029 A 
ATOM      9  C7A BZF d   1      -0.678   1.036   0.110  0.00  0.00     0.058 A 
ENDROOT
TORSDOF 0
ENDMDL
