MODEL 1
REMARK minimizedAffinity -4.17521381
REMARK minimizedRMSD -1
REMARK  0 active torsions:
REMARK  status: ('A' for Active; 'I' for Inactive)
ROOT
ATOM      1  O1  BZF d   1      -2.071   1.445   1.909  0.00  0.00    -0.204 OA
ATOM      2  C2  BZF d   1      -2.442   2.368   0.950  0.00  0.00     0.174 A 
ATOM      3  C3  BZF d   1      -1.643   2.280  -0.132  0.00  0.00    -0.012 A 
ATOM      4  C3A BZF d   1      -0.772   1.176   0.131  0.00  0.00    -0.107 A 
ATOM      5  C4  BZF d   1       0.234   0.585  -0.578  0.00  0.00     0.055 A 
ATOM      6  C5  BZF d   1       0.937  -0.429  -0.007  0.00  0.00    -0.016 A 
ATOM      7  C6  BZF d   1       0.664  -0.872   1.271  0.00  0.00     0.022 A 
ATOM      8  C7  BZF d   1      -0.328  -0.319   2.010  0.00  0.00     0.029 A 
ATOM      9  C7A BZF d   1      -1.062   0.683   1.424  0.00  0.00     0.058 A 
ENDROOT
TORSDOF 0
ENDMDL
