MODEL 1
REMARK minimizedAffinity -3.11939025
REMARK minimizedRMSD -1
REMARK  0 active torsions:
REMARK  status: ('A' for Active; 'I' for Inactive)
ROOT
ATOM      1  O1  BZF d   1       0.965  -1.459   0.528  0.00  0.00    -0.204 OA
ATOM      2  C2  BZF d   1       1.449  -1.450  -0.766  0.00  0.00     0.174 A 
ATOM      3  C3  BZF d   1       0.924  -0.423  -1.465  0.00  0.00    -0.012 A 
ATOM      4  C3A BZF d   1       0.129   0.305  -0.525  0.00  0.00    -0.107 A 
ATOM      5  C4  BZF d   1      -0.631   1.436  -0.615  0.00  0.00     0.055 A 
ATOM      6  C5  BZF d   1      -1.340   1.844   0.471  0.00  0.00    -0.016 A 
ATOM      7  C6  BZF d   1      -1.317   1.142   1.658  0.00  0.00     0.022 A 
ATOM      8  C7  BZF d   1      -0.574   0.018   1.797  0.00  0.00     0.029 A 
ATOM      9  C7A BZF d   1       0.170  -0.378   0.713  0.00  0.00     0.058 A 
ENDROOT
TORSDOF 0
ENDMDL
