MODEL 1
REMARK minimizedAffinity -2.21085358
REMARK minimizedRMSD -1
REMARK  0 active torsions:
REMARK  status: ('A' for Active; 'I' for Inactive)
ROOT
ATOM      1  O1  BZF d   1       0.155   1.627  -1.128  0.00  0.00    -0.204 OA
ATOM      2  C2  BZF d   1       1.107   0.913  -1.829  0.00  0.00     0.174 A 
ATOM      3  C3  BZF d   1       1.498  -0.174  -1.134  0.00  0.00    -0.012 A 
ATOM      4  C3A BZF d   1       0.675  -0.189   0.036  0.00  0.00    -0.107 A 
ATOM      5  C4  BZF d   1       0.578  -1.032   1.106  0.00  0.00     0.055 A 
ATOM      6  C5  BZF d   1      -0.277  -0.723   2.115  0.00  0.00    -0.016 A 
ATOM      7  C6  BZF d   1      -1.045   0.423   2.091  0.00  0.00     0.022 A 
ATOM      8  C7  BZF d   1      -0.987   1.288   1.049  0.00  0.00     0.029 A 
ATOM      9  C7A BZF d   1      -0.148   0.961   0.012  0.00  0.00     0.058 A 
ENDROOT
TORSDOF 0
ENDMDL
