MODEL 1
REMARK minimizedAffinity -5.30987835
REMARK minimizedRMSD -1
REMARK  0 active torsions:
REMARK  status: ('A' for Active; 'I' for Inactive)
ROOT
ATOM      1  O1  BZF d   1      -1.876   1.635   1.840  0.00  0.00    -0.204 OA
ATOM      2  C2  BZF d   1      -2.131   2.630   0.917  0.00  0.00     0.174 A 
ATOM      3  C3  BZF d   1      -1.428   2.424  -0.215  0.00  0.00    -0.012 A 
ATOM      4  C3A BZF d   1      -0.757   1.176  -0.020  0.00  0.00    -0.107 A 
ATOM      5  C4  BZF d   1       0.081   0.428  -0.797  0.00  0.00     0.055 A 
ATOM      6  C5  BZF d   1       0.622  -0.707  -0.282  0.00  0.00    -0.016 A 
ATOM      7  C6  BZF d   1       0.351  -1.122   1.005  0.00  0.00     0.022 A 
ATOM      8  C7  BZF d   1      -0.478  -0.416   1.812  0.00  0.00     0.029 A 
ATOM      9  C7A BZF d   1      -1.052   0.714   1.284  0.00  0.00     0.058 A 
ENDROOT
TORSDOF 0
ENDMDL
