MODEL 1
REMARK minimizedAffinity -5.88392448
REMARK minimizedRMSD -1
REMARK  0 active torsions:
REMARK  status: ('A' for Active; 'I' for Inactive)
ROOT
ATOM      1  O1  BZF d   1      -1.855   1.801   2.127  0.00  0.00    -0.204 OA
ATOM      2  C2  BZF d   1      -2.234   2.913   1.401  0.00  0.00     0.174 A 
ATOM      3  C3  BZF d   1      -1.575   2.965   0.226  0.00  0.00    -0.012 A 
ATOM      4  C3A BZF d   1      -0.798   1.764   0.177  0.00  0.00    -0.107 A 
ATOM      5  C4  BZF d   1       0.057   1.236  -0.748  0.00  0.00     0.055 A 
ATOM      6  C5  BZF d   1       0.711   0.081  -0.458  0.00  0.00    -0.016 A 
ATOM      7  C6  BZF d   1       0.539  -0.569   0.746  0.00  0.00     0.022 A 
ATOM      8  C7  BZF d   1      -0.302  -0.086   1.693  0.00  0.00     0.029 A 
ATOM      9  C7A BZF d   1      -0.990   1.064   1.390  0.00  0.00     0.058 A 
ENDROOT
TORSDOF 0
ENDMDL
