MODEL 1
REMARK minimizedAffinity -1.42016411
REMARK minimizedRMSD -1
REMARK  0 active torsions:
REMARK  status: ('A' for Active; 'I' for Inactive)
ROOT
ATOM      1  O1  BZF d   1      -0.802  -2.918  -1.274  0.00  0.00    -0.204 OA
ATOM      2  C2  BZF d   1       0.248  -3.537  -1.925  0.00  0.00     0.174 A 
ATOM      3  C3  BZF d   1       1.320  -2.720  -1.987  0.00  0.00    -0.012 A 
ATOM      4  C3A BZF d   1       0.945  -1.551  -1.252  0.00  0.00    -0.107 A 
ATOM      5  C4  BZF d   1       1.592  -0.389  -0.944  0.00  0.00     0.055 A 
ATOM      6  C5  BZF d   1       0.919   0.583  -0.273  0.00  0.00    -0.016 A 
ATOM      7  C6  BZF d   1      -0.400   0.429   0.100  0.00  0.00     0.022 A 
ATOM      8  C7  BZF d   1      -1.082  -0.708  -0.180  0.00  0.00     0.029 A 
ATOM      9  C7A BZF d   1      -0.395  -1.706  -0.829  0.00  0.00     0.058 A 
ENDROOT
TORSDOF 0
ENDMDL
