MODEL 1
REMARK minimizedAffinity -3.49263644
REMARK minimizedRMSD -1
REMARK  0 active torsions:
REMARK  status: ('A' for Active; 'I' for Inactive)
ROOT
ATOM      1  O1  BZF d   1      -1.378   2.557   0.235  0.00  0.00    -0.204 OA
ATOM      2  C2  BZF d   1      -1.961   2.261   1.452  0.00  0.00     0.174 A 
ATOM      3  C3  BZF d   1      -1.456   1.118   1.959  0.00  0.00    -0.012 A 
ATOM      4  C3A BZF d   1      -0.432   0.720   1.043  0.00  0.00    -0.107 A 
ATOM      5  C4  BZF d   1       0.442  -0.329   1.009  0.00  0.00     0.055 A 
ATOM      6  C5  BZF d   1       1.265  -0.469  -0.062  0.00  0.00    -0.016 A 
ATOM      7  C6  BZF d   1       1.239   0.418  -1.119  0.00  0.00     0.022 A 
ATOM      8  C7  BZF d   1       0.394   1.477  -1.128  0.00  0.00     0.029 A 
ATOM      9  C7A BZF d   1      -0.417   1.639  -0.031  0.00  0.00     0.058 A 
ENDROOT
TORSDOF 0
ENDMDL
