MODEL 1
REMARK minimizedAffinity -6.02048731
REMARK minimizedRMSD -1
REMARK  0 active torsions:
REMARK  status: ('A' for Active; 'I' for Inactive)
ROOT
ATOM      1  O1  BZF d   1      -1.742   1.198   1.822  0.00  0.00    -0.204 OA
ATOM      2  C2  BZF d   1      -2.261   1.857   0.724  0.00  0.00     0.174 A 
ATOM      3  C3  BZF d   1      -1.589   1.524  -0.396  0.00  0.00    -0.012 A 
ATOM      4  C3A BZF d   1      -0.646   0.529   0.013  0.00  0.00    -0.107 A 
ATOM      5  C4  BZF d   1       0.297  -0.201  -0.653  0.00  0.00     0.055 A 
ATOM      6  C5  BZF d   1       1.104  -1.037   0.052  0.00  0.00    -0.016 A 
ATOM      7  C6  BZF d   1       1.000  -1.163   1.422  0.00  0.00     0.022 A 
ATOM      8  C7  BZF d   1       0.076  -0.464   2.125  0.00  0.00     0.029 A 
ATOM      9  C7A BZF d   1      -0.763   0.357   1.412  0.00  0.00     0.058 A 
ENDROOT
TORSDOF 0
ENDMDL
