MODEL 1
REMARK minimizedAffinity -1.72196615
REMARK minimizedRMSD -1
REMARK  2 active torsions:
REMARK  status: ('A' for Active; 'I' for Inactive)
REMARK    1  A    between atoms: C1_2  and  C2_3 
REMARK    2  A    between atoms: C2_3  and  C3_4 
ROOT
ATOM      1  C3  UNL d   1      -0.379  -0.170  -0.017  0.00  0.00    -0.075 A 
ATOM      2  C4  UNL d   1      -1.563  -0.101   0.731  0.00  0.00     0.002 A 
ATOM      3  C5  UNL d   1      -1.579  -0.492   2.071  0.00  0.00     0.002 A 
ATOM      4  C6  UNL d   1      -0.416  -0.965   2.675  0.00  0.00    -0.004 A 
ATOM      5  C7  UNL d   1       0.762  -1.053   1.937  0.00  0.00     0.002 A 
ATOM      6  C8  UNL d   1       0.782  -0.658   0.598  0.00  0.00     0.002 A 
ENDROOT
BRANCH   1   7
ATOM      7  C2  UNL d   1      -0.349   0.280  -1.458  0.00  0.00     0.056 C 
BRANCH   7   8
ATOM      8  C1  UNL d   1      -1.427   1.309  -1.814  0.00  0.00     0.007 C 
ATOM      9  C   UNL d   1      -0.866   2.561  -2.474  0.00  0.00     0.009 C 
ENDBRANCH   7   8
ENDBRANCH   1   7
TORSDOF 2
ENDMDL
