MODEL 1
REMARK minimizedAffinity -5.65417671
REMARK minimizedRMSD -1
REMARK  2 active torsions:
REMARK  status: ('A' for Active; 'I' for Inactive)
REMARK    1  A    between atoms: C1_2  and  C2_3 
REMARK    2  A    between atoms: C2_3  and  C3_4 
ROOT
ATOM      1  C3  UNL d   1       0.549  -0.596   0.768  0.00  0.00    -0.075 A 
ATOM      2  C4  UNL d   1       1.553  -1.234   0.027  0.00  0.00     0.002 A 
ATOM      3  C5  UNL d   1       2.459  -2.091   0.653  0.00  0.00     0.002 A 
ATOM      4  C6  UNL d   1       2.378  -2.312   2.027  0.00  0.00    -0.004 A 
ATOM      5  C7  UNL d   1       1.395  -1.670   2.775  0.00  0.00     0.002 A 
ATOM      6  C8  UNL d   1       0.484  -0.815   2.151  0.00  0.00     0.002 A 
ENDROOT
BRANCH   1   7
ATOM      7  C2  UNL d   1      -0.453   0.310   0.092  0.00  0.00     0.056 C 
BRANCH   7   8
ATOM      8  C1  UNL d   1      -0.369   0.300  -1.438  0.00  0.00     0.007 C 
ATOM      9  C   UNL d   1      -0.110   1.677  -2.034  0.00  0.00     0.009 C 
ENDBRANCH   7   8
ENDBRANCH   1   7
TORSDOF 2
ENDMDL
