MODEL 1
REMARK minimizedAffinity -0.97016871
REMARK minimizedRMSD -1
REMARK  2 active torsions:
REMARK  status: ('A' for Active; 'I' for Inactive)
REMARK    1  A    between atoms: C1_2  and  C2_3 
REMARK    2  A    between atoms: C2_3  and  C3_4 
ROOT
ATOM      1  C3  UNL d   1      -0.011   1.225  -0.903  0.00  0.00    -0.075 A 
ATOM      2  C4  UNL d   1      -0.964   0.418  -1.541  0.00  0.00     0.002 A 
ATOM      3  C5  UNL d   1      -1.785  -0.431  -0.798  0.00  0.00     0.002 A 
ATOM      4  C6  UNL d   1      -1.656  -0.492   0.588  0.00  0.00    -0.004 A 
ATOM      5  C7  UNL d   1      -0.701   0.293   1.231  0.00  0.00     0.002 A 
ATOM      6  C8  UNL d   1       0.118   1.146   0.490  0.00  0.00     0.002 A 
ENDROOT
BRANCH   1   7
ATOM      7  C2  UNL d   1       0.860   2.168  -1.698  0.00  0.00     0.056 C 
BRANCH   7   8
ATOM      8  C1  UNL d   1       0.082   3.081  -2.652  0.00  0.00     0.007 C 
ATOM      9  C   UNL d   1      -0.790   4.099  -1.929  0.00  0.00     0.009 C 
ENDBRANCH   7   8
ENDBRANCH   1   7
TORSDOF 2
ENDMDL
