MODEL 1
REMARK minimizedAffinity -4.18915033
REMARK minimizedRMSD -1
REMARK  2 active torsions:
REMARK  status: ('A' for Active; 'I' for Inactive)
REMARK    1  A    between atoms: C1_2  and  C2_3 
REMARK    2  A    between atoms: C2_3  and  C3_4 
ROOT
ATOM      1  C3  UNL d   1      -0.568   1.091  -1.499  0.00  0.00    -0.075 A 
ATOM      2  C4  UNL d   1      -1.761   1.442  -2.147  0.00  0.00     0.002 A 
ATOM      3  C5  UNL d   1      -1.875   2.664  -2.810  0.00  0.00     0.002 A 
ATOM      4  C6  UNL d   1      -0.803   3.554  -2.825  0.00  0.00    -0.004 A 
ATOM      5  C7  UNL d   1       0.381   3.223  -2.171  0.00  0.00     0.002 A 
ATOM      6  C8  UNL d   1       0.500   1.999  -1.510  0.00  0.00     0.002 A 
ENDROOT
BRANCH   1   7
ATOM      7  C2  UNL d   1      -0.428  -0.243  -0.805  0.00  0.00     0.056 C 
BRANCH   7   8
ATOM      8  C1  UNL d   1       0.207  -0.158   0.587  0.00  0.00     0.007 C 
ATOM      9  C   UNL d   1      -0.779  -0.432   1.715  0.00  0.00     0.009 C 
ENDBRANCH   7   8
ENDBRANCH   1   7
TORSDOF 2
ENDMDL
