MODEL 1
REMARK minimizedAffinity -2.47375035
REMARK minimizedRMSD -1
REMARK  2 active torsions:
REMARK  status: ('A' for Active; 'I' for Inactive)
REMARK    1  A    between atoms: C1_2  and  C2_3 
REMARK    2  A    between atoms: C2_3  and  C3_4 
ROOT
ATOM      1  C3  UNL d   1      -0.471   0.825  -0.993  0.00  0.00    -0.075 A 
ATOM      2  C4  UNL d   1      -1.585   0.717  -1.838  0.00  0.00     0.002 A 
ATOM      3  C5  UNL d   1      -1.907   1.748  -2.721  0.00  0.00     0.002 A 
ATOM      4  C6  UNL d   1      -1.129   2.903  -2.761  0.00  0.00    -0.004 A 
ATOM      5  C7  UNL d   1      -0.030   3.029  -1.914  0.00  0.00     0.002 A 
ATOM      6  C8  UNL d   1       0.297   1.996  -1.033  0.00  0.00     0.002 A 
ENDROOT
BRANCH   1   7
ATOM      7  C2  UNL d   1      -0.100  -0.300  -0.057  0.00  0.00     0.056 C 
BRANCH   7   8
ATOM      8  C1  UNL d   1      -0.709  -0.174   1.344  0.00  0.00     0.007 C 
ATOM      9  C   UNL d   1      -0.058  -1.095   2.367  0.00  0.00     0.009 C 
ENDBRANCH   7   8
ENDBRANCH   1   7
TORSDOF 2
ENDMDL
