MODEL 1
REMARK minimizedAffinity -4.99225044
REMARK minimizedRMSD -1
REMARK  2 active torsions:
REMARK  status: ('A' for Active; 'I' for Inactive)
REMARK    1  A    between atoms: C1_2  and  C2_3 
REMARK    2  A    between atoms: C2_3  and  C3_4 
ROOT
ATOM      1  C3  UNL d   1       0.466  -1.186   0.068  0.00  0.00    -0.075 A 
ATOM      2  C4  UNL d   1       1.651  -1.889  -0.196  0.00  0.00     0.002 A 
ATOM      3  C5  UNL d   1       2.273  -2.630   0.808  0.00  0.00     0.002 A 
ATOM      4  C6  UNL d   1       1.727  -2.671   2.089  0.00  0.00    -0.004 A 
ATOM      5  C7  UNL d   1       0.560  -1.963   2.367  0.00  0.00     0.002 A 
ATOM      6  C8  UNL d   1      -0.068  -1.224   1.363  0.00  0.00     0.002 A 
ENDROOT
BRANCH   1   7
ATOM      7  C2  UNL d   1      -0.228  -0.405  -1.022  0.00  0.00     0.056 C 
BRANCH   7   8
ATOM      8  C1  UNL d   1      -0.119   1.115  -0.867  0.00  0.00     0.007 C 
ATOM      9  C   UNL d   1      -0.319   1.869  -2.175  0.00  0.00     0.009 C 
ENDBRANCH   7   8
ENDBRANCH   1   7
TORSDOF 2
ENDMDL
