MODEL 1
REMARK minimizedAffinity -5.37825298
REMARK minimizedRMSD -1
REMARK  2 active torsions:
REMARK  status: ('A' for Active; 'I' for Inactive)
REMARK    1  A    between atoms: C1_2  and  C2_3 
REMARK    2  A    between atoms: C2_3  and  C3_4 
ROOT
ATOM      1  C3  UNL d   1      -0.927   0.663  -1.000  0.00  0.00    -0.075 A 
ATOM      2  C4  UNL d   1      -1.132   2.046  -1.110  0.00  0.00     0.002 A 
ATOM      3  C5  UNL d   1      -0.636   2.750  -2.207  0.00  0.00     0.002 A 
ATOM      4  C6  UNL d   1       0.080   2.085  -3.200  0.00  0.00    -0.004 A 
ATOM      5  C7  UNL d   1       0.305   0.714  -3.092  0.00  0.00     0.002 A 
ATOM      6  C8  UNL d   1      -0.195   0.006  -1.998  0.00  0.00     0.002 A 
ENDROOT
BRANCH   1   7
ATOM      7  C2  UNL d   1      -1.487  -0.110   0.170  0.00  0.00     0.056 C 
BRANCH   7   8
ATOM      8  C1  UNL d   1      -0.877   0.275   1.522  0.00  0.00     0.007 C 
ATOM      9  C   UNL d   1      -0.516  -0.929   2.383  0.00  0.00     0.009 C 
ENDBRANCH   7   8
ENDBRANCH   1   7
TORSDOF 2
ENDMDL
