MODEL 1
REMARK minimizedAffinity -2.13789988
REMARK minimizedRMSD -1
REMARK  2 active torsions:
REMARK  status: ('A' for Active; 'I' for Inactive)
REMARK    1  A    between atoms: C1_2  and  C2_3 
REMARK    2  A    between atoms: C2_3  and  C3_4 
ROOT
ATOM      1  C3  UNL d   1       0.678  -1.376   1.169  0.00  0.00    -0.075 A 
ATOM      2  C4  UNL d   1       0.438  -0.777  -0.077  0.00  0.00     0.002 A 
ATOM      3  C5  UNL d   1      -0.604   0.137  -0.235  0.00  0.00     0.002 A 
ATOM      4  C6  UNL d   1      -1.425   0.455   0.845  0.00  0.00    -0.004 A 
ATOM      5  C7  UNL d   1      -1.207  -0.147   2.082  0.00  0.00     0.002 A 
ATOM      6  C8  UNL d   1      -0.162  -1.058   2.244  0.00  0.00     0.002 A 
ENDROOT
BRANCH   1   7
ATOM      7  C2  UNL d   1       1.822  -2.343   1.354  0.00  0.00     0.056 C 
BRANCH   7   8
ATOM      8  C1  UNL d   1       2.585  -2.661   0.063  0.00  0.00     0.007 C 
ATOM      9  C   UNL d   1       4.097  -2.570   0.222  0.00  0.00     0.009 C 
ENDBRANCH   7   8
ENDBRANCH   1   7
TORSDOF 2
ENDMDL
