MODEL 1
REMARK minimizedAffinity -5.86551237
REMARK minimizedRMSD -1
REMARK  1 active torsions:
REMARK  status: ('A' for Active; 'I' for Inactive)
REMARK    1  A    between atoms: C1_2  and  C2_3 
ROOT
ATOM      1  C2  UNL d   1       0.502  -0.126   1.492  0.00  0.00    -0.077 A 
ATOM      2  C3  UNL d   1       1.774  -0.259   0.917  0.00  0.00     0.002 A 
ATOM      3  C4  UNL d   1       2.709  -1.138   1.467  0.00  0.00     0.002 A 
ATOM      4  C5  UNL d   1       2.381  -1.894   2.591  0.00  0.00    -0.004 A 
ATOM      5  C6  UNL d   1       1.119  -1.767   3.171  0.00  0.00     0.002 A 
ATOM      6  C7  UNL d   1       0.184  -0.888   2.623  0.00  0.00     0.002 A 
ENDROOT
BRANCH   1   7
ATOM      7  C1  UNL d   1      -0.524   0.785   0.872  0.00  0.00     0.055 C 
ATOM      8  C   UNL d   1      -0.395   0.814  -0.644  0.00  0.00     0.019 C 
ENDBRANCH   1   7
TORSDOF 1
ENDMDL
