MODEL 1
REMARK minimizedAffinity -4.78818178
REMARK minimizedRMSD -1
REMARK  1 active torsions:
REMARK  status: ('A' for Active; 'I' for Inactive)
REMARK    1  A    between atoms: C1_2  and  C2_3 
ROOT
ATOM      1  C2  UNL d   1       0.936  -0.609   0.799  0.00  0.00    -0.077 A 
ATOM      2  C3  UNL d   1       0.667  -1.061   2.099  0.00  0.00     0.002 A 
ATOM      3  C4  UNL d   1       1.656  -1.710   2.840  0.00  0.00     0.002 A 
ATOM      4  C5  UNL d   1       2.922  -1.909   2.292  0.00  0.00    -0.004 A 
ATOM      5  C6  UNL d   1       3.198  -1.465   1.000  0.00  0.00     0.002 A 
ATOM      6  C7  UNL d   1       2.210  -0.817   0.257  0.00  0.00     0.002 A 
ENDROOT
BRANCH   1   7
ATOM      7  C1  UNL d   1      -0.115   0.134   0.017  0.00  0.00     0.055 C 
ATOM      8  C   UNL d   1       0.070   1.640   0.134  0.00  0.00     0.019 C 
ENDBRANCH   1   7
TORSDOF 1
ENDMDL
