MODEL 1
REMARK minimizedAffinity -0.0327689499
REMARK minimizedRMSD -1
REMARK  1 active torsions:
REMARK  status: ('A' for Active; 'I' for Inactive)
REMARK    1  A    between atoms: C1_2  and  C2_3 
ROOT
ATOM      1  C2  UNL d   1       0.155  -0.934   0.402  0.00  0.00    -0.077 A 
ATOM      2  C3  UNL d   1      -0.910  -0.442   1.170  0.00  0.00     0.002 A 
ATOM      3  C4  UNL d   1      -0.990  -0.732   2.533  0.00  0.00     0.002 A 
ATOM      4  C5  UNL d   1      -0.008  -1.511   3.141  0.00  0.00    -0.004 A 
ATOM      5  C6  UNL d   1       1.054  -2.006   2.385  0.00  0.00     0.002 A 
ATOM      6  C7  UNL d   1       1.136  -1.719   1.022  0.00  0.00     0.002 A 
ENDROOT
BRANCH   1   7
ATOM      7  C1  UNL d   1       0.270  -0.582  -1.058  0.00  0.00     0.055 C 
ATOM      8  C   UNL d   1      -0.525   0.673  -1.389  0.00  0.00     0.019 C 
ENDBRANCH   1   7
TORSDOF 1
ENDMDL
