MODEL 1
REMARK minimizedAffinity -1.92174959
REMARK minimizedRMSD -1
REMARK  0 active torsions:
REMARK  status: ('A' for Active; 'I' for Inactive)
ROOT
ATOM      1  C1  BNZ d   1       0.585  -0.713   1.164  0.00  0.00     0.000 A 
ATOM      2  C2  BNZ d   1       0.347  -1.031   2.475  0.00  0.00     0.000 A 
ATOM      3  C3  BNZ d   1       1.294  -1.675   3.222  0.00  0.00     0.000 A 
ATOM      4  C4  BNZ d   1       2.460  -2.034   2.647  0.00  0.00     0.000 A 
ATOM      5  C5  BNZ d   1       2.711  -1.729   1.324  0.00  0.00     0.000 A 
ATOM      6  C6  BNZ d   1       1.771  -1.047   0.586  0.00  0.00     0.000 A 
ENDROOT
TORSDOF 0
ENDMDL
