MODEL 1
REMARK minimizedAffinity -2.73567247
REMARK minimizedRMSD -1
REMARK  0 active torsions:
REMARK  status: ('A' for Active; 'I' for Inactive)
ROOT
ATOM      1  C1  BNZ d   1       0.292   3.314  -2.616  0.00  0.00     0.000 A 
ATOM      2  C2  BNZ d   1      -0.581   2.305  -2.307  0.00  0.00     0.000 A 
ATOM      3  C3  BNZ d   1      -1.493   1.863  -3.225  0.00  0.00     0.000 A 
ATOM      4  C4  BNZ d   1      -1.558   2.457  -4.434  0.00  0.00     0.000 A 
ATOM      5  C5  BNZ d   1      -0.691   3.481  -4.757  0.00  0.00     0.000 A 
ATOM      6  C6  BNZ d   1       0.252   3.898  -3.845  0.00  0.00     0.000 A 
ENDROOT
TORSDOF 0
ENDMDL
