MODEL 1
REMARK minimizedAffinity -3.12138724
REMARK minimizedRMSD -1
REMARK  0 active torsions:
REMARK  status: ('A' for Active; 'I' for Inactive)
ROOT
ATOM      1  C1  BNZ d   1       3.571  -1.196   2.846  0.00  0.00     0.000 A 
ATOM      2  C2  BNZ d   1       2.999  -1.410   1.620  0.00  0.00     0.000 A 
ATOM      3  C3  BNZ d   1       1.641  -1.482   1.484  0.00  0.00     0.000 A 
ATOM      4  C4  BNZ d   1       0.859  -1.380   2.578  0.00  0.00     0.000 A 
ATOM      5  C5  BNZ d   1       1.420  -1.173   3.822  0.00  0.00     0.000 A 
ATOM      6  C6  BNZ d   1       2.786  -1.062   3.950  0.00  0.00     0.000 A 
ENDROOT
TORSDOF 0
ENDMDL
