MODEL 1
REMARK minimizedAffinity 0.225182772
REMARK minimizedRMSD -1
REMARK  0 active torsions:
REMARK  status: ('A' for Active; 'I' for Inactive)
ROOT
ATOM      1  C1  BNZ d   1      -1.370  -6.000  -5.999  0.00  0.00     0.000 A 
ATOM      2  C2  BNZ d   1      -0.007  -5.869  -5.999  0.00  0.00     0.000 A 
ATOM      3  C3  BNZ d   1       0.640  -5.282  -4.948  0.00  0.00     0.000 A 
ATOM      4  C4  BNZ d   1      -0.079  -4.790  -3.918  0.00  0.00     0.000 A 
ATOM      5  C5  BNZ d   1      -1.455  -4.906  -3.908  0.00  0.00     0.000 A 
ATOM      6  C6  BNZ d   1      -2.099  -5.533  -4.950  0.00  0.00     0.000 A 
ENDROOT
TORSDOF 0
ENDMDL
