MODEL 1
REMARK minimizedAffinity -1.03800523
REMARK minimizedRMSD -1
REMARK  0 active torsions:
REMARK  status: ('A' for Active; 'I' for Inactive)
ROOT
ATOM      1  C1  BNZ d   1      -1.881  -5.673  -4.962  0.00  0.00     0.000 A 
ATOM      2  C2  BNZ d   1      -1.049  -5.999  -6.000  0.00  0.00     0.000 A 
ATOM      3  C3  BNZ d   1       0.259  -5.603  -5.999  0.00  0.00     0.000 A 
ATOM      4  C4  BNZ d   1       0.723  -4.849  -4.982  0.00  0.00     0.000 A 
ATOM      5  C5  BNZ d   1      -0.106  -4.504  -3.933  0.00  0.00     0.000 A 
ATOM      6  C6  BNZ d   1      -1.412  -4.937  -3.918  0.00  0.00     0.000 A 
ENDROOT
TORSDOF 0
ENDMDL
