MODEL 1
REMARK minimizedAffinity 1.53403366
REMARK minimizedRMSD -1
REMARK  0 active torsions:
REMARK  status: ('A' for Active; 'I' for Inactive)
ROOT
ATOM      1  C1  BNZ d   1      -4.314  -0.911  -2.432  0.00  0.00     0.000 A 
ATOM      2  C2  BNZ d   1      -3.365  -0.696  -1.469  0.00  0.00     0.000 A 
ATOM      3  C3  BNZ d   1      -3.710  -0.192  -0.246  0.00  0.00     0.000 A 
ATOM      4  C4  BNZ d   1      -4.996   0.133  -0.002  0.00  0.00     0.000 A 
ATOM      5  C5  BNZ d   1      -5.963  -0.068  -0.967  0.00  0.00     0.000 A 
ATOM      6  C6  BNZ d   1      -5.618  -0.612  -2.183  0.00  0.00     0.000 A 
ENDROOT
TORSDOF 0
ENDMDL
