MODEL 1
REMARK minimizedAffinity 1.57794666
REMARK minimizedRMSD -1
REMARK  0 active torsions:
REMARK  status: ('A' for Active; 'I' for Inactive)
ROOT
ATOM      1  C1  BNZ d   1      -5.338  -0.063  -2.604  0.00  0.00     0.000 A 
ATOM      2  C2  BNZ d   1      -5.704  -0.703  -1.450  0.00  0.00     0.000 A 
ATOM      3  C3  BNZ d   1      -5.141  -0.362  -0.252  0.00  0.00     0.000 A 
ATOM      4  C4  BNZ d   1      -4.185   0.589  -0.215  0.00  0.00     0.000 A 
ATOM      5  C5  BNZ d   1      -3.799   1.237  -1.372  0.00  0.00     0.000 A 
ATOM      6  C6  BNZ d   1      -4.396   0.918  -2.570  0.00  0.00     0.000 A 
ENDROOT
TORSDOF 0
ENDMDL
