MODEL 1
REMARK minimizedAffinity -0.992929041
REMARK minimizedRMSD -1
REMARK  0 active torsions:
REMARK  status: ('A' for Active; 'I' for Inactive)
ROOT
ATOM      1  C1  BNZ d   1      -1.109  -5.986  -5.999  0.00  0.00     0.000 A 
ATOM      2  C2  BNZ d   1      -1.787  -5.320  -5.014  0.00  0.00     0.000 A 
ATOM      3  C3  BNZ d   1      -1.114  -4.654  -4.028  0.00  0.00     0.000 A 
ATOM      4  C4  BNZ d   1       0.234  -4.688  -4.006  0.00  0.00     0.000 A 
ATOM      5  C5  BNZ d   1       0.932  -5.363  -4.987  0.00  0.00     0.000 A 
ATOM      6  C6  BNZ d   1       0.252  -6.000  -6.000  0.00  0.00     0.000 A 
ENDROOT
TORSDOF 0
ENDMDL
