MODEL 1
REMARK minimizedAffinity 3.47382426
REMARK minimizedRMSD -1
REMARK  0 active torsions:
REMARK  status: ('A' for Active; 'I' for Inactive)
ROOT
ATOM      1  C1  BNZ d   1      -1.962  -1.816   0.337  0.00  0.00     0.000 A 
ATOM      2  C2  BNZ d   1      -1.620  -0.519   0.611  0.00  0.00     0.000 A 
ATOM      3  C3  BNZ d   1      -0.308  -0.140   0.675  0.00  0.00     0.000 A 
ATOM      4  C4  BNZ d   1       0.658  -1.065   0.505  0.00  0.00     0.000 A 
ATOM      5  C5  BNZ d   1       0.329  -2.379   0.238  0.00  0.00     0.000 A 
ATOM      6  C6  BNZ d   1      -0.992  -2.749   0.136  0.00  0.00     0.000 A 
ENDROOT
TORSDOF 0
ENDMDL
