MODEL 1
REMARK minimizedAffinity 3.1380043
REMARK minimizedRMSD -1
REMARK  0 active torsions:
REMARK  status: ('A' for Active; 'I' for Inactive)
ROOT
ATOM      1  C1  BNZ d   1       5.201  -0.562   2.527  0.00  0.00     0.000 A 
ATOM      2  C2  BNZ d   1       4.752  -0.364   1.249  0.00  0.00     0.000 A 
ATOM      3  C3  BNZ d   1       3.449  -0.611   0.918  0.00  0.00     0.000 A 
ATOM      4  C4  BNZ d   1       2.607  -1.093   1.855  0.00  0.00     0.000 A 
ATOM      5  C5  BNZ d   1       3.047  -1.307   3.147  0.00  0.00     0.000 A 
ATOM      6  C6  BNZ d   1       4.349  -1.020   3.485  0.00  0.00     0.000 A 
ENDROOT
TORSDOF 0
ENDMDL
