MODEL 1
REMARK minimizedAffinity 1.91089332
REMARK minimizedRMSD -1
REMARK  0 active torsions:
REMARK  status: ('A' for Active; 'I' for Inactive)
ROOT
ATOM      1  C1  BNZ d   1       0.622  -4.503  -4.142  0.00  0.00     0.000 A 
ATOM      2  C2  BNZ d   1      -0.746  -4.473  -4.191  0.00  0.00     0.000 A 
ATOM      3  C3  BNZ d   1      -1.430  -5.222  -5.108  0.00  0.00     0.000 A 
ATOM      4  C4  BNZ d   1      -0.744  -5.966  -6.000  0.00  0.00     0.000 A 
ATOM      5  C5  BNZ d   1       0.636  -5.999  -5.969  0.00  0.00     0.000 A 
ATOM      6  C6  BNZ d   1       1.319  -5.275  -5.019  0.00  0.00     0.000 A 
ENDROOT
TORSDOF 0
ENDMDL
