MODEL 1
REMARK minimizedAffinity 1.66783822
REMARK minimizedRMSD -1
REMARK  0 active torsions:
REMARK  status: ('A' for Active; 'I' for Inactive)
ROOT
ATOM      1  C1  BNZ d   1      -1.886  -5.791  -4.882  0.00  0.00     0.000 A 
ATOM      2  C2  BNZ d   1      -1.119  -5.999  -5.997  0.00  0.00     0.000 A 
ATOM      3  C3  BNZ d   1       0.212  -5.688  -5.999  0.00  0.00     0.000 A 
ATOM      4  C4  BNZ d   1       0.765  -5.133  -4.902  0.00  0.00     0.000 A 
ATOM      5  C5  BNZ d   1       0.003  -4.908  -3.773  0.00  0.00     0.000 A 
ATOM      6  C6  BNZ d   1      -1.327  -5.258  -3.761  0.00  0.00     0.000 A 
ENDROOT
TORSDOF 0
ENDMDL
