MODEL 1
REMARK minimizedAffinity 0.430081189
REMARK minimizedRMSD -1
REMARK  0 active torsions:
REMARK  status: ('A' for Active; 'I' for Inactive)
ROOT
ATOM      1  C1  BNZ d   1      -5.212  -1.122  -1.212  0.00  0.00     0.000 A 
ATOM      2  C2  BNZ d   1      -5.247  -0.485  -2.424  0.00  0.00     0.000 A 
ATOM      3  C3  BNZ d   1      -4.521   0.654  -2.637  0.00  0.00     0.000 A 
ATOM      4  C4  BNZ d   1      -3.793   1.175  -1.628  0.00  0.00     0.000 A 
ATOM      5  C5  BNZ d   1      -3.755   0.549  -0.398  0.00  0.00     0.000 A 
ATOM      6  C6  BNZ d   1      -4.456  -0.618  -0.199  0.00  0.00     0.000 A 
ENDROOT
TORSDOF 0
ENDMDL
