MODEL 1
REMARK minimizedAffinity 1.28164005
REMARK minimizedRMSD -1
REMARK  0 active torsions:
REMARK  status: ('A' for Active; 'I' for Inactive)
ROOT
ATOM      1  C1  BNZ d   1       0.151  -5.998  -5.985  0.00  0.00     0.000 A 
ATOM      2  C2  BNZ d   1       0.862  -5.222  -5.110  0.00  0.00     0.000 A 
ATOM      3  C3  BNZ d   1       0.223  -4.387  -4.236  0.00  0.00     0.000 A 
ATOM      4  C4  BNZ d   1      -1.122  -4.301  -4.265  0.00  0.00     0.000 A 
ATOM      5  C5  BNZ d   1      -1.853  -5.070  -5.148  0.00  0.00     0.000 A 
ATOM      6  C6  BNZ d   1      -1.209  -5.938  -6.000  0.00  0.00     0.000 A 
ENDROOT
TORSDOF 0
ENDMDL
