MODEL 1
REMARK minimizedAffinity -3.95576739
REMARK minimizedRMSD -1
REMARK  0 active torsions:
REMARK  status: ('A' for Active; 'I' for Inactive)
ROOT
ATOM      1  C   UNL d   1      -1.612  -0.707   3.180  0.00  0.00     0.077 C 
ATOM      2  C1  UNL d   1      -0.566  -0.713   2.106  0.00  0.00    -0.074 A 
ATOM      3  C2  UNL d   1       0.732  -1.164   2.369  0.00  0.00    -0.005 A 
ATOM      4  C3  UNL d   1       1.692  -1.172   1.357  0.00  0.00     0.006 A 
ATOM      5  C4  UNL d   1       1.365  -0.730   0.074  0.00  0.00    -0.005 A 
ATOM      6  C5  UNL d   1       0.072  -0.277  -0.207  0.00  0.00    -0.074 A 
ATOM      7  C6  UNL d   1      -0.299   0.192  -1.583  0.00  0.00     0.077 C 
ATOM      8  C7  UNL d   1      -0.889  -0.278   0.813  0.00  0.00    -0.001 A 
ENDROOT
TORSDOF 0
ENDMDL
