MODEL 1
REMARK minimizedAffinity -5.62728024
REMARK minimizedRMSD -1
REMARK  0 active torsions:
REMARK  status: ('A' for Active; 'I' for Inactive)
ROOT
ATOM      1  C   UNL d   1       3.165  -2.005   1.093  0.00  0.00     0.077 C 
ATOM      2  C1  UNL d   1       1.759  -1.482   1.069  0.00  0.00    -0.074 A 
ATOM      3  C2  UNL d   1       0.909  -1.655   2.166  0.00  0.00    -0.005 A 
ATOM      4  C3  UNL d   1      -0.392  -1.154   2.133  0.00  0.00     0.006 A 
ATOM      5  C4  UNL d   1      -0.856  -0.477   1.004  0.00  0.00    -0.005 A 
ATOM      6  C5  UNL d   1      -0.020  -0.294  -0.102  0.00  0.00    -0.074 A 
ATOM      7  C6  UNL d   1      -0.500   0.440  -1.319  0.00  0.00     0.077 C 
ATOM      8  C7  UNL d   1       1.288  -0.794  -0.058  0.00  0.00    -0.001 A 
ENDROOT
TORSDOF 0
ENDMDL
