MODEL 1
REMARK minimizedAffinity -5.85859489
REMARK minimizedRMSD -1
REMARK  0 active torsions:
REMARK  status: ('A' for Active; 'I' for Inactive)
ROOT
ATOM      1  C   UNL d   1      -0.258   0.761  -1.081  0.00  0.00     0.077 C 
ATOM      2  C1  UNL d   1       0.670  -0.151  -0.335  0.00  0.00    -0.074 A 
ATOM      3  C2  UNL d   1       1.641  -0.897  -1.011  0.00  0.00    -0.005 A 
ATOM      4  C3  UNL d   1       2.504  -1.733  -0.303  0.00  0.00     0.006 A 
ATOM      5  C4  UNL d   1       2.405  -1.832   1.085  0.00  0.00    -0.005 A 
ATOM      6  C5  UNL d   1       1.441  -1.093   1.778  0.00  0.00    -0.074 A 
ATOM      7  C6  UNL d   1       1.328  -1.181   3.271  0.00  0.00     0.077 C 
ATOM      8  C7  UNL d   1       0.582  -0.250   1.060  0.00  0.00    -0.001 A 
ENDROOT
TORSDOF 0
ENDMDL
