MODEL 1
REMARK minimizedAffinity -2.41044402
REMARK minimizedRMSD -1
REMARK  0 active torsions:
REMARK  status: ('A' for Active; 'I' for Inactive)
ROOT
ATOM      1  C   UNL d   1       0.324   0.287  -1.941  0.00  0.00     0.077 C 
ATOM      2  C1  UNL d   1      -0.216   0.043  -0.564  0.00  0.00    -0.074 A 
ATOM      3  C2  UNL d   1      -1.553   0.317  -0.257  0.00  0.00    -0.005 A 
ATOM      4  C3  UNL d   1      -2.044   0.076   1.026  0.00  0.00     0.006 A 
ATOM      5  C4  UNL d   1      -1.205  -0.441   2.013  0.00  0.00    -0.005 A 
ATOM      6  C5  UNL d   1       0.134  -0.723   1.725  0.00  0.00    -0.074 A 
ATOM      7  C6  UNL d   1       1.047  -1.288   2.773  0.00  0.00     0.077 C 
ATOM      8  C7  UNL d   1       0.618  -0.484   0.432  0.00  0.00    -0.001 A 
ENDROOT
TORSDOF 0
ENDMDL
