MODEL 1
REMARK minimizedAffinity -5.28456402
REMARK minimizedRMSD -1
REMARK  0 active torsions:
REMARK  status: ('A' for Active; 'I' for Inactive)
ROOT
ATOM      1  C   UNL d   1      -0.856   0.457   0.668  0.00  0.00     0.077 C 
ATOM      2  C1  UNL d   1       0.272  -0.170   1.431  0.00  0.00    -0.074 A 
ATOM      3  C2  UNL d   1       0.445   0.082   2.796  0.00  0.00    -0.005 A 
ATOM      4  C3  UNL d   1       1.493  -0.516   3.494  0.00  0.00     0.006 A 
ATOM      5  C4  UNL d   1       2.379  -1.371   2.836  0.00  0.00    -0.005 A 
ATOM      6  C5  UNL d   1       2.221  -1.635   1.472  0.00  0.00    -0.074 A 
ATOM      7  C6  UNL d   1       3.158  -2.559   0.752  0.00  0.00     0.077 C 
ATOM      8  C7  UNL d   1       1.161  -1.036   0.779  0.00  0.00    -0.001 A 
ENDROOT
TORSDOF 0
ENDMDL
