MODEL 1
REMARK minimizedAffinity -1.55635488
REMARK minimizedRMSD -1
REMARK  0 active torsions:
REMARK  status: ('A' for Active; 'I' for Inactive)
ROOT
ATOM      1  C   UNL d   1      -3.475   2.856  -2.170  0.00  0.00     0.077 C 
ATOM      2  C1  UNL d   1      -2.035   2.544  -2.448  0.00  0.00    -0.074 A 
ATOM      3  C2  UNL d   1      -1.171   3.522  -2.951  0.00  0.00    -0.005 A 
ATOM      4  C3  UNL d   1       0.168   3.220  -3.195  0.00  0.00     0.006 A 
ATOM      5  C4  UNL d   1       0.657   1.938  -2.940  0.00  0.00    -0.005 A 
ATOM      6  C5  UNL d   1      -0.191   0.947  -2.436  0.00  0.00    -0.074 A 
ATOM      7  C6  UNL d   1       0.320  -0.433  -2.146  0.00  0.00     0.077 C 
ATOM      8  C7  UNL d   1      -1.535   1.261  -2.186  0.00  0.00    -0.001 A 
ENDROOT
TORSDOF 0
ENDMDL
