MODEL 1
REMARK minimizedAffinity -3.86048961
REMARK minimizedRMSD -1
REMARK  0 active torsions:
REMARK  status: ('A' for Active; 'I' for Inactive)
ROOT
ATOM      1  C   UNL d   1       0.150   1.069  -1.108  0.00  0.00     0.077 C 
ATOM      2  C1  UNL d   1      -0.117   0.361   0.187  0.00  0.00    -0.074 A 
ATOM      3  C2  UNL d   1       0.874  -0.412   0.801  0.00  0.00    -0.005 A 
ATOM      4  C3  UNL d   1       0.614  -1.058   2.010  0.00  0.00     0.006 A 
ATOM      5  C4  UNL d   1      -0.637  -0.937   2.616  0.00  0.00    -0.005 A 
ATOM      6  C5  UNL d   1      -1.640  -0.168   2.018  0.00  0.00    -0.074 A 
ATOM      7  C6  UNL d   1      -2.986  -0.019   2.661  0.00  0.00     0.077 C 
ATOM      8  C7  UNL d   1      -1.369   0.484   0.806  0.00  0.00    -0.001 A 
ENDROOT
TORSDOF 0
ENDMDL
