MODEL 1
REMARK minimizedAffinity -5.55876064
REMARK minimizedRMSD -1
REMARK  0 active torsions:
REMARK  status: ('A' for Active; 'I' for Inactive)
ROOT
ATOM      1  C   UNL d   1       1.348  -0.757   3.030  0.00  0.00     0.077 C 
ATOM      2  C1  UNL d   1       1.355  -0.885   1.536  0.00  0.00    -0.074 A 
ATOM      3  C2  UNL d   1       2.303  -1.684   0.887  0.00  0.00    -0.005 A 
ATOM      4  C3  UNL d   1       2.292  -1.801  -0.502  0.00  0.00     0.006 A 
ATOM      5  C4  UNL d   1       1.334  -1.122  -1.257  0.00  0.00    -0.005 A 
ATOM      6  C5  UNL d   1       0.378  -0.320  -0.626  0.00  0.00    -0.074 A 
ATOM      7  C6  UNL d   1      -0.665   0.408  -1.421  0.00  0.00     0.077 C 
ATOM      8  C7  UNL d   1       0.391  -0.213   0.771  0.00  0.00    -0.001 A 
ENDROOT
TORSDOF 0
ENDMDL
