MODEL 1
REMARK minimizedAffinity -3.93922377
REMARK minimizedRMSD -1
REMARK  0 active torsions:
REMARK  status: ('A' for Active; 'I' for Inactive)
ROOT
ATOM      1  C   UNL d   1      -3.495   2.843  -1.920  0.00  0.00     0.077 C 
ATOM      2  C1  UNL d   1      -2.319   1.914  -1.882  0.00  0.00    -0.074 A 
ATOM      3  C2  UNL d   1      -1.569   1.656  -3.034  0.00  0.00    -0.005 A 
ATOM      4  C3  UNL d   1      -0.471   0.797  -2.981  0.00  0.00     0.006 A 
ATOM      5  C4  UNL d   1      -0.113   0.188  -1.777  0.00  0.00    -0.005 A 
ATOM      6  C5  UNL d   1      -0.851   0.434  -0.615  0.00  0.00    -0.074 A 
ATOM      7  C6  UNL d   1      -0.474  -0.204   0.689  0.00  0.00     0.077 C 
ATOM      8  C7  UNL d   1      -1.948   1.304  -0.675  0.00  0.00    -0.001 A 
ENDROOT
TORSDOF 0
ENDMDL
