MODEL 1
REMARK minimizedAffinity -5.19482899
REMARK minimizedRMSD -1
REMARK  0 active torsions:
REMARK  status: ('A' for Active; 'I' for Inactive)
ROOT
ATOM      1  C   UNL d   1      -0.774  -0.124  -1.195  0.00  0.00     0.077 C 
ATOM      2  C1  UNL d   1      -0.746  -0.173   0.303  0.00  0.00    -0.074 A 
ATOM      3  C2  UNL d   1      -1.902   0.069   1.052  0.00  0.00    -0.005 A 
ATOM      4  C3  UNL d   1      -1.863   0.010   2.445  0.00  0.00     0.006 A 
ATOM      5  C4  UNL d   1      -0.669  -0.290   3.103  0.00  0.00    -0.005 A 
ATOM      6  C5  UNL d   1       0.497  -0.535   2.370  0.00  0.00    -0.074 A 
ATOM      7  C6  UNL d   1       1.786  -0.869   3.061  0.00  0.00     0.077 C 
ATOM      8  C7  UNL d   1       0.448  -0.482   0.971  0.00  0.00    -0.001 A 
ENDROOT
TORSDOF 0
ENDMDL
