MODEL 1
REMARK minimizedAffinity 7.30267286
REMARK minimizedRMSD -1
REMARK  0 active torsions:
REMARK  status: ('A' for Active; 'I' for Inactive)
ROOT
ATOM      1  O1  BZF d   1       0.752   3.922  -0.183  0.00  0.00    -0.204 OA
ATOM      2  C2  BZF d   1      -0.293   4.173  -1.052  0.00  0.00     0.174 A 
ATOM      3  C3  BZF d   1      -1.442   3.648  -0.582  0.00  0.00    -0.012 A 
ATOM      4  C3A BZF d   1      -1.113   3.110   0.702  0.00  0.00    -0.107 A 
ATOM      5  C4  BZF d   1      -1.839   2.472   1.667  0.00  0.00     0.055 A 
ATOM      6  C5  BZF d   1      -1.202   2.009   2.775  0.00  0.00    -0.016 A 
ATOM      7  C6  BZF d   1       0.158   2.162   2.948  0.00  0.00     0.022 A 
ATOM      8  C7  BZF d   1       0.919   2.793   2.021  0.00  0.00     0.029 A 
ATOM      9  C7A BZF d   1       0.273   3.291   0.915  0.00  0.00     0.058 A 
ENDROOT
TORSDOF 0
ENDMDL
