MODEL 1
REMARK minimizedAffinity 7.76511049
REMARK minimizedRMSD -1
REMARK  0 active torsions:
REMARK  status: ('A' for Active; 'I' for Inactive)
ROOT
ATOM      1  O1  BZF d   1      -0.291   1.278   1.841  0.00  0.00    -0.204 OA
ATOM      2  C2  BZF d   1       0.184   1.855   3.003  0.00  0.00     0.174 A 
ATOM      3  C3  BZF d   1       0.478   3.156   2.805  0.00  0.00    -0.012 A 
ATOM      4  C3A BZF d   1       0.081   3.431   1.459  0.00  0.00    -0.107 A 
ATOM      5  C4  BZF d   1       0.106   4.555   0.683  0.00  0.00     0.055 A 
ATOM      6  C5  BZF d   1      -0.287   4.471  -0.615  0.00  0.00    -0.016 A 
ATOM      7  C6  BZF d   1      -0.706   3.280  -1.171  0.00  0.00     0.022 A 
ATOM      8  C7  BZF d   1      -0.753   2.140  -0.440  0.00  0.00     0.029 A 
ATOM      9  C7A BZF d   1      -0.388   2.228   0.881  0.00  0.00     0.058 A 
ENDROOT
TORSDOF 0
ENDMDL
