MODEL 1
REMARK minimizedAffinity 11.1214724
REMARK minimizedRMSD -1
REMARK  0 active torsions:
REMARK  status: ('A' for Active; 'I' for Inactive)
ROOT
ATOM      1  O1  BZF d   1       0.119   4.143   0.082  0.00  0.00    -0.204 OA
ATOM      2  C2  BZF d   1      -0.748   3.456  -0.747  0.00  0.00     0.174 A 
ATOM      3  C3  BZF d   1      -1.099   2.276  -0.197  0.00  0.00    -0.012 A 
ATOM      4  C3A BZF d   1      -0.483   2.263   1.094  0.00  0.00    -0.107 A 
ATOM      5  C4  BZF d   1      -0.475   1.364   2.122  0.00  0.00     0.055 A 
ATOM      6  C5  BZF d   1       0.286   1.620   3.218  0.00  0.00    -0.016 A 
ATOM      7  C6  BZF d   1       1.054   2.762   3.318  0.00  0.00     0.022 A 
ATOM      8  C7  BZF d   1       1.075   3.686   2.326  0.00  0.00     0.029 A 
ATOM      9  C7A BZF d   1       0.281   3.445   1.231  0.00  0.00     0.058 A 
ENDROOT
TORSDOF 0
ENDMDL
