MODEL 1
REMARK minimizedAffinity 18.1416321
REMARK minimizedRMSD -1
REMARK  0 active torsions:
REMARK  status: ('A' for Active; 'I' for Inactive)
ROOT
ATOM      1  O1  BZF d   1      -0.697   4.538  -2.417  0.00  0.00    -0.204 OA
ATOM      2  C2  BZF d   1      -0.440   5.792  -1.897  0.00  0.00     0.174 A 
ATOM      3  C3  BZF d   1      -0.281   5.731  -0.559  0.00  0.00    -0.012 A 
ATOM      4  C3A BZF d   1      -0.357   4.340  -0.234  0.00  0.00    -0.107 A 
ATOM      5  C4  BZF d   1      -0.256   3.642   0.936  0.00  0.00     0.055 A 
ATOM      6  C5  BZF d   1      -0.451   2.297   0.922  0.00  0.00    -0.016 A 
ATOM      7  C6  BZF d   1      -0.753   1.619  -0.242  0.00  0.00     0.022 A 
ATOM      8  C7  BZF d   1      -0.858   2.268  -1.427  0.00  0.00     0.029 A 
ATOM      9  C7A BZF d   1      -0.629   3.622  -1.422  0.00  0.00     0.058 A 
ENDROOT
TORSDOF 0
ENDMDL
