MODEL 1
REMARK minimizedAffinity 7.2428937
REMARK minimizedRMSD -1
REMARK  0 active torsions:
REMARK  status: ('A' for Active; 'I' for Inactive)
ROOT
ATOM      1  O1  BZF d   1       1.093   4.599   0.711  0.00  0.00    -0.204 OA
ATOM      2  C2  BZF d   1       0.032   4.169  -0.062  0.00  0.00     0.174 A 
ATOM      3  C3  BZF d   1      -0.610   3.144   0.534  0.00  0.00    -0.012 A 
ATOM      4  C3A BZF d   1       0.037   2.980   1.799  0.00  0.00    -0.107 A 
ATOM      5  C4  BZF d   1      -0.159   2.131   2.851  0.00  0.00     0.055 A 
ATOM      6  C5  BZF d   1       0.693   2.182   3.909  0.00  0.00    -0.016 A 
ATOM      7  C6  BZF d   1       1.753   3.064   3.945  0.00  0.00     0.022 A 
ATOM      8  C7  BZF d   1       1.985   3.928   2.928  0.00  0.00     0.029 A 
ATOM      9  C7A BZF d   1       1.106   3.902   1.872  0.00  0.00     0.058 A 
ENDROOT
TORSDOF 0
ENDMDL
