MODEL 1
REMARK minimizedAffinity 12.910614
REMARK minimizedRMSD -1
REMARK  0 active torsions:
REMARK  status: ('A' for Active; 'I' for Inactive)
ROOT
ATOM      1  O1  BZF d   1      -3.947  -1.350  -1.149  0.00  0.00    -0.204 OA
ATOM      2  C2  BZF d   1      -4.539  -0.300  -0.474  0.00  0.00     0.174 A 
ATOM      3  C3  BZF d   1      -3.643   0.678  -0.229  0.00  0.00    -0.012 A 
ATOM      4  C3A BZF d   1      -2.436   0.251  -0.868  0.00  0.00    -0.107 A 
ATOM      5  C4  BZF d   1      -1.194   0.804  -0.993  0.00  0.00     0.055 A 
ATOM      6  C5  BZF d   1      -0.216   0.096  -1.617  0.00  0.00    -0.016 A 
ATOM      7  C6  BZF d   1      -0.443  -1.167  -2.122  0.00  0.00     0.022 A 
ATOM      8  C7  BZF d   1      -1.660  -1.755  -2.027  0.00  0.00     0.029 A 
ATOM      9  C7A BZF d   1      -2.660  -1.029  -1.426  0.00  0.00     0.058 A 
ENDROOT
TORSDOF 0
ENDMDL
