MODEL 1
REMARK minimizedAffinity 9.42285252
REMARK minimizedRMSD -1
REMARK  0 active torsions:
REMARK  status: ('A' for Active; 'I' for Inactive)
ROOT
ATOM      1  O1  BZF d   1       0.296   1.256  -0.963  0.00  0.00    -0.204 OA
ATOM      2  C2  BZF d   1      -0.126   2.252  -0.105  0.00  0.00     0.174 A 
ATOM      3  C3  BZF d   1      -1.419   2.073   0.237  0.00  0.00    -0.012 A 
ATOM      4  C3A BZF d   1      -1.803   0.840  -0.378  0.00  0.00    -0.107 A 
ATOM      5  C4  BZF d   1      -2.963   0.120  -0.393  0.00  0.00     0.055 A 
ATOM      6  C5  BZF d   1      -3.032  -1.007  -1.150  0.00  0.00    -0.016 A 
ATOM      7  C6  BZF d   1      -1.963  -1.439  -1.907  0.00  0.00     0.022 A 
ATOM      8  C7  BZF d   1      -0.789  -0.761  -1.921  0.00  0.00     0.029 A 
ATOM      9  C7A BZF d   1      -0.706   0.360  -1.131  0.00  0.00     0.058 A 
ENDROOT
TORSDOF 0
ENDMDL
