MODEL 1
REMARK minimizedAffinity 4.5279994
REMARK minimizedRMSD -1
REMARK  0 active torsions:
REMARK  status: ('A' for Active; 'I' for Inactive)
ROOT
ATOM      1  O1  BZF d   1      -3.295   0.312   0.943  0.00  0.00    -0.204 OA
ATOM      2  C2  BZF d   1      -3.438  -0.411  -0.226  0.00  0.00     0.174 A 
ATOM      3  C3  BZF d   1      -2.482  -0.076  -1.116  0.00  0.00    -0.012 A 
ATOM      4  C3A BZF d   1      -1.637   0.852  -0.429  0.00  0.00    -0.107 A 
ATOM      5  C4  BZF d   1      -0.505   1.529  -0.781  0.00  0.00     0.055 A 
ATOM      6  C5  BZF d   1       0.036   2.415   0.097  0.00  0.00    -0.016 A 
ATOM      7  C6  BZF d   1      -0.532   2.650   1.332  0.00  0.00     0.022 A 
ATOM      8  C7  BZF d   1      -1.652   1.998   1.728  0.00  0.00     0.029 A 
ATOM      9  C7A BZF d   1      -2.182   1.079   0.856  0.00  0.00     0.058 A 
ENDROOT
TORSDOF 0
ENDMDL
