MODEL 1
REMARK minimizedAffinity 7.40682745
REMARK minimizedRMSD -1
REMARK  0 active torsions:
REMARK  status: ('A' for Active; 'I' for Inactive)
ROOT
ATOM      1  O1  BZF d   1       3.480  -4.858  -1.399  0.00  0.00    -0.204 OA
ATOM      2  C2  BZF d   1       2.575  -4.922  -0.357  0.00  0.00     0.174 A 
ATOM      3  C3  BZF d   1       2.633  -3.805   0.397  0.00  0.00    -0.012 A 
ATOM      4  C3A BZF d   1       3.571  -2.952  -0.266  0.00  0.00    -0.107 A 
ATOM      5  C4  BZF d   1       4.042  -1.697  -0.010  0.00  0.00     0.055 A 
ATOM      6  C5  BZF d   1       5.008  -1.177  -0.812  0.00  0.00    -0.016 A 
ATOM      7  C6  BZF d   1       5.529  -1.886  -1.875  0.00  0.00     0.022 A 
ATOM      8  C7  BZF d   1       5.089  -3.133  -2.172  0.00  0.00     0.029 A 
ATOM      9  C7A BZF d   1       4.090  -3.648  -1.383  0.00  0.00     0.058 A 
ENDROOT
TORSDOF 0
ENDMDL
