MODEL 1
REMARK minimizedAffinity -1.14807618
REMARK minimizedRMSD -1
REMARK  0 active torsions:
REMARK  status: ('A' for Active; 'I' for Inactive)
ROOT
ATOM      1  C   UNL d   1      -1.424   0.916   2.807  0.00  0.00     0.078 C 
ATOM      2  C1  UNL d   1      -0.948   0.294   1.528  0.00  0.00    -0.077 A 
ATOM      3  C2  UNL d   1       0.417   0.100   1.285  0.00  0.00    -0.001 A 
ATOM      4  C3  UNL d   1       0.846  -0.471   0.086  0.00  0.00     0.003 A 
ATOM      5  C4  UNL d   1      -0.083  -0.851  -0.880  0.00  0.00    -0.005 A 
ATOM      6  C5  UNL d   1      -1.444  -0.660  -0.648  0.00  0.00     0.003 A 
ATOM      7  C6  UNL d   1      -1.875  -0.089   0.551  0.00  0.00    -0.001 A 
ENDROOT
TORSDOF 0
ENDMDL
