MODEL 1
REMARK minimizedAffinity -5.51529789
REMARK minimizedRMSD -1
REMARK  0 active torsions:
REMARK  status: ('A' for Active; 'I' for Inactive)
ROOT
ATOM      1  C   UNL d   1       0.351  -0.286  -0.170  0.00  0.00     0.078 C 
ATOM      2  C1  UNL d   1       0.406   0.150   1.263  0.00  0.00    -0.077 A 
ATOM      3  C2  UNL d   1       1.543  -0.087   2.046  0.00  0.00    -0.001 A 
ATOM      4  C3  UNL d   1       1.576   0.316   3.382  0.00  0.00     0.003 A 
ATOM      5  C4  UNL d   1       0.476   0.956   3.948  0.00  0.00    -0.005 A 
ATOM      6  C5  UNL d   1      -0.661   1.194   3.177  0.00  0.00     0.003 A 
ATOM      7  C6  UNL d   1      -0.696   0.792   1.841  0.00  0.00    -0.001 A 
ENDROOT
TORSDOF 0
ENDMDL
