MODEL 1
REMARK minimizedAffinity -6.23350906
REMARK minimizedRMSD -1
REMARK  0 active torsions:
REMARK  status: ('A' for Active; 'I' for Inactive)
ROOT
ATOM      1  C   UNL d   1       0.550  -0.309  -1.156  0.00  0.00     0.078 C 
ATOM      2  C1  UNL d   1       0.077   0.116   0.202  0.00  0.00    -0.077 A 
ATOM      3  C2  UNL d   1      -1.223   0.597   0.395  0.00  0.00    -0.001 A 
ATOM      4  C3  UNL d   1      -1.646   0.998   1.664  0.00  0.00     0.003 A 
ATOM      5  C4  UNL d   1      -0.775   0.922   2.749  0.00  0.00    -0.005 A 
ATOM      6  C5  UNL d   1       0.521   0.446   2.566  0.00  0.00     0.003 A 
ATOM      7  C6  UNL d   1       0.947   0.045   1.298  0.00  0.00    -0.001 A 
ENDROOT
TORSDOF 0
ENDMDL
