MODEL 1
REMARK minimizedAffinity -5.16814327
REMARK minimizedRMSD -1
REMARK  0 active torsions:
REMARK  status: ('A' for Active; 'I' for Inactive)
ROOT
ATOM      1  C   UNL d   1       0.136  -0.278  -0.559  0.00  0.00     0.078 C 
ATOM      2  C1  UNL d   1      -0.134   0.167   0.848  0.00  0.00    -0.077 A 
ATOM      3  C2  UNL d   1       0.814  -0.027   1.860  0.00  0.00    -0.001 A 
ATOM      4  C3  UNL d   1       0.545   0.383   3.167  0.00  0.00     0.003 A 
ATOM      5  C4  UNL d   1      -0.672   0.987   3.474  0.00  0.00    -0.005 A 
ATOM      6  C5  UNL d   1      -1.623   1.182   2.474  0.00  0.00     0.003 A 
ATOM      7  C6  UNL d   1      -1.355   0.773   1.167  0.00  0.00    -0.001 A 
ENDROOT
TORSDOF 0
ENDMDL
