MODEL 1
REMARK minimizedAffinity -5.85570431
REMARK minimizedRMSD -1
REMARK  0 active torsions:
REMARK  status: ('A' for Active; 'I' for Inactive)
ROOT
ATOM      1  C   UNL d   1       0.268  -0.452  -0.382  0.00  0.00     0.078 C 
ATOM      2  C1  UNL d   1       0.065   0.080   1.005  0.00  0.00    -0.077 A 
ATOM      3  C2  UNL d   1       0.956  -0.239   2.037  0.00  0.00    -0.001 A 
ATOM      4  C3  UNL d   1       0.749   0.256   3.326  0.00  0.00     0.003 A 
ATOM      5  C4  UNL d   1      -0.349   1.071   3.594  0.00  0.00    -0.005 A 
ATOM      6  C5  UNL d   1      -1.242   1.392   2.574  0.00  0.00     0.003 A 
ATOM      7  C6  UNL d   1      -1.037   0.898   1.285  0.00  0.00    -0.001 A 
ENDROOT
TORSDOF 0
ENDMDL
