MODEL 1
REMARK minimizedAffinity -4.38991022
REMARK minimizedRMSD -1
REMARK  0 active torsions:
REMARK  status: ('A' for Active; 'I' for Inactive)
ROOT
ATOM      1  C   UNL d   1       2.094  -0.246   2.910  0.00  0.00     0.078 C 
ATOM      2  C1  UNL d   1       0.858   0.012   2.101  0.00  0.00    -0.077 A 
ATOM      3  C2  UNL d   1      -0.270   0.609   2.678  0.00  0.00    -0.001 A 
ATOM      4  C3  UNL d   1      -1.417   0.835   1.915  0.00  0.00     0.003 A 
ATOM      5  C4  UNL d   1      -1.448   0.465   0.572  0.00  0.00    -0.005 A 
ATOM      6  C5  UNL d   1      -0.331  -0.131  -0.010  0.00  0.00     0.003 A 
ATOM      7  C6  UNL d   1       0.817  -0.358   0.751  0.00  0.00    -0.001 A 
ENDROOT
TORSDOF 0
ENDMDL
