MODEL 1
REMARK minimizedAffinity 12.6612186
REMARK minimizedRMSD -1
REMARK  1 active torsions:
REMARK  status: ('A' for Active; 'I' for Inactive)
REMARK    1  A    between atoms: C1_2  and  C2_3 
ROOT
ATOM      1  C2  UNL d   1      -0.933   2.687  -0.758  0.00  0.00    -0.073 A 
ATOM      2  C3  UNL d   1      -0.173   2.647   0.417  0.00  0.00    -0.002 A 
ATOM      3  C4  UNL d   1       1.054   3.309   0.485  0.00  0.00     0.004 A 
ATOM      4  C5  UNL d   1       1.529   4.022  -0.616  0.00  0.00    -0.004 A 
ATOM      5  C6  UNL d   1       0.778   4.084  -1.794  0.00  0.00    -0.075 A 
ATOM      6  C7  UNL d   1       1.276   4.845  -2.988  0.00  0.00     0.076 C 
ATOM      7  C8  UNL d   1      -0.452   3.414  -1.856  0.00  0.00     0.001 A 
ENDROOT
BRANCH   1   8
ATOM      8  C1  UNL d   1      -2.261   1.979  -0.834  0.00  0.00     0.053 C 
ATOM      9  C   UNL d   1      -3.082   2.435  -2.030  0.00  0.00     0.018 C 
ENDBRANCH   1   8
TORSDOF 1
ENDMDL
