MODEL 1
REMARK minimizedAffinity 16.0627136
REMARK minimizedRMSD -1
REMARK  1 active torsions:
REMARK  status: ('A' for Active; 'I' for Inactive)
REMARK    1  A    between atoms: C1_2  and  C2_3 
ROOT
ATOM      1  C2  UNL d   1       0.877   2.319   1.042  0.00  0.00    -0.073 A 
ATOM      2  C3  UNL d   1      -0.504   2.117   1.150  0.00  0.00    -0.002 A 
ATOM      3  C4  UNL d   1      -1.380   2.747   0.265  0.00  0.00     0.004 A 
ATOM      4  C5  UNL d   1      -0.886   3.579  -0.739  0.00  0.00    -0.004 A 
ATOM      5  C6  UNL d   1       0.491   3.784  -0.871  0.00  0.00    -0.075 A 
ATOM      6  C7  UNL d   1       1.039   4.678  -1.945  0.00  0.00     0.076 C 
ATOM      7  C8  UNL d   1       1.365   3.150   0.023  0.00  0.00     0.001 A 
ENDROOT
BRANCH   1   8
ATOM      8  C1  UNL d   1       1.827   1.636   1.990  0.00  0.00     0.053 C 
ATOM      9  C   UNL d   1       2.568   2.630   2.870  0.00  0.00     0.018 C 
ENDBRANCH   1   8
TORSDOF 1
ENDMDL
