MODEL 1
REMARK minimizedAffinity 5.73185444
REMARK minimizedRMSD -1
REMARK  1 active torsions:
REMARK  status: ('A' for Active; 'I' for Inactive)
REMARK    1  A    between atoms: C1_2  and  C2_3 
ROOT
ATOM      1  C2  UNL d   1      -0.125   3.058   0.292  0.00  0.00    -0.073 A 
ATOM      2  C3  UNL d   1      -1.416   3.598   0.330  0.00  0.00    -0.002 A 
ATOM      3  C4  UNL d   1      -2.238   3.384   1.437  0.00  0.00     0.004 A 
ATOM      4  C5  UNL d   1      -1.777   2.634   2.519  0.00  0.00    -0.004 A 
ATOM      5  C6  UNL d   1      -0.486   2.096   2.505  0.00  0.00    -0.075 A 
ATOM      6  C7  UNL d   1       0.025   1.286   3.660  0.00  0.00     0.076 C 
ATOM      7  C8  UNL d   1       0.333   2.313   1.389  0.00  0.00     0.001 A 
ENDROOT
BRANCH   1   8
ATOM      8  C1  UNL d   1       0.768   3.292  -0.899  0.00  0.00     0.053 C 
ATOM      9  C   UNL d   1       1.885   4.275  -0.588  0.00  0.00     0.018 C 
ENDBRANCH   1   8
TORSDOF 1
ENDMDL
