MODEL 1
REMARK minimizedAffinity 13.1748838
REMARK minimizedRMSD -1
REMARK  1 active torsions:
REMARK  status: ('A' for Active; 'I' for Inactive)
REMARK    1  A    between atoms: C1_2  and  C2_3 
ROOT
ATOM      1  C2  UNL d   1       0.842  -4.152  -2.883  0.00  0.00    -0.073 A 
ATOM      2  C3  UNL d   1       0.594  -4.370  -1.523  0.00  0.00    -0.002 A 
ATOM      3  C4  UNL d   1       1.524  -5.051  -0.737  0.00  0.00     0.004 A 
ATOM      4  C5  UNL d   1       2.713  -5.514  -1.300  0.00  0.00    -0.004 A 
ATOM      5  C6  UNL d   1       2.985  -5.296  -2.655  0.00  0.00    -0.075 A 
ATOM      6  C7  UNL d   1       4.258  -5.789  -3.276  0.00  0.00     0.076 C 
ATOM      7  C8  UNL d   1       2.044  -4.613  -3.438  0.00  0.00     0.001 A 
ENDROOT
BRANCH   1   8
ATOM      8  C1  UNL d   1      -0.157  -3.412  -3.734  0.00  0.00     0.053 C 
ATOM      9  C   UNL d   1      -1.379  -4.261  -4.048  0.00  0.00     0.018 C 
ENDBRANCH   1   8
TORSDOF 1
ENDMDL
