MODEL 1
REMARK minimizedAffinity -2.60293269
REMARK minimizedRMSD -1
REMARK  1 active torsions:
REMARK  status: ('A' for Active; 'I' for Inactive)
REMARK    1  A    between atoms: C1_2  and  C2_3 
ROOT
ATOM      1  C2  UNL d   1      -0.356  -0.047  -0.118  0.00  0.00    -0.076 A 
ATOM      2  C3  UNL d   1      -1.597   0.588  -0.293  0.00  0.00     0.004 A 
ATOM      3  C4  UNL d   1      -2.280   1.140   0.790  0.00  0.00    -0.003 A 
ATOM      4  C5  UNL d   1      -1.731   1.066   2.066  0.00  0.00     0.000 A 
ATOM      5  C6  UNL d   1      -0.492   0.456   2.255  0.00  0.00     0.000 A 
ATOM      6  C7  UNL d   1       0.217  -0.091   1.172  0.00  0.00    -0.073 A 
ATOM      7  C8  UNL d   1       1.546  -0.744   1.434  0.00  0.00     0.078 C 
ENDROOT
BRANCH   1   8
ATOM      8  C1  UNL d   1       0.325  -0.651  -1.325  0.00  0.00     0.053 C 
ATOM      9  C   UNL d   1       0.585   0.372  -2.420  0.00  0.00     0.018 C 
ENDBRANCH   1   8
TORSDOF 1
ENDMDL
