MODEL 1
REMARK minimizedAffinity -3.89614177
REMARK minimizedRMSD -1
REMARK  1 active torsions:
REMARK  status: ('A' for Active; 'I' for Inactive)
REMARK    1  A    between atoms: C1_2  and  C2_3 
ROOT
ATOM      1  C2  UNL d   1       0.472   0.462  -2.351  0.00  0.00    -0.076 A 
ATOM      2  C3  UNL d   1      -0.181   1.679  -2.087  0.00  0.00     0.004 A 
ATOM      3  C4  UNL d   1      -0.970   1.838  -0.949  0.00  0.00    -0.003 A 
ATOM      4  C5  UNL d   1      -1.117   0.783  -0.055  0.00  0.00     0.000 A 
ATOM      5  C6  UNL d   1      -0.462  -0.425  -0.291  0.00  0.00     0.000 A 
ATOM      6  C7  UNL d   1       0.350  -0.597  -1.426  0.00  0.00    -0.073 A 
ATOM      7  C8  UNL d   1       1.028  -1.923  -1.635  0.00  0.00     0.078 C 
ENDROOT
BRANCH   1   8
ATOM      8  C1  UNL d   1       1.292   0.340  -3.615  0.00  0.00     0.053 C 
ATOM      9  C   UNL d   1       2.787   0.421  -3.351  0.00  0.00     0.018 C 
ENDBRANCH   1   8
TORSDOF 1
ENDMDL
