MODEL 1
REMARK minimizedAffinity -3.66679692
REMARK minimizedRMSD -1
REMARK  1 active torsions:
REMARK  status: ('A' for Active; 'I' for Inactive)
REMARK    1  A    between atoms: C1_2  and  C2_3 
ROOT
ATOM      1  C2  UNL d   1       0.341  -0.744   0.657  0.00  0.00    -0.076 A 
ATOM      2  C3  UNL d   1      -0.239  -0.523   1.918  0.00  0.00     0.004 A 
ATOM      3  C4  UNL d   1      -1.390   0.252   2.054  0.00  0.00    -0.003 A 
ATOM      4  C5  UNL d   1      -1.980   0.819   0.929  0.00  0.00     0.000 A 
ATOM      5  C6  UNL d   1      -1.428   0.596  -0.332  0.00  0.00     0.000 A 
ATOM      6  C7  UNL d   1      -0.277  -0.196  -0.487  0.00  0.00    -0.073 A 
ATOM      7  C8  UNL d   1       0.279  -0.398  -1.870  0.00  0.00     0.078 C 
ENDROOT
BRANCH   1   8
ATOM      8  C1  UNL d   1       1.604  -1.570   0.575  0.00  0.00     0.053 C 
ATOM      9  C   UNL d   1       2.536  -1.328   1.752  0.00  0.00     0.018 C 
ENDBRANCH   1   8
TORSDOF 1
ENDMDL
