MODEL 1
REMARK minimizedAffinity -4.98330164
REMARK minimizedRMSD -1
REMARK  1 active torsions:
REMARK  status: ('A' for Active; 'I' for Inactive)
REMARK    1  A    between atoms: C1_2  and  C2_3 
ROOT
ATOM      1  C2  UNL d   1      -0.063   0.188  -0.040  0.00  0.00    -0.076 A 
ATOM      2  C3  UNL d   1      -1.215   0.983   0.089  0.00  0.00     0.004 A 
ATOM      3  C4  UNL d   1      -1.732   1.298   1.344  0.00  0.00    -0.003 A 
ATOM      4  C5  UNL d   1      -1.105   0.824   2.491  0.00  0.00     0.000 A 
ATOM      5  C6  UNL d   1       0.049   0.048   2.382  0.00  0.00     0.000 A 
ATOM      6  C7  UNL d   1       0.593  -0.265   1.125  0.00  0.00    -0.073 A 
ATOM      7  C8  UNL d   1       1.835  -1.111   1.066  0.00  0.00     0.078 C 
ENDROOT
BRANCH   1   8
ATOM      8  C1  UNL d   1       0.436  -0.144  -1.429  0.00  0.00     0.053 C 
ATOM      9  C   UNL d   1      -0.112  -1.465  -1.945  0.00  0.00     0.018 C 
ENDBRANCH   1   8
TORSDOF 1
ENDMDL
