MODEL 1
REMARK minimizedAffinity -1.26974344
REMARK minimizedRMSD -1
REMARK  1 active torsions:
REMARK  status: ('A' for Active; 'I' for Inactive)
REMARK    1  A    between atoms: C1_2  and  C2_3 
ROOT
ATOM      1  C2  UNL d   1      -0.088  -1.293  -3.454  0.00  0.00    -0.076 A 
ATOM      2  C3  UNL d   1      -0.716  -2.549  -3.525  0.00  0.00     0.004 A 
ATOM      3  C4  UNL d   1      -1.183  -3.050  -4.739  0.00  0.00    -0.003 A 
ATOM      4  C5  UNL d   1      -1.029  -2.304  -5.902  0.00  0.00     0.000 A 
ATOM      5  C6  UNL d   1      -0.393  -1.064  -5.853  0.00  0.00     0.000 A 
ATOM      6  C7  UNL d   1       0.098  -0.551  -4.640  0.00  0.00    -0.073 A 
ATOM      7  C8  UNL d   1       0.770   0.794  -4.645  0.00  0.00     0.078 C 
ENDROOT
BRANCH   1   8
ATOM      8  C1  UNL d   1       0.373  -0.789  -2.106  0.00  0.00     0.053 C 
ATOM      9  C   UNL d   1       0.032  -1.750  -0.977  0.00  0.00     0.018 C 
ENDBRANCH   1   8
TORSDOF 1
ENDMDL
