MODEL 1
REMARK minimizedAffinity 4.18855667
REMARK minimizedRMSD -1
REMARK  3 active torsions:
REMARK  status: ('A' for Active; 'I' for Inactive)
REMARK    1  A    between atoms: C3'_2  and  C2'_3 
REMARK    2  A    between atoms: C2'_3  and  C1'_4 
REMARK    3  A    between atoms: C1'_4  and  C1_5 
ROOT
ATOM      1  C1  N4B d   1       2.624  -1.881  -0.412  0.00  0.00    -0.075 A 
ATOM      2  C2  N4B d   1       1.994  -2.838   0.413  0.00  0.00     0.002 A 
ATOM      3  C3  N4B d   1       1.013  -3.650  -0.103  0.00  0.00     0.002 A 
ATOM      4  C4  N4B d   1       0.635  -3.510  -1.430  0.00  0.00    -0.004 A 
ATOM      5  C5  N4B d   1       1.266  -2.600  -2.226  0.00  0.00     0.002 A 
ATOM      6  C6  N4B d   1       2.256  -1.781  -1.723  0.00  0.00     0.002 A 
ENDROOT
BRANCH   1   7
ATOM      7  C1' N4B d   1       3.640  -0.913   0.128  0.00  0.00     0.057 C 
BRANCH   7   8
ATOM      8  C2' N4B d   1       3.311   0.491  -0.371  0.00  0.00     0.009 C 
BRANCH   8   9
ATOM      9  C3' N4B d   1       4.554   1.243  -0.813  0.00  0.00     0.004 C 
ATOM     10  C4' N4B d   1       5.181   2.032   0.297  0.00  0.00     0.003 C 
ENDBRANCH   8   9
ENDBRANCH   7   8
ENDBRANCH   1   7
TORSDOF 3
ENDMDL
