MODEL 1
REMARK minimizedAffinity 14.648118
REMARK minimizedRMSD -1
REMARK  3 active torsions:
REMARK  status: ('A' for Active; 'I' for Inactive)
REMARK    1  A    between atoms: C3'_2  and  C2'_3 
REMARK    2  A    between atoms: C2'_3  and  C1'_4 
REMARK    3  A    between atoms: C1'_4  and  C1_5 
ROOT
ATOM      1  C1  N4B d   1      -1.004  -5.239  -2.237  0.00  0.00    -0.075 A 
ATOM      2  C2  N4B d   1      -2.196  -4.483  -2.269  0.00  0.00     0.002 A 
ATOM      3  C3  N4B d   1      -2.990  -4.502  -3.389  0.00  0.00     0.002 A 
ATOM      4  C4  N4B d   1      -2.605  -5.251  -4.491  0.00  0.00    -0.004 A 
ATOM      5  C5  N4B d   1      -1.465  -5.999  -4.442  0.00  0.00     0.002 A 
ATOM      6  C6  N4B d   1      -0.659  -5.993  -3.321  0.00  0.00     0.002 A 
ENDROOT
BRANCH   1   7
ATOM      7  C1' N4B d   1      -0.059  -5.183  -1.067  0.00  0.00     0.057 C 
BRANCH   7   8
ATOM      8  C2' N4B d   1       1.258  -4.557  -1.517  0.00  0.00     0.009 C 
BRANCH   8   9
ATOM      9  C3' N4B d   1       1.807  -3.586  -0.486  0.00  0.00     0.004 C 
ATOM     10  C4' N4B d   1       2.503  -2.412  -1.107  0.00  0.00     0.003 C 
ENDBRANCH   8   9
ENDBRANCH   7   8
ENDBRANCH   1   7
TORSDOF 3
ENDMDL
