MODEL 1
REMARK minimizedAffinity 6.69102001
REMARK minimizedRMSD -1
REMARK  3 active torsions:
REMARK  status: ('A' for Active; 'I' for Inactive)
REMARK    1  A    between atoms: C3'_2  and  C2'_3 
REMARK    2  A    between atoms: C2'_3  and  C1'_4 
REMARK    3  A    between atoms: C1'_4  and  C1_5 
ROOT
ATOM      1  C1  N4B d   1       4.256  -0.395  -0.717  0.00  0.00    -0.075 A 
ATOM      2  C2  N4B d   1       4.850   0.002  -1.936  0.00  0.00     0.002 A 
ATOM      3  C3  N4B d   1       5.521   1.197  -2.015  0.00  0.00     0.002 A 
ATOM      4  C4  N4B d   1       5.596   2.018  -0.899  0.00  0.00    -0.004 A 
ATOM      5  C5  N4B d   1       5.041   1.615   0.281  0.00  0.00     0.002 A 
ATOM      6  C6  N4B d   1       4.367   0.415   0.376  0.00  0.00     0.002 A 
ENDROOT
BRANCH   1   7
ATOM      7  C1' N4B d   1       3.438  -1.652  -0.605  0.00  0.00     0.057 C 
BRANCH   7   8
ATOM      8  C2' N4B d   1       2.755  -1.927  -1.941  0.00  0.00     0.009 C 
BRANCH   8   9
ATOM      9  C3' N4B d   1       2.784  -3.402  -2.302  0.00  0.00     0.004 C 
ATOM     10  C4' N4B d   1       3.308  -3.651  -3.685  0.00  0.00     0.003 C 
ENDBRANCH   8   9
ENDBRANCH   7   8
ENDBRANCH   1   7
TORSDOF 3
ENDMDL
