MODEL 1
REMARK minimizedAffinity 10.4075632
REMARK minimizedRMSD -1
REMARK  3 active torsions:
REMARK  status: ('A' for Active; 'I' for Inactive)
REMARK    1  A    between atoms: C3'_2  and  C2'_3 
REMARK    2  A    between atoms: C2'_3  and  C1'_4 
REMARK    3  A    between atoms: C1'_4  and  C1_5 
ROOT
ATOM      1  C1  N4B d   1      -0.321   3.422   1.826  0.00  0.00    -0.075 A 
ATOM      2  C2  N4B d   1      -1.328   3.012   0.924  0.00  0.00     0.002 A 
ATOM      3  C3  N4B d   1      -1.541   1.675   0.694  0.00  0.00     0.002 A 
ATOM      4  C4  N4B d   1      -0.750   0.734   1.337  0.00  0.00    -0.004 A 
ATOM      5  C5  N4B d   1       0.203   1.138   2.226  0.00  0.00     0.002 A 
ATOM      6  C6  N4B d   1       0.425   2.478   2.469  0.00  0.00     0.002 A 
ENDROOT
BRANCH   1   7
ATOM      7  C1' N4B d   1       0.006   4.874   2.045  0.00  0.00     0.057 C 
BRANCH   7   8
ATOM      8  C2' N4B d   1       1.236   4.981   2.940  0.00  0.00     0.009 C 
BRANCH   8   9
ATOM      9  C3' N4B d   1       1.017   5.944   4.094  0.00  0.00     0.004 C 
ATOM     10  C4' N4B d   1      -0.412   5.996   4.544  0.00  0.00     0.003 C 
ENDBRANCH   8   9
ENDBRANCH   7   8
ENDBRANCH   1   7
TORSDOF 3
ENDMDL
