MODEL 1
REMARK minimizedAffinity 9.54018879
REMARK minimizedRMSD -1
REMARK  3 active torsions:
REMARK  status: ('A' for Active; 'I' for Inactive)
REMARK    1  A    between atoms: C3'_2  and  C2'_3 
REMARK    2  A    between atoms: C2'_3  and  C1'_4 
REMARK    3  A    between atoms: C1'_4  and  C1_5 
ROOT
ATOM      1  C1  N4B d   1       1.189  -2.502   1.033  0.00  0.00    -0.075 A 
ATOM      2  C2  N4B d   1      -0.029  -2.457   0.319  0.00  0.00     0.002 A 
ATOM      3  C3  N4B d   1      -0.036  -2.659  -1.040  0.00  0.00     0.002 A 
ATOM      4  C4  N4B d   1       1.159  -2.886  -1.705  0.00  0.00    -0.004 A 
ATOM      5  C5  N4B d   1       2.328  -2.953  -1.005  0.00  0.00     0.002 A 
ATOM      6  C6  N4B d   1       2.349  -2.756   0.362  0.00  0.00     0.002 A 
ENDROOT
BRANCH   1   7
ATOM      7  C1' N4B d   1       1.257  -2.203   2.506  0.00  0.00     0.057 C 
BRANCH   7   8
ATOM      8  C2' N4B d   1       0.813  -3.435   3.288  0.00  0.00     0.009 C 
BRANCH   8   9
ATOM      9  C3' N4B d   1       0.148  -3.064   4.603  0.00  0.00     0.004 C 
ATOM     10  C4' N4B d   1      -0.390  -4.256   5.337  0.00  0.00     0.003 C 
ENDBRANCH   8   9
ENDBRANCH   7   8
ENDBRANCH   1   7
TORSDOF 3
ENDMDL
