MODEL 1
REMARK minimizedAffinity 17.7130508
REMARK minimizedRMSD -1
REMARK  1 active torsions:
REMARK  status: ('A' for Active; 'I' for Inactive)
REMARK    1  A    between atoms: C1_2  and  C2_3 
ROOT
ATOM      1  C2  UNL d   1       1.605   0.504   2.998  0.00  0.00    -0.073 A 
ATOM      2  C3  UNL d   1       0.393   0.831   3.615  0.00  0.00    -0.002 A 
ATOM      3  C4  UNL d   1      -0.250  -0.093   4.441  0.00  0.00     0.004 A 
ATOM      4  C5  UNL d   1       0.315  -1.348   4.662  0.00  0.00    -0.004 A 
ATOM      5  C6  UNL d   1       1.532  -1.690   4.063  0.00  0.00    -0.075 A 
ATOM      6  C7  UNL d   1       2.152  -3.038   4.289  0.00  0.00     0.076 C 
ATOM      7  C8  UNL d   1       2.170  -0.758   3.233  0.00  0.00     0.001 A 
ENDROOT
BRANCH   1   8
ATOM      8  C1  UNL d   1       2.306   1.500   2.111  0.00  0.00     0.053 C 
ATOM      9  C   UNL d   1       2.315   2.895   2.716  0.00  0.00     0.018 C 
ENDBRANCH   1   8
TORSDOF 1
ENDMDL
