MODEL 1
REMARK minimizedAffinity 13.7800102
REMARK minimizedRMSD -1
REMARK  1 active torsions:
REMARK  status: ('A' for Active; 'I' for Inactive)
REMARK    1  A    between atoms: C1_2  and  C2_3 
ROOT
ATOM      1  C2  UNL d   1       2.586  -2.017   0.015  0.00  0.00    -0.073 A 
ATOM      2  C3  UNL d   1       1.703  -1.299  -0.800  0.00  0.00    -0.002 A 
ATOM      3  C4  UNL d   1       0.667  -1.954  -1.467  0.00  0.00     0.004 A 
ATOM      4  C5  UNL d   1       0.498  -3.331  -1.320  0.00  0.00    -0.004 A 
ATOM      5  C6  UNL d   1       1.362  -4.064  -0.500  0.00  0.00    -0.075 A 
ATOM      6  C7  UNL d   1       1.194  -5.546  -0.334  0.00  0.00     0.076 C 
ATOM      7  C8  UNL d   1       2.402  -3.400   0.163  0.00  0.00     0.001 A 
ENDROOT
BRANCH   1   8
ATOM      8  C1  UNL d   1       3.702  -1.313   0.741  0.00  0.00     0.053 C 
ATOM      9  C   UNL d   1       3.179  -0.373   1.816  0.00  0.00     0.018 C 
ENDBRANCH   1   8
TORSDOF 1
ENDMDL
