MODEL 1
REMARK minimizedAffinity 13.6332989
REMARK minimizedRMSD -1
REMARK  1 active torsions:
REMARK  status: ('A' for Active; 'I' for Inactive)
REMARK    1  A    between atoms: C1_2  and  C2_3 
ROOT
ATOM      1  C2  UNL d   1       0.909   2.364   0.879  0.00  0.00    -0.073 A 
ATOM      2  C3  UNL d   1      -0.468   2.221   0.671  0.00  0.00    -0.002 A 
ATOM      3  C4  UNL d   1      -1.085   2.845  -0.414  0.00  0.00     0.004 A 
ATOM      4  C5  UNL d   1      -0.333   3.610  -1.305  0.00  0.00    -0.004 A 
ATOM      5  C6  UNL d   1       1.046   3.755  -1.121  0.00  0.00    -0.075 A 
ATOM      6  C7  UNL d   1       1.868   4.576  -2.070  0.00  0.00     0.076 C 
ATOM      7  C8  UNL d   1       1.658   3.128  -0.028  0.00  0.00     0.001 A 
ENDROOT
BRANCH   1   8
ATOM      8  C1  UNL d   1       1.581   1.688   2.046  0.00  0.00     0.053 C 
ATOM      9  C   UNL d   1       2.664   2.559   2.663  0.00  0.00     0.018 C 
ENDBRANCH   1   8
TORSDOF 1
ENDMDL
