MODEL 1
REMARK minimizedAffinity 10.0400782
REMARK minimizedRMSD -1
REMARK  1 active torsions:
REMARK  status: ('A' for Active; 'I' for Inactive)
REMARK    1  A    between atoms: C1_2  and  C2_3 
ROOT
ATOM      1  C2  UNL d   1       0.270   3.169   0.209  0.00  0.00    -0.073 A 
ATOM      2  C3  UNL d   1      -1.111   3.388   0.162  0.00  0.00    -0.002 A 
ATOM      3  C4  UNL d   1      -1.949   2.812   1.119  0.00  0.00     0.004 A 
ATOM      4  C5  UNL d   1      -1.414   2.019   2.134  0.00  0.00    -0.004 A 
ATOM      5  C6  UNL d   1      -0.035   1.799   2.204  0.00  0.00    -0.075 A 
ATOM      6  C7  UNL d   1       0.556   0.946   3.289  0.00  0.00     0.076 C 
ATOM      7  C8  UNL d   1       0.800   2.378   1.239  0.00  0.00     0.001 A 
ENDROOT
BRANCH   1   8
ATOM      8  C1  UNL d   1       1.179   3.794  -0.818  0.00  0.00     0.053 C 
ATOM      9  C   UNL d   1       0.667   3.587  -2.234  0.00  0.00     0.018 C 
ENDBRANCH   1   8
TORSDOF 1
ENDMDL
