MODEL 1
REMARK minimizedAffinity 13.0056028
REMARK minimizedRMSD -1
REMARK  1 active torsions:
REMARK  status: ('A' for Active; 'I' for Inactive)
REMARK    1  A    between atoms: C1_2  and  C2_3 
ROOT
ATOM      1  C2  UNL d   1       0.063   1.626   1.511  0.00  0.00    -0.073 A 
ATOM      2  C3  UNL d   1      -1.331   1.732   1.584  0.00  0.00    -0.002 A 
ATOM      3  C4  UNL d   1      -2.042   2.382   0.574  0.00  0.00     0.004 A 
ATOM      4  C5  UNL d   1      -1.369   2.926  -0.520  0.00  0.00    -0.004 A 
ATOM      5  C6  UNL d   1       0.022   2.820  -0.616  0.00  0.00    -0.075 A 
ATOM      6  C7  UNL d   1       0.761   3.402  -1.785  0.00  0.00     0.076 C 
ATOM      7  C8  UNL d   1       0.729   2.168   0.403  0.00  0.00     0.001 A 
ENDROOT
BRANCH   1   8
ATOM      8  C1  UNL d   1       0.835   0.920   2.596  0.00  0.00     0.053 C 
ATOM      9  C   UNL d   1      -0.082   0.326   3.654  0.00  0.00     0.018 C 
ENDBRANCH   1   8
TORSDOF 1
ENDMDL
