MODEL 1
REMARK minimizedAffinity 19.9087429
REMARK minimizedRMSD -1
REMARK  1 active torsions:
REMARK  status: ('A' for Active; 'I' for Inactive)
REMARK    1  A    between atoms: C1_2  and  C2_3 
ROOT
ATOM      1  C2  UNL d   1       1.430   4.981  -1.945  0.00  0.00    -0.073 A 
ATOM      2  C3  UNL d   1       1.543   3.586  -1.974  0.00  0.00    -0.002 A 
ATOM      3  C4  UNL d   1       0.456   2.784  -1.623  0.00  0.00     0.004 A 
ATOM      4  C5  UNL d   1      -0.755   3.366  -1.249  0.00  0.00    -0.004 A 
ATOM      5  C6  UNL d   1      -0.891   4.758  -1.226  0.00  0.00    -0.075 A 
ATOM      6  C7  UNL d   1      -2.186   5.400  -0.823  0.00  0.00     0.076 C 
ATOM      7  C8  UNL d   1       0.206   5.557  -1.576  0.00  0.00     0.001 A 
ENDROOT
BRANCH   1   8
ATOM      8  C1  UNL d   1       2.598   5.852  -2.329  0.00  0.00     0.053 C 
ATOM      9  C   UNL d   1       3.596   5.999  -1.191  0.00  0.00     0.018 C 
ENDBRANCH   1   8
TORSDOF 1
ENDMDL
