MODEL 1
REMARK minimizedAffinity 6.66100216
REMARK minimizedRMSD -1
REMARK  0 active torsions:
REMARK  status: ('A' for Active; 'I' for Inactive)
ROOT
ATOM      1  C   UNL d   1       4.944   0.776   0.153  0.00  0.00     0.124 A 
ATOM      2  C1  UNL d   1       5.329   1.693   1.120  0.00  0.00     0.062 A 
ATOM      3  C2  UNL d   1       5.631   1.265   2.410  0.00  0.00     0.162 A 
ATOM      4  C3  UNL d   1       5.549  -0.088   2.740  0.00  0.00    -0.034 A 
ATOM      5  C4  UNL d   1       5.160  -1.005   1.761  0.00  0.00     0.162 A 
ATOM      6  C5  UNL d   1       4.860  -0.572   0.474  0.00  0.00     0.062 A 
ATOM      7  F   UNL d   1       4.488  -1.460  -0.460  0.00  0.00    -0.097 F 
ATOM      8  F1  UNL d   1       5.072  -2.313   2.044  0.00  0.00    -0.096 F 
ATOM      9  I   UNL d   1       5.999  -0.732   4.667  0.00  0.00    -0.060 I 
ATOM     10  F2  UNL d   1       6.000   2.174   3.325  0.00  0.00    -0.096 F 
ATOM     11  F3  UNL d   1       5.410   2.996   0.813  0.00  0.00    -0.097 F 
ATOM     12  F4  UNL d   1       4.654   1.190  -1.087  0.00  0.00    -0.092 F 
ENDROOT
TORSDOF 0
ENDMDL
