MODEL 1
REMARK minimizedAffinity 1.80668879
REMARK minimizedRMSD -1
REMARK  0 active torsions:
REMARK  status: ('A' for Active; 'I' for Inactive)
ROOT
ATOM      1  C   UNL d   1      -2.467   1.230   2.600  0.00  0.00     0.124 A 
ATOM      2  C1  UNL d   1      -3.754   0.728   2.467  0.00  0.00     0.062 A 
ATOM      3  C2  UNL d   1      -4.765   1.156   3.324  0.00  0.00     0.162 A 
ATOM      4  C3  UNL d   1      -4.492   2.092   4.321  0.00  0.00    -0.034 A 
ATOM      5  C4  UNL d   1      -3.195   2.591   4.449  0.00  0.00     0.162 A 
ATOM      6  C5  UNL d   1      -2.189   2.161   3.591  0.00  0.00     0.062 A 
ATOM      7  F   UNL d   1      -0.946   2.647   3.721  0.00  0.00    -0.097 F 
ATOM      8  F1  UNL d   1      -2.898   3.493   5.397  0.00  0.00    -0.096 F 
ATOM      9  I   UNL d   1      -6.000   2.734   5.604  0.00  0.00    -0.060 I 
ATOM     10  F2  UNL d   1      -5.999   0.654   3.172  0.00  0.00    -0.096 F 
ATOM     11  F3  UNL d   1      -4.026  -0.173   1.511  0.00  0.00    -0.097 F 
ATOM     12  F4  UNL d   1      -1.497   0.816   1.775  0.00  0.00    -0.092 F 
ENDROOT
TORSDOF 0
ENDMDL
