MODEL 1
REMARK minimizedAffinity 11.5914783
REMARK minimizedRMSD -1
REMARK  0 active torsions:
REMARK  status: ('A' for Active; 'I' for Inactive)
ROOT
ATOM      1  C   UNL d   1      -1.759  -5.001  -0.458  0.00  0.00     0.124 A 
ATOM      2  C1  UNL d   1      -0.464  -5.337  -0.089  0.00  0.00     0.062 A 
ATOM      3  C2  UNL d   1       0.601  -5.061  -0.941  0.00  0.00     0.162 A 
ATOM      4  C3  UNL d   1       0.375  -4.444  -2.172  0.00  0.00    -0.034 A 
ATOM      5  C4  UNL d   1      -0.930  -4.110  -2.536  0.00  0.00     0.162 A 
ATOM      6  C5  UNL d   1      -1.991  -4.389  -1.681  0.00  0.00     0.062 A 
ATOM      7  F   UNL d   1      -3.242  -4.064  -2.039  0.00  0.00    -0.097 F 
ATOM      8  F1  UNL d   1      -1.183  -3.516  -3.712  0.00  0.00    -0.096 F 
ATOM      9  I   UNL d   1       1.964  -4.029  -3.450  0.00  0.00    -0.060 I 
ATOM     10  F2  UNL d   1       1.842  -5.396  -0.559  0.00  0.00    -0.096 F 
ATOM     11  F3  UNL d   1      -0.237  -5.930   1.092  0.00  0.00    -0.097 F 
ATOM     12  F4  UNL d   1      -2.782  -5.270   0.365  0.00  0.00    -0.092 F 
ENDROOT
TORSDOF 0
ENDMDL
