MODEL 1
REMARK minimizedAffinity 11.289608
REMARK minimizedRMSD -1
REMARK  0 active torsions:
REMARK  status: ('A' for Active; 'I' for Inactive)
ROOT
ATOM      1  C   UNL d   1      -0.436   0.382   2.727  0.00  0.00     0.124 A 
ATOM      2  C1  UNL d   1      -1.350  -0.491   3.302  0.00  0.00     0.062 A 
ATOM      3  C2  UNL d   1      -2.603  -0.032   3.697  0.00  0.00     0.162 A 
ATOM      4  C3  UNL d   1      -2.951   1.307   3.517  0.00  0.00    -0.034 A 
ATOM      5  C4  UNL d   1      -2.027   2.178   2.938  0.00  0.00     0.162 A 
ATOM      6  C5  UNL d   1      -0.776   1.715   2.546  0.00  0.00     0.062 A 
ATOM      7  F   UNL d   1       0.106   2.560   1.990  0.00  0.00    -0.097 F 
ATOM      8  F1  UNL d   1      -2.329   3.472   2.751  0.00  0.00    -0.096 F 
ATOM      9  I   UNL d   1      -4.825   1.996   4.105  0.00  0.00    -0.060 I 
ATOM     10  F2  UNL d   1      -3.466  -0.898   4.250  0.00  0.00    -0.096 F 
ATOM     11  F3  UNL d   1      -1.024  -1.779   3.479  0.00  0.00    -0.097 F 
ATOM     12  F4  UNL d   1       0.770  -0.062   2.349  0.00  0.00    -0.092 F 
ENDROOT
TORSDOF 0
ENDMDL
