MODEL 1
REMARK minimizedAffinity 14.2041063
REMARK minimizedRMSD -1
REMARK  0 active torsions:
REMARK  status: ('A' for Active; 'I' for Inactive)
ROOT
ATOM      1  C   UNL d   1      -2.568  -0.105   3.184  0.00  0.00     0.124 A 
ATOM      2  C1  UNL d   1      -3.577  -0.486   4.058  0.00  0.00     0.062 A 
ATOM      3  C2  UNL d   1      -4.279   0.476   4.778  0.00  0.00     0.162 A 
ATOM      4  C3  UNL d   1      -3.976   1.829   4.627  0.00  0.00    -0.034 A 
ATOM      5  C4  UNL d   1      -2.959   2.205   3.746  0.00  0.00     0.162 A 
ATOM      6  C5  UNL d   1      -2.261   1.239   3.029  0.00  0.00     0.062 A 
ATOM      7  F   UNL d   1      -1.286   1.609   2.185  0.00  0.00    -0.097 F 
ATOM      8  F1  UNL d   1      -2.642   3.497   3.577  0.00  0.00    -0.096 F 
ATOM      9  I   UNL d   1      -5.023   3.271   5.702  0.00  0.00    -0.060 I 
ATOM     10  F2  UNL d   1      -5.249   0.080   5.616  0.00  0.00    -0.096 F 
ATOM     11  F3  UNL d   1      -3.876  -1.784   4.210  0.00  0.00    -0.097 F 
ATOM     12  F4  UNL d   1      -1.894  -1.033   2.493  0.00  0.00    -0.092 F 
ENDROOT
TORSDOF 0
ENDMDL
