MODEL 1
REMARK minimizedAffinity 12.9643135
REMARK minimizedRMSD -1
REMARK  0 active torsions:
REMARK  status: ('A' for Active; 'I' for Inactive)
ROOT
ATOM      1  C   UNL d   1      -2.909   0.711   3.161  0.00  0.00     0.124 A 
ATOM      2  C1  UNL d   1      -2.601  -0.641   3.231  0.00  0.00     0.062 A 
ATOM      3  C2  UNL d   1      -1.277  -1.062   3.151  0.00  0.00     0.162 A 
ATOM      4  C3  UNL d   1      -0.250  -0.130   3.001  0.00  0.00    -0.034 A 
ATOM      5  C4  UNL d   1      -0.567   1.227   2.931  0.00  0.00     0.162 A 
ATOM      6  C5  UNL d   1      -1.892   1.643   3.011  0.00  0.00     0.062 A 
ATOM      7  F   UNL d   1      -2.188   2.950   2.943  0.00  0.00    -0.097 F 
ATOM      8  F1  UNL d   1       0.395   2.150   2.787  0.00  0.00    -0.096 F 
ATOM      9  I   UNL d   1       1.732  -0.756   2.881  0.00  0.00    -0.060 I 
ATOM     10  F2  UNL d   1      -1.008  -2.374   3.221  0.00  0.00    -0.096 F 
ATOM     11  F3  UNL d   1      -3.582  -1.544   3.375  0.00  0.00    -0.097 F 
ATOM     12  F4  UNL d   1      -4.184   1.113   3.237  0.00  0.00    -0.092 F 
ENDROOT
TORSDOF 0
ENDMDL
