MODEL 1
REMARK minimizedAffinity 22.3354206
REMARK minimizedRMSD -1
REMARK  0 active torsions:
REMARK  status: ('A' for Active; 'I' for Inactive)
ROOT
ATOM      1  C   UNL d   1       0.561   0.290   2.294  0.00  0.00     0.124 A 
ATOM      2  C1  UNL d   1      -0.444  -0.571   2.713  0.00  0.00     0.062 A 
ATOM      3  C2  UNL d   1      -1.716  -0.078   2.991  0.00  0.00     0.162 A 
ATOM      4  C3  UNL d   1      -1.990   1.282   2.851  0.00  0.00    -0.034 A 
ATOM      5  C4  UNL d   1      -0.974   2.141   2.430  0.00  0.00     0.162 A 
ATOM      6  C5  UNL d   1       0.295   1.645   2.153  0.00  0.00     0.062 A 
ATOM      7  F   UNL d   1       1.265   2.478   1.748  0.00  0.00    -0.097 F 
ATOM      8  F1  UNL d   1      -1.204   3.455   2.284  0.00  0.00    -0.096 F 
ATOM      9  I   UNL d   1      -3.891   2.022   3.266  0.00  0.00    -0.060 I 
ATOM     10  F2  UNL d   1      -2.668  -0.933   3.395  0.00  0.00    -0.096 F 
ATOM     11  F3  UNL d   1      -0.189  -1.880   2.851  0.00  0.00    -0.097 F 
ATOM     12  F4  UNL d   1       1.784  -0.186   2.027  0.00  0.00    -0.092 F 
ENDROOT
TORSDOF 0
ENDMDL
