MODEL 1
REMARK minimizedAffinity 5.29558372
REMARK minimizedRMSD -1
REMARK  0 active torsions:
REMARK  status: ('A' for Active; 'I' for Inactive)
ROOT
ATOM      1  C   UNL d   1       0.103   0.378   1.510  0.00  0.00     0.124 A 
ATOM      2  C1  UNL d   1       0.025   1.748   1.713  0.00  0.00     0.062 A 
ATOM      3  C2  UNL d   1      -1.083   2.300   2.349  0.00  0.00     0.162 A 
ATOM      4  C3  UNL d   1      -2.123   1.481   2.789  0.00  0.00    -0.034 A 
ATOM      5  C4  UNL d   1      -2.038   0.103   2.580  0.00  0.00     0.162 A 
ATOM      6  C5  UNL d   1      -0.928  -0.444   1.944  0.00  0.00     0.062 A 
ATOM      7  F   UNL d   1      -0.855  -1.768   1.749  0.00  0.00    -0.097 F 
ATOM      8  F1  UNL d   1      -3.019  -0.714   2.990  0.00  0.00    -0.096 F 
ATOM      9  I   UNL d   1      -3.781   2.302   3.741  0.00  0.00    -0.060 I 
ATOM     10  F2  UNL d   1      -1.131   3.628   2.531  0.00  0.00    -0.096 F 
ATOM     11  F3  UNL d   1       1.020   2.544   1.293  0.00  0.00    -0.097 F 
ATOM     12  F4  UNL d   1       1.170  -0.151   0.896  0.00  0.00    -0.092 F 
ENDROOT
TORSDOF 0
ENDMDL
