MODEL 1
REMARK minimizedAffinity 6.47434425
REMARK minimizedRMSD -1
REMARK  0 active torsions:
REMARK  status: ('A' for Active; 'I' for Inactive)
ROOT
ATOM      1  C   UNL d   1      -2.856   2.638   2.279  0.00  0.00     0.124 A 
ATOM      2  C1  UNL d   1      -1.530   2.932   1.990  0.00  0.00     0.062 A 
ATOM      3  C2  UNL d   1      -0.523   2.034   2.332  0.00  0.00     0.162 A 
ATOM      4  C3  UNL d   1      -0.838   0.832   2.966  0.00  0.00    -0.034 A 
ATOM      5  C4  UNL d   1      -2.173   0.544   3.254  0.00  0.00     0.162 A 
ATOM      6  C5  UNL d   1      -3.176   1.445   2.910  0.00  0.00     0.062 A 
ATOM      7  F   UNL d   1      -4.456   1.159   3.190  0.00  0.00    -0.097 F 
ATOM      8  F1  UNL d   1      -2.511  -0.603   3.863  0.00  0.00    -0.096 F 
ATOM      9  I   UNL d   1       0.664  -0.514   3.480  0.00  0.00    -0.060 I 
ATOM     10  F2  UNL d   1       0.749   2.344   2.042  0.00  0.00    -0.096 F 
ATOM     11  F3  UNL d   1      -1.218   4.085   1.381  0.00  0.00    -0.097 F 
ATOM     12  F4  UNL d   1      -3.822   3.504   1.949  0.00  0.00    -0.092 F 
ENDROOT
TORSDOF 0
ENDMDL
