MODEL 1
REMARK minimizedAffinity 17.3722763
REMARK minimizedRMSD -1
REMARK  0 active torsions:
REMARK  status: ('A' for Active; 'I' for Inactive)
ROOT
ATOM      1  C   UNL d   1      -2.052   1.368   2.202  0.00  0.00     0.124 A 
ATOM      2  C1  UNL d   1      -2.617   2.559   2.636  0.00  0.00     0.062 A 
ATOM      3  C2  UNL d   1      -3.667   2.544   3.550  0.00  0.00     0.162 A 
ATOM      4  C3  UNL d   1      -4.158   1.333   4.037  0.00  0.00    -0.034 A 
ATOM      5  C4  UNL d   1      -3.585   0.139   3.596  0.00  0.00     0.162 A 
ATOM      6  C5  UNL d   1      -2.536   0.160   2.682  0.00  0.00     0.062 A 
ATOM      7  F   UNL d   1      -1.991  -0.992   2.265  0.00  0.00    -0.097 F 
ATOM      8  F1  UNL d   1      -4.033  -1.043   4.044  0.00  0.00    -0.096 F 
ATOM      9  I   UNL d   1      -5.727   1.306   5.404  0.00  0.00    -0.060 I 
ATOM     10  F2  UNL d   1      -4.194   3.710   3.951  0.00  0.00    -0.096 F 
ATOM     11  F3  UNL d   1      -2.151   3.729   2.173  0.00  0.00    -0.097 F 
ATOM     12  F4  UNL d   1      -1.042   1.386   1.322  0.00  0.00    -0.092 F 
ENDROOT
TORSDOF 0
ENDMDL
