MODEL 1
REMARK minimizedAffinity 9.49570274
REMARK minimizedRMSD -1
REMARK  0 active torsions:
REMARK  status: ('A' for Active; 'I' for Inactive)
ROOT
ATOM      1  C   UNL d   1      -2.889  -4.297  -0.906  0.00  0.00     0.124 A 
ATOM      2  C1  UNL d   1      -1.793  -5.027  -0.467  0.00  0.00     0.062 A 
ATOM      3  C2  UNL d   1      -0.544  -4.832  -1.049  0.00  0.00     0.162 A 
ATOM      4  C3  UNL d   1      -0.384  -3.902  -2.076  0.00  0.00    -0.034 A 
ATOM      5  C4  UNL d   1      -1.491  -3.172  -2.513  0.00  0.00     0.162 A 
ATOM      6  C5  UNL d   1      -2.737  -3.371  -1.928  0.00  0.00     0.062 A 
ATOM      7  F   UNL d   1      -3.795  -2.665  -2.353  0.00  0.00    -0.097 F 
ATOM      8  F1  UNL d   1      -1.372  -2.270  -3.498  0.00  0.00    -0.096 F 
ATOM      9  I   UNL d   1       1.483  -3.607  -2.949  0.00  0.00    -0.060 I 
ATOM     10  F2  UNL d   1       0.498  -5.551  -0.605  0.00  0.00    -0.096 F 
ATOM     11  F3  UNL d   1      -1.938  -5.924   0.519  0.00  0.00    -0.097 F 
ATOM     12  F4  UNL d   1      -4.090  -4.488  -0.345  0.00  0.00    -0.092 F 
ENDROOT
TORSDOF 0
ENDMDL
