MODEL 1
REMARK minimizedAffinity 18.6225185
REMARK minimizedRMSD -1
REMARK  0 active torsions:
REMARK  status: ('A' for Active; 'I' for Inactive)
ROOT
ATOM      1  C   UNL d   1      -3.774  -2.289  -1.607  0.00  0.00     0.124 A 
ATOM      2  C1  UNL d   1      -4.710  -1.647  -0.808  0.00  0.00     0.062 A 
ATOM      3  C2  UNL d   1      -4.441  -1.418   0.538  0.00  0.00     0.162 A 
ATOM      4  C3  UNL d   1      -3.229  -1.829   1.094  0.00  0.00    -0.034 A 
ATOM      5  C4  UNL d   1      -2.293  -2.474   0.283  0.00  0.00     0.162 A 
ATOM      6  C5  UNL d   1      -2.567  -2.701  -1.061  0.00  0.00     0.062 A 
ATOM      7  F   UNL d   1      -1.662  -3.321  -1.833  0.00  0.00    -0.097 F 
ATOM      8  F1  UNL d   1      -1.118  -2.883   0.785  0.00  0.00    -0.096 F 
ATOM      9  I   UNL d   1      -2.822  -1.487   3.106  0.00  0.00    -0.060 I 
ATOM     10  F2  UNL d   1      -5.363  -0.796   1.288  0.00  0.00    -0.096 F 
ATOM     11  F3  UNL d   1      -5.878  -1.248  -1.332  0.00  0.00    -0.097 F 
ATOM     12  F4  UNL d   1      -4.037  -2.509  -2.902  0.00  0.00    -0.092 F 
ENDROOT
TORSDOF 0
ENDMDL
