MODEL 1
REMARK minimizedAffinity 26.2428932
REMARK minimizedRMSD -1
REMARK  0 active torsions:
REMARK  status: ('A' for Active; 'I' for Inactive)
ROOT
ATOM      1  C   UNL d   1      -2.609  -2.273  -2.227  0.00  0.00     0.124 A 
ATOM      2  C1  UNL d   1      -3.320  -1.130  -1.887  0.00  0.00     0.062 A 
ATOM      3  C2  UNL d   1      -4.060  -1.091  -0.709  0.00  0.00     0.162 A 
ATOM      4  C3  UNL d   1      -4.092  -2.198   0.139  0.00  0.00    -0.034 A 
ATOM      5  C4  UNL d   1      -3.375  -3.344  -0.210  0.00  0.00     0.162 A 
ATOM      6  C5  UNL d   1      -2.637  -3.378  -1.388  0.00  0.00     0.062 A 
ATOM      7  F   UNL d   1      -1.950  -4.483  -1.715  0.00  0.00    -0.097 F 
ATOM      8  F1  UNL d   1      -3.384  -4.426   0.583  0.00  0.00    -0.096 F 
ATOM      9  I   UNL d   1      -5.198  -2.144   1.902  0.00  0.00    -0.060 I 
ATOM     10  F2  UNL d   1      -4.738   0.026  -0.406  0.00  0.00    -0.096 F 
ATOM     11  F3  UNL d   1      -3.295  -0.061  -2.696  0.00  0.00    -0.097 F 
ATOM     12  F4  UNL d   1      -1.898  -2.308  -3.361  0.00  0.00    -0.092 F 
ENDROOT
TORSDOF 0
ENDMDL
