MODEL 1
REMARK minimizedAffinity 13.8056326
REMARK minimizedRMSD -1
REMARK  0 active torsions:
REMARK  status: ('A' for Active; 'I' for Inactive)
ROOT
ATOM      1  C   UNL d   1       2.088   3.014  -3.605  0.00  0.00     0.124 A 
ATOM      2  C1  UNL d   1       3.237   2.243  -3.716  0.00  0.00     0.062 A 
ATOM      3  C2  UNL d   1       4.347   2.735  -4.398  0.00  0.00     0.162 A 
ATOM      4  C3  UNL d   1       4.313   4.005  -4.974  0.00  0.00    -0.034 A 
ATOM      5  C4  UNL d   1       3.153   4.773  -4.859  0.00  0.00     0.162 A 
ATOM      6  C5  UNL d   1       2.047   4.278  -4.176  0.00  0.00     0.062 A 
ATOM      7  F   UNL d   1       0.938   5.023  -4.069  0.00  0.00    -0.097 F 
ATOM      8  F1  UNL d   1       3.086   5.999  -5.400  0.00  0.00    -0.096 F 
ATOM      9  I   UNL d   1       5.969   4.743  -5.995  0.00  0.00    -0.060 I 
ATOM     10  F2  UNL d   1       5.443   1.968  -4.491  0.00  0.00    -0.096 F 
ATOM     11  F3  UNL d   1       3.279   1.021  -3.166  0.00  0.00    -0.097 F 
ATOM     12  F4  UNL d   1       1.022   2.538  -2.949  0.00  0.00    -0.092 F 
ENDROOT
TORSDOF 0
ENDMDL
