MODEL 1
REMARK minimizedAffinity 22.3028793
REMARK minimizedRMSD -1
REMARK  0 active torsions:
REMARK  status: ('A' for Active; 'I' for Inactive)
ROOT
ATOM      1  C   UNL d   1      -3.543   2.494   3.205  0.00  0.00     0.124 A 
ATOM      2  C1  UNL d   1      -3.875   1.192   3.556  0.00  0.00     0.062 A 
ATOM      3  C2  UNL d   1      -2.947   0.167   3.401  0.00  0.00     0.162 A 
ATOM      4  C3  UNL d   1      -1.676   0.438   2.892  0.00  0.00    -0.034 A 
ATOM      5  C4  UNL d   1      -1.350   1.749   2.541  0.00  0.00     0.162 A 
ATOM      6  C5  UNL d   1      -2.281   2.771   2.698  0.00  0.00     0.062 A 
ATOM      7  F   UNL d   1      -1.958   4.027   2.358  0.00  0.00    -0.097 F 
ATOM      8  F1  UNL d   1      -0.137   2.045   2.049  0.00  0.00    -0.096 F 
ATOM      9  I   UNL d   1      -0.285  -1.092   2.659  0.00  0.00    -0.060 I 
ATOM     10  F2  UNL d   1      -3.295  -1.081   3.748  0.00  0.00    -0.096 F 
ATOM     11  F3  UNL d   1      -5.093   0.922   4.045  0.00  0.00    -0.097 F 
ATOM     12  F4  UNL d   1      -4.438   3.478   3.354  0.00  0.00    -0.092 F 
ENDROOT
TORSDOF 0
ENDMDL
