MODEL 1
REMARK minimizedAffinity 2.6637764
REMARK minimizedRMSD -1
REMARK  1 active torsions:
REMARK  status: ('A' for Active; 'I' for Inactive)
REMARK    1  A    between atoms: C3_4  and  O_7 
ROOT
ATOM      1  C   UNL d   1      -1.496   1.645  -0.475  0.00  0.00    -0.033 A 
ATOM      2  C1  UNL d   1      -1.895   2.977  -0.593  0.00  0.00     0.039 A 
ATOM      3  C2  UNL d   1      -0.938   3.988  -0.705  0.00  0.00    -0.080 A 
ATOM      4  C3  UNL d   1       0.413   3.652  -0.698  0.00  0.00     0.150 A 
ATOM      5  C4  UNL d   1       0.818   2.326  -0.584  0.00  0.00    -0.007 A 
ATOM      6  C5  UNL d   1      -0.139   1.319  -0.471  0.00  0.00     0.039 A 
ENDROOT
BRANCH   4   7
ATOM      7  O   UNL d   1       1.384   4.604  -0.799  0.00  0.00    -0.526 OA
ATOM      8  H5  UNL d   1       0.957   5.476  -0.842  0.00  0.00     0.418 HD
ENDBRANCH   4   7
TORSDOF 1
ENDMDL
