MODEL 1
REMARK minimizedAffinity -0.0472236574
REMARK minimizedRMSD -1
REMARK  1 active torsions:
REMARK  status: ('A' for Active; 'I' for Inactive)
REMARK    1  A    between atoms: C3_4  and  O_7 
ROOT
ATOM      1  C   UNL d   1      -0.647   0.019   1.174  0.00  0.00    -0.033 A 
ATOM      2  C1  UNL d   1       0.075   1.206   1.029  0.00  0.00     0.039 A 
ATOM      3  C2  UNL d   1      -0.486   2.288   0.348  0.00  0.00    -0.080 A 
ATOM      4  C3  UNL d   1      -1.768   2.171  -0.182  0.00  0.00     0.150 A 
ATOM      5  C4  UNL d   1      -2.494   0.993  -0.039  0.00  0.00    -0.007 A 
ATOM      6  C5  UNL d   1      -1.932  -0.087   0.641  0.00  0.00     0.039 A 
ENDROOT
BRANCH   4   7
ATOM      7  O   UNL d   1      -2.355   3.198  -0.860  0.00  0.00    -0.526 OA
ATOM      8  H5  UNL d   1      -1.726   3.937  -0.905  0.00  0.00     0.418 HD
ENDBRANCH   4   7
TORSDOF 1
ENDMDL
