MODEL 1
REMARK minimizedAffinity -0.988479733
REMARK minimizedRMSD -1
REMARK  1 active torsions:
REMARK  status: ('A' for Active; 'I' for Inactive)
REMARK    1  A    between atoms: C3_4  and  O_7 
ROOT
ATOM      1  C   UNL d   1      -1.104   1.347  -0.314  0.00  0.00    -0.033 A 
ATOM      2  C1  UNL d   1      -1.948   2.257   0.326  0.00  0.00     0.039 A 
ATOM      3  C2  UNL d   1      -1.981   2.321   1.720  0.00  0.00    -0.080 A 
ATOM      4  C3  UNL d   1      -1.165   1.471   2.462  0.00  0.00     0.150 A 
ATOM      5  C4  UNL d   1      -0.319   0.564   1.831  0.00  0.00    -0.007 A 
ATOM      6  C5  UNL d   1      -0.289   0.502   0.438  0.00  0.00     0.039 A 
ENDROOT
BRANCH   4   7
ATOM      7  O   UNL d   1      -1.166   1.492   3.825  0.00  0.00    -0.526 OA
ATOM      8  H5  UNL d   1      -1.820   2.147   4.122  0.00  0.00     0.418 HD
ENDBRANCH   4   7
TORSDOF 1
ENDMDL
