MODEL 1
REMARK minimizedAffinity 3.07025933
REMARK minimizedRMSD -1
REMARK  1 active torsions:
REMARK  status: ('A' for Active; 'I' for Inactive)
REMARK    1  A    between atoms: C3_4  and  O_7 
ROOT
ATOM      1  C   UNL d   1      -1.593   1.239  -0.622  0.00  0.00    -0.033 A 
ATOM      2  C1  UNL d   1      -2.387   0.474   0.235  0.00  0.00     0.039 A 
ATOM      3  C2  UNL d   1      -1.967   0.227   1.543  0.00  0.00    -0.080 A 
ATOM      4  C3  UNL d   1      -0.754   0.750   1.982  0.00  0.00     0.150 A 
ATOM      5  C4  UNL d   1       0.040   1.516   1.135  0.00  0.00    -0.007 A 
ATOM      6  C5  UNL d   1      -0.380   1.761  -0.172  0.00  0.00     0.039 A 
ENDROOT
BRANCH   4   7
ATOM      7  O   UNL d   1      -0.300   0.532   3.249  0.00  0.00    -0.526 OA
ATOM      8  H5  UNL d   1      -0.938  -0.037   3.711  0.00  0.00     0.418 HD
ENDBRANCH   4   7
TORSDOF 1
ENDMDL
