MODEL 1
REMARK minimizedAffinity -2.59443569
REMARK minimizedRMSD -1
REMARK  1 active torsions:
REMARK  status: ('A' for Active; 'I' for Inactive)
REMARK    1  A    between atoms: C3_4  and  O_7 
ROOT
ATOM      1  C   UNL d   1      -2.150   0.121   1.538  0.00  0.00    -0.033 A 
ATOM      2  C1  UNL d   1      -3.099   0.843   0.812  0.00  0.00     0.039 A 
ATOM      3  C2  UNL d   1      -2.698   1.903  -0.003  0.00  0.00    -0.080 A 
ATOM      4  C3  UNL d   1      -1.347   2.231  -0.083  0.00  0.00     0.150 A 
ATOM      5  C4  UNL d   1      -0.396   1.513   0.635  0.00  0.00    -0.007 A 
ATOM      6  C5  UNL d   1      -0.798   0.455   1.449  0.00  0.00     0.039 A 
ENDROOT
BRANCH   4   7
ATOM      7  O   UNL d   1      -0.908   3.261  -0.861  0.00  0.00    -0.526 OA
ATOM      8  H5  UNL d   1      -1.679   3.683  -1.275  0.00  0.00     0.418 HD
ENDBRANCH   4   7
TORSDOF 1
ENDMDL
