MODEL 1
REMARK minimizedAffinity -1.07227421
REMARK minimizedRMSD -1
REMARK  1 active torsions:
REMARK  status: ('A' for Active; 'I' for Inactive)
REMARK    1  A    between atoms: C3_4  and  O_7 
ROOT
ATOM      1  C   UNL d   1      -1.514   0.466  -0.316  0.00  0.00    -0.033 A 
ATOM      2  C1  UNL d   1      -2.436   1.486  -0.070  0.00  0.00     0.039 A 
ATOM      3  C2  UNL d   1      -2.100   2.814  -0.340  0.00  0.00    -0.080 A 
ATOM      4  C3  UNL d   1      -0.841   3.108  -0.856  0.00  0.00     0.150 A 
ATOM      5  C4  UNL d   1       0.081   2.098  -1.107  0.00  0.00    -0.007 A 
ATOM      6  C5  UNL d   1      -0.256   0.772  -0.836  0.00  0.00     0.039 A 
ENDROOT
BRANCH   4   7
ATOM      7  O   UNL d   1      -0.466   4.390  -1.131  0.00  0.00    -0.526 OA
ATOM      8  H5  UNL d   1      -1.193   4.984  -0.881  0.00  0.00     0.418 HD
ENDBRANCH   4   7
TORSDOF 1
ENDMDL
