MODEL 1
REMARK minimizedAffinity 1.33638513
REMARK minimizedRMSD -1
REMARK  1 active torsions:
REMARK  status: ('A' for Active; 'I' for Inactive)
REMARK    1  A    between atoms: C3_4  and  O_7 
ROOT
ATOM      1  C   UNL d   1      -0.871   2.204   0.686  0.00  0.00    -0.033 A 
ATOM      2  C1  UNL d   1      -1.989   2.400  -0.128  0.00  0.00     0.039 A 
ATOM      3  C2  UNL d   1      -3.098   1.560  -0.007  0.00  0.00    -0.080 A 
ATOM      4  C3  UNL d   1      -3.077   0.532   0.931  0.00  0.00     0.150 A 
ATOM      5  C4  UNL d   1      -1.969   0.334   1.747  0.00  0.00    -0.007 A 
ATOM      6  C5  UNL d   1      -0.862   1.172   1.624  0.00  0.00     0.039 A 
ENDROOT
BRANCH   4   7
ATOM      7  O   UNL d   1      -4.134  -0.316   1.082  0.00  0.00    -0.526 OA
ATOM      8  H5  UNL d   1      -4.816  -0.077   0.432  0.00  0.00     0.418 HD
ENDBRANCH   4   7
TORSDOF 1
ENDMDL
