MODEL 1
REMARK minimizedAffinity -2.11701274
REMARK minimizedRMSD -1
REMARK  1 active torsions:
REMARK  status: ('A' for Active; 'I' for Inactive)
REMARK    1  A    between atoms: C3_4  and  O_7 
ROOT
ATOM      1  C   UNL d   1       0.911   2.005  -0.234  0.00  0.00    -0.033 A 
ATOM      2  C1  UNL d   1       2.245   1.886  -0.631  0.00  0.00     0.039 A 
ATOM      3  C2  UNL d   1       3.212   1.465   0.284  0.00  0.00    -0.080 A 
ATOM      4  C3  UNL d   1       2.834   1.165   1.589  0.00  0.00     0.150 A 
ATOM      5  C4  UNL d   1       1.507   1.277   1.990  0.00  0.00    -0.007 A 
ATOM      6  C5  UNL d   1       0.542   1.699   1.076  0.00  0.00     0.039 A 
ENDROOT
BRANCH   4   7
ATOM      7  O   UNL d   1       3.743   0.755   2.518  0.00  0.00    -0.526 OA
ATOM      8  H5  UNL d   1       4.623   0.751   2.107  0.00  0.00     0.418 HD
ENDBRANCH   4   7
TORSDOF 1
ENDMDL
