MODEL 1
REMARK minimizedAffinity 4.73849392
REMARK minimizedRMSD -1
REMARK  1 active torsions:
REMARK  status: ('A' for Active; 'I' for Inactive)
REMARK    1  A    between atoms: C3_4  and  O_7 
ROOT
ATOM      1  C   UNL d   1       0.773   2.027   0.903  0.00  0.00    -0.033 A 
ATOM      2  C1  UNL d   1       0.461   2.536  -0.360  0.00  0.00     0.039 A 
ATOM      3  C2  UNL d   1      -0.873   2.717  -0.731  0.00  0.00    -0.080 A 
ATOM      4  C3  UNL d   1      -1.883   2.388   0.169  0.00  0.00     0.150 A 
ATOM      5  C4  UNL d   1      -1.579   1.885   1.429  0.00  0.00    -0.007 A 
ATOM      6  C5  UNL d   1      -0.247   1.703   1.798  0.00  0.00     0.039 A 
ENDROOT
BRANCH   4   7
ATOM      7  O   UNL d   1      -3.200   2.543  -0.150  0.00  0.00    -0.526 OA
ATOM      8  H5  UNL d   1      -3.258   2.872  -1.063  0.00  0.00     0.418 HD
ENDBRANCH   4   7
TORSDOF 1
ENDMDL
