MODEL 1
REMARK minimizedAffinity -2.22542286
REMARK minimizedRMSD -1
REMARK  1 active torsions:
REMARK  status: ('A' for Active; 'I' for Inactive)
REMARK    1  A    between atoms: C3_4  and  O_7 
ROOT
ATOM      1  C   UNL d   1       0.162   0.490   0.878  0.00  0.00    -0.033 A 
ATOM      2  C1  UNL d   1      -0.948  -0.262   1.269  0.00  0.00     0.039 A 
ATOM      3  C2  UNL d   1      -2.237   0.191   0.980  0.00  0.00    -0.080 A 
ATOM      4  C3  UNL d   1      -2.402   1.394   0.299  0.00  0.00     0.150 A 
ATOM      5  C4  UNL d   1      -1.301   2.146  -0.097  0.00  0.00    -0.007 A 
ATOM      6  C5  UNL d   1      -0.015   1.693   0.194  0.00  0.00     0.039 A 
ENDROOT
BRANCH   4   7
ATOM      7  O   UNL d   1      -3.640   1.878  -0.002  0.00  0.00    -0.526 OA
ATOM      8  H5  UNL d   1      -4.305   1.268   0.359  0.00  0.00     0.418 HD
ENDBRANCH   4   7
TORSDOF 1
ENDMDL
