MODEL 1
REMARK minimizedAffinity -1.10453248
REMARK minimizedRMSD -1
REMARK  1 active torsions:
REMARK  status: ('A' for Active; 'I' for Inactive)
REMARK    1  A    between atoms: C3_4  and  O_7 
ROOT
ATOM      1  C   UNL d   1       0.458   0.511   0.920  0.00  0.00    -0.033 A 
ATOM      2  C1  UNL d   1      -0.683   0.122   1.622  0.00  0.00     0.039 A 
ATOM      3  C2  UNL d   1      -1.927   0.666   1.294  0.00  0.00    -0.080 A 
ATOM      4  C3  UNL d   1      -2.015   1.596   0.262  0.00  0.00     0.150 A 
ATOM      5  C4  UNL d   1      -0.882   1.986  -0.445  0.00  0.00    -0.007 A 
ATOM      6  C5  UNL d   1       0.359   1.442  -0.115  0.00  0.00     0.039 A 
ENDROOT
BRANCH   4   7
ATOM      7  O   UNL d   1      -3.205   2.158  -0.091  0.00  0.00    -0.526 OA
ATOM      8  H5  UNL d   1      -3.895   1.816   0.502  0.00  0.00     0.418 HD
ENDBRANCH   4   7
TORSDOF 1
ENDMDL
