MODEL 1
REMARK minimizedAffinity -0.495459974
REMARK minimizedRMSD -1
REMARK  1 active torsions:
REMARK  status: ('A' for Active; 'I' for Inactive)
REMARK    1  A    between atoms: C3_4  and  O_7 
ROOT
ATOM      1  C   UNL d   1      -2.918   1.568   0.416  0.00  0.00    -0.033 A 
ATOM      2  C1  UNL d   1      -2.306   0.381   0.826  0.00  0.00     0.039 A 
ATOM      3  C2  UNL d   1      -0.920   0.327   0.983  0.00  0.00    -0.080 A 
ATOM      4  C3  UNL d   1      -0.158   1.464   0.729  0.00  0.00     0.150 A 
ATOM      5  C4  UNL d   1      -0.761   2.651   0.325  0.00  0.00    -0.007 A 
ATOM      6  C5  UNL d   1      -2.146   2.703   0.168  0.00  0.00     0.039 A 
ENDROOT
BRANCH   4   7
ATOM      7  O   UNL d   1       1.199   1.458   0.865  0.00  0.00    -0.526 OA
ATOM      8  H5  UNL d   1       1.478   0.564   1.122  0.00  0.00     0.418 HD
ENDBRANCH   4   7
TORSDOF 1
ENDMDL
