MODEL 1
REMARK minimizedAffinity 0.12711522
REMARK minimizedRMSD -1
REMARK  1 active torsions:
REMARK  status: ('A' for Active; 'I' for Inactive)
REMARK    1  A    between atoms: C3_4  and  O_7 
ROOT
ATOM      1  C   UNL d   1      -4.073   1.043   0.699  0.00  0.00    -0.033 A 
ATOM      2  C1  UNL d   1      -3.662   2.177  -0.004  0.00  0.00     0.039 A 
ATOM      3  C2  UNL d   1      -2.312   2.535  -0.026  0.00  0.00    -0.080 A 
ATOM      4  C3  UNL d   1      -1.386   1.752   0.657  0.00  0.00     0.150 A 
ATOM      5  C4  UNL d   1      -1.789   0.619   1.357  0.00  0.00    -0.007 A 
ATOM      6  C5  UNL d   1      -3.136   0.263   1.378  0.00  0.00     0.039 A 
ENDROOT
BRANCH   4   7
ATOM      7  O   UNL d   1      -0.059   2.064   0.668  0.00  0.00    -0.526 OA
ATOM      8  H5  UNL d   1       0.067   2.888   0.168  0.00  0.00     0.418 HD
ENDBRANCH   4   7
TORSDOF 1
ENDMDL
