MODEL 1
REMARK minimizedAffinity 1.00669158
REMARK minimizedRMSD -1
REMARK  1 active torsions:
REMARK  status: ('A' for Active; 'I' for Inactive)
REMARK    1  A    between atoms: C3_4  and  O_7 
ROOT
ATOM      1  C   UNL d   1      -0.606   2.065   0.931  0.00  0.00    -0.033 A 
ATOM      2  C1  UNL d   1       0.177   1.324   0.045  0.00  0.00     0.039 A 
ATOM      3  C2  UNL d   1       1.547   1.178   0.276  0.00  0.00    -0.080 A 
ATOM      4  C3  UNL d   1       2.119   1.776   1.395  0.00  0.00     0.150 A 
ATOM      5  C4  UNL d   1       1.343   2.513   2.284  0.00  0.00    -0.007 A 
ATOM      6  C5  UNL d   1      -0.024   2.659   2.051  0.00  0.00     0.039 A 
ENDROOT
BRANCH   4   7
ATOM      7  O   UNL d   1       3.451   1.665   1.660  0.00  0.00    -0.526 OA
ATOM      8  H5  UNL d   1       3.865   1.152   0.945  0.00  0.00     0.418 HD
ENDBRANCH   4   7
TORSDOF 1
ENDMDL
