MODEL 1
REMARK minimizedAffinity 0.83927232
REMARK minimizedRMSD -1
REMARK  1 active torsions:
REMARK  status: ('A' for Active; 'I' for Inactive)
REMARK    1  A    between atoms: C3_4  and  O_7 
ROOT
ATOM      1  C   UNL d   1       0.923   0.867  -0.149  0.00  0.00    -0.033 A 
ATOM      2  C1  UNL d   1       2.107   1.046   0.568  0.00  0.00     0.039 A 
ATOM      3  C2  UNL d   1       2.116   1.836   1.719  0.00  0.00    -0.080 A 
ATOM      4  C3  UNL d   1       0.935   2.440   2.143  0.00  0.00     0.150 A 
ATOM      5  C4  UNL d   1      -0.249   2.263   1.436  0.00  0.00    -0.007 A 
ATOM      6  C5  UNL d   1      -0.256   1.474   0.286  0.00  0.00     0.039 A 
ENDROOT
BRANCH   4   7
ATOM      7  O   UNL d   1       0.895   3.223   3.258  0.00  0.00    -0.526 OA
ATOM      8  H5  UNL d   1       1.793   3.279   3.627  0.00  0.00     0.418 HD
ENDBRANCH   4   7
TORSDOF 1
ENDMDL
