MODEL 1
REMARK minimizedAffinity -3.26279759
REMARK minimizedRMSD -1
REMARK  1 active torsions:
REMARK  status: ('A' for Active; 'I' for Inactive)
REMARK    1  A    between atoms: C3_4  and  O_7 
ROOT
ATOM      1  C   UNL d   1       1.724   2.577   2.035  0.00  0.00    -0.033 A 
ATOM      2  C1  UNL d   1       2.285   1.469   1.397  0.00  0.00     0.039 A 
ATOM      3  C2  UNL d   1       1.490   0.646   0.596  0.00  0.00    -0.080 A 
ATOM      4  C3  UNL d   1       0.139   0.942   0.442  0.00  0.00     0.150 A 
ATOM      5  C4  UNL d   1      -0.426   2.046   1.071  0.00  0.00    -0.007 A 
ATOM      6  C5  UNL d   1       0.369   2.866   1.871  0.00  0.00     0.039 A 
ENDROOT
BRANCH   4   7
ATOM      7  O   UNL d   1      -0.677   0.165  -0.326  0.00  0.00    -0.526 OA
ATOM      8  H5  UNL d   1      -0.156  -0.578  -0.675  0.00  0.00     0.418 HD
ENDBRANCH   4   7
TORSDOF 1
ENDMDL
