MODEL 1
REMARK minimizedAffinity 4.53861856
REMARK minimizedRMSD -1
REMARK  1 active torsions:
REMARK  status: ('A' for Active; 'I' for Inactive)
REMARK    1  A    between atoms: C3_4  and  O_7 
ROOT
ATOM      1  C   UNL d   1       1.695   1.244   0.421  0.00  0.00    -0.033 A 
ATOM      2  C1  UNL d   1       0.307   1.319   0.292  0.00  0.00     0.039 A 
ATOM      3  C2  UNL d   1      -0.442   2.053   1.214  0.00  0.00    -0.080 A 
ATOM      4  C3  UNL d   1       0.208   2.706   2.258  0.00  0.00     0.150 A 
ATOM      5  C4  UNL d   1       1.591   2.638   2.389  0.00  0.00    -0.007 A 
ATOM      6  C5  UNL d   1       2.337   1.904   1.468  0.00  0.00     0.039 A 
ENDROOT
BRANCH   4   7
ATOM      7  O   UNL d   1      -0.481   3.430   3.185  0.00  0.00    -0.526 OA
ATOM      8  H5  UNL d   1      -1.430   3.364   2.984  0.00  0.00     0.418 HD
ENDBRANCH   4   7
TORSDOF 1
ENDMDL
