MODEL 1
REMARK minimizedAffinity -1.06367612
REMARK minimizedRMSD -1
REMARK  0 active torsions:
REMARK  status: ('A' for Active; 'I' for Inactive)
ROOT
ATOM      1  C   UNL d   1       0.388  -0.776  -0.859  0.00  0.00     0.077 C 
ATOM      2  C1  UNL d   1       1.517  -1.256   0.003  0.00  0.00    -0.074 A 
ATOM      3  C2  UNL d   1       1.417  -2.453   0.719  0.00  0.00    -0.005 A 
ATOM      4  C3  UNL d   1       2.480  -2.892   1.509  0.00  0.00     0.006 A 
ATOM      5  C4  UNL d   1       3.652  -2.138   1.591  0.00  0.00    -0.005 A 
ATOM      6  C5  UNL d   1       3.770  -0.938   0.882  0.00  0.00    -0.074 A 
ATOM      7  C6  UNL d   1       5.026  -0.121   0.952  0.00  0.00     0.077 C 
ATOM      8  C7  UNL d   1       2.701  -0.509   0.085  0.00  0.00    -0.001 A 
ENDROOT
TORSDOF 0
ENDMDL
