MODEL 1
REMARK minimizedAffinity 0.995900631
REMARK minimizedRMSD -1
REMARK  0 active torsions:
REMARK  status: ('A' for Active; 'I' for Inactive)
ROOT
ATOM      1  C   UNL d   1      -0.281  -1.738  -1.238  0.00  0.00     0.077 C 
ATOM      2  C1  UNL d   1      -0.077  -1.758   0.247  0.00  0.00    -0.074 A 
ATOM      3  C2  UNL d   1       1.099  -2.271   0.805  0.00  0.00    -0.005 A 
ATOM      4  C3  UNL d   1       1.278  -2.274   2.188  0.00  0.00     0.006 A 
ATOM      5  C4  UNL d   1       0.285  -1.765   3.026  0.00  0.00    -0.005 A 
ATOM      6  C5  UNL d   1      -0.896  -1.247   2.487  0.00  0.00    -0.074 A 
ATOM      7  C6  UNL d   1      -1.969  -0.687   3.373  0.00  0.00     0.077 C 
ATOM      8  C7  UNL d   1      -1.066  -1.241   1.096  0.00  0.00    -0.001 A 
ENDROOT
TORSDOF 0
ENDMDL
