MODEL 1
REMARK minimizedAffinity -0.243905976
REMARK minimizedRMSD -1
REMARK  0 active torsions:
REMARK  status: ('A' for Active; 'I' for Inactive)
ROOT
ATOM      1  C   UNL d   1       0.753  -1.503  -1.079  0.00  0.00     0.077 C 
ATOM      2  C1  UNL d   1       0.625  -1.655   0.408  0.00  0.00    -0.074 A 
ATOM      3  C2  UNL d   1       1.452  -2.533   1.115  0.00  0.00    -0.005 A 
ATOM      4  C3  UNL d   1       1.327  -2.657   2.498  0.00  0.00     0.006 A 
ATOM      5  C4  UNL d   1       0.375  -1.905   3.188  0.00  0.00    -0.005 A 
ATOM      6  C5  UNL d   1      -0.461  -1.022   2.498  0.00  0.00    -0.074 A 
ATOM      7  C6  UNL d   1      -1.483  -0.199   3.225  0.00  0.00     0.077 C 
ATOM      8  C7  UNL d   1      -0.324  -0.898   1.109  0.00  0.00    -0.001 A 
ENDROOT
TORSDOF 0
ENDMDL
