MODEL 1
REMARK minimizedAffinity 1.04541242
REMARK minimizedRMSD -1
REMARK  0 active torsions:
REMARK  status: ('A' for Active; 'I' for Inactive)
ROOT
ATOM      1  C   UNL d   1       5.989  -2.653   0.891  0.00  0.00     0.077 C 
ATOM      2  C1  UNL d   1       5.999  -1.159   0.758  0.00  0.00    -0.074 A 
ATOM      3  C2  UNL d   1       5.999  -0.550  -0.501  0.00  0.00    -0.005 A 
ATOM      4  C3  UNL d   1       5.999   0.841  -0.609  0.00  0.00     0.006 A 
ATOM      5  C4  UNL d   1       5.998   1.635   0.539  0.00  0.00    -0.005 A 
ATOM      6  C5  UNL d   1       5.998   1.043   1.806  0.00  0.00    -0.074 A 
ATOM      7  C6  UNL d   1       5.988   1.882   3.049  0.00  0.00     0.077 C 
ATOM      8  C7  UNL d   1       5.991  -0.355   1.906  0.00  0.00    -0.001 A 
ENDROOT
TORSDOF 0
ENDMDL
