MODEL 1
REMARK minimizedAffinity 3.16535568
REMARK minimizedRMSD -1
REMARK  0 active torsions:
REMARK  status: ('A' for Active; 'I' for Inactive)
ROOT
ATOM      1  C   UNL d   1       2.257  -4.629   0.990  0.00  0.00     0.077 C 
ATOM      2  C1  UNL d   1       1.603  -3.284   1.105  0.00  0.00    -0.074 A 
ATOM      3  C2  UNL d   1       1.953  -2.238   0.245  0.00  0.00    -0.005 A 
ATOM      4  C3  UNL d   1       1.330  -0.996   0.358  0.00  0.00     0.006 A 
ATOM      5  C4  UNL d   1       0.351  -0.787   1.330  0.00  0.00    -0.005 A 
ATOM      6  C5  UNL d   1      -0.014  -1.821   2.198  0.00  0.00    -0.074 A 
ATOM      7  C6  UNL d   1      -1.071  -1.616   3.242  0.00  0.00     0.077 C 
ATOM      8  C7  UNL d   1       0.613  -3.069   2.074  0.00  0.00    -0.001 A 
ENDROOT
TORSDOF 0
ENDMDL
