MODEL 1
REMARK minimizedAffinity 13.6158504
REMARK minimizedRMSD -1
REMARK  0 active torsions:
REMARK  status: ('A' for Active; 'I' for Inactive)
ROOT
ATOM      1  C   UNL d   1       5.970  -2.323   0.577  0.00  0.00     0.077 C 
ATOM      2  C1  UNL d   1       5.982  -0.899   0.107  0.00  0.00    -0.074 A 
ATOM      3  C2  UNL d   1       5.982  -0.592  -1.258  0.00  0.00    -0.005 A 
ATOM      4  C3  UNL d   1       5.983   0.737  -1.680  0.00  0.00     0.006 A 
ATOM      5  C4  UNL d   1       5.983   1.772  -0.743  0.00  0.00    -0.005 A 
ATOM      6  C5  UNL d   1       5.981   1.484   0.625  0.00  0.00    -0.074 A 
ATOM      7  C6  UNL d   1       5.972   2.584   1.645  0.00  0.00     0.077 C 
ATOM      8  C7  UNL d   1       5.974   0.146   1.041  0.00  0.00    -0.001 A 
ENDROOT
TORSDOF 0
ENDMDL
