MODEL 1
REMARK minimizedAffinity 0.770344794
REMARK minimizedRMSD -1
REMARK  0 active torsions:
REMARK  status: ('A' for Active; 'I' for Inactive)
ROOT
ATOM      1  C   UNL d   1       2.051  -5.392   0.538  0.00  0.00     0.077 C 
ATOM      2  C1  UNL d   1       1.931  -3.911   0.736  0.00  0.00    -0.074 A 
ATOM      3  C2  UNL d   1       2.614  -3.017  -0.095  0.00  0.00    -0.005 A 
ATOM      4  C3  UNL d   1       2.485  -1.641   0.095  0.00  0.00     0.006 A 
ATOM      5  C4  UNL d   1       1.674  -1.146   1.117  0.00  0.00    -0.005 A 
ATOM      6  C5  UNL d   1       0.983  -2.025   1.958  0.00  0.00    -0.074 A 
ATOM      7  C6  UNL d   1       0.099  -1.509   3.054  0.00  0.00     0.077 C 
ATOM      8  C7  UNL d   1       1.112  -3.406   1.755  0.00  0.00    -0.001 A 
ENDROOT
TORSDOF 0
ENDMDL
