MODEL 1
REMARK minimizedAffinity 5.96451473
REMARK minimizedRMSD -1
REMARK  0 active torsions:
REMARK  status: ('A' for Active; 'I' for Inactive)
ROOT
ATOM      1  C2' OXE d   1       5.997   3.017  -2.256  0.00  0.00     0.078 C 
ATOM      2  C1' OXE d   1       5.949   2.989   0.551  0.00  0.00     0.078 C 
ATOM      3  C1  OXE d   1       4.810   2.321  -0.179  0.00  0.00    -0.078 A 
ATOM      4  C2  OXE d   1       4.818   2.380  -1.552  0.00  0.00    -0.078 A 
ATOM      5  C3  OXE d   1       3.821   1.733  -2.276  0.00  0.00     0.003 A 
ATOM      6  C4  OXE d   1       2.729   1.155  -1.617  0.00  0.00    -0.002 A 
ATOM      7  C5  OXE d   1       2.681   1.118  -0.219  0.00  0.00    -0.002 A 
ATOM      8  C6  OXE d   1       3.733   1.658   0.513  0.00  0.00     0.003 A 
ENDROOT
TORSDOF 0
ENDMDL
