MODEL 1
REMARK minimizedAffinity -1.16316092
REMARK minimizedRMSD -1
REMARK  0 active torsions:
REMARK  status: ('A' for Active; 'I' for Inactive)
ROOT
ATOM      1  C2' OXE d   1       1.498   1.918   0.805  0.00  0.00     0.078 C 
ATOM      2  C1' OXE d   1       1.190  -0.787   0.123  0.00  0.00     0.078 C 
ATOM      3  C1  OXE d   1       2.346  -0.035  -0.487  0.00  0.00    -0.078 A 
ATOM      4  C2  OXE d   1       2.462   1.300  -0.185  0.00  0.00    -0.078 A 
ATOM      5  C3  OXE d   1       3.542   2.027  -0.677  0.00  0.00     0.003 A 
ATOM      6  C4  OXE d   1       4.423   1.451  -1.600  0.00  0.00    -0.002 A 
ATOM      7  C5  OXE d   1       4.299   0.103  -1.953  0.00  0.00    -0.002 A 
ATOM      8  C6  OXE d   1       3.294  -0.664  -1.374  0.00  0.00     0.003 A 
ENDROOT
TORSDOF 0
ENDMDL
