MODEL 1
REMARK minimizedAffinity -0.878048599
REMARK minimizedRMSD -1
REMARK  0 active torsions:
REMARK  status: ('A' for Active; 'I' for Inactive)
ROOT
ATOM      1  C2' OXE d   1       0.926  -1.474  -0.328  0.00  0.00     0.078 C 
ATOM      2  C1' OXE d   1       2.984  -1.447  -2.237  0.00  0.00     0.078 C 
ATOM      3  C1  OXE d   1       2.817  -0.228  -1.366  0.00  0.00    -0.078 A 
ATOM      4  C2  OXE d   1       1.778  -0.231  -0.466  0.00  0.00    -0.078 A 
ATOM      5  C3  OXE d   1       1.613   0.847   0.399  0.00  0.00     0.003 A 
ATOM      6  C4  OXE d   1       2.399   1.997   0.258  0.00  0.00    -0.002 A 
ATOM      7  C5  OXE d   1       3.437   2.036  -0.679  0.00  0.00    -0.002 A 
ATOM      8  C6  OXE d   1       3.686   0.919  -1.468  0.00  0.00     0.003 A 
ENDROOT
TORSDOF 0
ENDMDL
