MODEL 1
REMARK minimizedAffinity 1.94795573
REMARK minimizedRMSD -1
REMARK  0 active torsions:
REMARK  status: ('A' for Active; 'I' for Inactive)
ROOT
ATOM      1  C2' OXE d   1       5.160   0.381  -0.862  0.00  0.00     0.078 C 
ATOM      2  C1' OXE d   1       3.911   2.876  -0.553  0.00  0.00     0.078 C 
ATOM      3  C1  OXE d   1       3.039   1.645  -0.530  0.00  0.00    -0.078 A 
ATOM      4  C2  OXE d   1       3.653   0.432  -0.729  0.00  0.00    -0.078 A 
ATOM      5  C3  OXE d   1       2.904  -0.739  -0.663  0.00  0.00     0.003 A 
ATOM      6  C4  OXE d   1       1.509  -0.682  -0.549  0.00  0.00    -0.002 A 
ATOM      7  C5  OXE d   1       0.859   0.546  -0.385  0.00  0.00    -0.002 A 
ATOM      8  C6  OXE d   1       1.612   1.713  -0.330  0.00  0.00     0.003 A 
ENDROOT
TORSDOF 0
ENDMDL
