MODEL 1
REMARK minimizedAffinity 0.95488447
REMARK minimizedRMSD -1
REMARK  0 active torsions:
REMARK  status: ('A' for Active; 'I' for Inactive)
ROOT
ATOM      1  C2' OXE d   1       5.885   0.858   0.032  0.00  0.00     0.078 C 
ATOM      2  C1' OXE d   1       4.590   2.782  -1.549  0.00  0.00     0.078 C 
ATOM      3  C1  OXE d   1       3.747   1.690  -0.940  0.00  0.00    -0.078 A 
ATOM      4  C2  OXE d   1       4.396   0.726  -0.206  0.00  0.00    -0.078 A 
ATOM      5  C3  OXE d   1       3.660  -0.274   0.423  0.00  0.00     0.003 A 
ATOM      6  C4  OXE d   1       2.284  -0.395   0.190  0.00  0.00    -0.002 A 
ATOM      7  C5  OXE d   1       1.610   0.554  -0.586  0.00  0.00    -0.002 A 
ATOM      8  C6  OXE d   1       2.318   1.624  -1.122  0.00  0.00     0.003 A 
ENDROOT
TORSDOF 0
ENDMDL
