MODEL 1
REMARK minimizedAffinity 0.466945976
REMARK minimizedRMSD -1
REMARK  0 active torsions:
REMARK  status: ('A' for Active; 'I' for Inactive)
ROOT
ATOM      1  C2' OXE d   1       1.395  -1.555  -0.153  0.00  0.00     0.078 C 
ATOM      2  C1' OXE d   1       2.498  -2.099  -2.677  0.00  0.00     0.078 C 
ATOM      3  C1  OXE d   1       2.818  -0.769  -2.041  0.00  0.00    -0.078 A 
ATOM      4  C2  OXE d   1       2.237  -0.492  -0.827  0.00  0.00    -0.078 A 
ATOM      5  C3  OXE d   1       2.542   0.697  -0.172  0.00  0.00     0.003 A 
ATOM      6  C4  OXE d   1       3.313   1.678  -0.806  0.00  0.00    -0.002 A 
ATOM      7  C5  OXE d   1       3.883   1.433  -2.060  0.00  0.00    -0.002 A 
ATOM      8  C6  OXE d   1       3.680   0.200  -2.671  0.00  0.00     0.003 A 
ENDROOT
TORSDOF 0
ENDMDL
