MODEL 1
REMARK minimizedAffinity 6.42802429
REMARK minimizedRMSD -1
REMARK  0 active torsions:
REMARK  status: ('A' for Active; 'I' for Inactive)
ROOT
ATOM      1  C2' OXE d   1       1.148  -1.479   1.739  0.00  0.00     0.078 C 
ATOM      2  C1' OXE d   1       2.058  -0.496  -0.728  0.00  0.00     0.078 C 
ATOM      3  C1  OXE d   1       0.705  -1.161  -0.691  0.00  0.00    -0.078 A 
ATOM      4  C2  OXE d   1       0.288  -1.681   0.510  0.00  0.00    -0.078 A 
ATOM      5  C3  OXE d   1      -0.976  -2.256   0.611  0.00  0.00     0.003 A 
ATOM      6  C4  OXE d   1      -1.761  -2.447  -0.532  0.00  0.00    -0.002 A 
ATOM      7  C5  OXE d   1      -1.338  -1.961  -1.773  0.00  0.00    -0.002 A 
ATOM      8  C6  OXE d   1      -0.129  -1.279  -1.862  0.00  0.00     0.003 A 
ENDROOT
TORSDOF 0
ENDMDL
