MODEL 1
REMARK minimizedAffinity 2.67904711
REMARK minimizedRMSD -1
REMARK  0 active torsions:
REMARK  status: ('A' for Active; 'I' for Inactive)
ROOT
ATOM      1  C2' OXE d   1       1.522  -1.947   0.005  0.00  0.00     0.078 C 
ATOM      2  C1' OXE d   1       2.510  -2.053  -2.620  0.00  0.00     0.078 C 
ATOM      3  C1  OXE d   1       2.657  -0.756  -1.865  0.00  0.00    -0.078 A 
ATOM      4  C2  OXE d   1       2.129  -0.699  -0.598  0.00  0.00    -0.078 A 
ATOM      5  C3  OXE d   1       2.285   0.457   0.163  0.00  0.00     0.003 A 
ATOM      6  C4  OXE d   1       2.838   1.610  -0.406  0.00  0.00    -0.002 A 
ATOM      7  C5  OXE d   1       3.347   1.586  -1.709  0.00  0.00    -0.002 A 
ATOM      8  C6  OXE d   1       3.302   0.401  -2.435  0.00  0.00     0.003 A 
ENDROOT
TORSDOF 0
ENDMDL
