MODEL 1
REMARK minimizedAffinity 5.09381247
REMARK minimizedRMSD -1
REMARK  0 active torsions:
REMARK  status: ('A' for Active; 'I' for Inactive)
ROOT
ATOM      1  C2' OXE d   1       1.158   1.172   1.066  0.00  0.00     0.078 C 
ATOM      2  C1' OXE d   1       3.144   2.388  -0.502  0.00  0.00     0.078 C 
ATOM      3  C1  OXE d   1       2.788   0.953  -0.805  0.00  0.00    -0.078 A 
ATOM      4  C2  OXE d   1       1.849   0.352  -0.002  0.00  0.00    -0.078 A 
ATOM      5  C3  OXE d   1       1.445  -0.952  -0.272  0.00  0.00     0.003 A 
ATOM      6  C4  OXE d   1       2.095  -1.707  -1.256  0.00  0.00    -0.002 A 
ATOM      7  C5  OXE d   1       3.083  -1.126  -2.059  0.00  0.00    -0.002 A 
ATOM      8  C6  OXE d   1       3.410   0.213  -1.875  0.00  0.00     0.003 A 
ENDROOT
TORSDOF 0
ENDMDL
