MODEL 1
REMARK minimizedAffinity 8.14487934
REMARK minimizedRMSD -1
REMARK  0 active torsions:
REMARK  status: ('A' for Active; 'I' for Inactive)
ROOT
ATOM      1  C2' OXE d   1       2.160  -3.608   5.843  0.00  0.00     0.078 C 
ATOM      2  C1' OXE d   1       0.427  -1.417   5.573  0.00  0.00     0.078 C 
ATOM      3  C1  OXE d   1      -0.188  -2.786   5.720  0.00  0.00    -0.078 A 
ATOM      4  C2  OXE d   1       0.668  -3.858   5.804  0.00  0.00    -0.078 A 
ATOM      5  C3  OXE d   1       0.154  -5.137   5.995  0.00  0.00     0.003 A 
ATOM      6  C4  OXE d   1      -1.227  -5.360   5.948  0.00  0.00    -0.002 A 
ATOM      7  C5  OXE d   1      -2.116  -4.287   5.823  0.00  0.00    -0.002 A 
ATOM      8  C6  OXE d   1      -1.615  -2.992   5.751  0.00  0.00     0.003 A 
ENDROOT
TORSDOF 0
ENDMDL
