MODEL 1
REMARK minimizedAffinity -3.50244737
REMARK minimizedRMSD -1
REMARK  0 active torsions:
REMARK  status: ('A' for Active; 'I' for Inactive)
ROOT
ATOM      1  C   UNL d   1       0.759  -3.537  -1.831  0.00  0.00    -0.002 A 
ATOM      2  C1  UNL d   1      -0.500  -4.030  -1.521  0.00  0.00     0.010 A 
ATOM      3  C2  UNL d   1      -1.387  -3.277  -0.749  0.00  0.00     0.041 A 
ATOM      4  C3  UNL d   1      -0.984  -2.007  -0.292  0.00  0.00    -0.075 A 
ATOM      5  S   UNL d   1      -1.903  -0.907   0.666  0.00  0.00     0.015 SA
ATOM      6  C4  UNL d   1      -0.645   0.243   0.686  0.00  0.00     0.022 A 
ATOM      7  C5  UNL d   1       0.456  -0.185  -0.017  0.00  0.00     0.026 A 
ATOM      8  C6  UNL d   1       0.279  -1.489  -0.592  0.00  0.00    -0.082 A 
ATOM      9  C7  UNL d   1       1.156  -2.277  -1.376  0.00  0.00     0.045 A 
ENDROOT
TORSDOF 0
ENDMDL
