MODEL 1
REMARK minimizedAffinity -4.38432789
REMARK minimizedRMSD -1
REMARK  0 active torsions:
REMARK  status: ('A' for Active; 'I' for Inactive)
ROOT
ATOM      1  C   UNL d   1      -0.617  -2.693   0.908  0.00  0.00    -0.002 A 
ATOM      2  C1  UNL d   1      -0.096  -3.066  -0.324  0.00  0.00     0.010 A 
ATOM      3  C2  UNL d   1       0.120  -2.113  -1.321  0.00  0.00     0.041 A 
ATOM      4  C3  UNL d   1      -0.196  -0.766  -1.056  0.00  0.00    -0.075 A 
ATOM      5  S   UNL d   1      -0.014   0.574  -2.126  0.00  0.00     0.015 SA
ATOM      6  C4  UNL d   1      -0.621   1.673  -0.973  0.00  0.00     0.022 A 
ATOM      7  C5  UNL d   1      -0.960   1.050   0.205  0.00  0.00     0.026 A 
ATOM      8  C6  UNL d   1      -0.720  -0.366   0.176  0.00  0.00    -0.082 A 
ATOM      9  C7  UNL d   1      -0.929  -1.356   1.166  0.00  0.00     0.045 A 
ENDROOT
TORSDOF 0
ENDMDL
