MODEL 1
REMARK minimizedAffinity -2.92703223
REMARK minimizedRMSD -1
REMARK  0 active torsions:
REMARK  status: ('A' for Active; 'I' for Inactive)
ROOT
ATOM      1  C   UNL d   1      -0.543  -2.308   1.211  0.00  0.00    -0.002 A 
ATOM      2  C1  UNL d   1       0.047  -2.858   0.082  0.00  0.00     0.010 A 
ATOM      3  C2  UNL d   1       0.401  -2.048  -0.999  0.00  0.00     0.041 A 
ATOM      4  C3  UNL d   1       0.152  -0.664  -0.925  0.00  0.00    -0.075 A 
ATOM      5  S   UNL d   1       0.502   0.522  -2.127  0.00  0.00     0.015 SA
ATOM      6  C4  UNL d   1      -0.122   1.786  -1.169  0.00  0.00     0.022 A 
ATOM      7  C5  UNL d   1      -0.591   1.332   0.041  0.00  0.00     0.026 A 
ATOM      8  C6  UNL d   1      -0.440  -0.087   0.202  0.00  0.00    -0.082 A 
ATOM      9  C7  UNL d   1      -0.789  -0.934   1.282  0.00  0.00     0.045 A 
ENDROOT
TORSDOF 0
ENDMDL
