MODEL 1
REMARK minimizedAffinity 4.78825283
REMARK minimizedRMSD -1
REMARK  0 active torsions:
REMARK  status: ('A' for Active; 'I' for Inactive)
ROOT
ATOM      1  C   UNL d   1       0.591  -3.525  -0.355  0.00  0.00    -0.002 A 
ATOM      2  C1  UNL d   1      -0.662  -4.045  -0.065  0.00  0.00     0.010 A 
ATOM      3  C2  UNL d   1      -1.683  -3.217   0.406  0.00  0.00     0.041 A 
ATOM      4  C3  UNL d   1      -1.421  -1.844   0.581  0.00  0.00    -0.075 A 
ATOM      5  S   UNL d   1      -2.518  -0.640   1.146  0.00  0.00     0.015 SA
ATOM      6  C4  UNL d   1      -1.350   0.593   1.015  0.00  0.00     0.022 A 
ATOM      7  C5  UNL d   1      -0.146   0.116   0.553  0.00  0.00     0.026 A 
ATOM      8  C6  UNL d   1      -0.167  -1.297   0.295  0.00  0.00    -0.082 A 
ATOM      9  C7  UNL d   1       0.848  -2.162  -0.180  0.00  0.00     0.045 A 
ENDROOT
TORSDOF 0
ENDMDL
