MODEL 1
REMARK minimizedAffinity 0.209111795
REMARK minimizedRMSD -1
REMARK  0 active torsions:
REMARK  status: ('A' for Active; 'I' for Inactive)
ROOT
ATOM      1  C   UNL d   1       0.114  -3.448   0.894  0.00  0.00    -0.002 A 
ATOM      2  C1  UNL d   1       0.991  -3.405  -0.182  0.00  0.00     0.010 A 
ATOM      3  C2  UNL d   1       1.181  -2.221  -0.896  0.00  0.00     0.041 A 
ATOM      4  C3  UNL d   1       0.471  -1.069  -0.507  0.00  0.00    -0.075 A 
ATOM      5  S   UNL d   1       0.545   0.493  -1.234  0.00  0.00     0.015 SA
ATOM      6  C4  UNL d   1      -0.584   1.141  -0.134  0.00  0.00     0.022 A 
ATOM      7  C5  UNL d   1      -1.018   0.203   0.772  0.00  0.00     0.026 A 
ATOM      8  C6  UNL d   1      -0.417  -1.086   0.573  0.00  0.00    -0.082 A 
ATOM      9  C7  UNL d   1      -0.589  -2.302   1.276  0.00  0.00     0.045 A 
ENDROOT
TORSDOF 0
ENDMDL
