MODEL 1
REMARK minimizedAffinity -2.61904883
REMARK minimizedRMSD -1
REMARK  0 active torsions:
REMARK  status: ('A' for Active; 'I' for Inactive)
ROOT
ATOM      1  C   UNL d   1      -0.226  -3.406   0.849  0.00  0.00    -0.002 A 
ATOM      2  C1  UNL d   1      -0.628  -2.456   1.777  0.00  0.00     0.010 A 
ATOM      3  C2  UNL d   1      -0.561  -1.094   1.473  0.00  0.00     0.041 A 
ATOM      4  C3  UNL d   1      -0.080  -0.701   0.209  0.00  0.00    -0.075 A 
ATOM      5  S   UNL d   1       0.089   0.909  -0.383  0.00  0.00     0.015 SA
ATOM      6  C4  UNL d   1       0.699   0.374  -1.882  0.00  0.00     0.022 A 
ATOM      7  C5  UNL d   1       0.778  -0.997  -1.946  0.00  0.00     0.026 A 
ATOM      8  C6  UNL d   1       0.330  -1.639  -0.742  0.00  0.00    -0.082 A 
ATOM      9  C7  UNL d   1       0.250  -3.012  -0.404  0.00  0.00     0.045 A 
ENDROOT
TORSDOF 0
ENDMDL
