MODEL 1
REMARK minimizedAffinity 1.58353853
REMARK minimizedRMSD -1
REMARK  0 active torsions:
REMARK  status: ('A' for Active; 'I' for Inactive)
ROOT
ATOM      1  C   UNL d   1       0.943   1.015  -1.431  0.00  0.00    -0.002 A 
ATOM      2  C1  UNL d   1       0.986  -0.017  -2.358  0.00  0.00     0.010 A 
ATOM      3  C2  UNL d   1       0.433  -1.263  -2.058  0.00  0.00     0.041 A 
ATOM      4  C3  UNL d   1      -0.171  -1.457  -0.800  0.00  0.00    -0.075 A 
ATOM      5  S   UNL d   1      -0.913  -2.898  -0.214  0.00  0.00     0.015 SA
ATOM      6  C4  UNL d   1      -1.305  -2.178   1.280  0.00  0.00     0.022 A 
ATOM      7  C5  UNL d   1      -0.887  -0.870   1.347  0.00  0.00     0.026 A 
ATOM      8  C6  UNL d   1      -0.227  -0.433   0.149  0.00  0.00    -0.082 A 
ATOM      9  C7  UNL d   1       0.343   0.820  -0.184  0.00  0.00     0.045 A 
ENDROOT
TORSDOF 0
ENDMDL
