MODEL 1
REMARK minimizedAffinity -1.87934971
REMARK minimizedRMSD -1
REMARK  0 active torsions:
REMARK  status: ('A' for Active; 'I' for Inactive)
ROOT
ATOM      1  C   UNL d   1      -0.447  -1.278   0.102  0.00  0.00    -0.002 A 
ATOM      2  C1  UNL d   1      -0.240  -0.621  -1.103  0.00  0.00     0.010 A 
ATOM      3  C2  UNL d   1       0.369   0.635  -1.131  0.00  0.00     0.041 A 
ATOM      4  C3  UNL d   1       0.772   1.225   0.084  0.00  0.00    -0.075 A 
ATOM      5  S   UNL d   1       1.538   2.755   0.292  0.00  0.00     0.015 SA
ATOM      6  C4  UNL d   1       1.609   2.572   1.985  0.00  0.00     0.022 A 
ATOM      7  C5  UNL d   1       1.065   1.379   2.398  0.00  0.00     0.026 A 
ATOM      8  C6  UNL d   1       0.574   0.582   1.309  0.00  0.00    -0.082 A 
ATOM      9  C7  UNL d   1      -0.047  -0.690   1.304  0.00  0.00     0.045 A 
ENDROOT
TORSDOF 0
ENDMDL
