MODEL 1
REMARK minimizedAffinity -3.10332394
REMARK minimizedRMSD -1
REMARK  0 active torsions:
REMARK  status: ('A' for Active; 'I' for Inactive)
ROOT
ATOM      1  C   UNL d   1      -1.286  -2.199   1.152  0.00  0.00    -0.002 A 
ATOM      2  C1  UNL d   1      -0.092  -2.797   0.774  0.00  0.00     0.010 A 
ATOM      3  C2  UNL d   1       0.949  -2.031   0.245  0.00  0.00     0.041 A 
ATOM      4  C3  UNL d   1       0.768  -0.642   0.102  0.00  0.00    -0.075 A 
ATOM      5  S   UNL d   1       1.905   0.495  -0.522  0.00  0.00     0.015 SA
ATOM      6  C4  UNL d   1       0.832   1.801  -0.301  0.00  0.00     0.022 A 
ATOM      7  C5  UNL d   1      -0.368   1.398   0.235  0.00  0.00     0.026 A 
ATOM      8  C6  UNL d   1      -0.425  -0.017   0.476  0.00  0.00    -0.082 A 
ATOM      9  C7  UNL d   1      -1.461  -0.820   1.008  0.00  0.00     0.045 A 
ENDROOT
TORSDOF 0
ENDMDL
