MODEL 1
REMARK minimizedAffinity -4.84684086
REMARK minimizedRMSD -1
REMARK  0 active torsions:
REMARK  status: ('A' for Active; 'I' for Inactive)
ROOT
ATOM      1  C   UNL d   1      -0.213  -2.868   0.477  0.00  0.00    -0.002 A 
ATOM      2  C1  UNL d   1       0.127  -3.149  -0.839  0.00  0.00     0.010 A 
ATOM      3  C2  UNL d   1       0.361  -2.115  -1.748  0.00  0.00     0.041 A 
ATOM      4  C3  UNL d   1       0.249  -0.782  -1.308  0.00  0.00    -0.075 A 
ATOM      5  S   UNL d   1       0.492   0.646  -2.244  0.00  0.00     0.015 SA
ATOM      6  C4  UNL d   1       0.151   1.662  -0.919  0.00  0.00     0.022 A 
ATOM      7  C5  UNL d   1      -0.143   0.947   0.218  0.00  0.00     0.026 A 
ATOM      8  C6  UNL d   1      -0.091  -0.474   0.012  0.00  0.00    -0.082 A 
ATOM      9  C7  UNL d   1      -0.323  -1.544   0.910  0.00  0.00     0.045 A 
ENDROOT
TORSDOF 0
ENDMDL
