MODEL 1
REMARK minimizedAffinity -4.00671482
REMARK minimizedRMSD -1
REMARK  0 active torsions:
REMARK  status: ('A' for Active; 'I' for Inactive)
ROOT
ATOM      1  C   UNL d   1      -0.436  -3.198  -1.787  0.00  0.00    -0.002 A 
ATOM      2  C1  UNL d   1       0.152  -2.206  -2.559  0.00  0.00     0.010 A 
ATOM      3  C2  UNL d   1       0.147  -0.877  -2.132  0.00  0.00     0.041 A 
ATOM      4  C3  UNL d   1      -0.463  -0.558  -0.902  0.00  0.00    -0.075 A 
ATOM      5  S   UNL d   1      -0.588   1.001  -0.177  0.00  0.00     0.015 SA
ATOM      6  C4  UNL d   1      -1.424   0.387   1.175  0.00  0.00     0.022 A 
ATOM      7  C5  UNL d   1      -1.612  -0.973   1.092  0.00  0.00     0.026 A 
ATOM      8  C6  UNL d   1      -1.061  -1.540  -0.107  0.00  0.00    -0.082 A 
ATOM      9  C7  UNL d   1      -1.040  -2.878  -0.568  0.00  0.00     0.045 A 
ENDROOT
TORSDOF 0
ENDMDL
