MODEL 1
REMARK minimizedAffinity 4.95355988
REMARK minimizedRMSD -1
REMARK  1 active torsions:
REMARK  status: ('A' for Active; 'I' for Inactive)
REMARK    1  A    between atoms: C1_2  and  C2_3 
ROOT
ATOM      1  C2  UNL d   1       3.866   2.197  -4.802  0.00  0.00    -0.076 A 
ATOM      2  C3  UNL d   1       3.260   2.733  -3.653  0.00  0.00     0.004 A 
ATOM      3  C4  UNL d   1       4.009   3.018  -2.513  0.00  0.00    -0.003 A 
ATOM      4  C5  UNL d   1       5.378   2.772  -2.504  0.00  0.00     0.000 A 
ATOM      5  C6  UNL d   1       5.999   2.256  -3.641  0.00  0.00     0.000 A 
ATOM      6  C7  UNL d   1       5.261   1.979  -4.804  0.00  0.00    -0.073 A 
ATOM      7  C8  UNL d   1       5.981   1.418  -5.999  0.00  0.00     0.078 C 
ENDROOT
BRANCH   1   8
ATOM      8  C1  UNL d   1       2.998   1.882  -6.000  0.00  0.00     0.053 C 
ATOM      9  C   UNL d   1       2.334   0.518  -5.896  0.00  0.00     0.018 C 
ENDBRANCH   1   8
TORSDOF 1
ENDMDL
