MODEL 1
REMARK minimizedAffinity 1.06423426
REMARK minimizedRMSD -1
REMARK  1 active torsions:
REMARK  status: ('A' for Active; 'I' for Inactive)
REMARK    1  A    between atoms: C1_2  and  C2_3 
ROOT
ATOM      1  C2  UNL d   1      -1.471   3.510  -5.983  0.00  0.00    -0.076 A 
ATOM      2  C3  UNL d   1      -0.428   2.569  -5.964  0.00  0.00     0.004 A 
ATOM      3  C4  UNL d   1       0.906   2.976  -5.972  0.00  0.00    -0.003 A 
ATOM      4  C5  UNL d   1       1.216   4.331  -5.999  0.00  0.00     0.000 A 
ATOM      5  C6  UNL d   1       0.194   5.279  -6.000  0.00  0.00     0.000 A 
ATOM      6  C7  UNL d   1      -1.155   4.885  -5.975  0.00  0.00    -0.073 A 
ATOM      7  C8  UNL d   1      -2.218   5.950  -5.983  0.00  0.00     0.078 C 
ENDROOT
BRANCH   1   8
ATOM      8  C1  UNL d   1      -2.898   3.009  -6.000  0.00  0.00     0.053 C 
ATOM      9  C   UNL d   1      -3.518   2.967  -4.612  0.00  0.00     0.018 C 
ENDBRANCH   1   8
TORSDOF 1
ENDMDL
