MODEL 1
REMARK minimizedAffinity -3.44267988
REMARK minimizedRMSD -1
REMARK  1 active torsions:
REMARK  status: ('A' for Active; 'I' for Inactive)
REMARK    1  A    between atoms: C1_2  and  C2_3 
ROOT
ATOM      1  C2  UNL d   1      -1.013   3.298  -5.964  0.00  0.00    -0.076 A 
ATOM      2  C3  UNL d   1      -2.251   2.631  -5.979  0.00  0.00     0.004 A 
ATOM      3  C4  UNL d   1      -3.449   3.343  -5.994  0.00  0.00    -0.003 A 
ATOM      4  C5  UNL d   1      -3.430   4.733  -5.996  0.00  0.00     0.000 A 
ATOM      5  C6  UNL d   1      -2.211   5.411  -5.999  0.00  0.00     0.000 A 
ATOM      6  C7  UNL d   1      -0.994   4.709  -6.000  0.00  0.00    -0.073 A 
ATOM      7  C8  UNL d   1       0.291   5.491  -5.997  0.00  0.00     0.078 C 
ENDROOT
BRANCH   1   8
ATOM      8  C1  UNL d   1       0.253   2.474  -5.919  0.00  0.00     0.053 C 
ATOM      9  C   UNL d   1       0.763   2.265  -4.502  0.00  0.00     0.018 C 
ENDBRANCH   1   8
TORSDOF 1
ENDMDL
