MODEL 1
REMARK minimizedAffinity 8.33752346
REMARK minimizedRMSD -1
REMARK  1 active torsions:
REMARK  status: ('A' for Active; 'I' for Inactive)
REMARK    1  A    between atoms: C1_2  and  C2_3 
ROOT
ATOM      1  C2  UNL d   1      -1.070   3.415  -5.951  0.00  0.00    -0.076 A 
ATOM      2  C3  UNL d   1      -1.761   2.192  -5.994  0.00  0.00     0.004 A 
ATOM      3  C4  UNL d   1      -3.154   2.154  -6.000  0.00  0.00    -0.003 A 
ATOM      4  C5  UNL d   1      -3.880   3.340  -5.964  0.00  0.00     0.000 A 
ATOM      5  C6  UNL d   1      -3.211   4.563  -5.940  0.00  0.00     0.000 A 
ATOM      6  C7  UNL d   1      -1.807   4.619  -5.950  0.00  0.00    -0.073 A 
ATOM      7  C8  UNL d   1      -1.138   5.966  -5.916  0.00  0.00     0.078 C 
ENDROOT
BRANCH   1   8
ATOM      8  C1  UNL d   1       0.441   3.393  -5.919  0.00  0.00     0.053 C 
ATOM      9  C   UNL d   1       0.989   2.258  -5.068  0.00  0.00     0.018 C 
ENDBRANCH   1   8
TORSDOF 1
ENDMDL
