MODEL 1
REMARK minimizedAffinity 0.950324237
REMARK minimizedRMSD -1
REMARK  1 active torsions:
REMARK  status: ('A' for Active; 'I' for Inactive)
REMARK    1  A    between atoms: C1_2  and  C2_3 
ROOT
ATOM      1  C2  UNL d   1      -0.880   4.649  -5.985  0.00  0.00    -0.076 A 
ATOM      2  C3  UNL d   1       0.496   4.938  -6.000  0.00  0.00     0.004 A 
ATOM      3  C4  UNL d   1       1.444   3.917  -5.995  0.00  0.00    -0.003 A 
ATOM      4  C5  UNL d   1       1.032   2.589  -5.975  0.00  0.00     0.000 A 
ATOM      5  C6  UNL d   1      -0.329   2.283  -5.978  0.00  0.00     0.000 A 
ATOM      6  C7  UNL d   1      -1.298   3.301  -6.000  0.00  0.00    -0.073 A 
ATOM      7  C8  UNL d   1      -2.751   2.914  -5.996  0.00  0.00     0.078 C 
ENDROOT
BRANCH   1   8
ATOM      8  C1  UNL d   1      -1.862   5.798  -5.964  0.00  0.00     0.053 C 
ATOM      9  C   UNL d   1      -2.502   5.993  -4.598  0.00  0.00     0.018 C 
ENDBRANCH   1   8
TORSDOF 1
ENDMDL
