MODEL 1
REMARK minimizedAffinity -1.14221728
REMARK minimizedRMSD -1
REMARK  1 active torsions:
REMARK  status: ('A' for Active; 'I' for Inactive)
REMARK    1  A    between atoms: C1_2  and  C2_3 
ROOT
ATOM      1  C2  UNL d   1      -1.754   5.232  -5.919  0.00  0.00    -0.076 A 
ATOM      2  C3  UNL d   1      -2.931   5.999  -5.883  0.00  0.00     0.004 A 
ATOM      3  C4  UNL d   1      -4.185   5.391  -5.914  0.00  0.00    -0.003 A 
ATOM      4  C5  UNL d   1      -4.282   4.005  -5.981  0.00  0.00     0.000 A 
ATOM      5  C6  UNL d   1      -3.124   3.228  -5.999  0.00  0.00     0.000 A 
ATOM      6  C7  UNL d   1      -1.852   3.824  -5.952  0.00  0.00    -0.073 A 
ATOM      7  C8  UNL d   1      -0.638   2.938  -5.981  0.00  0.00     0.078 C 
ENDROOT
BRANCH   1   8
ATOM      8  C1  UNL d   1      -0.422   5.948  -5.910  0.00  0.00     0.053 C 
ATOM      9  C   UNL d   1       0.756   4.990  -6.000  0.00  0.00     0.018 C 
ENDBRANCH   1   8
TORSDOF 1
ENDMDL
