MODEL 1
REMARK minimizedAffinity -1.13519382
REMARK minimizedRMSD -1
REMARK  1 active torsions:
REMARK  status: ('A' for Active; 'I' for Inactive)
REMARK    1  A    between atoms: C1_2  and  C2_3 
ROOT
ATOM      1  C2  UNL d   1       0.870   4.316  -5.973  0.00  0.00    -0.076 A 
ATOM      2  C3  UNL d   1       0.040   5.450  -5.941  0.00  0.00     0.004 A 
ATOM      3  C4  UNL d   1      -1.348   5.323  -5.948  0.00  0.00    -0.003 A 
ATOM      4  C5  UNL d   1      -1.929   4.060  -5.986  0.00  0.00     0.000 A 
ATOM      5  C6  UNL d   1      -1.121   2.924  -6.000  0.00  0.00     0.000 A 
ATOM      6  C7  UNL d   1       0.280   3.034  -5.977  0.00  0.00    -0.073 A 
ATOM      7  C8  UNL d   1       1.103   1.775  -6.000  0.00  0.00     0.078 C 
ENDROOT
BRANCH   1   8
ATOM      8  C1  UNL d   1       2.368   4.515  -5.992  0.00  0.00     0.053 C 
ATOM      9  C   UNL d   1       2.760   5.985  -5.999  0.00  0.00     0.018 C 
ENDBRANCH   1   8
TORSDOF 1
ENDMDL
