MODEL 1
REMARK minimizedAffinity -0.169606119
REMARK minimizedRMSD -1
REMARK  1 active torsions:
REMARK  status: ('A' for Active; 'I' for Inactive)
REMARK    1  A    between atoms: C1_2  and  C2_3 
ROOT
ATOM      1  C2  UNL d   1      -2.817   4.198  -5.921  0.00  0.00    -0.076 A 
ATOM      2  C3  UNL d   1      -2.500   5.567  -5.920  0.00  0.00     0.004 A 
ATOM      3  C4  UNL d   1      -1.175   5.998  -5.947  0.00  0.00    -0.003 A 
ATOM      4  C5  UNL d   1      -0.144   5.065  -5.976  0.00  0.00     0.000 A 
ATOM      5  C6  UNL d   1      -0.440   3.702  -5.994  0.00  0.00     0.000 A 
ATOM      6  C7  UNL d   1      -1.771   3.252  -5.984  0.00  0.00    -0.073 A 
ATOM      7  C8  UNL d   1      -2.032   1.771  -5.999  0.00  0.00     0.078 C 
ENDROOT
BRANCH   1   8
ATOM      8  C1  UNL d   1      -4.272   3.790  -5.863  0.00  0.00     0.053 C 
ATOM      9  C   UNL d   1      -5.214   4.978  -5.984  0.00  0.00     0.018 C 
ENDBRANCH   1   8
TORSDOF 1
ENDMDL
