MODEL 1
REMARK minimizedAffinity -0.238953963
REMARK minimizedRMSD -1
REMARK  1 active torsions:
REMARK  status: ('A' for Active; 'I' for Inactive)
REMARK    1  A    between atoms: C1_2  and  C2_3 
ROOT
ATOM      1  C2  UNL d   1      -1.196   3.536  -5.963  0.00  0.00    -0.076 A 
ATOM      2  C3  UNL d   1      -0.183   2.562  -5.950  0.00  0.00     0.004 A 
ATOM      3  C4  UNL d   1       1.162   2.926  -5.969  0.00  0.00    -0.003 A 
ATOM      4  C5  UNL d   1       1.516   4.271  -6.000  0.00  0.00     0.000 A 
ATOM      5  C6  UNL d   1       0.524   5.251  -5.995  0.00  0.00     0.000 A 
ATOM      6  C7  UNL d   1      -0.837   4.901  -5.960  0.00  0.00    -0.073 A 
ATOM      7  C8  UNL d   1      -1.865   5.998  -5.963  0.00  0.00     0.078 C 
ENDROOT
BRANCH   1   8
ATOM      8  C1  UNL d   1      -2.638   3.080  -5.969  0.00  0.00     0.053 C 
ATOM      9  C   UNL d   1      -3.337   3.341  -4.644  0.00  0.00     0.018 C 
ENDBRANCH   1   8
TORSDOF 1
ENDMDL
