MODEL 1
REMARK minimizedAffinity -1.3443929
REMARK minimizedRMSD -1
REMARK  1 active torsions:
REMARK  status: ('A' for Active; 'I' for Inactive)
REMARK    1  A    between atoms: C1_2  and  C2_3 
ROOT
ATOM      1  C2  UNL d   1      -0.837   4.509  -5.913  0.00  0.00    -0.076 A 
ATOM      2  C3  UNL d   1      -1.522   5.737  -5.891  0.00  0.00     0.004 A 
ATOM      3  C4  UNL d   1      -2.914   5.783  -5.932  0.00  0.00    -0.003 A 
ATOM      4  C5  UNL d   1      -3.645   4.601  -5.995  0.00  0.00     0.000 A 
ATOM      5  C6  UNL d   1      -2.983   3.374  -6.000  0.00  0.00     0.000 A 
ATOM      6  C7  UNL d   1      -1.580   3.310  -5.942  0.00  0.00    -0.073 A 
ATOM      7  C8  UNL d   1      -0.918   1.959  -5.957  0.00  0.00     0.078 C 
ENDROOT
BRANCH   1   8
ATOM      8  C1  UNL d   1       0.675   4.523  -5.893  0.00  0.00     0.053 C 
ATOM      9  C   UNL d   1       1.246   5.928  -6.000  0.00  0.00     0.018 C 
ENDBRANCH   1   8
TORSDOF 1
ENDMDL
