MODEL 1
REMARK minimizedAffinity 11.3426495
REMARK minimizedRMSD -1
REMARK  1 active torsions:
REMARK  status: ('A' for Active; 'I' for Inactive)
REMARK    1  A    between atoms: C1_2  and  C2_3 
ROOT
ATOM      1  C2  UNL d   1      -1.464  -2.589  -1.235  0.00  0.00    -0.076 A 
ATOM      2  C3  UNL d   1      -2.511  -2.811  -0.323  0.00  0.00     0.004 A 
ATOM      3  C4  UNL d   1      -3.250  -3.993  -0.353  0.00  0.00    -0.003 A 
ATOM      4  C5  UNL d   1      -2.955  -4.972  -1.296  0.00  0.00     0.000 A 
ATOM      5  C6  UNL d   1      -1.908  -4.776  -2.196  0.00  0.00     0.000 A 
ATOM      6  C7  UNL d   1      -1.143  -3.598  -2.169  0.00  0.00    -0.073 A 
ATOM      7  C8  UNL d   1      -0.030  -3.437  -3.168  0.00  0.00     0.078 C 
ENDROOT
BRANCH   1   8
ATOM      8  C1  UNL d   1      -0.715  -1.278  -1.173  0.00  0.00     0.053 C 
ATOM      9  C   UNL d   1      -0.396  -0.857   0.253  0.00  0.00     0.018 C 
ENDBRANCH   1   8
TORSDOF 1
ENDMDL
