MODEL 1
REMARK minimizedAffinity 3.09384131
REMARK minimizedRMSD -1
REMARK  1 active torsions:
REMARK  status: ('A' for Active; 'I' for Inactive)
REMARK    1  A    between atoms: C1_2  and  C2_3 
ROOT
ATOM      1  C2  UNL d   1      -2.195   4.539  -5.947  0.00  0.00    -0.076 A 
ATOM      2  C3  UNL d   1      -1.520   5.773  -5.959  0.00  0.00     0.004 A 
ATOM      3  C4  UNL d   1      -0.128   5.829  -5.982  0.00  0.00    -0.003 A 
ATOM      4  C5  UNL d   1       0.613   4.652  -5.993  0.00  0.00     0.000 A 
ATOM      5  C6  UNL d   1      -0.040   3.420  -5.999  0.00  0.00     0.000 A 
ATOM      6  C7  UNL d   1      -1.443   3.346  -5.993  0.00  0.00    -0.073 A 
ATOM      7  C8  UNL d   1      -2.095   1.990  -5.994  0.00  0.00     0.078 C 
ENDROOT
BRANCH   1   8
ATOM      8  C1  UNL d   1      -3.706   4.541  -5.895  0.00  0.00     0.053 C 
ATOM      9  C   UNL d   1      -4.291   5.942  -5.989  0.00  0.00     0.018 C 
ENDBRANCH   1   8
TORSDOF 1
ENDMDL
