MODEL 1
REMARK minimizedAffinity 3.81344724
REMARK minimizedRMSD -1
REMARK  1 active torsions:
REMARK  status: ('A' for Active; 'I' for Inactive)
REMARK    1  A    between atoms: C1_2  and  C2_3 
ROOT
ATOM      1  C2  UNL d   1       3.702   3.474  -5.979  0.00  0.00    -0.076 A 
ATOM      2  C3  UNL d   1       5.086   3.232  -5.950  0.00  0.00     0.004 A 
ATOM      3  C4  UNL d   1       5.999   4.286  -5.955  0.00  0.00    -0.003 A 
ATOM      4  C5  UNL d   1       5.541   5.599  -5.989  0.00  0.00     0.000 A 
ATOM      5  C6  UNL d   1       4.171   5.857  -6.000  0.00  0.00     0.000 A 
ATOM      6  C7  UNL d   1       3.238   4.807  -5.979  0.00  0.00    -0.073 A 
ATOM      7  C8  UNL d   1       1.772   5.143  -5.998  0.00  0.00     0.078 C 
ENDROOT
BRANCH   1   8
ATOM      8  C1  UNL d   1       2.761   2.291  -6.000  0.00  0.00     0.053 C 
ATOM      9  C   UNL d   1       1.298   2.709  -5.995  0.00  0.00     0.018 C 
ENDBRANCH   1   8
TORSDOF 1
ENDMDL
