MODEL 1
REMARK minimizedAffinity -0.267379731
REMARK minimizedRMSD -1
REMARK  1 active torsions:
REMARK  status: ('A' for Active; 'I' for Inactive)
REMARK    1  A    between atoms: C1_2  and  C2_3 
ROOT
ATOM      1  C2  UNL d   1      -1.203   3.486  -5.981  0.00  0.00    -0.076 A 
ATOM      2  C3  UNL d   1      -0.166   2.536  -5.957  0.00  0.00     0.004 A 
ATOM      3  C4  UNL d   1       1.170   2.932  -5.964  0.00  0.00    -0.003 A 
ATOM      4  C5  UNL d   1       1.492   4.284  -5.994  0.00  0.00     0.000 A 
ATOM      5  C6  UNL d   1       0.477   5.241  -6.000  0.00  0.00     0.000 A 
ATOM      6  C7  UNL d   1      -0.875   4.859  -5.977  0.00  0.00    -0.073 A 
ATOM      7  C8  UNL d   1      -1.929   5.932  -5.990  0.00  0.00     0.078 C 
ENDROOT
BRANCH   1   8
ATOM      8  C1  UNL d   1      -2.633   2.996  -6.000  0.00  0.00     0.053 C 
ATOM      9  C   UNL d   1      -3.260   2.977  -4.614  0.00  0.00     0.018 C 
ENDBRANCH   1   8
TORSDOF 1
ENDMDL
