MODEL 1
REMARK minimizedAffinity -0.657625258
REMARK minimizedRMSD -1
REMARK  1 active torsions:
REMARK  status: ('A' for Active; 'I' for Inactive)
REMARK    1  A    between atoms: C1_2  and  C2_3 
ROOT
ATOM      1  C2  UNL d   1      -0.927   4.094  -5.930  0.00  0.00    -0.076 A 
ATOM      2  C3  UNL d   1      -1.153   5.481  -5.911  0.00  0.00     0.004 A 
ATOM      3  C4  UNL d   1      -2.447   5.997  -5.946  0.00  0.00    -0.003 A 
ATOM      4  C5  UNL d   1      -3.536   5.134  -5.999  0.00  0.00     0.000 A 
ATOM      5  C6  UNL d   1      -3.331   3.755  -6.000  0.00  0.00     0.000 A 
ATOM      6  C7  UNL d   1      -2.033   3.218  -5.949  0.00  0.00    -0.073 A 
ATOM      7  C8  UNL d   1      -1.870   1.723  -5.959  0.00  0.00     0.078 C 
ENDROOT
BRANCH   1   8
ATOM      8  C1  UNL d   1       0.500   3.592  -5.918  0.00  0.00     0.053 C 
ATOM      9  C   UNL d   1       0.764   2.612  -4.786  0.00  0.00     0.018 C 
ENDBRANCH   1   8
TORSDOF 1
ENDMDL
