MODEL 1
REMARK minimizedAffinity -4.62218094
REMARK minimizedRMSD -1
REMARK  0 active torsions:
REMARK  status: ('A' for Active; 'I' for Inactive)
ROOT
ATOM      1  C4' PXY d   1      -0.784  -1.604  -1.159  0.00  0.00     0.077 C 
ATOM      2  C1' PXY d   1       1.660   2.813   1.657  0.00  0.00     0.077 C 
ATOM      3  C1  PXY d   1       1.012   1.651   0.930  0.00  0.00    -0.082 A 
ATOM      4  C2  PXY d   1       1.618   1.116  -0.118  0.00  0.00     0.003 A 
ATOM      5  C3  PXY d   1       1.031   0.087  -0.808  0.00  0.00     0.003 A 
ATOM      6  C4  PXY d   1      -0.163  -0.436  -0.388  0.00  0.00    -0.082 A 
ATOM      7  C5  PXY d   1      -0.782   0.097   0.687  0.00  0.00     0.003 A 
ATOM      8  C6  PXY d   1      -0.189   1.169   1.348  0.00  0.00     0.003 A 
ENDROOT
TORSDOF 0
ENDMDL
