MODEL 1
REMARK minimizedAffinity -3.7474637
REMARK minimizedRMSD -1
REMARK  0 active torsions:
REMARK  status: ('A' for Active; 'I' for Inactive)
ROOT
ATOM      1  C4' PXY d   1      -0.860  -1.173  -0.533  0.00  0.00     0.077 C 
ATOM      2  C1' PXY d   1       1.870   3.218   2.053  0.00  0.00     0.077 C 
ATOM      3  C1  PXY d   1       1.144   2.068   1.383  0.00  0.00    -0.082 A 
ATOM      4  C2  PXY d   1       1.837   1.146   0.734  0.00  0.00     0.003 A 
ATOM      5  C3  PXY d   1       1.194   0.116   0.096  0.00  0.00     0.003 A 
ATOM      6  C4  PXY d   1      -0.168   0.001   0.166  0.00  0.00    -0.082 A 
ATOM      7  C5  PXY d   1      -0.881   0.931   0.835  0.00  0.00     0.003 A 
ATOM      8  C6  PXY d   1      -0.213   1.991   1.442  0.00  0.00     0.003 A 
ENDROOT
TORSDOF 0
ENDMDL
