MODEL 1
REMARK minimizedAffinity -5.01234865
REMARK minimizedRMSD -1
REMARK  0 active torsions:
REMARK  status: ('A' for Active; 'I' for Inactive)
ROOT
ATOM      1  C4' PXY d   1       3.831   1.528  -0.865  0.00  0.00     0.077 C 
ATOM      2  C1' PXY d   1      -1.066   0.971   2.156  0.00  0.00     0.077 C 
ATOM      3  C1  PXY d   1       0.218   1.130   1.366  0.00  0.00    -0.082 A 
ATOM      4  C2  PXY d   1       0.566   0.201   0.491  0.00  0.00     0.003 A 
ATOM      5  C3  PXY d   1       1.740   0.313  -0.210  0.00  0.00     0.003 A 
ATOM      6  C4  PXY d   1       2.539   1.413  -0.051  0.00  0.00    -0.082 A 
ATOM      7  C5  PXY d   1       2.185   2.371   0.832  0.00  0.00     0.003 A 
ATOM      8  C6  PXY d   1       1.010   2.218   1.563  0.00  0.00     0.003 A 
ENDROOT
TORSDOF 0
ENDMDL
