MODEL 1
REMARK minimizedAffinity -1.91371024
REMARK minimizedRMSD -1
REMARK  0 active torsions:
REMARK  status: ('A' for Active; 'I' for Inactive)
ROOT
ATOM      1  C4' PXY d   1      -1.409  -1.856  -1.584  0.00  0.00     0.077 C 
ATOM      2  C1' PXY d   1       0.863   2.230   1.815  0.00  0.00     0.077 C 
ATOM      3  C1  PXY d   1       0.261   1.154   0.934  0.00  0.00    -0.082 A 
ATOM      4  C2  PXY d   1       0.909   0.756  -0.149  0.00  0.00     0.003 A 
ATOM      5  C3  PXY d   1       0.364  -0.193  -0.974  0.00  0.00     0.003 A 
ATOM      6  C4  PXY d   1      -0.834  -0.779  -0.660  0.00  0.00    -0.082 A 
ATOM      7  C5  PXY d   1      -1.496  -0.386   0.448  0.00  0.00     0.003 A 
ATOM      8  C6  PXY d   1      -0.945   0.609   1.251  0.00  0.00     0.003 A 
ENDROOT
TORSDOF 0
ENDMDL
