MODEL 1
REMARK minimizedAffinity -4.14350319
REMARK minimizedRMSD -1
REMARK  0 active torsions:
REMARK  status: ('A' for Active; 'I' for Inactive)
ROOT
ATOM      1  C4' PXY d   1      -0.463  -1.505  -0.413  0.00  0.00     0.077 C 
ATOM      2  C1' PXY d   1       2.066   3.359   1.421  0.00  0.00     0.077 C 
ATOM      3  C1  PXY d   1       1.393   2.085   0.949  0.00  0.00    -0.082 A 
ATOM      4  C2  PXY d   1       2.114   1.144   0.360  0.00  0.00     0.003 A 
ATOM      5  C3  PXY d   1       1.516   0.000  -0.102  0.00  0.00     0.003 A 
ATOM      6  C4  PXY d   1       0.176  -0.207   0.088  0.00  0.00    -0.082 A 
ATOM      7  C5  PXY d   1      -0.564   0.744   0.698  0.00  0.00     0.003 A 
ATOM      8  C6  PXY d   1       0.054   1.916   1.122  0.00  0.00     0.003 A 
ENDROOT
TORSDOF 0
ENDMDL
