MODEL 1
REMARK minimizedAffinity -2.34715748
REMARK minimizedRMSD -1
REMARK  0 active torsions:
REMARK  status: ('A' for Active; 'I' for Inactive)
ROOT
ATOM      1  C4' PXY d   1       1.348   0.718  -0.091  0.00  0.00     0.077 C 
ATOM      2  C1' PXY d   1      -3.140  -2.553  -1.693  0.00  0.00     0.077 C 
ATOM      3  C1  PXY d   1      -1.971  -1.689  -1.265  0.00  0.00    -0.082 A 
ATOM      4  C2  PXY d   1      -0.925  -1.560  -2.065  0.00  0.00     0.003 A 
ATOM      5  C3  PXY d   1       0.154  -0.808  -1.680  0.00  0.00     0.003 A 
ATOM      6  C4  PXY d   1       0.141  -0.137  -0.486  0.00  0.00    -0.082 A 
ATOM      7  C5  PXY d   1      -0.927  -0.255   0.331  0.00  0.00     0.003 A 
ATOM      8  C6  PXY d   1      -1.995  -1.057  -0.060  0.00  0.00     0.003 A 
ENDROOT
TORSDOF 0
ENDMDL
