MODEL 1
REMARK minimizedAffinity -4.98536444
REMARK minimizedRMSD -1
REMARK  0 active torsions:
REMARK  status: ('A' for Active; 'I' for Inactive)
ROOT
ATOM      1  C4' PXY d   1      -1.229  -1.364  -0.569  0.00  0.00     0.077 C 
ATOM      2  C1' PXY d   1       2.032   2.957   1.458  0.00  0.00     0.077 C 
ATOM      3  C1  PXY d   1       1.169   1.825   0.937  0.00  0.00    -0.082 A 
ATOM      4  C2  PXY d   1       1.696   0.920   0.129  0.00  0.00     0.003 A 
ATOM      5  C3  PXY d   1       0.921  -0.092  -0.378  0.00  0.00     0.003 A 
ATOM      6  C4  PXY d   1      -0.393  -0.209  -0.011  0.00  0.00    -0.082 A 
ATOM      7  C5  PXY d   1      -0.935   0.705   0.822  0.00  0.00     0.003 A 
ATOM      8  C6  PXY d   1      -0.142   1.748   1.292  0.00  0.00     0.003 A 
ENDROOT
TORSDOF 0
ENDMDL
