MODEL 1
REMARK minimizedAffinity -3.39755249
REMARK minimizedRMSD -1
REMARK  0 active torsions:
REMARK  status: ('A' for Active; 'I' for Inactive)
ROOT
ATOM      1  C4' PXY d   1      -0.701  -1.652  -0.842  0.00  0.00     0.077 C 
ATOM      2  C1' PXY d   1       1.795   2.841   1.805  0.00  0.00     0.077 C 
ATOM      3  C1  PXY d   1       1.135   1.659   1.122  0.00  0.00    -0.082 A 
ATOM      4  C2  PXY d   1       1.636   1.195  -0.011  0.00  0.00     0.003 A 
ATOM      5  C3  PXY d   1       1.033   0.147  -0.659  0.00  0.00     0.003 A 
ATOM      6  C4  PXY d   1      -0.062  -0.466  -0.113  0.00  0.00    -0.082 A 
ATOM      7  C5  PXY d   1      -0.573  -0.006   1.049  0.00  0.00     0.003 A 
ATOM      8  C6  PXY d   1       0.029   1.085   1.669  0.00  0.00     0.003 A 
ENDROOT
TORSDOF 0
ENDMDL
