MODEL 1
REMARK minimizedAffinity -3.59327364
REMARK minimizedRMSD -1
REMARK  0 active torsions:
REMARK  status: ('A' for Active; 'I' for Inactive)
ROOT
ATOM      1  C4' PXY d   1      -1.752  -0.962   0.194  0.00  0.00     0.077 C 
ATOM      2  C1' PXY d   1       2.237   2.955   1.661  0.00  0.00     0.077 C 
ATOM      3  C1  PXY d   1       1.192   1.922   1.288  0.00  0.00    -0.082 A 
ATOM      4  C2  PXY d   1       0.987   1.629   0.014  0.00  0.00     0.003 A 
ATOM      5  C3  PXY d   1       0.024   0.721  -0.343  0.00  0.00     0.003 A 
ATOM      6  C4  PXY d   1      -0.701   0.067   0.617  0.00  0.00    -0.082 A 
ATOM      7  C5  PXY d   1      -0.491   0.352   1.920  0.00  0.00     0.003 A 
ATOM      8  C6  PXY d   1       0.463   1.307   2.259  0.00  0.00     0.003 A 
ENDROOT
TORSDOF 0
ENDMDL
