MODEL 1
REMARK minimizedAffinity -3.81387043
REMARK minimizedRMSD -1
REMARK  0 active torsions:
REMARK  status: ('A' for Active; 'I' for Inactive)
ROOT
ATOM      1  C4' PXY d   1      -1.742  -2.069  -1.005  0.00  0.00     0.077 C 
ATOM      2  C1' PXY d   1       0.704   2.408   1.713  0.00  0.00     0.077 C 
ATOM      3  C1  PXY d   1       0.070   1.236   0.990  0.00  0.00    -0.082 A 
ATOM      4  C2  PXY d   1      -1.133   0.819   1.349  0.00  0.00     0.003 A 
ATOM      5  C3  PXY d   1      -1.708  -0.260   0.727  0.00  0.00     0.003 A 
ATOM      6  C4  PXY d   1      -1.067  -0.884  -0.309  0.00  0.00    -0.082 A 
ATOM      7  C5  PXY d   1       0.156  -0.458  -0.689  0.00  0.00     0.003 A 
ATOM      8  C6  PXY d   1       0.740   0.612  -0.018  0.00  0.00     0.003 A 
ENDROOT
TORSDOF 0
ENDMDL
