MODEL 1
REMARK minimizedAffinity -4.1808939
REMARK minimizedRMSD -1
REMARK  0 active torsions:
REMARK  status: ('A' for Active; 'I' for Inactive)
ROOT
ATOM      1  C4' PXY d   1       1.148   2.974   1.598  0.00  0.00     0.077 C 
ATOM      2  C1' PXY d   1      -0.709  -1.974  -0.744  0.00  0.00     0.077 C 
ATOM      3  C1  PXY d   1      -0.234  -0.674  -0.126  0.00  0.00    -0.082 A 
ATOM      4  C2  PXY d   1       0.856  -0.087  -0.593  0.00  0.00     0.003 A 
ATOM      5  C3  PXY d   1       1.317   1.072  -0.025  0.00  0.00     0.003 A 
ATOM      6  C4  PXY d   1       0.626   1.665   0.998  0.00  0.00    -0.082 A 
ATOM      7  C5  PXY d   1      -0.492   1.078   1.473  0.00  0.00     0.003 A 
ATOM      8  C6  PXY d   1      -0.921  -0.120   0.909  0.00  0.00     0.003 A 
ENDROOT
TORSDOF 0
ENDMDL
