MODEL 1
REMARK minimizedAffinity -4.09709072
REMARK minimizedRMSD -1
REMARK  0 active torsions:
REMARK  status: ('A' for Active; 'I' for Inactive)
ROOT
ATOM      1  C4' PXY d   1       3.279   1.528  -0.478  0.00  0.00     0.077 C 
ATOM      2  C1' PXY d   1      -1.734   0.504   2.211  0.00  0.00     0.077 C 
ATOM      3  C1  PXY d   1      -0.419   0.784   1.511  0.00  0.00    -0.082 A 
ATOM      4  C2  PXY d   1      -0.127   0.150   0.387  0.00  0.00     0.003 A 
ATOM      5  C3  PXY d   1       1.072   0.367  -0.241  0.00  0.00     0.003 A 
ATOM      6  C4  PXY d   1       1.959   1.283   0.257  0.00  0.00    -0.082 A 
ATOM      7  C5  PXY d   1       1.664   1.943   1.398  0.00  0.00     0.003 A 
ATOM      8  C6  PXY d   1       0.460   1.677   2.043  0.00  0.00     0.003 A 
ENDROOT
TORSDOF 0
ENDMDL
