MODEL 1
REMARK minimizedAffinity -4.00762177
REMARK minimizedRMSD -1
REMARK  0 active torsions:
REMARK  status: ('A' for Active; 'I' for Inactive)
ROOT
ATOM      1  C4' PXY d   1      -1.103  -1.428  -0.057  0.00  0.00     0.077 C 
ATOM      2  C1' PXY d   1       1.983   3.329   1.067  0.00  0.00     0.077 C 
ATOM      3  C1  PXY d   1       1.170   2.081   0.785  0.00  0.00    -0.082 A 
ATOM      4  C2  PXY d   1       1.505   1.297  -0.227  0.00  0.00     0.003 A 
ATOM      5  C3  PXY d   1       0.761   0.182  -0.516  0.00  0.00     0.003 A 
ATOM      6  C4  PXY d   1      -0.305  -0.163   0.271  0.00  0.00    -0.082 A 
ATOM      7  C5  PXY d   1      -0.647   0.626   1.311  0.00  0.00     0.003 A 
ATOM      8  C6  PXY d   1       0.096   1.776   1.563  0.00  0.00     0.003 A 
ENDROOT
TORSDOF 0
ENDMDL
