MODEL 1
REMARK minimizedAffinity -5.67290545
REMARK minimizedRMSD -1
REMARK  0 active torsions:
REMARK  status: ('A' for Active; 'I' for Inactive)
ROOT
ATOM      1  C4' PXY d   1       3.655   1.625  -0.073  0.00  0.00     0.077 C 
ATOM      2  C1' PXY d   1      -1.804   1.040   1.738  0.00  0.00     0.077 C 
ATOM      3  C1  PXY d   1      -0.372   1.181   1.259  0.00  0.00    -0.082 A 
ATOM      4  C2  PXY d   1       0.401   2.122   1.776  0.00  0.00     0.003 A 
ATOM      5  C3  PXY d   1       1.688   2.284   1.332  0.00  0.00     0.003 A 
ATOM      6  C4  PXY d   1       2.206   1.440   0.387  0.00  0.00    -0.082 A 
ATOM      7  C5  PXY d   1       1.427   0.470  -0.138  0.00  0.00     0.003 A 
ATOM      8  C6  PXY d   1       0.110   0.349   0.297  0.00  0.00     0.003 A 
ENDROOT
TORSDOF 0
ENDMDL
