MODEL 1
REMARK minimizedAffinity -4.27128458
REMARK minimizedRMSD -1
REMARK  0 active torsions:
REMARK  status: ('A' for Active; 'I' for Inactive)
ROOT
ATOM      1  C4' PXY d   1       0.643   1.897   1.890  0.00  0.00     0.077 C 
ATOM      2  C1' PXY d   1      -1.617  -2.120  -1.599  0.00  0.00     0.077 C 
ATOM      3  C1  PXY d   1      -1.036  -1.063  -0.680  0.00  0.00    -0.082 A 
ATOM      4  C2  PXY d   1       0.153  -0.548  -0.945  0.00  0.00     0.003 A 
ATOM      5  C3  PXY d   1       0.707   0.385  -0.107  0.00  0.00     0.003 A 
ATOM      6  C4  PXY d   1       0.013   0.834   0.985  0.00  0.00    -0.082 A 
ATOM      7  C5  PXY d   1      -1.205   0.321   1.256  0.00  0.00     0.003 A 
ATOM      8  C6  PXY d   1      -1.732  -0.655   0.416  0.00  0.00     0.003 A 
ENDROOT
TORSDOF 0
ENDMDL
