MODEL 1
REMARK minimizedAffinity -5.10510635
REMARK minimizedRMSD -1
REMARK  0 active torsions:
REMARK  status: ('A' for Active; 'I' for Inactive)
ROOT
ATOM      1  C4' PXY d   1      -1.833   0.753   1.706  0.00  0.00     0.077 C 
ATOM      2  C1' PXY d   1       3.634   1.095  -0.141  0.00  0.00     0.077 C 
ATOM      3  C1  PXY d   1       2.197   0.999   0.332  0.00  0.00    -0.082 A 
ATOM      4  C2  PXY d   1       1.746   1.856   1.234  0.00  0.00     0.003 A 
ATOM      5  C3  PXY d   1       0.459   1.764   1.696  0.00  0.00     0.003 A 
ATOM      6  C4  PXY d   1      -0.392   0.818   1.192  0.00  0.00    -0.082 A 
ATOM      7  C5  PXY d   1       0.056  -0.054   0.264  0.00  0.00     0.003 A 
ATOM      8  C6  PXY d   1       1.379   0.030  -0.162  0.00  0.00     0.003 A 
ENDROOT
TORSDOF 0
ENDMDL
