MODEL 1
REMARK minimizedAffinity -3.5145812
REMARK minimizedRMSD -1
REMARK  0 active torsions:
REMARK  status: ('A' for Active; 'I' for Inactive)
ROOT
ATOM      1  C4' PXY d   1      -0.661  -1.396  -0.764  0.00  0.00     0.077 C 
ATOM      2  C1' PXY d   1       1.819   3.284   1.553  0.00  0.00     0.077 C 
ATOM      3  C1  PXY d   1       1.163   2.054   0.957  0.00  0.00    -0.082 A 
ATOM      4  C2  PXY d   1       1.725   1.449  -0.077  0.00  0.00     0.003 A 
ATOM      5  C3  PXY d   1       1.128   0.355  -0.649  0.00  0.00     0.003 A 
ATOM      6  C4  PXY d   1      -0.028  -0.157  -0.124  0.00  0.00    -0.082 A 
ATOM      7  C5  PXY d   1      -0.602   0.449   0.938  0.00  0.00     0.003 A 
ATOM      8  C6  PXY d   1      -0.002   1.582   1.478  0.00  0.00     0.003 A 
ENDROOT
TORSDOF 0
ENDMDL
