MODEL 1
REMARK minimizedAffinity -0.990944505
REMARK minimizedRMSD -1
REMARK  0 active torsions:
REMARK  status: ('A' for Active; 'I' for Inactive)
ROOT
ATOM      1  C4' PXY d   1      -0.772  -1.321  -1.215  0.00  0.00     0.077 C 
ATOM      2  C1' PXY d   1       1.479   2.630   2.355  0.00  0.00     0.077 C 
ATOM      3  C1  PXY d   1       0.881   1.590   1.428  0.00  0.00    -0.082 A 
ATOM      4  C2  PXY d   1       1.575   1.168   0.383  0.00  0.00     0.003 A 
ATOM      5  C3  PXY d   1       1.037   0.251  -0.483  0.00  0.00     0.003 A 
ATOM      6  C4  PXY d   1      -0.204  -0.279  -0.248  0.00  0.00    -0.082 A 
ATOM      7  C5  PXY d   1      -0.914   0.139   0.822  0.00  0.00     0.003 A 
ATOM      8  C6  PXY d   1      -0.366   1.100   1.666  0.00  0.00     0.003 A 
ENDROOT
TORSDOF 0
ENDMDL
