MODEL 1
REMARK minimizedAffinity -4.98307753
REMARK minimizedRMSD -1
REMARK  0 active torsions:
REMARK  status: ('A' for Active; 'I' for Inactive)
ROOT
ATOM      1  C4' PXY d   1      -0.856  -1.641  -0.749  0.00  0.00     0.077 C 
ATOM      2  C1' PXY d   1       1.635   3.151   1.311  0.00  0.00     0.077 C 
ATOM      3  C1  PXY d   1       0.990   1.894   0.761  0.00  0.00    -0.082 A 
ATOM      4  C2  PXY d   1      -0.276   1.632   1.041  0.00  0.00     0.003 A 
ATOM      5  C3  PXY d   1      -0.866   0.484   0.578  0.00  0.00     0.003 A 
ATOM      6  C4  PXY d   1      -0.167  -0.379  -0.223  0.00  0.00    -0.082 A 
ATOM      7  C5  PXY d   1       1.123  -0.114  -0.522  0.00  0.00     0.003 A 
ATOM      8  C6  PXY d   1       1.715   1.036  -0.008  0.00  0.00     0.003 A 
ENDROOT
TORSDOF 0
ENDMDL
