MODEL 1
REMARK minimizedAffinity -5.37180996
REMARK minimizedRMSD -1
REMARK  0 active torsions:
REMARK  status: ('A' for Active; 'I' for Inactive)
ROOT
ATOM      1  C4' PXY d   1       3.750   1.333  -0.476  0.00  0.00     0.077 C 
ATOM      2  C1' PXY d   1      -1.377   0.867   2.154  0.00  0.00     0.077 C 
ATOM      3  C1  PXY d   1      -0.033   1.002   1.466  0.00  0.00    -0.082 A 
ATOM      4  C2  PXY d   1       0.369   0.063   0.625  0.00  0.00     0.003 A 
ATOM      5  C3  PXY d   1       1.595   0.154   0.018  0.00  0.00     0.003 A 
ATOM      6  C4  PXY d   1       2.396   1.243   0.235  0.00  0.00    -0.082 A 
ATOM      7  C5  PXY d   1       1.989   2.210   1.083  0.00  0.00     0.003 A 
ATOM      8  C6  PXY d   1       0.759   2.079   1.721  0.00  0.00     0.003 A 
ENDROOT
TORSDOF 0
ENDMDL
