MODEL 1
REMARK minimizedAffinity 10.5947304
REMARK minimizedRMSD -1
REMARK  2 active torsions:
REMARK  status: ('A' for Active; 'I' for Inactive)
REMARK    1  A    between atoms: C1_2  and  C2_3 
REMARK    2  A    between atoms: C2_3  and  C3_4 
ROOT
ATOM      1  C3  UNL d   1       0.455   2.858   1.495  0.00  0.00    -0.075 A 
ATOM      2  C4  UNL d   1      -0.467   2.454   2.470  0.00  0.00     0.002 A 
ATOM      3  C5  UNL d   1      -0.028   1.923   3.683  0.00  0.00     0.002 A 
ATOM      4  C6  UNL d   1       1.335   1.781   3.932  0.00  0.00    -0.004 A 
ATOM      5  C7  UNL d   1       2.260   2.164   2.964  0.00  0.00     0.002 A 
ATOM      6  C8  UNL d   1       1.824   2.699   1.751  0.00  0.00     0.002 A 
ENDROOT
BRANCH   1   7
ATOM      7  C2  UNL d   1      -0.012   3.461   0.191  0.00  0.00     0.056 C 
BRANCH   7   8
ATOM      8  C1  UNL d   1       0.822   4.658  -0.278  0.00  0.00     0.007 C 
ATOM      9  C   UNL d   1       0.130   5.996  -0.053  0.00  0.00     0.009 C 
ENDBRANCH   7   8
ENDBRANCH   1   7
TORSDOF 2
ENDMDL
