MODEL 1
REMARK minimizedAffinity 6.06800985
REMARK minimizedRMSD -1
REMARK  2 active torsions:
REMARK  status: ('A' for Active; 'I' for Inactive)
REMARK    1  A    between atoms: C1_2  and  C2_3 
REMARK    2  A    between atoms: C2_3  and  C3_4 
ROOT
ATOM      1  C3  UNL d   1       1.007  -5.648  -1.883  0.00  0.00    -0.075 A 
ATOM      2  C4  UNL d   1       1.178  -5.245  -0.551  0.00  0.00     0.002 A 
ATOM      3  C5  UNL d   1       2.442  -4.899  -0.072  0.00  0.00     0.002 A 
ATOM      4  C6  UNL d   1       3.550  -4.961  -0.914  0.00  0.00    -0.004 A 
ATOM      5  C7  UNL d   1       3.394  -5.377  -2.235  0.00  0.00     0.002 A 
ATOM      6  C8  UNL d   1       2.130  -5.719  -2.718  0.00  0.00     0.002 A 
ENDROOT
BRANCH   1   7
ATOM      7  C2  UNL d   1      -0.363  -5.996  -2.415  0.00  0.00     0.056 C 
BRANCH   7   8
ATOM      8  C1  UNL d   1      -0.892  -5.013  -3.466  0.00  0.00     0.007 C 
ATOM      9  C   UNL d   1      -1.934  -5.627  -4.391  0.00  0.00     0.009 C 
ENDBRANCH   7   8
ENDBRANCH   1   7
TORSDOF 2
ENDMDL
