MODEL 1
REMARK minimizedAffinity 3.89541411
REMARK minimizedRMSD -1
REMARK  2 active torsions:
REMARK  status: ('A' for Active; 'I' for Inactive)
REMARK    1  A    between atoms: C1_2  and  C2_3 
REMARK    2  A    between atoms: C2_3  and  C3_4 
ROOT
ATOM      1  C3  UNL d   1      -0.090   3.651   1.510  0.00  0.00    -0.075 A 
ATOM      2  C4  UNL d   1       0.230   3.076   0.272  0.00  0.00     0.002 A 
ATOM      3  C5  UNL d   1       0.387   3.876  -0.861  0.00  0.00     0.002 A 
ATOM      4  C6  UNL d   1       0.216   5.256  -0.772  0.00  0.00    -0.004 A 
ATOM      5  C7  UNL d   1      -0.118   5.836   0.450  0.00  0.00     0.002 A 
ATOM      6  C8  UNL d   1      -0.272   5.038   1.585  0.00  0.00     0.002 A 
ENDROOT
BRANCH   1   7
ATOM      7  C2  UNL d   1      -0.232   2.794   2.746  0.00  0.00     0.056 C 
BRANCH   7   8
ATOM      8  C1  UNL d   1       1.100   2.305   3.323  0.00  0.00     0.007 C 
ATOM      9  C   UNL d   1       0.955   1.078   4.212  0.00  0.00     0.009 C 
ENDBRANCH   7   8
ENDBRANCH   1   7
TORSDOF 2
ENDMDL
