MODEL 1
REMARK minimizedAffinity 6.84229136
REMARK minimizedRMSD -1
REMARK  2 active torsions:
REMARK  status: ('A' for Active; 'I' for Inactive)
REMARK    1  A    between atoms: C1_2  and  C2_3 
REMARK    2  A    between atoms: C2_3  and  C3_4 
ROOT
ATOM      1  C3  UNL d   1      -0.379   3.724   1.515  0.00  0.00    -0.075 A 
ATOM      2  C4  UNL d   1       0.368   3.492   0.351  0.00  0.00     0.002 A 
ATOM      3  C5  UNL d   1       0.552   4.508  -0.587  0.00  0.00     0.002 A 
ATOM      4  C6  UNL d   1      -0.017   5.763  -0.380  0.00  0.00    -0.004 A 
ATOM      5  C7  UNL d   1      -0.775   6.000   0.765  0.00  0.00     0.002 A 
ATOM      6  C8  UNL d   1      -0.956   4.986   1.708  0.00  0.00     0.002 A 
ENDROOT
BRANCH   1   7
ATOM      7  C2  UNL d   1      -0.556   2.638   2.549  0.00  0.00     0.056 C 
BRANCH   7   8
ATOM      8  C1  UNL d   1       0.745   2.213   3.237  0.00  0.00     0.007 C 
ATOM      9  C   UNL d   1       0.625   0.893   3.986  0.00  0.00     0.009 C 
ENDBRANCH   7   8
ENDBRANCH   1   7
TORSDOF 2
ENDMDL
