MODEL 1
REMARK minimizedAffinity 9.554986
REMARK minimizedRMSD -1
REMARK  2 active torsions:
REMARK  status: ('A' for Active; 'I' for Inactive)
REMARK    1  A    between atoms: C1_2  and  C2_3 
REMARK    2  A    between atoms: C2_3  and  C3_4 
ROOT
ATOM      1  C3  UNL d   1      -0.823   5.620  -1.414  0.00  0.00    -0.075 A 
ATOM      2  C4  UNL d   1      -2.193   5.632  -1.714  0.00  0.00     0.002 A 
ATOM      3  C5  UNL d   1      -2.629   5.813  -3.026  0.00  0.00     0.002 A 
ATOM      4  C6  UNL d   1      -1.704   5.994  -4.052  0.00  0.00    -0.004 A 
ATOM      5  C7  UNL d   1      -0.341   6.000  -3.763  0.00  0.00     0.002 A 
ATOM      6  C8  UNL d   1       0.099   5.815  -2.451  0.00  0.00     0.002 A 
ENDROOT
BRANCH   1   7
ATOM      7  C2  UNL d   1      -0.344   5.395   0.001  0.00  0.00     0.056 C 
BRANCH   7   8
ATOM      8  C1  UNL d   1      -0.712   4.022   0.573  0.00  0.00     0.007 C 
ATOM      9  C   UNL d   1       0.399   2.991   0.422  0.00  0.00     0.009 C 
ENDBRANCH   7   8
ENDBRANCH   1   7
TORSDOF 2
ENDMDL
