MODEL 1
REMARK minimizedAffinity 14.1372089
REMARK minimizedRMSD -1
REMARK  2 active torsions:
REMARK  status: ('A' for Active; 'I' for Inactive)
REMARK    1  A    between atoms: C1_2  and  C2_3 
REMARK    2  A    between atoms: C2_3  and  C3_4 
ROOT
ATOM      1  C3  UNL d   1       5.225  -3.771  -3.431  0.00  0.00    -0.075 A 
ATOM      2  C4  UNL d   1       4.115  -4.501  -2.980  0.00  0.00     0.002 A 
ATOM      3  C5  UNL d   1       3.659  -5.610  -3.694  0.00  0.00     0.002 A 
ATOM      4  C6  UNL d   1       4.299  -5.997  -4.870  0.00  0.00    -0.004 A 
ATOM      5  C7  UNL d   1       5.392  -5.269  -5.335  0.00  0.00     0.002 A 
ATOM      6  C8  UNL d   1       5.853  -4.162  -4.621  0.00  0.00     0.002 A 
ENDROOT
BRANCH   1   7
ATOM      7  C2  UNL d   1       5.741  -2.588  -2.648  0.00  0.00     0.056 C 
BRANCH   7   8
ATOM      8  C1  UNL d   1       5.811  -2.824  -1.135  0.00  0.00     0.007 C 
ATOM      9  C   UNL d   1       4.941  -1.863  -0.336  0.00  0.00     0.009 C 
ENDBRANCH   7   8
ENDBRANCH   1   7
TORSDOF 2
ENDMDL
