MODEL 1
REMARK minimizedAffinity 10.6201191
REMARK minimizedRMSD -1
REMARK  2 active torsions:
REMARK  status: ('A' for Active; 'I' for Inactive)
REMARK    1  A    between atoms: C1_2  and  C2_3 
REMARK    2  A    between atoms: C2_3  and  C3_4 
ROOT
ATOM      1  C3  UNL d   1       0.302   3.362   1.298  0.00  0.00    -0.075 A 
ATOM      2  C4  UNL d   1       1.373   2.981   2.119  0.00  0.00     0.002 A 
ATOM      3  C5  UNL d   1       1.181   2.066   3.155  0.00  0.00     0.002 A 
ATOM      4  C6  UNL d   1      -0.083   1.529   3.388  0.00  0.00    -0.004 A 
ATOM      5  C7  UNL d   1      -1.157   1.913   2.589  0.00  0.00     0.002 A 
ATOM      6  C8  UNL d   1      -0.967   2.825   1.549  0.00  0.00     0.002 A 
ENDROOT
BRANCH   1   7
ATOM      7  C2  UNL d   1       0.510   4.329   0.157  0.00  0.00     0.056 C 
BRANCH   7   8
ATOM      8  C1  UNL d   1      -0.318   5.614   0.270  0.00  0.00     0.007 C 
ATOM      9  C   UNL d   1      -1.010   5.999  -1.031  0.00  0.00     0.009 C 
ENDBRANCH   7   8
ENDBRANCH   1   7
TORSDOF 2
ENDMDL
