MODEL 1
REMARK minimizedAffinity 11.8650875
REMARK minimizedRMSD -1
REMARK  2 active torsions:
REMARK  status: ('A' for Active; 'I' for Inactive)
REMARK    1  A    between atoms: C1_2  and  C2_3 
REMARK    2  A    between atoms: C2_3  and  C3_4 
ROOT
ATOM      1  C3  UNL d   1       0.137   4.051   0.183  0.00  0.00    -0.075 A 
ATOM      2  C4  UNL d   1      -0.685   5.035   0.751  0.00  0.00     0.002 A 
ATOM      3  C5  UNL d   1      -1.292   6.000  -0.053  0.00  0.00     0.002 A 
ATOM      4  C6  UNL d   1      -1.078   6.000  -1.430  0.00  0.00    -0.004 A 
ATOM      5  C7  UNL d   1      -0.250   5.037  -2.002  0.00  0.00     0.002 A 
ATOM      6  C8  UNL d   1       0.356   4.067  -1.201  0.00  0.00     0.002 A 
ENDROOT
BRANCH   1   7
ATOM      7  C2  UNL d   1       0.774   2.986   1.044  0.00  0.00     0.056 C 
BRANCH   7   8
ATOM      8  C1  UNL d   1      -0.100   2.526   2.215  0.00  0.00     0.007 C 
ATOM      9  C   UNL d   1       0.698   1.889   3.346  0.00  0.00     0.009 C 
ENDBRANCH   7   8
ENDBRANCH   1   7
TORSDOF 2
ENDMDL
