MODEL 1
REMARK minimizedAffinity 7.20155859
REMARK minimizedRMSD -1
REMARK  2 active torsions:
REMARK  status: ('A' for Active; 'I' for Inactive)
REMARK    1  A    between atoms: C1_2  and  C2_3 
REMARK    2  A    between atoms: C2_3  and  C3_4 
ROOT
ATOM      1  C3  UNL d   1      -3.949   0.284   3.487  0.00  0.00    -0.075 A 
ATOM      2  C4  UNL d   1      -4.982   0.769   4.302  0.00  0.00     0.002 A 
ATOM      3  C5  UNL d   1      -5.996  -0.083   4.740  0.00  0.00     0.002 A 
ATOM      4  C6  UNL d   1      -5.997  -1.423   4.361  0.00  0.00    -0.004 A 
ATOM      5  C7  UNL d   1      -4.985  -1.911   3.537  0.00  0.00     0.002 A 
ATOM      6  C8  UNL d   1      -3.966  -1.063   3.101  0.00  0.00     0.002 A 
ENDROOT
BRANCH   1   7
ATOM      7  C2  UNL d   1      -2.831   1.194   3.033  0.00  0.00     0.056 C 
BRANCH   7   8
ATOM      8  C1  UNL d   1      -1.463   0.846   3.629  0.00  0.00     0.007 C 
ATOM      9  C   UNL d   1      -0.325   1.666   3.038  0.00  0.00     0.009 C 
ENDBRANCH   7   8
ENDBRANCH   1   7
TORSDOF 2
ENDMDL
