MODEL 1
REMARK minimizedAffinity -5.48965454
REMARK minimizedRMSD -1
REMARK  0 active torsions:
REMARK  status: ('A' for Active; 'I' for Inactive)
ROOT
ATOM      1  O1  BZF d   1       0.181  -0.241  -0.545  0.00  0.00    -0.204 OA
ATOM      2  C2  BZF d   1      -1.070  -0.262   0.041  0.00  0.00     0.174 A 
ATOM      3  C3  BZF d   1      -1.164   0.680   1.001  0.00  0.00    -0.012 A 
ATOM      4  C3A BZF d   1       0.077   1.391   0.954  0.00  0.00    -0.107 A 
ATOM      5  C4  BZF d   1       0.579   2.451   1.654  0.00  0.00     0.055 A 
ATOM      6  C5  BZF d   1       1.854   2.857   1.413  0.00  0.00    -0.016 A 
ATOM      7  C6  BZF d   1       2.654   2.224   0.485  0.00  0.00     0.022 A 
ATOM      8  C7  BZF d   1       2.198   1.171  -0.237  0.00  0.00     0.029 A 
ATOM      9  C7A BZF d   1       0.900   0.780  -0.020  0.00  0.00     0.058 A 
ENDROOT
TORSDOF 0
ENDMDL
