MODEL 1
REMARK minimizedAffinity -4.62029886
REMARK minimizedRMSD -1
REMARK  0 active torsions:
REMARK  status: ('A' for Active; 'I' for Inactive)
ROOT
ATOM      1  O1  BZF d   1       0.755  -0.286  -1.142  0.00  0.00    -0.204 OA
ATOM      2  C2  BZF d   1      -0.525  -0.805  -1.120  0.00  0.00     0.174 A 
ATOM      3  C3  BZF d   1      -1.277  -0.183  -0.190  0.00  0.00    -0.012 A 
ATOM      4  C3A BZF d   1      -0.441   0.848   0.343  0.00  0.00    -0.107 A 
ATOM      5  C4  BZF d   1      -0.629   1.814   1.290  0.00  0.00     0.055 A 
ATOM      6  C5  BZF d   1       0.413   2.617   1.630  0.00  0.00    -0.016 A 
ATOM      7  C6  BZF d   1       1.656   2.480   1.047  0.00  0.00     0.022 A 
ATOM      8  C7  BZF d   1       1.889   1.540   0.099  0.00  0.00     0.029 A 
ATOM      9  C7A BZF d   1       0.829   0.748  -0.270  0.00  0.00     0.058 A 
ENDROOT
TORSDOF 0
ENDMDL
