MODEL 1
REMARK minimizedAffinity -5.60235119
REMARK minimizedRMSD -1
REMARK  0 active torsions:
REMARK  status: ('A' for Active; 'I' for Inactive)
ROOT
ATOM      1  O1  BZF d   1      -0.787  -0.759   0.995  0.00  0.00    -0.204 OA
ATOM      2  C2  BZF d   1      -0.190  -1.496  -0.008  0.00  0.00     0.174 A 
ATOM      3  C3  BZF d   1       0.751  -0.767  -0.643  0.00  0.00    -0.012 A 
ATOM      4  C3A BZF d   1       0.805   0.475   0.064  0.00  0.00    -0.107 A 
ATOM      5  C4  BZF d   1       1.557   1.606  -0.080  0.00  0.00     0.055 A 
ATOM      6  C5  BZF d   1       1.313   2.669   0.730  0.00  0.00    -0.016 A 
ATOM      7  C6  BZF d   1       0.323   2.639   1.690  0.00  0.00     0.022 A 
ATOM      8  C7  BZF d   1      -0.445   1.537   1.874  0.00  0.00     0.029 A 
ATOM      9  C7A BZF d   1      -0.179   0.450   1.079  0.00  0.00     0.058 A 
ENDROOT
TORSDOF 0
ENDMDL
