MODEL 1
REMARK minimizedAffinity -4.53380728
REMARK minimizedRMSD -1
REMARK  0 active torsions:
REMARK  status: ('A' for Active; 'I' for Inactive)
ROOT
ATOM      1  O1  BZF d   1       0.482   0.294  -1.437  0.00  0.00    -0.204 OA
ATOM      2  C2  BZF d   1      -0.205  -0.847  -1.070  0.00  0.00     0.174 A 
ATOM      3  C3  BZF d   1      -0.442  -0.856   0.258  0.00  0.00    -0.012 A 
ATOM      4  C3A BZF d   1       0.051   0.399   0.736  0.00  0.00    -0.107 A 
ATOM      5  C4  BZF d   1       0.088   0.985   1.969  0.00  0.00     0.055 A 
ATOM      6  C5  BZF d   1       0.705   2.188   2.111  0.00  0.00    -0.016 A 
ATOM      7  C6  BZF d   1       1.300   2.829   1.044  0.00  0.00     0.022 A 
ATOM      8  C7  BZF d   1       1.285   2.289  -0.199  0.00  0.00     0.029 A 
ATOM      9  C7A BZF d   1       0.633   1.090  -0.352  0.00  0.00     0.058 A 
ENDROOT
TORSDOF 0
ENDMDL
