MODEL 1
REMARK minimizedAffinity -1.65843642
REMARK minimizedRMSD -1
REMARK  0 active torsions:
REMARK  status: ('A' for Active; 'I' for Inactive)
ROOT
ATOM      1  O1  BZF d   1      -2.907  -0.450  -1.251  0.00  0.00    -0.204 OA
ATOM      2  C2  BZF d   1      -2.695  -1.276  -2.337  0.00  0.00     0.174 A 
ATOM      3  C3  BZF d   1      -1.396  -1.628  -2.424  0.00  0.00    -0.012 A 
ATOM      4  C3A BZF d   1      -0.773  -1.056  -1.270  0.00  0.00    -0.107 A 
ATOM      5  C4  BZF d   1       0.506  -1.068  -0.790  0.00  0.00     0.055 A 
ATOM      6  C5  BZF d   1       0.799  -0.349   0.325  0.00  0.00    -0.016 A 
ATOM      7  C6  BZF d   1      -0.158   0.397   0.981  0.00  0.00     0.022 A 
ATOM      8  C7  BZF d   1      -1.440   0.437   0.545  0.00  0.00     0.029 A 
ATOM      9  C7A BZF d   1      -1.748  -0.315  -0.563  0.00  0.00     0.058 A 
ENDROOT
TORSDOF 0
ENDMDL
