MODEL 1
REMARK minimizedAffinity -3.78244638
REMARK minimizedRMSD -1
REMARK  0 active torsions:
REMARK  status: ('A' for Active; 'I' for Inactive)
ROOT
ATOM      1  O1  BZF d   1       0.271   0.730  -1.492  0.00  0.00    -0.204 OA
ATOM      2  C2  BZF d   1      -0.443  -0.451  -1.431  0.00  0.00     0.174 A 
ATOM      3  C3  BZF d   1      -0.880  -0.681  -0.176  0.00  0.00    -0.012 A 
ATOM      4  C3A BZF d   1      -0.489   0.472   0.576  0.00  0.00    -0.107 A 
ATOM      5  C4  BZF d   1      -0.652   0.841   1.881  0.00  0.00     0.055 A 
ATOM      6  C5  BZF d   1      -0.085   1.998   2.315  0.00  0.00    -0.016 A 
ATOM      7  C6  BZF d   1       0.654   2.805   1.475  0.00  0.00     0.022 A 
ATOM      8  C7  BZF d   1       0.838   2.482   0.172  0.00  0.00     0.029 A 
ATOM      9  C7A BZF d   1       0.240   1.331  -0.278  0.00  0.00     0.058 A 
ENDROOT
TORSDOF 0
ENDMDL
