MODEL 1
REMARK minimizedAffinity -3.4043684
REMARK minimizedRMSD -1
REMARK  0 active torsions:
REMARK  status: ('A' for Active; 'I' for Inactive)
ROOT
ATOM      1  O1  BZF d   1      -0.962   0.825   1.635  0.00  0.00    -0.204 OA
ATOM      2  C2  BZF d   1      -0.100   1.869   1.912  0.00  0.00     0.174 A 
ATOM      3  C3  BZF d   1       1.042   1.747   1.206  0.00  0.00    -0.012 A 
ATOM      4  C3A BZF d   1       0.847   0.603   0.369  0.00  0.00    -0.107 A 
ATOM      5  C4  BZF d   1       1.620  -0.016  -0.571  0.00  0.00     0.055 A 
ATOM      6  C5  BZF d   1       1.165  -1.156  -1.154  0.00  0.00    -0.016 A 
ATOM      7  C6  BZF d   1      -0.054  -1.707  -0.819  0.00  0.00     0.022 A 
ATOM      8  C7  BZF d   1      -0.859  -1.126   0.105  0.00  0.00     0.029 A 
ATOM      9  C7A BZF d   1      -0.416   0.044   0.672  0.00  0.00     0.058 A 
ENDROOT
TORSDOF 0
ENDMDL
