MODEL 1
REMARK minimizedAffinity -3.8442204
REMARK minimizedRMSD -1
REMARK  0 active torsions:
REMARK  status: ('A' for Active; 'I' for Inactive)
ROOT
ATOM      1  O1  BZF d   1       0.319   2.294   1.631  0.00  0.00    -0.204 OA
ATOM      2  C2  BZF d   1       1.258   2.926   0.840  0.00  0.00     0.174 A 
ATOM      3  C3  BZF d   1       1.550   2.180  -0.245  0.00  0.00    -0.012 A 
ATOM      4  C3A BZF d   1       0.675   1.051  -0.171  0.00  0.00    -0.107 A 
ATOM      5  C4  BZF d   1       0.478  -0.038  -0.972  0.00  0.00     0.055 A 
ATOM      6  C5  BZF d   1      -0.403  -0.996  -0.579  0.00  0.00    -0.016 A 
ATOM      7  C6  BZF d   1      -1.099  -0.900   0.608  0.00  0.00     0.022 A 
ATOM      8  C7  BZF d   1      -0.941   0.164   1.433  0.00  0.00     0.029 A 
ATOM      9  C7A BZF d   1      -0.076   1.150   1.023  0.00  0.00     0.058 A 
ENDROOT
TORSDOF 0
ENDMDL
