MODEL 1
REMARK minimizedAffinity -3.19520617
REMARK minimizedRMSD -1
REMARK  0 active torsions:
REMARK  status: ('A' for Active; 'I' for Inactive)
ROOT
ATOM      1  O1  BZF d   1      -0.811   0.725   1.744  0.00  0.00    -0.204 OA
ATOM      2  C2  BZF d   1       0.089   1.736   2.023  0.00  0.00     0.174 A 
ATOM      3  C3  BZF d   1       1.216   1.586   1.298  0.00  0.00    -0.012 A 
ATOM      4  C3A BZF d   1       0.972   0.460   0.450  0.00  0.00    -0.107 A 
ATOM      5  C4  BZF d   1       1.711  -0.171  -0.509  0.00  0.00     0.055 A 
ATOM      6  C5  BZF d   1       1.211  -1.287  -1.101  0.00  0.00    -0.016 A 
ATOM      7  C6  BZF d   1      -0.022  -1.802  -0.755  0.00  0.00     0.022 A 
ATOM      8  C7  BZF d   1      -0.794  -1.208   0.187  0.00  0.00     0.029 A 
ATOM      9  C7A BZF d   1      -0.305  -0.061   0.764  0.00  0.00     0.058 A 
ENDROOT
TORSDOF 0
ENDMDL
