MODEL 1
REMARK minimizedAffinity -5.32696676
REMARK minimizedRMSD -1
REMARK  0 active torsions:
REMARK  status: ('A' for Active; 'I' for Inactive)
ROOT
ATOM      1  O1  BZF d   1       0.262  -1.147  -0.585  0.00  0.00    -0.204 OA
ATOM      2  C2  BZF d   1      -0.983  -1.091   0.011  0.00  0.00     0.174 A 
ATOM      3  C3  BZF d   1      -1.075  -0.023   0.828  0.00  0.00    -0.012 A 
ATOM      4  C3A BZF d   1       0.161   0.682   0.667  0.00  0.00    -0.107 A 
ATOM      5  C4  BZF d   1       0.662   1.833   1.204  0.00  0.00     0.055 A 
ATOM      6  C5  BZF d   1       1.931   2.208   0.895  0.00  0.00    -0.016 A 
ATOM      7  C6  BZF d   1       2.727   1.454   0.058  0.00  0.00     0.022 A 
ATOM      8  C7  BZF d   1       2.272   0.307  -0.503  0.00  0.00     0.029 A 
ATOM      9  C7A BZF d   1       0.979  -0.057  -0.219  0.00  0.00     0.058 A 
ENDROOT
TORSDOF 0
ENDMDL
