MODEL 1
REMARK minimizedAffinity -1.51086855
REMARK minimizedRMSD -1
REMARK  0 active torsions:
REMARK  status: ('A' for Active; 'I' for Inactive)
ROOT
ATOM      1  O1  BZF d   1      -1.338   1.357  -0.048  0.00  0.00    -0.204 OA
ATOM      2  C2  BZF d   1      -0.777   1.069   1.181  0.00  0.00     0.174 A 
ATOM      3  C3  BZF d   1      -0.320  -0.200   1.212  0.00  0.00    -0.012 A 
ATOM      4  C3A BZF d   1      -0.531  -0.708  -0.108  0.00  0.00    -0.107 A 
ATOM      5  C4  BZF d   1      -0.268  -1.908  -0.705  0.00  0.00     0.055 A 
ATOM      6  C5  BZF d   1      -0.664  -2.108  -1.990  0.00  0.00    -0.016 A 
ATOM      7  C6  BZF d   1      -1.330  -1.133  -2.704  0.00  0.00     0.022 A 
ATOM      8  C7  BZF d   1      -1.609   0.075  -2.156  0.00  0.00     0.029 A 
ATOM      9  C7A BZF d   1      -1.180   0.291  -0.869  0.00  0.00     0.058 A 
ENDROOT
TORSDOF 0
ENDMDL
