MODEL 1
REMARK minimizedAffinity -1.19407368
REMARK minimizedRMSD -1
REMARK  0 active torsions:
REMARK  status: ('A' for Active; 'I' for Inactive)
ROOT
ATOM      1  O1  BZF d   1      -0.044  -0.326   1.304  0.00  0.00    -0.204 OA
ATOM      2  C2  BZF d   1      -0.334   1.024   1.244  0.00  0.00     0.174 A 
ATOM      3  C3  BZF d   1      -0.825   1.354   0.033  0.00  0.00    -0.012 A 
ATOM      4  C3A BZF d   1      -0.929   0.118  -0.681  0.00  0.00    -0.107 A 
ATOM      5  C4  BZF d   1      -1.365  -0.209  -1.933  0.00  0.00     0.055 A 
ATOM      6  C5  BZF d   1      -1.267  -1.499  -2.350  0.00  0.00    -0.016 A 
ATOM      7  C6  BZF d   1      -0.734  -2.484  -1.545  0.00  0.00     0.022 A 
ATOM      8  C7  BZF d   1      -0.292  -2.208  -0.294  0.00  0.00     0.029 A 
ATOM      9  C7A BZF d   1      -0.421  -0.913   0.143  0.00  0.00     0.058 A 
ENDROOT
TORSDOF 0
ENDMDL
