MODEL 1
REMARK minimizedAffinity -3.3009336
REMARK minimizedRMSD -1
REMARK  0 active torsions:
REMARK  status: ('A' for Active; 'I' for Inactive)
ROOT
ATOM      1  O1  BZF d   1       0.430  -0.033  -0.984  0.00  0.00    -0.204 OA
ATOM      2  C2  BZF d   1      -0.786  -0.388  -0.434  0.00  0.00     0.174 A 
ATOM      3  C3  BZF d   1      -0.932   0.151   0.793  0.00  0.00    -0.012 A 
ATOM      4  C3A BZF d   1       0.229   0.966   0.987  0.00  0.00    -0.107 A 
ATOM      5  C4  BZF d   1       0.653   1.768   2.007  0.00  0.00     0.055 A 
ATOM      6  C5  BZF d   1       1.869   2.368   1.914  0.00  0.00    -0.016 A 
ATOM      7  C6  BZF d   1       2.688   2.182   0.819  0.00  0.00     0.022 A 
ATOM      8  C7  BZF d   1       2.308   1.399  -0.220  0.00  0.00     0.029 A 
ATOM      9  C7A BZF d   1       1.066   0.818  -0.143  0.00  0.00     0.058 A 
ENDROOT
TORSDOF 0
ENDMDL
