MODEL 1
REMARK minimizedAffinity -4.09178734
REMARK minimizedRMSD -1
REMARK  0 active torsions:
REMARK  status: ('A' for Active; 'I' for Inactive)
ROOT
ATOM      1  O1  BZF d   1       3.515   0.996   2.251  0.00  0.00    -0.204 OA
ATOM      2  C2  BZF d   1       4.519   1.073   1.306  0.00  0.00     0.174 A 
ATOM      3  C3  BZF d   1       4.074   1.669   0.182  0.00  0.00    -0.012 A 
ATOM      4  C3A BZF d   1       2.731   2.068   0.474  0.00  0.00    -0.107 A 
ATOM      5  C4  BZF d   1       1.769   2.722  -0.242  0.00  0.00     0.055 A 
ATOM      6  C5  BZF d   1       0.537   2.890   0.308  0.00  0.00    -0.016 A 
ATOM      7  C6  BZF d   1       0.232   2.413   1.566  0.00  0.00     0.022 A 
ATOM      8  C7  BZF d   1       1.155   1.763   2.315  0.00  0.00     0.029 A 
ATOM      9  C7A BZF d   1       2.410   1.621   1.776  0.00  0.00     0.058 A 
ENDROOT
TORSDOF 0
ENDMDL
