MODEL 1
REMARK minimizedAffinity -4.85422754
REMARK minimizedRMSD -1
REMARK  0 active torsions:
REMARK  status: ('A' for Active; 'I' for Inactive)
ROOT
ATOM      1  O1  BZF d   1       2.730   0.052  -0.427  0.00  0.00    -0.204 OA
ATOM      2  C2  BZF d   1       3.714   0.952  -0.065  0.00  0.00     0.174 A 
ATOM      3  C3  BZF d   1       3.209   1.919   0.727  0.00  0.00    -0.012 A 
ATOM      4  C3A BZF d   1       1.843   1.552   0.945  0.00  0.00    -0.107 A 
ATOM      5  C4  BZF d   1       0.824   2.110   1.663  0.00  0.00     0.055 A 
ATOM      6  C5  BZF d   1      -0.410   1.542   1.609  0.00  0.00    -0.016 A 
ATOM      7  C6  BZF d   1      -0.661   0.422   0.844  0.00  0.00     0.022 A 
ATOM      8  C7  BZF d   1       0.320  -0.170   0.119  0.00  0.00     0.029 A 
ATOM      9  C7A BZF d   1       1.575   0.382   0.198  0.00  0.00     0.058 A 
ENDROOT
TORSDOF 0
ENDMDL
