MODEL 1
REMARK minimizedAffinity -4.37563038
REMARK minimizedRMSD -1
REMARK  0 active torsions:
REMARK  status: ('A' for Active; 'I' for Inactive)
ROOT
ATOM      1  O1  BZF d   1       2.482   0.071  -0.348  0.00  0.00    -0.204 OA
ATOM      2  C2  BZF d   1       3.568   0.775   0.136  0.00  0.00     0.174 A 
ATOM      3  C3  BZF d   1       3.182   1.669   1.068  0.00  0.00    -0.012 A 
ATOM      4  C3A BZF d   1       1.778   1.450   1.241  0.00  0.00    -0.107 A 
ATOM      5  C4  BZF d   1       0.831   2.020   2.043  0.00  0.00     0.055 A 
ATOM      6  C5  BZF d   1      -0.464   1.628   1.916  0.00  0.00    -0.016 A 
ATOM      7  C6  BZF d   1      -0.847   0.675   0.995  0.00  0.00     0.022 A 
ATOM      8  C7  BZF d   1       0.057   0.079   0.181  0.00  0.00     0.029 A 
ATOM      9  C7A BZF d   1       1.372   0.448   0.330  0.00  0.00     0.058 A 
ENDROOT
TORSDOF 0
ENDMDL
