MODEL 1
REMARK minimizedAffinity 0.457708836
REMARK minimizedRMSD -1
REMARK  0 active torsions:
REMARK  status: ('A' for Active; 'I' for Inactive)
ROOT
ATOM      1  O1  BZF d   1       2.975   1.604   1.541  0.00  0.00    -0.204 OA
ATOM      2  C2  BZF d   1       3.802   0.986   0.623  0.00  0.00     0.174 A 
ATOM      3  C3  BZF d   1       3.098   0.153  -0.170  0.00  0.00    -0.012 A 
ATOM      4  C3A BZF d   1       1.732   0.325   0.221  0.00  0.00    -0.107 A 
ATOM      5  C4  BZF d   1       0.556  -0.219  -0.210  0.00  0.00     0.055 A 
ATOM      6  C5  BZF d   1      -0.597   0.107   0.432  0.00  0.00    -0.016 A 
ATOM      7  C6  BZF d   1      -0.610   0.968   1.510  0.00  0.00     0.022 A 
ATOM      8  C7  BZF d   1       0.531   1.536   1.970  0.00  0.00     0.029 A 
ATOM      9  C7A BZF d   1       1.693   1.235   1.303  0.00  0.00     0.058 A 
ENDROOT
TORSDOF 0
ENDMDL
