MODEL 1
REMARK minimizedAffinity -5.1261735
REMARK minimizedRMSD -1
REMARK  0 active torsions:
REMARK  status: ('A' for Active; 'I' for Inactive)
ROOT
ATOM      1  O1  BZF d   1       4.079   4.501  -5.212  0.00  0.00    -0.204 OA
ATOM      2  C2  BZF d   1       4.591   4.180  -3.970  0.00  0.00     0.174 A 
ATOM      3  C3  BZF d   1       3.732   4.534  -2.993  0.00  0.00    -0.012 A 
ATOM      4  C3A BZF d   1       2.573   5.027  -3.671  0.00  0.00    -0.107 A 
ATOM      5  C4  BZF d   1       1.371   5.514  -3.244  0.00  0.00     0.055 A 
ATOM      6  C5  BZF d   1       0.483   5.981  -4.161  0.00  0.00    -0.016 A 
ATOM      7  C6  BZF d   1       0.767   5.982  -5.511  0.00  0.00     0.022 A 
ATOM      8  C7  BZF d   1       1.944   5.505  -5.983  0.00  0.00     0.029 A 
ATOM      9  C7A BZF d   1       2.830   5.002  -5.061  0.00  0.00     0.058 A 
ENDROOT
TORSDOF 0
ENDMDL
