MODEL 1
REMARK minimizedAffinity 4.08378744
REMARK minimizedRMSD -1
REMARK  0 active torsions:
REMARK  status: ('A' for Active; 'I' for Inactive)
ROOT
ATOM      1  O1  BZF d   1       0.910   3.694  -0.835  0.00  0.00    -0.204 OA
ATOM      2  C2  BZF d   1       1.512   3.178  -1.966  0.00  0.00     0.174 A 
ATOM      3  C3  BZF d   1       1.625   1.837  -1.879  0.00  0.00    -0.012 A 
ATOM      4  C3A BZF d   1       0.974   1.484  -0.655  0.00  0.00    -0.107 A 
ATOM      5  C4  BZF d   1       0.742   0.295  -0.024  0.00  0.00     0.055 A 
ATOM      6  C5  BZF d   1       0.143   0.300   1.195  0.00  0.00    -0.016 A 
ATOM      7  C6  BZF d   1      -0.233   1.474   1.814  0.00  0.00     0.022 A 
ATOM      8  C7  BZF d   1      -0.029   2.678   1.226  0.00  0.00     0.029 A 
ATOM      9  C7A BZF d   1       0.547   2.674  -0.022  0.00  0.00     0.058 A 
ENDROOT
TORSDOF 0
ENDMDL
