MODEL 1
REMARK minimizedAffinity 10.0802841
REMARK minimizedRMSD -1
REMARK  3 active torsions:
REMARK  status: ('A' for Active; 'I' for Inactive)
REMARK    1  A    between atoms: C3'_2  and  C2'_3 
REMARK    2  A    between atoms: C2'_3  and  C1'_4 
REMARK    3  A    between atoms: C1'_4  and  C1_5 
ROOT
ATOM      1  C1  N4B d   1       0.706   4.769  -4.889  0.00  0.00    -0.075 A 
ATOM      2  C2  N4B d   1       0.006   5.289  -6.000  0.00  0.00     0.002 A 
ATOM      3  C3  N4B d   1      -1.207   5.907  -5.819  0.00  0.00     0.002 A 
ATOM      4  C4  N4B d   1      -1.746   6.000  -4.544  0.00  0.00    -0.004 A 
ATOM      5  C5  N4B d   1      -1.052   5.517  -3.474  0.00  0.00     0.002 A 
ATOM      6  C6  N4B d   1       0.170   4.897  -3.640  0.00  0.00     0.002 A 
ENDROOT
BRANCH   1   7
ATOM      7  C1' N4B d   1       1.994   4.009  -5.048  0.00  0.00     0.057 C 
BRANCH   7   8
ATOM      8  C2' N4B d   1       2.600   3.757  -3.670  0.00  0.00     0.009 C 
BRANCH   8   9
ATOM      9  C3' N4B d   1       4.077   3.411  -3.753  0.00  0.00     0.004 C 
ATOM     10  C4' N4B d   1       4.368   2.002  -3.331  0.00  0.00     0.003 C 
ENDBRANCH   8   9
ENDBRANCH   7   8
ENDBRANCH   1   7
TORSDOF 3
ENDMDL
