MODEL 1
REMARK minimizedAffinity 5.64567471
REMARK minimizedRMSD -1
REMARK  3 active torsions:
REMARK  status: ('A' for Active; 'I' for Inactive)
REMARK    1  A    between atoms: C3'_2  and  C2'_3 
REMARK    2  A    between atoms: C2'_3  and  C1'_4 
REMARK    3  A    between atoms: C1'_4  and  C1_5 
ROOT
ATOM      1  C1  N4B d   1       3.725   1.027   1.893  0.00  0.00    -0.075 A 
ATOM      2  C2  N4B d   1       3.691   2.389   2.264  0.00  0.00     0.002 A 
ATOM      3  C3  N4B d   1       4.812   2.987   2.785  0.00  0.00     0.002 A 
ATOM      4  C4  N4B d   1       5.968   2.241   2.963  0.00  0.00    -0.004 A 
ATOM      5  C5  N4B d   1       6.000   0.932   2.579  0.00  0.00     0.002 A 
ATOM      6  C6  N4B d   1       4.882   0.320   2.049  0.00  0.00     0.002 A 
ENDROOT
BRANCH   1   7
ATOM      7  C1' N4B d   1       2.500   0.308   1.399  0.00  0.00     0.057 C 
BRANCH   7   8
ATOM      8  C2' N4B d   1       2.519  -1.128   1.916  0.00  0.00     0.009 C 
BRANCH   8   9
ATOM      9  C3' N4B d   1       1.149  -1.577   2.395  0.00  0.00     0.004 C 
ATOM     10  C4' N4B d   1       1.224  -2.644   3.447  0.00  0.00     0.003 C 
ENDBRANCH   8   9
ENDBRANCH   7   8
ENDBRANCH   1   7
TORSDOF 3
ENDMDL
