MODEL 1
REMARK minimizedAffinity 3.5048964
REMARK minimizedRMSD -1
REMARK  3 active torsions:
REMARK  status: ('A' for Active; 'I' for Inactive)
REMARK    1  A    between atoms: C3'_2  and  C2'_3 
REMARK    2  A    between atoms: C2'_3  and  C1'_4 
REMARK    3  A    between atoms: C1'_4  and  C1_5 
ROOT
ATOM      1  C1  N4B d   1      -2.210  -2.775   0.753  0.00  0.00    -0.075 A 
ATOM      2  C2  N4B d   1      -1.311  -2.145   1.641  0.00  0.00     0.002 A 
ATOM      3  C3  N4B d   1       0.031  -2.427   1.574  0.00  0.00     0.002 A 
ATOM      4  C4  N4B d   1       0.494  -3.345   0.643  0.00  0.00    -0.004 A 
ATOM      5  C5  N4B d   1      -0.377  -3.930  -0.228  0.00  0.00     0.002 A 
ATOM      6  C6  N4B d   1      -1.729  -3.654  -0.175  0.00  0.00     0.002 A 
ENDROOT
BRANCH   1   7
ATOM      7  C1' N4B d   1      -3.697  -2.565   0.845  0.00  0.00     0.057 C 
BRANCH   7   8
ATOM      8  C2' N4B d   1      -4.255  -3.421   1.978  0.00  0.00     0.009 C 
BRANCH   8   9
ATOM      9  C3' N4B d   1      -5.216  -4.481   1.468  0.00  0.00     0.004 C 
ATOM     10  C4' N4B d   1      -5.616  -5.461   2.531  0.00  0.00     0.003 C 
ENDBRANCH   8   9
ENDBRANCH   7   8
ENDBRANCH   1   7
TORSDOF 3
ENDMDL
