MODEL 1
REMARK minimizedAffinity 12.0544071
REMARK minimizedRMSD -1
REMARK  3 active torsions:
REMARK  status: ('A' for Active; 'I' for Inactive)
REMARK    1  A    between atoms: C3'_2  and  C2'_3 
REMARK    2  A    between atoms: C2'_3  and  C1'_4 
REMARK    3  A    between atoms: C1'_4  and  C1_5 
ROOT
ATOM      1  C1  N4B d   1      -3.408   5.142  -2.794  0.00  0.00    -0.075 A 
ATOM      2  C2  N4B d   1      -2.490   5.118  -1.721  0.00  0.00     0.002 A 
ATOM      3  C3  N4B d   1      -2.920   5.377  -0.443  0.00  0.00     0.002 A 
ATOM      4  C4  N4B d   1      -4.255   5.680  -0.218  0.00  0.00    -0.004 A 
ATOM      5  C5  N4B d   1      -5.140   5.676  -1.256  0.00  0.00     0.002 A 
ATOM      6  C6  N4B d   1      -4.722   5.413  -2.545  0.00  0.00     0.002 A 
ENDROOT
BRANCH   1   7
ATOM      7  C1' N4B d   1      -2.968   4.949  -4.220  0.00  0.00     0.057 C 
BRANCH   7   8
ATOM      8  C2' N4B d   1      -1.719   5.786  -4.476  0.00  0.00     0.009 C 
BRANCH   8   9
ATOM      9  C3' N4B d   1      -0.922   5.269  -5.662  0.00  0.00     0.004 C 
ATOM     10  C4' N4B d   1       0.552   5.502  -5.517  0.00  0.00     0.003 C 
ENDBRANCH   8   9
ENDBRANCH   7   8
ENDBRANCH   1   7
TORSDOF 3
ENDMDL
