MODEL 1
REMARK minimizedAffinity 4.74653435
REMARK minimizedRMSD -1
REMARK  3 active torsions:
REMARK  status: ('A' for Active; 'I' for Inactive)
REMARK    1  A    between atoms: C3'_2  and  C2'_3 
REMARK    2  A    between atoms: C2'_3  and  C1'_4 
REMARK    3  A    between atoms: C1'_4  and  C1_5 
ROOT
ATOM      1  C1  N4B d   1      -1.394   5.238  -5.111  0.00  0.00    -0.075 A 
ATOM      2  C2  N4B d   1      -0.561   5.999  -4.262  0.00  0.00     0.002 A 
ATOM      3  C3  N4B d   1       0.801   5.826  -4.300  0.00  0.00     0.002 A 
ATOM      4  C4  N4B d   1       1.349   4.889  -5.162  0.00  0.00    -0.004 A 
ATOM      5  C5  N4B d   1       0.540   4.176  -5.998  0.00  0.00     0.002 A 
ATOM      6  C6  N4B d   1      -0.830   4.342  -5.973  0.00  0.00     0.002 A 
ENDROOT
BRANCH   1   7
ATOM      7  C1' N4B d   1      -2.894   5.330  -5.045  0.00  0.00     0.057 C 
BRANCH   7   8
ATOM      8  C2' N4B d   1      -3.299   5.930  -3.702  0.00  0.00     0.009 C 
BRANCH   8   9
ATOM      9  C3' N4B d   1      -3.937   4.898  -2.788  0.00  0.00     0.004 C 
ATOM     10  C4' N4B d   1      -4.488   5.499  -1.529  0.00  0.00     0.003 C 
ENDBRANCH   8   9
ENDBRANCH   7   8
ENDBRANCH   1   7
TORSDOF 3
ENDMDL
