MODEL 1
REMARK minimizedAffinity 4.97730303
REMARK minimizedRMSD -1
REMARK  3 active torsions:
REMARK  status: ('A' for Active; 'I' for Inactive)
REMARK    1  A    between atoms: C3'_2  and  C2'_3 
REMARK    2  A    between atoms: C2'_3  and  C1'_4 
REMARK    3  A    between atoms: C1'_4  and  C1_5 
ROOT
ATOM      1  C1  N4B d   1      -2.822   0.022   0.847  0.00  0.00    -0.075 A 
ATOM      2  C2  N4B d   1      -2.579  -0.429  -0.469  0.00  0.00     0.002 A 
ATOM      3  C3  N4B d   1      -3.258   0.133  -1.523  0.00  0.00     0.002 A 
ATOM      4  C4  N4B d   1      -4.193   1.128  -1.284  0.00  0.00    -0.004 A 
ATOM      5  C5  N4B d   1      -4.404   1.575  -0.013  0.00  0.00     0.002 A 
ATOM      6  C6  N4B d   1      -3.726   1.023   1.056  0.00  0.00     0.002 A 
ENDROOT
BRANCH   1   7
ATOM      7  C1' N4B d   1      -2.168  -0.620   2.040  0.00  0.00     0.057 C 
BRANCH   7   8
ATOM      8  C2' N4B d   1      -2.078  -2.126   1.812  0.00  0.00     0.009 C 
BRANCH   8   9
ATOM      9  C3' N4B d   1      -0.660  -2.569   1.494  0.00  0.00     0.004 C 
ATOM     10  C4' N4B d   1      -0.599  -3.561   0.371  0.00  0.00     0.003 C 
ENDBRANCH   8   9
ENDBRANCH   7   8
ENDBRANCH   1   7
TORSDOF 3
ENDMDL
