MODEL 1
REMARK minimizedAffinity 15.5274982
REMARK minimizedRMSD -1
REMARK  2 active torsions:
REMARK  status: ('A' for Active; 'I' for Inactive)
REMARK    1  A    between atoms: C2'_3  and  C1'_4 
REMARK    2  A    between atoms: C1'_4  and  C1_5 
ROOT
ATOM      1  C1  I4B d   1      -4.459   2.370   2.816  0.00  0.00    -0.075 A 
ATOM      2  C2  I4B d   1      -3.477   1.583   3.363  0.00  0.00     0.003 A 
ATOM      3  C3  I4B d   1      -3.743   0.229   3.682  0.00  0.00     0.002 A 
ATOM      4  C4  I4B d   1      -5.011  -0.279   3.485  0.00  0.00    -0.004 A 
ATOM      5  C5  I4B d   1      -5.999   0.515   2.909  0.00  0.00     0.002 A 
ATOM      6  C6  I4B d   1      -5.719   1.844   2.561  0.00  0.00     0.003 A 
ENDROOT
BRANCH   1   7
ATOM      7  C1' I4B d   1      -4.152   3.805   2.522  0.00  0.00     0.060 C 
BRANCH   7   8
ATOM      8  C2' I4B d   1      -5.460   4.510   2.224  0.00  0.00    -0.013 C 
ATOM      9  C4' I4B d   1      -5.975   5.238   3.438  0.00  0.00     0.013 C 
ATOM     10  C3' I4B d   1      -5.227   5.455   1.084  0.00  0.00     0.013 C 
ENDBRANCH   7   8
ENDBRANCH   1   7
TORSDOF 2
ENDMDL
