MODEL 1
REMARK minimizedAffinity 9.87888718
REMARK minimizedRMSD -1
REMARK  2 active torsions:
REMARK  status: ('A' for Active; 'I' for Inactive)
REMARK    1  A    between atoms: C2'_3  and  C1'_4 
REMARK    2  A    between atoms: C1'_4  and  C1_5 
ROOT
ATOM      1  C1  I4B d   1      -3.386   3.907   3.423  0.00  0.00    -0.075 A 
ATOM      2  C2  I4B d   1      -4.529   4.645   3.604  0.00  0.00     0.003 A 
ATOM      3  C3  I4B d   1      -4.543   5.725   4.519  0.00  0.00     0.002 A 
ATOM      4  C4  I4B d   1      -3.414   5.999   5.264  0.00  0.00    -0.004 A 
ATOM      5  C5  I4B d   1      -2.249   5.264   5.063  0.00  0.00     0.002 A 
ATOM      6  C6  I4B d   1      -2.231   4.219   4.127  0.00  0.00     0.003 A 
ENDROOT
BRANCH   1   7
ATOM      7  C1' I4B d   1      -3.416   2.752   2.472  0.00  0.00     0.060 C 
BRANCH   7   8
ATOM      8  C2' I4B d   1      -2.673   1.599   3.115  0.00  0.00    -0.013 C 
ATOM      9  C4' I4B d   1      -3.586   0.425   3.351  0.00  0.00     0.013 C 
ATOM     10  C3' I4B d   1      -1.532   1.226   2.216  0.00  0.00     0.013 C 
ENDBRANCH   7   8
ENDBRANCH   1   7
TORSDOF 2
ENDMDL
