MODEL 1
REMARK minimizedAffinity 11.8126888
REMARK minimizedRMSD -1
REMARK  2 active torsions:
REMARK  status: ('A' for Active; 'I' for Inactive)
REMARK    1  A    between atoms: C2'_3  and  C1'_4 
REMARK    2  A    between atoms: C1'_4  and  C1_5 
ROOT
ATOM      1  C1  I4B d   1      -3.136   2.779   2.721  0.00  0.00    -0.075 A 
ATOM      2  C2  I4B d   1      -4.162   2.975   1.831  0.00  0.00     0.003 A 
ATOM      3  C3  I4B d   1      -4.899   4.183   1.849  0.00  0.00     0.002 A 
ATOM      4  C4  I4B d   1      -4.611   5.142   2.799  0.00  0.00    -0.004 A 
ATOM      5  C5  I4B d   1      -3.555   4.951   3.685  0.00  0.00     0.002 A 
ATOM      6  C6  I4B d   1      -2.805   3.767   3.639  0.00  0.00     0.003 A 
ENDROOT
BRANCH   1   7
ATOM      7  C1' I4B d   1      -2.399   1.477   2.697  0.00  0.00     0.060 C 
BRANCH   7   8
ATOM      8  C2' I4B d   1      -3.353   0.410   2.199  0.00  0.00    -0.013 C 
ATOM      9  C4' I4B d   1      -2.702  -0.461   1.158  0.00  0.00     0.013 C 
ATOM     10  C3' I4B d   1      -3.800  -0.399   3.380  0.00  0.00     0.013 C 
ENDBRANCH   7   8
ENDBRANCH   1   7
TORSDOF 2
ENDMDL
