MODEL 1
REMARK minimizedAffinity 12.6807384
REMARK minimizedRMSD -1
REMARK  2 active torsions:
REMARK  status: ('A' for Active; 'I' for Inactive)
REMARK    1  A    between atoms: C2'_3  and  C1'_4 
REMARK    2  A    between atoms: C1'_4  and  C1_5 
ROOT
ATOM      1  C1  I4B d   1       4.923  -3.219   5.206  0.00  0.00    -0.075 A 
ATOM      2  C2  I4B d   1       6.000  -3.865   5.761  0.00  0.00     0.003 A 
ATOM      3  C3  I4B d   1       5.950  -5.260   5.998  0.00  0.00     0.002 A 
ATOM      4  C4  I4B d   1       4.793  -5.957   5.714  0.00  0.00    -0.004 A 
ATOM      5  C5  I4B d   1       3.711  -5.305   5.130  0.00  0.00     0.002 A 
ATOM      6  C6  I4B d   1       3.780  -3.930   4.863  0.00  0.00     0.003 A 
ENDROOT
BRANCH   1   7
ATOM      7  C1' I4B d   1       4.997  -1.740   5.000  0.00  0.00     0.060 C 
BRANCH   7   8
ATOM      8  C2' I4B d   1       4.904  -1.471   3.512  0.00  0.00    -0.013 C 
ATOM      9  C4' I4B d   1       3.530  -0.984   3.131  0.00  0.00     0.013 C 
ATOM     10  C3' I4B d   1       5.954  -0.460   3.157  0.00  0.00     0.013 C 
ENDBRANCH   7   8
ENDBRANCH   1   7
TORSDOF 2
ENDMDL
