MODEL 1
REMARK minimizedAffinity 3.59927368
REMARK minimizedRMSD -1
REMARK  2 active torsions:
REMARK  status: ('A' for Active; 'I' for Inactive)
REMARK    1  A    between atoms: C2'_3  and  C1'_4 
REMARK    2  A    between atoms: C1'_4  and  C1_5 
ROOT
ATOM      1  C1  I4B d   1       3.839  -4.915   4.828  0.00  0.00    -0.075 A 
ATOM      2  C2  I4B d   1       4.945  -5.411   5.472  0.00  0.00     0.003 A 
ATOM      3  C3  I4B d   1       5.929  -4.528   5.980  0.00  0.00     0.002 A 
ATOM      4  C4  I4B d   1       5.793  -3.170   5.778  0.00  0.00    -0.004 A 
ATOM      5  C5  I4B d   1       4.660  -2.668   5.144  0.00  0.00     0.002 A 
ATOM      6  C6  I4B d   1       3.670  -3.545   4.677  0.00  0.00     0.003 A 
ENDROOT
BRANCH   1   7
ATOM      7  C1' I4B d   1       2.836  -5.878   4.275  0.00  0.00     0.060 C 
BRANCH   7   8
ATOM      8  C2' I4B d   1       3.055  -5.973   2.779  0.00  0.00    -0.013 C 
ATOM      9  C4' I4B d   1       2.398  -4.825   2.058  0.00  0.00     0.013 C 
ATOM     10  C3' I4B d   1       4.533  -5.995   2.528  0.00  0.00     0.013 C 
ENDBRANCH   7   8
ENDBRANCH   1   7
TORSDOF 2
ENDMDL
