MODEL 1
REMARK minimizedAffinity 14.9084911
REMARK minimizedRMSD -1
REMARK  2 active torsions:
REMARK  status: ('A' for Active; 'I' for Inactive)
REMARK    1  A    between atoms: C2'_3  and  C1'_4 
REMARK    2  A    between atoms: C1'_4  and  C1_5 
ROOT
ATOM      1  C1  I4B d   1       0.584  -0.692  -2.004  0.00  0.00    -0.075 A 
ATOM      2  C2  I4B d   1      -0.507  -0.149  -1.373  0.00  0.00     0.003 A 
ATOM      3  C3  I4B d   1      -1.585  -0.975  -0.975  0.00  0.00     0.002 A 
ATOM      4  C4  I4B d   1      -1.554  -2.323  -1.272  0.00  0.00    -0.004 A 
ATOM      5  C5  I4B d   1      -0.438  -2.876  -1.892  0.00  0.00     0.002 A 
ATOM      6  C6  I4B d   1       0.644  -2.058  -2.250  0.00  0.00     0.003 A 
ENDROOT
BRANCH   1   7
ATOM      7  C1' I4B d   1       1.691   0.215  -2.440  0.00  0.00     0.060 C 
BRANCH   7   8
ATOM      8  C2' I4B d   1       1.066   1.453  -3.050  0.00  0.00    -0.013 C 
ATOM      9  C4' I4B d   1       1.919   2.671  -2.805  0.00  0.00     0.013 C 
ATOM     10  C3' I4B d   1       0.885   1.206  -4.518  0.00  0.00     0.013 C 
ENDBRANCH   7   8
ENDBRANCH   1   7
TORSDOF 2
ENDMDL
