MODEL 1
REMARK minimizedAffinity 10.9520493
REMARK minimizedRMSD -1
REMARK  2 active torsions:
REMARK  status: ('A' for Active; 'I' for Inactive)
REMARK    1  A    between atoms: C2'_3  and  C1'_4 
REMARK    2  A    between atoms: C1'_4  and  C1_5 
ROOT
ATOM      1  C1  I4B d   1      -3.668   4.726   4.102  0.00  0.00    -0.075 A 
ATOM      2  C2  I4B d   1      -3.907   5.644   5.094  0.00  0.00     0.003 A 
ATOM      3  C3  I4B d   1      -2.878   6.000   5.999  0.00  0.00     0.002 A 
ATOM      4  C4  I4B d   1      -1.648   5.381   5.906  0.00  0.00    -0.004 A 
ATOM      5  C5  I4B d   1      -1.400   4.468   4.886  0.00  0.00     0.002 A 
ATOM      6  C6  I4B d   1      -2.413   4.147   3.970  0.00  0.00     0.003 A 
ENDROOT
BRANCH   1   7
ATOM      7  C1' I4B d   1      -4.788   4.348   3.184  0.00  0.00     0.060 C 
BRANCH   7   8
ATOM      8  C2' I4B d   1      -4.182   3.870   1.881  0.00  0.00    -0.013 C 
ATOM      9  C4' I4B d   1      -4.583   2.450   1.582  0.00  0.00     0.013 C 
ATOM     10  C3' I4B d   1      -4.630   4.800   0.793  0.00  0.00     0.013 C 
ENDBRANCH   7   8
ENDBRANCH   1   7
TORSDOF 2
ENDMDL
