MODEL 1
REMARK minimizedAffinity 13.4409838
REMARK minimizedRMSD -1
REMARK  2 active torsions:
REMARK  status: ('A' for Active; 'I' for Inactive)
REMARK    1  A    between atoms: C2'_3  and  C1'_4 
REMARK    2  A    between atoms: C1'_4  and  C1_5 
ROOT
ATOM      1  C1  I4B d   1      -2.555   2.578   4.221  0.00  0.00    -0.075 A 
ATOM      2  C2  I4B d   1      -1.884   2.416   3.035  0.00  0.00     0.003 A 
ATOM      3  C3  I4B d   1      -2.116   1.271   2.235  0.00  0.00     0.002 A 
ATOM      4  C4  I4B d   1      -2.984   0.295   2.682  0.00  0.00    -0.004 A 
ATOM      5  C5  I4B d   1      -3.680   0.472   3.874  0.00  0.00     0.002 A 
ATOM      6  C6  I4B d   1      -3.474   1.626   4.643  0.00  0.00     0.003 A 
ENDROOT
BRANCH   1   7
ATOM      7  C1' I4B d   1      -2.261   3.784   5.057  0.00  0.00     0.060 C 
BRANCH   7   8
ATOM      8  C2' I4B d   1      -3.312   4.831   4.751  0.00  0.00    -0.013 C 
ATOM      9  C4' I4B d   1      -4.044   5.249   6.000  0.00  0.00     0.013 C 
ATOM     10  C3' I4B d   1      -2.629   6.000   4.108  0.00  0.00     0.013 C 
ENDBRANCH   7   8
ENDBRANCH   1   7
TORSDOF 2
ENDMDL
