MODEL 1
REMARK minimizedAffinity 13.8670464
REMARK minimizedRMSD -1
REMARK  2 active torsions:
REMARK  status: ('A' for Active; 'I' for Inactive)
REMARK    1  A    between atoms: C2'_3  and  C1'_4 
REMARK    2  A    between atoms: C1'_4  and  C1_5 
ROOT
ATOM      1  C1  I4B d   1      -3.893  -2.222   1.101  0.00  0.00    -0.075 A 
ATOM      2  C2  I4B d   1      -5.245  -2.424   1.227  0.00  0.00     0.003 A 
ATOM      3  C3  I4B d   1      -6.000  -2.904   0.130  0.00  0.00     0.002 A 
ATOM      4  C4  I4B d   1      -5.376  -3.120  -1.082  0.00  0.00    -0.004 A 
ATOM      5  C5  I4B d   1      -4.001  -2.937  -1.202  0.00  0.00     0.002 A 
ATOM      6  C6  I4B d   1      -3.252  -2.497  -0.101  0.00  0.00     0.003 A 
ENDROOT
BRANCH   1   7
ATOM      7  C1' I4B d   1      -3.132  -1.682   2.270  0.00  0.00     0.060 C 
BRANCH   7   8
ATOM      8  C2' I4B d   1      -3.811  -0.404   2.719  0.00  0.00    -0.013 C 
ATOM      9  C4' I4B d   1      -4.247  -0.494   4.157  0.00  0.00     0.013 C 
ATOM     10  C3' I4B d   1      -2.847   0.727   2.514  0.00  0.00     0.013 C 
ENDBRANCH   7   8
ENDBRANCH   1   7
TORSDOF 2
ENDMDL
