MODEL 1
REMARK minimizedAffinity 2.49279737
REMARK minimizedRMSD -1
REMARK  2 active torsions:
REMARK  status: ('A' for Active; 'I' for Inactive)
REMARK    1  A    between atoms: C2'_3  and  C1'_4 
REMARK    2  A    between atoms: C1'_4  and  C1_5 
ROOT
ATOM      1  C1  I4B d   1      -3.438   4.744   2.198  0.00  0.00    -0.075 A 
ATOM      2  C2  I4B d   1      -2.602   4.555   3.271  0.00  0.00     0.003 A 
ATOM      3  C3  I4B d   1      -2.956   5.056   4.547  0.00  0.00     0.002 A 
ATOM      4  C4  I4B d   1      -4.123   5.778   4.694  0.00  0.00    -0.004 A 
ATOM      5  C5  I4B d   1      -4.980   5.948   3.610  0.00  0.00     0.002 A 
ATOM      6  C6  I4B d   1      -4.642   5.417   2.357  0.00  0.00     0.003 A 
ENDROOT
BRANCH   1   7
ATOM      7  C1' I4B d   1      -3.017   4.230   0.858  0.00  0.00     0.060 C 
BRANCH   7   8
ATOM      8  C2' I4B d   1      -2.406   5.383   0.087  0.00  0.00    -0.013 C 
ATOM      9  C4' I4B d   1      -1.259   5.998   0.844  0.00  0.00     0.013 C 
ATOM     10  C3' I4B d   1      -1.958   4.863  -1.247  0.00  0.00     0.013 C 
ENDBRANCH   7   8
ENDBRANCH   1   7
TORSDOF 2
ENDMDL
