MODEL 1
REMARK minimizedAffinity -1.53875589
REMARK minimizedRMSD -1
REMARK  2 active torsions:
REMARK  status: ('A' for Active; 'I' for Inactive)
REMARK    1  A    between atoms: C2'_3  and  C1'_4 
REMARK    2  A    between atoms: C1'_4  and  C1_5 
ROOT
ATOM      1  C1  I4B d   1       4.885  -3.146   5.559  0.00  0.00    -0.075 A 
ATOM      2  C2  I4B d   1       5.999  -3.859   5.926  0.00  0.00     0.003 A 
ATOM      3  C3  I4B d   1       5.999  -5.272   5.846  0.00  0.00     0.002 A 
ATOM      4  C4  I4B d   1       4.855  -5.930   5.444  0.00  0.00    -0.004 A 
ATOM      5  C5  I4B d   1       3.734  -5.205   5.050  0.00  0.00     0.002 A 
ATOM      6  C6  I4B d   1       3.752  -3.804   5.096  0.00  0.00     0.003 A 
ENDROOT
BRANCH   1   7
ATOM      7  C1' I4B d   1       4.907  -1.656   5.688  0.00  0.00     0.060 C 
BRANCH   7   8
ATOM      8  C2' I4B d   1       5.954  -1.121   4.731  0.00  0.00    -0.013 C 
ATOM      9  C4' I4B d   1       5.645  -1.514   3.311  0.00  0.00     0.013 C 
ATOM     10  C3' I4B d   1       6.000   0.371   4.883  0.00  0.00     0.013 C 
ENDBRANCH   7   8
ENDBRANCH   1   7
TORSDOF 2
ENDMDL
