MODEL 1
REMARK minimizedAffinity 5.25250006
REMARK minimizedRMSD -1
REMARK  2 active torsions:
REMARK  status: ('A' for Active; 'I' for Inactive)
REMARK    1  A    between atoms: C2'_3  and  C1'_4 
REMARK    2  A    between atoms: C1'_4  and  C1_5 
ROOT
ATOM      1  C1  I4B d   1       2.320   3.017  -1.793  0.00  0.00    -0.075 A 
ATOM      2  C2  I4B d   1       2.514   2.947  -3.150  0.00  0.00     0.003 A 
ATOM      3  C3  I4B d   1       2.021   1.841  -3.884  0.00  0.00     0.002 A 
ATOM      4  C4  I4B d   1       1.389   0.811  -3.219  0.00  0.00    -0.004 A 
ATOM      5  C5  I4B d   1       1.174   0.894  -1.846  0.00  0.00     0.002 A 
ATOM      6  C6  I4B d   1       1.631   2.010  -1.130  0.00  0.00     0.003 A 
ENDROOT
BRANCH   1   7
ATOM      7  C1' I4B d   1       2.883   4.183  -1.044  0.00  0.00     0.060 C 
BRANCH   7   8
ATOM      8  C2' I4B d   1       2.339   4.136   0.370  0.00  0.00    -0.013 C 
ATOM      9  C4' I4B d   1       3.429   3.837   1.364  0.00  0.00     0.013 C 
ATOM     10  C3' I4B d   1       1.690   5.457   0.660  0.00  0.00     0.013 C 
ENDBRANCH   7   8
ENDBRANCH   1   7
TORSDOF 2
ENDMDL
