MODEL 1
REMARK minimizedAffinity 9.0128603
REMARK minimizedRMSD -1
REMARK  2 active torsions:
REMARK  status: ('A' for Active; 'I' for Inactive)
REMARK    1  A    between atoms: C2'_3  and  C1'_4 
REMARK    2  A    between atoms: C1'_4  and  C1_5 
ROOT
ATOM      1  C1  I4B d   1       2.116  -0.868  -2.363  0.00  0.00    -0.075 A 
ATOM      2  C2  I4B d   1       3.325  -0.314  -2.701  0.00  0.00     0.003 A 
ATOM      3  C3  I4B d   1       3.469   1.093  -2.774  0.00  0.00     0.002 A 
ATOM      4  C4  I4B d   1       2.373   1.901  -2.552  0.00  0.00    -0.004 A 
ATOM      5  C5  I4B d   1       1.153   1.338  -2.186  0.00  0.00     0.002 A 
ATOM      6  C6  I4B d   1       1.026  -0.054  -2.079  0.00  0.00     0.003 A 
ENDROOT
BRANCH   1   7
ATOM      7  C1' I4B d   1       1.990  -2.358  -2.327  0.00  0.00     0.060 C 
BRANCH   7   8
ATOM      8  C2' I4B d   1       1.090  -2.778  -3.472  0.00  0.00    -0.013 C 
ATOM      9  C4' I4B d   1       1.024  -1.712  -4.533  0.00  0.00     0.013 C 
ATOM     10  C3' I4B d   1       1.621  -4.065  -4.030  0.00  0.00     0.013 C 
ENDBRANCH   7   8
ENDBRANCH   1   7
TORSDOF 2
ENDMDL
