MODEL 1
REMARK minimizedAffinity 13.2409363
REMARK minimizedRMSD -1
REMARK  2 active torsions:
REMARK  status: ('A' for Active; 'I' for Inactive)
REMARK    1  A    between atoms: C2'_3  and  C1'_4 
REMARK    2  A    between atoms: C1'_4  and  C1_5 
ROOT
ATOM      1  C1  I4B d   1      -3.741   3.179   3.795  0.00  0.00    -0.075 A 
ATOM      2  C2  I4B d   1      -2.996   2.165   4.344  0.00  0.00     0.003 A 
ATOM      3  C3  I4B d   1      -3.362   0.814   4.127  0.00  0.00     0.002 A 
ATOM      4  C4  I4B d   1      -4.500   0.526   3.402  0.00  0.00    -0.004 A 
ATOM      5  C5  I4B d   1      -5.240   1.555   2.827  0.00  0.00     0.002 A 
ATOM      6  C6  I4B d   1      -4.852   2.889   3.014  0.00  0.00     0.003 A 
ENDROOT
BRANCH   1   7
ATOM      7  C1' I4B d   1      -3.345   4.595   4.072  0.00  0.00     0.060 C 
BRANCH   7   8
ATOM      8  C2' I4B d   1      -3.366   4.800   5.573  0.00  0.00    -0.013 C 
ATOM      9  C4' I4B d   1      -2.546   5.999   5.971  0.00  0.00     0.013 C 
ATOM     10  C3' I4B d   1      -4.795   4.955   6.000  0.00  0.00     0.013 C 
ENDBRANCH   7   8
ENDBRANCH   1   7
TORSDOF 2
ENDMDL
