MODEL 1
REMARK minimizedAffinity 3.91646886
REMARK minimizedRMSD -1
REMARK  2 active torsions:
REMARK  status: ('A' for Active; 'I' for Inactive)
REMARK    1  A    between atoms: C2'_3  and  C1'_4 
REMARK    2  A    between atoms: C1'_4  and  C1_5 
ROOT
ATOM      1  C1  I4B d   1      -4.368   3.576   4.261  0.00  0.00    -0.075 A 
ATOM      2  C2  I4B d   1      -5.285   4.118   5.127  0.00  0.00     0.003 A 
ATOM      3  C3  I4B d   1      -4.909   5.172   5.995  0.00  0.00     0.002 A 
ATOM      4  C4  I4B d   1      -3.602   5.615   6.000  0.00  0.00    -0.004 A 
ATOM      5  C5  I4B d   1      -2.680   5.079   5.105  0.00  0.00     0.002 A 
ATOM      6  C6  I4B d   1      -3.068   4.062   4.221  0.00  0.00     0.003 A 
ENDROOT
BRANCH   1   7
ATOM      7  C1' I4B d   1      -4.790   2.442   3.381  0.00  0.00     0.060 C 
BRANCH   7   8
ATOM      8  C2' I4B d   1      -4.387   1.149   4.060  0.00  0.00    -0.013 C 
ATOM      9  C4' I4B d   1      -5.593   0.386   4.540  0.00  0.00     0.013 C 
ATOM     10  C3' I4B d   1      -3.590   0.341   3.080  0.00  0.00     0.013 C 
ENDBRANCH   7   8
ENDBRANCH   1   7
TORSDOF 2
ENDMDL
