MODEL 1
REMARK minimizedAffinity 14.3903265
REMARK minimizedRMSD -1
REMARK  0 active torsions:
REMARK  status: ('A' for Active; 'I' for Inactive)
ROOT
ATOM      1  N1  IND d   1      -0.852   3.224   4.757  0.00  0.00    -0.196 N 
ATOM      2  C2  IND d   1      -0.318   3.027   6.000  0.00  0.00     0.054 A 
ATOM      3  C3  IND d   1       0.486   1.941   6.000  0.00  0.00    -0.031 A 
ATOM      4  C4  IND d   1       1.150   0.397   4.049  0.00  0.00     0.051 A 
ATOM      5  C5  IND d   1       0.888   0.155   2.730  0.00  0.00    -0.031 A 
ATOM      6  C6  IND d   1       0.018   0.941   2.003  0.00  0.00     0.015 A 
ATOM      7  C7  IND d   1      -0.618   2.010   2.569  0.00  0.00    -0.016 A 
ATOM      8  C8  IND d   1      -0.360   2.255   3.910  0.00  0.00    -0.047 A 
ATOM      9  C9  IND d   1       0.490   1.435   4.664  0.00  0.00    -0.096 A 
ATOM     10  HN1 IND d   1      -1.402   3.848   4.540  0.00  0.00     0.298 HD
ENDROOT
TORSDOF 0
ENDMDL
