MODEL 1
REMARK minimizedAffinity 14.3195047
REMARK minimizedRMSD -1
REMARK  0 active torsions:
REMARK  status: ('A' for Active; 'I' for Inactive)
ROOT
ATOM      1  N1  IND d   1      -5.522   4.521  -2.177  0.00  0.00    -0.196 N 
ATOM      2  C2  IND d   1      -5.755   5.742  -1.609  0.00  0.00     0.054 A 
ATOM      3  C3  IND d   1      -6.000   5.606  -0.286  0.00  0.00    -0.031 A 
ATOM      4  C4  IND d   1      -5.969   3.485   1.173  0.00  0.00     0.051 A 
ATOM      5  C5  IND d   1      -5.841   2.127   1.097  0.00  0.00    -0.031 A 
ATOM      6  C6  IND d   1      -5.592   1.484  -0.099  0.00  0.00     0.015 A 
ATOM      7  C7  IND d   1      -5.450   2.180  -1.266  0.00  0.00    -0.016 A 
ATOM      8  C8  IND d   1      -5.587   3.559  -1.193  0.00  0.00    -0.047 A 
ATOM      9  C9  IND d   1      -5.881   4.213   0.010  0.00  0.00    -0.096 A 
ATOM     10  HN1 IND d   1      -5.361   4.377  -3.010  0.00  0.00     0.298 HD
ENDROOT
TORSDOF 0
ENDMDL
