MODEL 1
REMARK minimizedAffinity 9.93493462
REMARK minimizedRMSD -1
REMARK  0 active torsions:
REMARK  status: ('A' for Active; 'I' for Inactive)
ROOT
ATOM      1  N1  IND d   1       0.077  -0.316  -3.059  0.00  0.00    -0.196 N 
ATOM      2  C2  IND d   1       0.327  -0.682  -4.352  0.00  0.00     0.054 A 
ATOM      3  C3  IND d   1      -0.184  -1.908  -4.601  0.00  0.00    -0.031 A 
ATOM      4  C4  IND d   1      -1.558  -3.450  -3.064  0.00  0.00     0.051 A 
ATOM      5  C5  IND d   1      -2.012  -3.564  -1.779  0.00  0.00    -0.031 A 
ATOM      6  C6  IND d   1      -1.790  -2.580  -0.838  0.00  0.00     0.015 A 
ATOM      7  C7  IND d   1      -1.114  -1.435  -1.150  0.00  0.00    -0.016 A 
ATOM      8  C8  IND d   1      -0.645  -1.319  -2.451  0.00  0.00    -0.047 A 
ATOM      9  C9  IND d   1      -0.830  -2.333  -3.399  0.00  0.00    -0.096 A 
ATOM     10  HN1 IND d   1       0.329   0.418  -2.688  0.00  0.00     0.298 HD
ENDROOT
TORSDOF 0
ENDMDL
