MODEL 1
REMARK minimizedAffinity 7.81153011
REMARK minimizedRMSD -1
REMARK  0 active torsions:
REMARK  status: ('A' for Active; 'I' for Inactive)
ROOT
ATOM      1  N1  IND d   1       1.186  -3.129   3.699  0.00  0.00    -0.196 N 
ATOM      2  C2  IND d   1       1.893  -2.863   4.838  0.00  0.00     0.054 A 
ATOM      3  C3  IND d   1       1.955  -1.530   5.053  0.00  0.00    -0.031 A 
ATOM      4  C4  IND d   1       0.882   0.393   3.720  0.00  0.00     0.051 A 
ATOM      5  C5  IND d   1       0.172   0.649   2.581  0.00  0.00    -0.031 A 
ATOM      6  C6  IND d   1      -0.247  -0.362   1.741  0.00  0.00     0.015 A 
ATOM      7  C7  IND d   1       0.019  -1.673   2.015  0.00  0.00    -0.016 A 
ATOM      8  C8  IND d   1       0.746  -1.936   3.168  0.00  0.00    -0.047 A 
ATOM      9  C9  IND d   1       1.211  -0.912   4.002  0.00  0.00    -0.096 A 
ATOM     10  HN1 IND d   1       1.040  -3.910   3.369  0.00  0.00     0.298 HD
ENDROOT
TORSDOF 0
ENDMDL
