MODEL 1
REMARK minimizedAffinity 7.30814123
REMARK minimizedRMSD -1
REMARK  0 active torsions:
REMARK  status: ('A' for Active; 'I' for Inactive)
ROOT
ATOM      1  N1  IND d   1      -1.758  -4.576  -3.985  0.00  0.00    -0.196 N 
ATOM      2  C2  IND d   1      -1.840  -4.777  -5.335  0.00  0.00     0.054 A 
ATOM      3  C3  IND d   1      -1.335  -3.713  -5.999  0.00  0.00    -0.031 A 
ATOM      4  C4  IND d   1      -0.231  -1.579  -5.074  0.00  0.00     0.051 A 
ATOM      5  C5  IND d   1       0.039  -0.927  -3.904  0.00  0.00    -0.031 A 
ATOM      6  C6  IND d   1      -0.280  -1.470  -2.676  0.00  0.00     0.015 A 
ATOM      7  C7  IND d   1      -0.873  -2.696  -2.572  0.00  0.00    -0.016 A 
ATOM      8  C8  IND d   1      -1.156  -3.358  -3.758  0.00  0.00    -0.047 A 
ATOM      9  C9  IND d   1      -0.873  -2.793  -5.009  0.00  0.00    -0.096 A 
ATOM     10  HN1 IND d   1      -2.036  -5.120  -3.379  0.00  0.00     0.298 HD
ENDROOT
TORSDOF 0
ENDMDL
