MODEL 1
REMARK minimizedAffinity 7.75048256
REMARK minimizedRMSD -1
REMARK  0 active torsions:
REMARK  status: ('A' for Active; 'I' for Inactive)
ROOT
ATOM      1  N1  IND d   1       2.090  -2.129   4.582  0.00  0.00    -0.196 N 
ATOM      2  C2  IND d   1       1.274  -3.184   4.885  0.00  0.00     0.054 A 
ATOM      3  C3  IND d   1       0.051  -3.004   4.339  0.00  0.00    -0.031 A 
ATOM      4  C4  IND d   1      -0.801  -1.105   2.824  0.00  0.00     0.051 A 
ATOM      5  C5  IND d   1      -0.432   0.102   2.298  0.00  0.00    -0.031 A 
ATOM      6  C6  IND d   1       0.823   0.635   2.509  0.00  0.00     0.015 A 
ATOM      7  C7  IND d   1       1.764  -0.026   3.247  0.00  0.00    -0.016 A 
ATOM      8  C8  IND d   1       1.390  -1.248   3.788  0.00  0.00    -0.047 A 
ATOM      9  C9  IND d   1       0.104  -1.774   3.613  0.00  0.00    -0.096 A 
ATOM     10  HN1 IND d   1       2.904  -2.033   4.843  0.00  0.00     0.298 HD
ENDROOT
TORSDOF 0
ENDMDL
