MODEL 1
REMARK minimizedAffinity 5.71516991
REMARK minimizedRMSD -1
REMARK  0 active torsions:
REMARK  status: ('A' for Active; 'I' for Inactive)
ROOT
ATOM      1  N1  IND d   1       0.786  -1.895   2.583  0.00  0.00    -0.196 N 
ATOM      2  C2  IND d   1       1.655  -1.242   3.412  0.00  0.00     0.054 A 
ATOM      3  C3  IND d   1       1.245   0.030   3.615  0.00  0.00    -0.031 A 
ATOM      4  C4  IND d   1      -0.876   1.220   2.770  0.00  0.00     0.051 A 
ATOM      5  C5  IND d   1      -1.956   1.044   1.951  0.00  0.00    -0.031 A 
ATOM      6  C6  IND d   1      -2.184  -0.146   1.291  0.00  0.00     0.015 A 
ATOM      7  C7  IND d   1      -1.342  -1.213   1.433  0.00  0.00    -0.016 A 
ATOM      8  C8  IND d   1      -0.240  -1.035   2.258  0.00  0.00    -0.047 A 
ATOM      9  C9  IND d   1       0.019   0.184   2.898  0.00  0.00    -0.096 A 
ATOM     10  HN1 IND d   1       0.866  -2.707   2.311  0.00  0.00     0.298 HD
ENDROOT
TORSDOF 0
ENDMDL
