MODEL 1
REMARK minimizedAffinity 6.2031126
REMARK minimizedRMSD -1
REMARK  0 active torsions:
REMARK  status: ('A' for Active; 'I' for Inactive)
ROOT
ATOM      1  N1  IND d   1      -0.770  -3.767  -1.866  0.00  0.00    -0.196 N 
ATOM      2  C2  IND d   1      -0.727  -2.413  -2.055  0.00  0.00     0.054 A 
ATOM      3  C3  IND d   1      -1.010  -2.109  -3.342  0.00  0.00    -0.031 A 
ATOM      4  C4  IND d   1      -1.672  -3.665  -5.283  0.00  0.00     0.051 A 
ATOM      5  C5  IND d   1      -1.810  -4.986  -5.605  0.00  0.00    -0.031 A 
ATOM      6  C6  IND d   1      -1.608  -5.988  -4.678  0.00  0.00     0.015 A 
ATOM      7  C7  IND d   1      -1.269  -5.705  -3.386  0.00  0.00    -0.016 A 
ATOM      8  C8  IND d   1      -1.120  -4.365  -3.056  0.00  0.00    -0.047 A 
ATOM      9  C9  IND d   1      -1.283  -3.346  -4.003  0.00  0.00    -0.096 A 
ATOM     10  HN1 IND d   1      -0.606  -4.175  -1.127  0.00  0.00     0.298 HD
ENDROOT
TORSDOF 0
ENDMDL
