MODEL 1
REMARK minimizedAffinity 12.0159006
REMARK minimizedRMSD -1
REMARK  0 active torsions:
REMARK  status: ('A' for Active; 'I' for Inactive)
ROOT
ATOM      1  N1  IND d   1       3.156  -1.458  -2.879  0.00  0.00    -0.196 N 
ATOM      2  C2  IND d   1       3.242  -0.615  -3.952  0.00  0.00     0.054 A 
ATOM      3  C3  IND d   1       2.008  -0.230  -4.347  0.00  0.00    -0.031 A 
ATOM      4  C4  IND d   1      -0.286  -0.778  -3.316  0.00  0.00     0.051 A 
ATOM      5  C5  IND d   1      -0.877  -1.538  -2.345  0.00  0.00    -0.031 A 
ATOM      6  C6  IND d   1      -0.138  -2.324  -1.484  0.00  0.00     0.015 A 
ATOM      7  C7  IND d   1       1.225  -2.371  -1.554  0.00  0.00    -0.016 A 
ATOM      8  C8  IND d   1       1.828  -1.606  -2.543  0.00  0.00    -0.047 A 
ATOM      9  C9  IND d   1       1.081  -0.839  -3.447  0.00  0.00    -0.096 A 
ATOM     10  HN1 IND d   1       3.820  -1.833  -2.481  0.00  0.00     0.298 HD
ENDROOT
TORSDOF 0
ENDMDL
