MODEL 1
REMARK minimizedAffinity 14.0982723
REMARK minimizedRMSD -1
REMARK  0 active torsions:
REMARK  status: ('A' for Active; 'I' for Inactive)
ROOT
ATOM      1  N1  IND d   1       0.492  -2.525  -0.386  0.00  0.00    -0.196 N 
ATOM      2  C2  IND d   1      -0.481  -1.960  -1.163  0.00  0.00     0.054 A 
ATOM      3  C3  IND d   1      -0.935  -0.821  -0.594  0.00  0.00    -0.031 A 
ATOM      4  C4  IND d   1      -0.153   0.357   1.557  0.00  0.00     0.051 A 
ATOM      5  C5  IND d   1       0.685   0.204   2.626  0.00  0.00    -0.031 A 
ATOM      6  C6  IND d   1       1.521  -0.888   2.746  0.00  0.00     0.015 A 
ATOM      7  C7  IND d   1       1.558  -1.865   1.792  0.00  0.00    -0.016 A 
ATOM      8  C8  IND d   1       0.702  -1.716   0.709  0.00  0.00    -0.047 A 
ATOM      9  C9  IND d   1      -0.178  -0.632   0.603  0.00  0.00    -0.096 A 
ATOM     10  HN1 IND d   1       0.903  -3.261  -0.554  0.00  0.00     0.298 HD
ENDROOT
TORSDOF 0
ENDMDL
