MODEL 1
REMARK minimizedAffinity 13.7383671
REMARK minimizedRMSD -1
REMARK  0 active torsions:
REMARK  status: ('A' for Active; 'I' for Inactive)
ROOT
ATOM      1  N1  IND d   1       1.093  -0.888  -5.094  0.00  0.00    -0.196 N 
ATOM      2  C2  IND d   1       1.748  -0.161  -4.140  0.00  0.00     0.054 A 
ATOM      3  C3  IND d   1       1.165  -0.336  -2.932  0.00  0.00    -0.031 A 
ATOM      4  C4  IND d   1      -0.810  -1.851  -2.275  0.00  0.00     0.051 A 
ATOM      5  C5  IND d   1      -1.756  -2.680  -2.809  0.00  0.00    -0.031 A 
ATOM      6  C6  IND d   1      -1.800  -2.962  -4.159  0.00  0.00     0.015 A 
ATOM      7  C7  IND d   1      -0.889  -2.432  -5.027  0.00  0.00    -0.016 A 
ATOM      8  C8  IND d   1       0.069  -1.584  -4.490  0.00  0.00    -0.047 A 
ATOM      9  C9  IND d   1       0.093  -1.261  -3.127  0.00  0.00    -0.096 A 
ATOM     10  HN1 IND d   1       1.288  -0.908  -5.931  0.00  0.00     0.298 HD
ENDROOT
TORSDOF 0
ENDMDL
