MODEL 1
REMARK minimizedAffinity 8.04208851
REMARK minimizedRMSD -1
REMARK  0 active torsions:
REMARK  status: ('A' for Active; 'I' for Inactive)
ROOT
ATOM      1  N1  IND d   1       3.994  -3.937   5.430  0.00  0.00    -0.196 N 
ATOM      2  C2  IND d   1       5.122  -3.414   5.999  0.00  0.00     0.054 A 
ATOM      3  C3  IND d   1       5.296  -2.133   5.605  0.00  0.00    -0.031 A 
ATOM      4  C4  IND d   1       3.801  -0.663   4.112  0.00  0.00     0.051 A 
ATOM      5  C5  IND d   1       2.682  -0.710   3.329  0.00  0.00    -0.031 A 
ATOM      6  C6  IND d   1       1.926  -1.858   3.206  0.00  0.00     0.015 A 
ATOM      7  C7  IND d   1       2.257  -3.004   3.873  0.00  0.00    -0.016 A 
ATOM      8  C8  IND d   1       3.397  -2.961   4.664  0.00  0.00    -0.047 A 
ATOM      9  C9  IND d   1       4.191  -1.811   4.759  0.00  0.00    -0.096 A 
ATOM     10  HN1 IND d   1       3.707  -4.741   5.533  0.00  0.00     0.298 HD
ENDROOT
TORSDOF 0
ENDMDL
