MODEL 1
REMARK minimizedAffinity 7.22905874
REMARK minimizedRMSD -1
REMARK  2 active torsions:
REMARK  status: ('A' for Active; 'I' for Inactive)
REMARK    1  A    between atoms: C1_2  and  C2_3 
REMARK    2  A    between atoms: C2_3  and  C3_4 
ROOT
ATOM      1  C3  UNL d   1      -2.305   1.348  -0.378  0.00  0.00    -0.075 A 
ATOM      2  C4  UNL d   1      -2.697   0.830  -1.621  0.00  0.00     0.002 A 
ATOM      3  C5  UNL d   1      -2.352  -0.472  -1.985  0.00  0.00     0.002 A 
ATOM      4  C6  UNL d   1      -1.604  -1.266  -1.119  0.00  0.00    -0.004 A 
ATOM      5  C7  UNL d   1      -1.195  -0.756   0.111  0.00  0.00     0.002 A 
ATOM      6  C8  UNL d   1      -1.543   0.545   0.481  0.00  0.00     0.002 A 
ENDROOT
BRANCH   1   7
ATOM      7  C2  UNL d   1      -2.701   2.746   0.035  0.00  0.00     0.056 C 
BRANCH   7   8
ATOM      8  C1  UNL d   1      -3.173   2.856   1.489  0.00  0.00     0.007 C 
ATOM      9  C   UNL d   1      -4.682   3.016   1.620  0.00  0.00     0.009 C 
ENDBRANCH   7   8
ENDBRANCH   1   7
TORSDOF 2
ENDMDL
