MODEL 1
REMARK minimizedAffinity 10.1443281
REMARK minimizedRMSD -1
REMARK  2 active torsions:
REMARK  status: ('A' for Active; 'I' for Inactive)
REMARK    1  A    between atoms: C1_2  and  C2_3 
REMARK    2  A    between atoms: C2_3  and  C3_4 
ROOT
ATOM      1  C3  UNL d   1       3.754   1.860   3.619  0.00  0.00    -0.075 A 
ATOM      2  C4  UNL d   1       4.873   1.857   4.464  0.00  0.00     0.002 A 
ATOM      3  C5  UNL d   1       4.868   1.113   5.645  0.00  0.00     0.002 A 
ATOM      4  C6  UNL d   1       3.743   0.372   6.000  0.00  0.00    -0.004 A 
ATOM      5  C7  UNL d   1       2.619   0.381   5.176  0.00  0.00     0.002 A 
ATOM      6  C8  UNL d   1       2.623   1.121   3.992  0.00  0.00     0.002 A 
ENDROOT
BRANCH   1   7
ATOM      7  C2  UNL d   1       3.764   2.639   2.326  0.00  0.00     0.056 C 
BRANCH   7   8
ATOM      8  C1  UNL d   1       3.744   1.763   1.069  0.00  0.00     0.007 C 
ATOM      9  C   UNL d   1       2.366   1.200   0.752  0.00  0.00     0.009 C 
ENDBRANCH   7   8
ENDBRANCH   1   7
TORSDOF 2
ENDMDL
