MODEL 1
REMARK minimizedAffinity 7.9940505
REMARK minimizedRMSD -1
REMARK  2 active torsions:
REMARK  status: ('A' for Active; 'I' for Inactive)
REMARK    1  A    between atoms: C1_2  and  C2_3 
REMARK    2  A    between atoms: C2_3  and  C3_4 
ROOT
ATOM      1  C3  UNL d   1       1.336  -0.830   2.564  0.00  0.00    -0.075 A 
ATOM      2  C4  UNL d   1       2.380  -1.628   2.073  0.00  0.00     0.002 A 
ATOM      3  C5  UNL d   1       2.921  -2.648   2.855  0.00  0.00     0.002 A 
ATOM      4  C6  UNL d   1       2.433  -2.878   4.140  0.00  0.00    -0.004 A 
ATOM      5  C7  UNL d   1       1.408  -2.081   4.645  0.00  0.00     0.002 A 
ATOM      6  C8  UNL d   1       0.862  -1.062   3.862  0.00  0.00     0.002 A 
ENDROOT
BRANCH   1   7
ATOM      7  C2  UNL d   1       0.727   0.257   1.711  0.00  0.00     0.056 C 
BRANCH   7   8
ATOM      8  C1  UNL d   1      -0.537  -0.175   0.961  0.00  0.00     0.007 C 
ATOM      9  C   UNL d   1      -1.483   0.981   0.663  0.00  0.00     0.009 C 
ENDBRANCH   7   8
ENDBRANCH   1   7
TORSDOF 2
ENDMDL
