MODEL 1
REMARK minimizedAffinity 3.23637938
REMARK minimizedRMSD -1
REMARK  2 active torsions:
REMARK  status: ('A' for Active; 'I' for Inactive)
REMARK    1  A    between atoms: C1_2  and  C2_3 
REMARK    2  A    between atoms: C2_3  and  C3_4 
ROOT
ATOM      1  C3  UNL d   1       3.909  -1.341   3.505  0.00  0.00    -0.075 A 
ATOM      2  C4  UNL d   1       2.981  -2.355   3.785  0.00  0.00     0.002 A 
ATOM      3  C5  UNL d   1       1.622  -2.160   3.538  0.00  0.00     0.002 A 
ATOM      4  C6  UNL d   1       1.173  -0.948   3.019  0.00  0.00    -0.004 A 
ATOM      5  C7  UNL d   1       2.083   0.072   2.752  0.00  0.00     0.002 A 
ATOM      6  C8  UNL d   1       3.444  -0.122   2.994  0.00  0.00     0.002 A 
ENDROOT
BRANCH   1   7
ATOM      7  C2  UNL d   1       5.384  -1.557   3.742  0.00  0.00     0.056 C 
BRANCH   7   8
ATOM      8  C1  UNL d   1       5.710  -2.832   4.527  0.00  0.00     0.007 C 
ATOM      9  C   UNL d   1       6.000  -2.573   6.000  0.00  0.00     0.009 C 
ENDBRANCH   7   8
ENDBRANCH   1   7
TORSDOF 2
ENDMDL
