MODEL 1
REMARK minimizedAffinity 7.83324862
REMARK minimizedRMSD -1
REMARK  2 active torsions:
REMARK  status: ('A' for Active; 'I' for Inactive)
REMARK    1  A    between atoms: C1_2  and  C2_3 
REMARK    2  A    between atoms: C2_3  and  C3_4 
ROOT
ATOM      1  C3  UNL d   1       1.124  -0.624   1.196  0.00  0.00    -0.075 A 
ATOM      2  C4  UNL d   1       1.471  -1.504   0.160  0.00  0.00     0.002 A 
ATOM      3  C5  UNL d   1       0.498  -1.983  -0.718  0.00  0.00     0.002 A 
ATOM      4  C6  UNL d   1      -0.832  -1.598  -0.566  0.00  0.00    -0.004 A 
ATOM      5  C7  UNL d   1      -1.190  -0.737   0.469  0.00  0.00     0.002 A 
ATOM      6  C8  UNL d   1      -0.219  -0.253   1.347  0.00  0.00     0.002 A 
ENDROOT
BRANCH   1   7
ATOM      7  C2  UNL d   1       2.177  -0.078   2.131  0.00  0.00     0.056 C 
BRANCH   7   8
ATOM      8  C1  UNL d   1       2.004  -0.518   3.589  0.00  0.00     0.007 C 
ATOM      9  C   UNL d   1       2.318  -1.992   3.812  0.00  0.00     0.009 C 
ENDBRANCH   7   8
ENDBRANCH   1   7
TORSDOF 2
ENDMDL
