MODEL 1
REMARK minimizedAffinity 2.77769065
REMARK minimizedRMSD -1
REMARK  2 active torsions:
REMARK  status: ('A' for Active; 'I' for Inactive)
REMARK    1  A    between atoms: C1_2  and  C2_3 
REMARK    2  A    between atoms: C2_3  and  C3_4 
ROOT
ATOM      1  C3  UNL d   1       3.198   4.459  -5.881  0.00  0.00    -0.075 A 
ATOM      2  C4  UNL d   1       3.782   5.730  -5.981  0.00  0.00     0.002 A 
ATOM      3  C5  UNL d   1       5.169   5.873  -5.994  0.00  0.00     0.002 A 
ATOM      4  C6  UNL d   1       5.989   4.751  -5.896  0.00  0.00    -0.004 A 
ATOM      5  C7  UNL d   1       5.420   3.485  -5.779  0.00  0.00     0.002 A 
ATOM      6  C8  UNL d   1       4.031   3.338  -5.770  0.00  0.00     0.002 A 
ENDROOT
BRANCH   1   7
ATOM      7  C2  UNL d   1       1.696   4.295  -5.896  0.00  0.00     0.056 C 
BRANCH   7   8
ATOM      8  C1  UNL d   1       1.128   3.639  -4.634  0.00  0.00     0.007 C 
ATOM      9  C   UNL d   1      -0.152   2.854  -4.890  0.00  0.00     0.009 C 
ENDBRANCH   7   8
ENDBRANCH   1   7
TORSDOF 2
ENDMDL
