MODEL 1
REMARK minimizedAffinity 9.60619068
REMARK minimizedRMSD -1
REMARK  2 active torsions:
REMARK  status: ('A' for Active; 'I' for Inactive)
REMARK    1  A    between atoms: C1_2  and  C2_3 
REMARK    2  A    between atoms: C2_3  and  C3_4 
ROOT
ATOM      1  C3  UNL d   1       5.601   3.734  -5.253  0.00  0.00    -0.075 A 
ATOM      2  C4  UNL d   1       5.172   2.628  -6.000  0.00  0.00     0.002 A 
ATOM      3  C5  UNL d   1       5.105   1.362  -5.416  0.00  0.00     0.002 A 
ATOM      4  C6  UNL d   1       5.475   1.185  -4.085  0.00  0.00    -0.004 A 
ATOM      5  C7  UNL d   1       5.919   2.275  -3.338  0.00  0.00     0.002 A 
ATOM      6  C8  UNL d   1       5.982   3.543  -3.918  0.00  0.00     0.002 A 
ENDROOT
BRANCH   1   7
ATOM      7  C2  UNL d   1       5.647   5.112  -5.870  0.00  0.00     0.056 C 
BRANCH   7   8
ATOM      8  C1  UNL d   1       4.345   5.906  -5.722  0.00  0.00     0.007 C 
ATOM      9  C   UNL d   1       3.097   5.046  -5.876  0.00  0.00     0.009 C 
ENDBRANCH   7   8
ENDBRANCH   1   7
TORSDOF 2
ENDMDL
