MODEL 1
REMARK minimizedAffinity 7.55577993
REMARK minimizedRMSD -1
REMARK  2 active torsions:
REMARK  status: ('A' for Active; 'I' for Inactive)
REMARK    1  A    between atoms: C1_2  and  C2_3 
REMARK    2  A    between atoms: C2_3  and  C3_4 
ROOT
ATOM      1  C3  UNL d   1       2.191  -1.765   2.699  0.00  0.00    -0.075 A 
ATOM      2  C4  UNL d   1       1.839  -0.763   1.783  0.00  0.00     0.002 A 
ATOM      3  C5  UNL d   1       1.242  -1.095   0.566  0.00  0.00     0.002 A 
ATOM      4  C6  UNL d   1       1.000  -2.429   0.246  0.00  0.00    -0.004 A 
ATOM      5  C7  UNL d   1       1.361  -3.433   1.142  0.00  0.00     0.002 A 
ATOM      6  C8  UNL d   1       1.954  -3.104   2.362  0.00  0.00     0.002 A 
ENDROOT
BRANCH   1   7
ATOM      7  C2  UNL d   1       2.811  -1.411   4.030  0.00  0.00     0.056 C 
BRANCH   7   8
ATOM      8  C1  UNL d   1       4.079  -2.205   4.359  0.00  0.00     0.007 C 
ATOM      9  C   UNL d   1       3.961  -3.021   5.640  0.00  0.00     0.009 C 
ENDBRANCH   7   8
ENDBRANCH   1   7
TORSDOF 2
ENDMDL
