MODEL 1
REMARK minimizedAffinity 7.18114233
REMARK minimizedRMSD -1
REMARK  2 active torsions:
REMARK  status: ('A' for Active; 'I' for Inactive)
REMARK    1  A    between atoms: C1_2  and  C2_3 
REMARK    2  A    between atoms: C2_3  and  C3_4 
ROOT
ATOM      1  C3  UNL d   1       2.762   4.729  -5.852  0.00  0.00    -0.075 A 
ATOM      2  C4  UNL d   1       3.516   3.550  -5.769  0.00  0.00     0.002 A 
ATOM      3  C5  UNL d   1       4.910   3.599  -5.779  0.00  0.00     0.002 A 
ATOM      4  C6  UNL d   1       5.567   4.823  -5.882  0.00  0.00    -0.004 A 
ATOM      5  C7  UNL d   1       4.827   6.000  -5.982  0.00  0.00     0.002 A 
ATOM      6  C8  UNL d   1       3.432   5.954  -5.968  0.00  0.00     0.002 A 
ENDROOT
BRANCH   1   7
ATOM      7  C2  UNL d   1       1.253   4.686  -5.812  0.00  0.00     0.056 C 
BRANCH   7   8
ATOM      8  C1  UNL d   1       0.674   4.392  -4.424  0.00  0.00     0.007 C 
ATOM      9  C   UNL d   1       0.017   3.022  -4.325  0.00  0.00     0.009 C 
ENDBRANCH   7   8
ENDBRANCH   1   7
TORSDOF 2
ENDMDL
