MODEL 1
REMARK minimizedAffinity 10.6560621
REMARK minimizedRMSD -1
REMARK  2 active torsions:
REMARK  status: ('A' for Active; 'I' for Inactive)
REMARK    1  A    between atoms: C1_2  and  C2_3 
REMARK    2  A    between atoms: C2_3  and  C3_4 
ROOT
ATOM      1  C3  UNL d   1      -1.760   1.553  -2.375  0.00  0.00    -0.075 A 
ATOM      2  C4  UNL d   1      -1.029   0.407  -2.030  0.00  0.00     0.002 A 
ATOM      3  C5  UNL d   1      -1.644  -0.651  -1.359  0.00  0.00     0.002 A 
ATOM      4  C6  UNL d   1      -2.992  -0.572  -1.017  0.00  0.00    -0.004 A 
ATOM      5  C7  UNL d   1      -3.724   0.568  -1.341  0.00  0.00     0.002 A 
ATOM      6  C8  UNL d   1      -3.112   1.626  -2.015  0.00  0.00     0.002 A 
ENDROOT
BRANCH   1   7
ATOM      7  C2  UNL d   1      -1.107   2.688  -3.127  0.00  0.00     0.056 C 
BRANCH   7   8
ATOM      8  C1  UNL d   1      -0.267   2.240  -4.328  0.00  0.00     0.007 C 
ATOM      9  C   UNL d   1       0.788   3.259  -4.736  0.00  0.00     0.009 C 
ENDBRANCH   7   8
ENDBRANCH   1   7
TORSDOF 2
ENDMDL
