MODEL 1
REMARK minimizedAffinity 1.94617081
REMARK minimizedRMSD -1
REMARK  2 active torsions:
REMARK  status: ('A' for Active; 'I' for Inactive)
REMARK    1  A    between atoms: C1_2  and  C2_3 
REMARK    2  A    between atoms: C2_3  and  C3_4 
ROOT
ATOM      1  C3  UNL d   1       2.809  -3.397   0.985  0.00  0.00    -0.075 A 
ATOM      2  C4  UNL d   1       1.914  -4.475   0.928  0.00  0.00     0.002 A 
ATOM      3  C5  UNL d   1       2.376  -5.768   0.683  0.00  0.00     0.002 A 
ATOM      4  C6  UNL d   1       3.735  -5.998   0.482  0.00  0.00    -0.004 A 
ATOM      5  C7  UNL d   1       4.632  -4.933   0.519  0.00  0.00     0.002 A 
ATOM      6  C8  UNL d   1       4.173  -3.639   0.769  0.00  0.00     0.002 A 
ENDROOT
BRANCH   1   7
ATOM      7  C2  UNL d   1       2.319  -2.000   1.279  0.00  0.00     0.056 C 
BRANCH   7   8
ATOM      8  C1  UNL d   1       1.522  -1.880   2.582  0.00  0.00     0.007 C 
ATOM      9  C   UNL d   1       0.018  -2.011   2.381  0.00  0.00     0.009 C 
ENDBRANCH   7   8
ENDBRANCH   1   7
TORSDOF 2
ENDMDL
