MODEL 1
REMARK minimizedAffinity 2.00245929
REMARK minimizedRMSD -1
REMARK  2 active torsions:
REMARK  status: ('A' for Active; 'I' for Inactive)
REMARK    1  A    between atoms: C1_2  and  C2_3 
REMARK    2  A    between atoms: C2_3  and  C3_4 
ROOT
ATOM      1  C3  UNL d   1       2.518  -2.704   0.421  0.00  0.00    -0.075 A 
ATOM      2  C4  UNL d   1       1.802  -3.013  -0.744  0.00  0.00     0.002 A 
ATOM      3  C5  UNL d   1       0.694  -2.252  -1.117  0.00  0.00     0.002 A 
ATOM      4  C6  UNL d   1       0.283  -1.181  -0.327  0.00  0.00    -0.004 A 
ATOM      5  C7  UNL d   1       0.977  -0.875   0.841  0.00  0.00     0.002 A 
ATOM      6  C8  UNL d   1       2.089  -1.632   1.215  0.00  0.00     0.002 A 
ENDROOT
BRANCH   1   7
ATOM      7  C2  UNL d   1       3.736  -3.506   0.815  0.00  0.00     0.056 C 
BRANCH   7   8
ATOM      8  C1  UNL d   1       5.057  -2.931   0.293  0.00  0.00     0.007 C 
ATOM      9  C   UNL d   1       4.866  -1.870  -0.783  0.00  0.00     0.009 C 
ENDBRANCH   7   8
ENDBRANCH   1   7
TORSDOF 2
ENDMDL
