MODEL 1
REMARK minimizedAffinity -0.92840606
REMARK minimizedRMSD -1
REMARK  1 active torsions:
REMARK  status: ('A' for Active; 'I' for Inactive)
REMARK    1  A    between atoms: N_2  and  C1_3 
ROOT
ATOM      1  C1  UNL d   1       2.425   5.239   5.277  0.00  0.00     0.143 A 
ATOM      2  C2  UNL d   1       2.908   4.230   4.436  0.00  0.00    -0.057 A 
ATOM      3  C3  UNL d   1       4.278   3.957   4.343  0.00  0.00     0.033 A 
ATOM      4  C4  UNL d   1       5.194   4.709   5.071  0.00  0.00    -0.042 A 
ATOM      5  C5  UNL d   1       4.739   5.733   5.894  0.00  0.00     0.033 A 
ATOM      6  C6  UNL d   1       3.369   5.997   5.987  0.00  0.00    -0.057 A 
ENDROOT
BRANCH   1   7
ATOM      7  N   UNL d   1       1.083   5.624   5.338  0.00  0.00    -0.732 N 
ATOM      8  C   UNL d   1       0.356   5.956   4.131  0.00  0.00     0.284 C 
ATOM      9  H3  UNL d   1       0.551   5.072   6.006  0.00  0.00     0.395 HD
ENDBRANCH   1   7
TORSDOF 1
ENDMDL
