MODEL 1
REMARK minimizedAffinity 5.37548685
REMARK minimizedRMSD -1
REMARK  1 active torsions:
REMARK  status: ('A' for Active; 'I' for Inactive)
REMARK    1  A    between atoms: N_2  and  C1_3 
ROOT
ATOM      1  C1  UNL d   1      -4.422   3.541   3.151  0.00  0.00     0.143 A 
ATOM      2  C2  UNL d   1      -4.483   2.233   2.660  0.00  0.00    -0.057 A 
ATOM      3  C3  UNL d   1      -3.870   1.881   1.451  0.00  0.00     0.033 A 
ATOM      4  C4  UNL d   1      -3.207   2.843   0.695  0.00  0.00    -0.042 A 
ATOM      5  C5  UNL d   1      -3.155   4.155   1.152  0.00  0.00     0.033 A 
ATOM      6  C6  UNL d   1      -3.764   4.498   2.363  0.00  0.00    -0.057 A 
ENDROOT
BRANCH   1   7
ATOM      7  N   UNL d   1      -5.095   3.974   4.296  0.00  0.00    -0.732 N 
ATOM      8  C   UNL d   1      -5.990   5.110   4.240  0.00  0.00     0.284 C 
ATOM      9  H3  UNL d   1      -5.440   3.201   4.860  0.00  0.00     0.395 HD
ENDBRANCH   1   7
TORSDOF 1
ENDMDL
