MODEL 1
REMARK minimizedAffinity 0.897861242
REMARK minimizedRMSD -1
REMARK  1 active torsions:
REMARK  status: ('A' for Active; 'I' for Inactive)
REMARK    1  A    between atoms: N_2  and  C1_3 
ROOT
ATOM      1  C1  UNL d   1       0.524   3.711   2.208  0.00  0.00     0.143 A 
ATOM      2  C2  UNL d   1       0.255   5.084   2.236  0.00  0.00    -0.057 A 
ATOM      3  C3  UNL d   1       1.193   5.998   2.732  0.00  0.00     0.033 A 
ATOM      4  C4  UNL d   1       2.409   5.550   3.238  0.00  0.00    -0.042 A 
ATOM      5  C5  UNL d   1       2.687   4.188   3.244  0.00  0.00     0.033 A 
ATOM      6  C6  UNL d   1       1.749   3.281   2.741  0.00  0.00    -0.057 A 
ENDROOT
BRANCH   1   7
ATOM      7  N   UNL d   1      -0.406   2.744   1.819  0.00  0.00    -0.732 N 
ATOM      8  C   UNL d   1       0.010   1.383   1.560  0.00  0.00     0.284 C 
ATOM      9  H3  UNL d   1      -1.283   2.821   2.329  0.00  0.00     0.395 HD
ENDBRANCH   1   7
TORSDOF 1
ENDMDL
