MODEL 1
REMARK minimizedAffinity 3.66262269
REMARK minimizedRMSD -1
REMARK  1 active torsions:
REMARK  status: ('A' for Active; 'I' for Inactive)
REMARK    1  A    between atoms: N_2  and  C1_3 
ROOT
ATOM      1  C1  UNL d   1       3.702   0.870  -0.640  0.00  0.00     0.143 A 
ATOM      2  C2  UNL d   1       2.324   1.008  -0.446  0.00  0.00    -0.057 A 
ATOM      3  C3  UNL d   1       1.507  -0.106  -0.216  0.00  0.00     0.033 A 
ATOM      4  C4  UNL d   1       2.053  -1.386  -0.205  0.00  0.00    -0.042 A 
ATOM      5  C5  UNL d   1       3.417  -1.549  -0.421  0.00  0.00     0.033 A 
ATOM      6  C6  UNL d   1       4.228  -0.432  -0.643  0.00  0.00    -0.057 A 
ENDROOT
BRANCH   1   7
ATOM      7  N   UNL d   1       4.551   1.929  -0.971  0.00  0.00    -0.732 N 
ATOM      8  C   UNL d   1       5.116   2.033  -2.299  0.00  0.00     0.284 C 
ATOM      9  H3  UNL d   1       4.237   2.815  -0.582  0.00  0.00     0.395 HD
ENDBRANCH   1   7
TORSDOF 1
ENDMDL
