MODEL 1
REMARK minimizedAffinity 0.576121926
REMARK minimizedRMSD -1
REMARK  1 active torsions:
REMARK  status: ('A' for Active; 'I' for Inactive)
REMARK    1  A    between atoms: N_2  and  C1_3 
ROOT
ATOM      1  C1  UNL d   1       2.721  -0.854  -0.241  0.00  0.00     0.143 A 
ATOM      2  C2  UNL d   1       4.066  -0.682  -0.582  0.00  0.00    -0.057 A 
ATOM      3  C3  UNL d   1       4.631   0.595  -0.690  0.00  0.00     0.033 A 
ATOM      4  C4  UNL d   1       3.849   1.727  -0.486  0.00  0.00    -0.042 A 
ATOM      5  C5  UNL d   1       2.502   1.581  -0.171  0.00  0.00     0.033 A 
ATOM      6  C6  UNL d   1       1.946   0.303  -0.058  0.00  0.00    -0.057 A 
ENDROOT
BRANCH   1   7
ATOM      7  N   UNL d   1       2.077  -2.094  -0.214  0.00  0.00    -0.732 N 
ATOM      8  C   UNL d   1       0.984  -2.376  -1.119  0.00  0.00     0.284 C 
ATOM      9  H3  UNL d   1       2.728  -2.866  -0.094  0.00  0.00     0.395 HD
ENDBRANCH   1   7
TORSDOF 1
ENDMDL
