MODEL 1
REMARK minimizedAffinity -3.79462314
REMARK minimizedRMSD -1
REMARK  1 active torsions:
REMARK  status: ('A' for Active; 'I' for Inactive)
REMARK    1  A    between atoms: N_2  and  C1_3 
ROOT
ATOM      1  C1  UNL d   1       3.061   4.316   4.857  0.00  0.00     0.143 A 
ATOM      2  C2  UNL d   1       2.147   4.313   3.799  0.00  0.00    -0.057 A 
ATOM      3  C3  UNL d   1       1.005   5.124   3.823  0.00  0.00     0.033 A 
ATOM      4  C4  UNL d   1       0.742   5.933   4.924  0.00  0.00    -0.042 A 
ATOM      5  C5  UNL d   1       1.624   5.932   5.999  0.00  0.00     0.033 A 
ATOM      6  C6  UNL d   1       2.766   5.126   5.965  0.00  0.00    -0.057 A 
ENDROOT
BRANCH   1   7
ATOM      7  N   UNL d   1       4.162   3.460   4.936  0.00  0.00    -0.732 N 
ATOM      8  C   UNL d   1       4.258   2.478   5.995  0.00  0.00     0.284 C 
ATOM      9  H3  UNL d   1       4.453   3.117   4.024  0.00  0.00     0.395 HD
ENDBRANCH   1   7
TORSDOF 1
ENDMDL
