MODEL 1
REMARK minimizedAffinity 6.93973351
REMARK minimizedRMSD -1
REMARK  1 active torsions:
REMARK  status: ('A' for Active; 'I' for Inactive)
REMARK    1  A    between atoms: N_2  and  C1_3 
ROOT
ATOM      1  C1  UNL d   1       3.316   1.121  -0.255  0.00  0.00     0.143 A 
ATOM      2  C2  UNL d   1       4.294   1.264   0.735  0.00  0.00    -0.057 A 
ATOM      3  C3  UNL d   1       5.620   1.569   0.407  0.00  0.00     0.033 A 
ATOM      4  C4  UNL d   1       6.000   1.707  -0.924  0.00  0.00    -0.042 A 
ATOM      5  C5  UNL d   1       5.050   1.544  -1.926  0.00  0.00     0.033 A 
ATOM      6  C6  UNL d   1       3.725   1.247  -1.592  0.00  0.00    -0.057 A 
ENDROOT
BRANCH   1   7
ATOM      7  N   UNL d   1       2.002   0.721   0.001  0.00  0.00    -0.732 N 
ATOM      8  C   UNL d   1       0.887   1.432  -0.587  0.00  0.00     0.284 C 
ATOM      9  H3  UNL d   1       1.896  -0.291   0.001  0.00  0.00     0.395 HD
ENDBRANCH   1   7
TORSDOF 1
ENDMDL
