MODEL 1
REMARK minimizedAffinity 3.39928102
REMARK minimizedRMSD -1
REMARK  1 active torsions:
REMARK  status: ('A' for Active; 'I' for Inactive)
REMARK    1  A    between atoms: N_2  and  C1_3 
ROOT
ATOM      1  C1  UNL d   1       3.579   3.971   5.867  0.00  0.00     0.143 A 
ATOM      2  C2  UNL d   1       2.549   3.027   5.920  0.00  0.00    -0.057 A 
ATOM      3  C3  UNL d   1       2.824   1.656   5.999  0.00  0.00     0.033 A 
ATOM      4  C4  UNL d   1       4.139   1.203   5.998  0.00  0.00    -0.042 A 
ATOM      5  C5  UNL d   1       5.179   2.123   5.921  0.00  0.00     0.033 A 
ATOM      6  C6  UNL d   1       4.898   3.491   5.848  0.00  0.00    -0.057 A 
ENDROOT
BRANCH   1   7
ATOM      7  N   UNL d   1       3.370   5.341   5.688  0.00  0.00    -0.732 N 
ATOM      8  C   UNL d   1       3.792   5.998   4.469  0.00  0.00     0.284 C 
ATOM      9  H3  UNL d   1       2.460   5.643   6.029  0.00  0.00     0.395 HD
ENDBRANCH   1   7
TORSDOF 1
ENDMDL
