MODEL 1
REMARK minimizedAffinity -2.45648575
REMARK minimizedRMSD -1
REMARK  1 active torsions:
REMARK  status: ('A' for Active; 'I' for Inactive)
REMARK    1  A    between atoms: C1_2  and  C2_3 
ROOT
ATOM      1  C2  UNL d   1      -0.790   0.188  -0.982  0.00  0.00    -0.081 A 
ATOM      2  C3  UNL d   1      -1.691   0.101   0.087  0.00  0.00     0.006 A 
ATOM      3  C4  UNL d   1      -1.270  -0.369   1.332  0.00  0.00     0.002 A 
ATOM      4  C5  UNL d   1       0.060  -0.754   1.533  0.00  0.00    -0.080 A 
ATOM      5  C6  UNL d   1       0.533  -1.233   2.874  0.00  0.00     0.076 C 
ATOM      6  C7  UNL d   1       0.957  -0.684   0.461  0.00  0.00     0.002 A 
ATOM      7  C8  UNL d   1       0.536  -0.214  -0.785  0.00  0.00     0.006 A 
ENDROOT
BRANCH   1   8
ATOM      8  C1  UNL d   1      -1.226   0.756  -2.308  0.00  0.00     0.054 C 
ATOM      9  C   UNL d   1      -0.837   2.222  -2.437  0.00  0.00     0.018 C 
ENDBRANCH   1   8
TORSDOF 1
ENDMDL
