MODEL 1
REMARK minimizedAffinity -2.80812335
REMARK minimizedRMSD -1
REMARK  1 active torsions:
REMARK  status: ('A' for Active; 'I' for Inactive)
REMARK    1  A    between atoms: C1_2  and  C2_3 
ROOT
ATOM      1  C2  UNL d   1      -0.760   0.534  -1.280  0.00  0.00    -0.081 A 
ATOM      2  C3  UNL d   1      -1.505   0.736  -0.112  0.00  0.00     0.006 A 
ATOM      3  C4  UNL d   1      -1.100   0.160   1.094  0.00  0.00     0.002 A 
ATOM      4  C5  UNL d   1       0.058  -0.621   1.155  0.00  0.00    -0.080 A 
ATOM      5  C6  UNL d   1       0.520  -1.221   2.450  0.00  0.00     0.076 C 
ATOM      6  C7  UNL d   1       0.793  -0.838  -0.016  0.00  0.00     0.002 A 
ATOM      7  C8  UNL d   1       0.389  -0.263  -1.223  0.00  0.00     0.006 A 
ENDROOT
BRANCH   1   8
ATOM      8  C1  UNL d   1      -1.157   1.207  -2.569  0.00  0.00     0.054 C 
ATOM      9  C   UNL d   1      -0.679   2.652  -2.609  0.00  0.00     0.018 C 
ENDBRANCH   1   8
TORSDOF 1
ENDMDL
