MODEL 1
REMARK minimizedAffinity -2.96190166
REMARK minimizedRMSD -1
REMARK  1 active torsions:
REMARK  status: ('A' for Active; 'I' for Inactive)
REMARK    1  A    between atoms: C1_2  and  C2_3 
ROOT
ATOM      1  C2  UNL d   1      -0.302   0.163  -0.524  0.00  0.00    -0.081 A 
ATOM      2  C3  UNL d   1       1.058  -0.033  -0.254  0.00  0.00     0.006 A 
ATOM      3  C4  UNL d   1       1.491  -0.285   1.050  0.00  0.00     0.002 A 
ATOM      4  C5  UNL d   1       0.572  -0.351   2.103  0.00  0.00    -0.080 A 
ATOM      5  C6  UNL d   1       1.021  -0.650   3.503  0.00  0.00     0.076 C 
ATOM      6  C7  UNL d   1      -0.784  -0.138   1.836  0.00  0.00     0.002 A 
ATOM      7  C8  UNL d   1      -1.218   0.114   0.532  0.00  0.00     0.006 A 
ENDROOT
BRANCH   1   8
ATOM      8  C1  UNL d   1      -0.780   0.370  -1.939  0.00  0.00     0.054 C 
ATOM      9  C   UNL d   1      -0.773   1.845  -2.315  0.00  0.00     0.018 C 
ENDBRANCH   1   8
TORSDOF 1
ENDMDL
