MODEL 1
REMARK minimizedAffinity -4.02336216
REMARK minimizedRMSD -1
REMARK  1 active torsions:
REMARK  status: ('A' for Active; 'I' for Inactive)
REMARK    1  A    between atoms: C1_2  and  C2_3 
ROOT
ATOM      1  C2  UNL d   1      -0.240   0.454  -0.833  0.00  0.00    -0.081 A 
ATOM      2  C3  UNL d   1      -1.031   0.332   0.316  0.00  0.00     0.006 A 
ATOM      3  C4  UNL d   1      -0.480  -0.148   1.507  0.00  0.00     0.002 A 
ATOM      4  C5  UNL d   1       0.871  -0.506   1.570  0.00  0.00    -0.080 A 
ATOM      5  C6  UNL d   1       1.482  -0.994   2.850  0.00  0.00     0.076 C 
ATOM      6  C7  UNL d   1       1.657  -0.401   0.418  0.00  0.00     0.002 A 
ATOM      7  C8  UNL d   1       1.107   0.078  -0.773  0.00  0.00     0.006 A 
ENDROOT
BRANCH   1   8
ATOM      8  C1  UNL d   1      -0.815   1.032  -2.101  0.00  0.00     0.054 C 
ATOM      9  C   UNL d   1      -0.824   2.554  -2.061  0.00  0.00     0.018 C 
ENDBRANCH   1   8
TORSDOF 1
ENDMDL
