MODEL 1
REMARK minimizedAffinity -4.32694292
REMARK minimizedRMSD -1
REMARK  1 active torsions:
REMARK  status: ('A' for Active; 'I' for Inactive)
REMARK    1  A    between atoms: C1_2  and  C2_3 
ROOT
ATOM      1  C2  UNL d   1      -0.246   0.187  -0.338  0.00  0.00    -0.081 A 
ATOM      2  C3  UNL d   1      -0.957   0.157   0.868  0.00  0.00     0.006 A 
ATOM      3  C4  UNL d   1      -0.326  -0.234   2.052  0.00  0.00     0.002 A 
ATOM      4  C5  UNL d   1       1.026  -0.593   2.051  0.00  0.00    -0.080 A 
ATOM      5  C6  UNL d   1       1.723  -0.986   3.320  0.00  0.00     0.076 C 
ATOM      6  C7  UNL d   1       1.731  -0.580   0.843  0.00  0.00     0.002 A 
ATOM      7  C8  UNL d   1       1.101  -0.190  -0.341  0.00  0.00     0.006 A 
ENDROOT
BRANCH   1   8
ATOM      8  C1  UNL d   1      -0.906   0.670  -1.604  0.00  0.00     0.054 C 
ATOM      9  C   UNL d   1      -0.281   1.969  -2.093  0.00  0.00     0.018 C 
ENDBRANCH   1   8
TORSDOF 1
ENDMDL
