MODEL 1
REMARK minimizedAffinity -1.04924476
REMARK minimizedRMSD -1
REMARK  1 active torsions:
REMARK  status: ('A' for Active; 'I' for Inactive)
REMARK    1  A    between atoms: C1_2  and  C2_3 
ROOT
ATOM      1  C2  UNL d   1      -0.732   0.740  -1.297  0.00  0.00    -0.081 A 
ATOM      2  C3  UNL d   1      -1.571   0.717  -0.176  0.00  0.00     0.006 A 
ATOM      3  C4  UNL d   1      -1.145   0.126   1.015  0.00  0.00     0.002 A 
ATOM      4  C5  UNL d   1       0.129  -0.445   1.108  0.00  0.00    -0.080 A 
ATOM      5  C6  UNL d   1       0.610  -1.056   2.391  0.00  0.00     0.076 C 
ATOM      6  C7  UNL d   1       0.961  -0.437  -0.017  0.00  0.00     0.002 A 
ATOM      7  C8  UNL d   1       0.535   0.153  -1.208  0.00  0.00     0.006 A 
ENDROOT
BRANCH   1   8
ATOM      8  C1  UNL d   1      -1.164   1.435  -2.564  0.00  0.00     0.054 C 
ATOM      9  C   UNL d   1      -0.712   2.888  -2.580  0.00  0.00     0.018 C 
ENDBRANCH   1   8
TORSDOF 1
ENDMDL
