MODEL 1
REMARK minimizedAffinity -2.54991126
REMARK minimizedRMSD -1
REMARK  1 active torsions:
REMARK  status: ('A' for Active; 'I' for Inactive)
REMARK    1  A    between atoms: C1_2  and  C2_3 
ROOT
ATOM      1  C2  UNL d   1      -0.139   0.274  -0.569  0.00  0.00    -0.081 A 
ATOM      2  C3  UNL d   1      -1.013   0.198   0.522  0.00  0.00     0.006 A 
ATOM      3  C4  UNL d   1      -0.544  -0.192   1.779  0.00  0.00     0.002 A 
ATOM      4  C5  UNL d   1       0.806  -0.504   1.968  0.00  0.00    -0.080 A 
ATOM      5  C6  UNL d   1       1.328  -0.894   3.318  0.00  0.00     0.076 C 
ATOM      6  C7  UNL d   1       1.676  -0.445   0.874  0.00  0.00     0.002 A 
ATOM      7  C8  UNL d   1       1.208  -0.056  -0.383  0.00  0.00     0.006 A 
ENDROOT
BRANCH   1   8
ATOM      8  C1  UNL d   1      -0.628   0.757  -1.911  0.00  0.00     0.054 C 
ATOM      9  C   UNL d   1      -0.257   2.214  -2.144  0.00  0.00     0.018 C 
ENDBRANCH   1   8
TORSDOF 1
ENDMDL
