MODEL 1
REMARK minimizedAffinity -2.51290035
REMARK minimizedRMSD -1
REMARK  1 active torsions:
REMARK  status: ('A' for Active; 'I' for Inactive)
REMARK    1  A    between atoms: C1_2  and  C2_3 
ROOT
ATOM      1  C2  UNL d   1       1.061  -0.152   0.355  0.00  0.00    -0.081 A 
ATOM      2  C3  UNL d   1       0.749  -0.463   1.684  0.00  0.00     0.006 A 
ATOM      3  C4  UNL d   1      -0.574  -0.419   2.130  0.00  0.00     0.002 A 
ATOM      4  C5  UNL d   1      -1.607  -0.070   1.253  0.00  0.00    -0.080 A 
ATOM      5  C6  UNL d   1      -3.035  -0.048   1.711  0.00  0.00     0.076 C 
ATOM      6  C7  UNL d   1      -1.293   0.257  -0.070  0.00  0.00     0.002 A 
ATOM      7  C8  UNL d   1       0.029   0.213  -0.517  0.00  0.00     0.006 A 
ENDROOT
BRANCH   1   8
ATOM      8  C1  UNL d   1       2.479  -0.262  -0.145  0.00  0.00     0.054 C 
ATOM      9  C   UNL d   1       2.581  -1.240  -1.307  0.00  0.00     0.018 C 
ENDBRANCH   1   8
TORSDOF 1
ENDMDL
