MODEL 1
REMARK minimizedAffinity -0.0299687348
REMARK minimizedRMSD -1
REMARK  1 active torsions:
REMARK  status: ('A' for Active; 'I' for Inactive)
REMARK    1  A    between atoms: C1_2  and  C2_3 
ROOT
ATOM      1  C2  UNL d   1      -0.897  -0.180   1.624  0.00  0.00    -0.081 A 
ATOM      2  C3  UNL d   1      -0.606   0.219   0.314  0.00  0.00     0.006 A 
ATOM      3  C4  UNL d   1       0.697   0.127  -0.182  0.00  0.00     0.002 A 
ATOM      4  C5  UNL d   1       1.728  -0.372   0.621  0.00  0.00    -0.080 A 
ATOM      5  C6  UNL d   1       3.125  -0.505   0.092  0.00  0.00     0.076 C 
ATOM      6  C7  UNL d   1       1.441  -0.754   1.936  0.00  0.00     0.002 A 
ATOM      7  C8  UNL d   1       0.138  -0.662   2.432  0.00  0.00     0.006 A 
ENDROOT
BRANCH   1   8
ATOM      8  C1  UNL d   1      -2.313  -0.143   2.140  0.00  0.00     0.054 C 
ATOM      9  C   UNL d   1      -3.270  -0.833   1.180  0.00  0.00     0.018 C 
ENDBRANCH   1   8
TORSDOF 1
ENDMDL
