MODEL 1
REMARK minimizedAffinity -5.28111553
REMARK minimizedRMSD -1
REMARK  1 active torsions:
REMARK  status: ('A' for Active; 'I' for Inactive)
REMARK    1  A    between atoms: C1_2  and  C2_3 
ROOT
ATOM      1  C2  UNL d   1       0.185  -1.038   1.811  0.00  0.00    -0.081 A 
ATOM      2  C3  UNL d   1       1.160  -1.104   0.809  0.00  0.00     0.006 A 
ATOM      3  C4  UNL d   1       1.012  -0.373  -0.373  0.00  0.00     0.002 A 
ATOM      4  C5  UNL d   1      -0.108   0.442  -0.568  0.00  0.00    -0.080 A 
ATOM      5  C6  UNL d   1      -0.264   1.255  -1.818  0.00  0.00     0.076 C 
ATOM      6  C7  UNL d   1      -1.091   0.494   0.426  0.00  0.00     0.002 A 
ATOM      7  C8  UNL d   1      -0.944  -0.237   1.607  0.00  0.00     0.006 A 
ENDROOT
BRANCH   1   8
ATOM      8  C1  UNL d   1       0.372  -1.774   3.113  0.00  0.00     0.054 C 
ATOM      9  C   UNL d   1       1.717  -1.447   3.745  0.00  0.00     0.018 C 
ENDBRANCH   1   8
TORSDOF 1
ENDMDL
