MODEL 1
REMARK minimizedAffinity -4.968225
REMARK minimizedRMSD -1
REMARK  1 active torsions:
REMARK  status: ('A' for Active; 'I' for Inactive)
REMARK    1  A    between atoms: C1_2  and  C2_3 
ROOT
ATOM      1  C2  UNL d   1      -0.134  -0.083  -0.598  0.00  0.00    -0.081 A 
ATOM      2  C3  UNL d   1      -0.929   0.006   0.551  0.00  0.00     0.006 A 
ATOM      3  C4  UNL d   1      -0.380  -0.235   1.813  0.00  0.00     0.002 A 
ATOM      4  C5  UNL d   1       0.974  -0.560   1.947  0.00  0.00    -0.080 A 
ATOM      5  C6  UNL d   1       1.583  -0.791   3.298  0.00  0.00     0.076 C 
ATOM      6  C7  UNL d   1       1.765  -0.666   0.798  0.00  0.00     0.002 A 
ATOM      7  C8  UNL d   1       1.216  -0.426  -0.464  0.00  0.00     0.006 A 
ENDROOT
BRANCH   1   8
ATOM      8  C1  UNL d   1      -0.708   0.240  -1.954  0.00  0.00     0.054 C 
ATOM      9  C   UNL d   1      -0.656   1.734  -2.236  0.00  0.00     0.018 C 
ENDBRANCH   1   8
TORSDOF 1
ENDMDL
