MODEL 1
REMARK minimizedAffinity 9.20478058
REMARK minimizedRMSD -1
REMARK  1 active torsions:
REMARK  status: ('A' for Active; 'I' for Inactive)
REMARK    1  A    between atoms: C1_2  and  C2_3 
ROOT
ATOM      1  C2  UNL d   1       0.751   1.115   4.118  0.00  0.00    -0.081 A 
ATOM      2  C3  UNL d   1      -0.324   1.759   3.493  0.00  0.00     0.006 A 
ATOM      3  C4  UNL d   1      -0.997   1.146   2.433  0.00  0.00     0.002 A 
ATOM      4  C5  UNL d   1      -0.613  -0.123   1.987  0.00  0.00    -0.080 A 
ATOM      5  C6  UNL d   1      -1.347  -0.805   0.871  0.00  0.00     0.076 C 
ATOM      6  C7  UNL d   1       0.471  -0.759   2.601  0.00  0.00     0.002 A 
ATOM      7  C8  UNL d   1       1.146  -0.146   3.660  0.00  0.00     0.006 A 
ENDROOT
BRANCH   1   8
ATOM      8  C1  UNL d   1       1.437   1.746   5.303  0.00  0.00     0.054 C 
ATOM      9  C   UNL d   1       0.529   2.749   6.000  0.00  0.00     0.018 C 
ENDBRANCH   1   8
TORSDOF 1
ENDMDL
