MODEL 1
REMARK minimizedAffinity 14.9328423
REMARK minimizedRMSD -1
REMARK  1 active torsions:
REMARK  status: ('A' for Active; 'I' for Inactive)
REMARK    1  A    between atoms: C1_2  and  C2_3 
ROOT
ATOM      1  C2  UNL d   1       0.379   1.459   4.227  0.00  0.00    -0.081 A 
ATOM      2  C3  UNL d   1       1.099   0.258   4.238  0.00  0.00     0.006 A 
ATOM      3  C4  UNL d   1       1.069  -0.596   3.133  0.00  0.00     0.002 A 
ATOM      4  C5  UNL d   1       0.326  -0.261   1.997  0.00  0.00    -0.080 A 
ATOM      5  C6  UNL d   1       0.310  -1.154   0.792  0.00  0.00     0.076 C 
ATOM      6  C7  UNL d   1      -0.408   0.930   1.992  0.00  0.00     0.002 A 
ATOM      7  C8  UNL d   1      -0.379   1.785   3.097  0.00  0.00     0.006 A 
ENDROOT
BRANCH   1   8
ATOM      8  C1  UNL d   1       0.461   2.412   5.391  0.00  0.00     0.054 C 
ATOM      9  C   UNL d   1      -0.912   2.662   6.000  0.00  0.00     0.018 C 
ENDBRANCH   1   8
TORSDOF 1
ENDMDL
