MODEL 1
REMARK minimizedAffinity 17.2375088
REMARK minimizedRMSD -1
REMARK  1 active torsions:
REMARK  status: ('A' for Active; 'I' for Inactive)
REMARK    1  A    between atoms: C1_2  and  C2_3 
ROOT
ATOM      1  C2  UNL d   1       4.131  -0.135  -5.191  0.00  0.00    -0.081 A 
ATOM      2  C3  UNL d   1       5.397  -0.048  -5.784  0.00  0.00     0.006 A 
ATOM      3  C4  UNL d   1       5.998   1.195  -5.990  0.00  0.00     0.002 A 
ATOM      4  C5  UNL d   1       5.349   2.371  -5.599  0.00  0.00    -0.080 A 
ATOM      5  C6  UNL d   1       5.997   3.711  -5.787  0.00  0.00     0.076 C 
ATOM      6  C7  UNL d   1       4.078   2.286  -5.023  0.00  0.00     0.002 A 
ATOM      7  C8  UNL d   1       3.475   1.042  -4.817  0.00  0.00     0.006 A 
ENDROOT
BRANCH   1   8
ATOM      8  C1  UNL d   1       3.508  -1.478  -4.909  0.00  0.00     0.054 C 
ATOM      9  C   UNL d   1       1.989  -1.388  -4.880  0.00  0.00     0.018 C 
ENDBRANCH   1   8
TORSDOF 1
ENDMDL
