MODEL 1
REMARK minimizedAffinity 18.6135387
REMARK minimizedRMSD -1
REMARK  1 active torsions:
REMARK  status: ('A' for Active; 'I' for Inactive)
REMARK    1  A    between atoms: C1_2  and  C2_3 
ROOT
ATOM      1  C2  UNL d   1       4.938   2.608  -5.801  0.00  0.00    -0.081 A 
ATOM      2  C3  UNL d   1       3.642   2.083  -5.875  0.00  0.00     0.006 A 
ATOM      3  C4  UNL d   1       3.412   0.727  -5.633  0.00  0.00     0.002 A 
ATOM      4  C5  UNL d   1       4.472  -0.125  -5.304  0.00  0.00    -0.080 A 
ATOM      5  C6  UNL d   1       4.234  -1.577  -5.011  0.00  0.00     0.076 C 
ATOM      6  C7  UNL d   1       5.769   0.395  -5.246  0.00  0.00     0.002 A 
ATOM      7  C8  UNL d   1       6.000   1.751  -5.490  0.00  0.00     0.006 A 
ENDROOT
BRANCH   1   8
ATOM      8  C1  UNL d   1       5.181   4.082  -5.999  0.00  0.00     0.054 C 
ATOM      9  C   UNL d   1       3.874   4.863  -6.000  0.00  0.00     0.018 C 
ENDBRANCH   1   8
TORSDOF 1
ENDMDL
