MODEL 1
REMARK minimizedAffinity 4.2537384
REMARK minimizedRMSD -1
REMARK  0 active torsions:
REMARK  status: ('A' for Active; 'I' for Inactive)
ROOT
ATOM      1  C1  DEN d   1      -2.662  -5.924  -4.062  0.00  0.00     0.130 A 
ATOM      2  C2  DEN d   1      -2.636  -5.958  -2.602  0.00  0.00    -0.031 A 
ATOM      3  C3  DEN d   1      -1.224  -5.993  -2.172  0.00  0.00     0.027 A 
ATOM      4  C4  DEN d   1       0.913  -5.993  -3.616  0.00  0.00     0.027 A 
ATOM      5  C5  DEN d   1       1.396  -5.983  -4.905  0.00  0.00    -0.003 A 
ATOM      6  C6  DEN d   1       0.567  -5.987  -5.996  0.00  0.00     0.001 A 
ATOM      7  C7  DEN d   1      -0.790  -5.955  -5.816  0.00  0.00     0.017 A 
ATOM      8  C8  DEN d   1      -1.285  -5.973  -4.519  0.00  0.00    -0.094 A 
ATOM      9  C9  DEN d   1      -0.431  -5.956  -3.430  0.00  0.00    -0.072 A 
ENDROOT
TORSDOF 0
ENDMDL
