MODEL 1
REMARK minimizedAffinity 7.02037764
REMARK minimizedRMSD -1
REMARK  0 active torsions:
REMARK  status: ('A' for Active; 'I' for Inactive)
ROOT
ATOM      1  C1  DEN d   1       1.267  -5.981  -5.992  0.00  0.00     0.130 A 
ATOM      2  C2  DEN d   1       2.496  -5.929  -5.205  0.00  0.00    -0.031 A 
ATOM      3  C3  DEN d   1       2.123  -5.910  -3.776  0.00  0.00     0.027 A 
ATOM      4  C4  DEN d   1      -0.226  -5.959  -2.712  0.00  0.00     0.027 A 
ATOM      5  C5  DEN d   1      -1.578  -5.992  -2.976  0.00  0.00    -0.003 A 
ATOM      6  C6  DEN d   1      -2.073  -5.989  -4.253  0.00  0.00     0.001 A 
ATOM      7  C7  DEN d   1      -1.208  -5.998  -5.316  0.00  0.00     0.017 A 
ATOM      8  C8  DEN d   1       0.155  -5.958  -5.058  0.00  0.00    -0.094 A 
ATOM      9  C9  DEN d   1       0.636  -5.973  -3.760  0.00  0.00    -0.072 A 
ENDROOT
TORSDOF 0
ENDMDL
