MODEL 1
REMARK minimizedAffinity 15.3912096
REMARK minimizedRMSD -1
REMARK  0 active torsions:
REMARK  status: ('A' for Active; 'I' for Inactive)
ROOT
ATOM      1  C1  DEN d   1      -1.443  -5.840  -5.040  0.00  0.00     0.130 A 
ATOM      2  C2  DEN d   1      -1.974  -5.889  -3.680  0.00  0.00    -0.031 A 
ATOM      3  C3  DEN d   1      -0.832  -5.951  -2.746  0.00  0.00     0.027 A 
ATOM      4  C4  DEN d   1       1.694  -5.972  -3.271  0.00  0.00     0.027 A 
ATOM      5  C5  DEN d   1       2.631  -5.958  -4.281  0.00  0.00    -0.003 A 
ATOM      6  C6  DEN d   1       2.278  -5.937  -5.604  0.00  0.00     0.001 A 
ATOM      7  C7  DEN d   1       0.954  -5.886  -5.953  0.00  0.00     0.017 A 
ATOM      8  C8  DEN d   1       0.003  -5.908  -4.941  0.00  0.00    -0.094 A 
ATOM      9  C9  DEN d   1       0.380  -5.916  -3.608  0.00  0.00    -0.072 A 
ENDROOT
TORSDOF 0
ENDMDL
