MODEL 1
REMARK minimizedAffinity 8.33649349
REMARK minimizedRMSD -1
REMARK  0 active torsions:
REMARK  status: ('A' for Active; 'I' for Inactive)
ROOT
ATOM      1  C1  DEN d   1      -1.216  -5.967  -2.099  0.00  0.00     0.130 A 
ATOM      2  C2  DEN d   1       0.029  -5.987  -1.335  0.00  0.00    -0.031 A 
ATOM      3  C3  DEN d   1       1.152  -5.997  -2.293  0.00  0.00     0.027 A 
ATOM      4  C4  DEN d   1       1.086  -5.979  -4.871  0.00  0.00     0.027 A 
ATOM      5  C5  DEN d   1       0.260  -5.973  -5.973  0.00  0.00    -0.003 A 
ATOM      6  C6  DEN d   1      -1.105  -6.000  -5.862  0.00  0.00     0.001 A 
ATOM      7  C7  DEN d   1      -1.686  -5.987  -4.621  0.00  0.00     0.017 A 
ATOM      8  C8  DEN d   1      -0.859  -6.000  -3.505  0.00  0.00    -0.094 A 
ATOM      9  C9  DEN d   1       0.519  -5.961  -3.639  0.00  0.00    -0.072 A 
ENDROOT
TORSDOF 0
ENDMDL
