MODEL 1
REMARK minimizedAffinity 0.538777828
REMARK minimizedRMSD -1
REMARK  0 active torsions:
REMARK  status: ('A' for Active; 'I' for Inactive)
ROOT
ATOM      1  C1  DEN d   1      -0.585  -5.998  -5.018  0.00  0.00     0.130 A 
ATOM      2  C2  DEN d   1       0.758  -5.962  -4.447  0.00  0.00    -0.031 A 
ATOM      3  C3  DEN d   1       0.629  -5.943  -2.976  0.00  0.00     0.027 A 
ATOM      4  C4  DEN d   1      -1.511  -5.973  -1.535  0.00  0.00     0.027 A 
ATOM      5  C5  DEN d   1      -2.888  -5.992  -1.570  0.00  0.00    -0.003 A 
ATOM      6  C6  DEN d   1      -3.588  -5.980  -2.747  0.00  0.00     0.001 A 
ATOM      7  C7  DEN d   1      -2.913  -5.994  -3.939  0.00  0.00     0.017 A 
ATOM      8  C8  DEN d   1      -1.525  -5.967  -3.912  0.00  0.00    -0.094 A 
ATOM      9  C9  DEN d   1      -0.835  -5.992  -2.712  0.00  0.00    -0.072 A 
ENDROOT
TORSDOF 0
ENDMDL
