MODEL 1
REMARK minimizedAffinity 0.984811783
REMARK minimizedRMSD -1
REMARK  0 active torsions:
REMARK  status: ('A' for Active; 'I' for Inactive)
ROOT
ATOM      1  C1  DEN d   1      -1.082  -5.900  -5.982  0.00  0.00     0.130 A 
ATOM      2  C2  DEN d   1       0.375  -5.824  -5.918  0.00  0.00    -0.031 A 
ATOM      3  C3  DEN d   1       0.771  -5.821  -4.495  0.00  0.00     0.027 A 
ATOM      4  C4  DEN d   1      -0.724  -5.932  -2.396  0.00  0.00     0.027 A 
ATOM      5  C5  DEN d   1      -2.024  -5.996  -1.945  0.00  0.00    -0.003 A 
ATOM      6  C6  DEN d   1      -3.094  -5.998  -2.801  0.00  0.00     0.001 A 
ATOM      7  C7  DEN d   1      -2.881  -5.981  -4.154  0.00  0.00     0.017 A 
ATOM      8  C8  DEN d   1      -1.573  -5.909  -4.615  0.00  0.00    -0.094 A 
ATOM      9  C9  DEN d   1      -0.504  -5.920  -3.735  0.00  0.00    -0.072 A 
ENDROOT
TORSDOF 0
ENDMDL
