MODEL 1
REMARK minimizedAffinity -1.66418242
REMARK minimizedRMSD -1
REMARK  0 active torsions:
REMARK  status: ('A' for Active; 'I' for Inactive)
ROOT
ATOM      1  C1  DEN d   1       1.335  -5.979  -2.878  0.00  0.00     0.130 A 
ATOM      2  C2  DEN d   1       2.274  -5.979  -3.997  0.00  0.00    -0.031 A 
ATOM      3  C3  DEN d   1       1.492  -5.965  -5.250  0.00  0.00     0.027 A 
ATOM      4  C4  DEN d   1      -1.068  -5.937  -5.564  0.00  0.00     0.027 A 
ATOM      5  C5  DEN d   1      -2.280  -5.943  -4.908  0.00  0.00    -0.003 A 
ATOM      6  C6  DEN d   1      -2.371  -5.994  -3.543  0.00  0.00     0.001 A 
ATOM      7  C7  DEN d   1      -1.229  -5.997  -2.786  0.00  0.00     0.017 A 
ATOM      8  C8  DEN d   1      -0.004  -5.999  -3.440  0.00  0.00    -0.094 A 
ATOM      9  C9  DEN d   1       0.067  -5.935  -4.821  0.00  0.00    -0.072 A 
ENDROOT
TORSDOF 0
ENDMDL
