MODEL 1
REMARK minimizedAffinity -1.85614061
REMARK minimizedRMSD -1
REMARK  0 active torsions:
REMARK  status: ('A' for Active; 'I' for Inactive)
ROOT
ATOM      1  C1  DEN d   1      -1.928  -5.980  -2.147  0.00  0.00     0.130 A 
ATOM      2  C2  DEN d   1      -2.951  -5.932  -3.189  0.00  0.00    -0.031 A 
ATOM      3  C3  DEN d   1      -2.268  -5.917  -4.499  0.00  0.00     0.027 A 
ATOM      4  C4  DEN d   1       0.259  -5.968  -5.011  0.00  0.00     0.027 A 
ATOM      5  C5  DEN d   1       1.518  -5.999  -4.452  0.00  0.00    -0.003 A 
ATOM      6  C6  DEN d   1       1.715  -5.991  -3.097  0.00  0.00     0.001 A 
ATOM      7  C7  DEN d   1       0.635  -5.997  -2.254  0.00  0.00     0.017 A 
ATOM      8  C8  DEN d   1      -0.637  -5.959  -2.810  0.00  0.00    -0.094 A 
ATOM      9  C9  DEN d   1      -0.815  -5.979  -4.183  0.00  0.00    -0.072 A 
ENDROOT
TORSDOF 0
ENDMDL
