MODEL 1
REMARK minimizedAffinity -2.74870515
REMARK minimizedRMSD -1
REMARK  0 active torsions:
REMARK  status: ('A' for Active; 'I' for Inactive)
ROOT
ATOM      1  C1  DEN d   1       1.060  -5.961  -3.944  0.00  0.00     0.130 A 
ATOM      2  C2  DEN d   1       0.999  -5.982  -5.403  0.00  0.00    -0.031 A 
ATOM      3  C3  DEN d   1      -0.423  -5.996  -5.800  0.00  0.00     0.027 A 
ATOM      4  C4  DEN d   1      -2.526  -5.982  -4.306  0.00  0.00     0.027 A 
ATOM      5  C5  DEN d   1      -2.978  -5.977  -3.005  0.00  0.00    -0.003 A 
ATOM      6  C6  DEN d   1      -2.124  -6.000  -1.935  0.00  0.00     0.001 A 
ATOM      7  C7  DEN d   1      -0.771  -5.984  -2.146  0.00  0.00     0.017 A 
ATOM      8  C8  DEN d   1      -0.307  -5.997  -3.455  0.00  0.00    -0.094 A 
ATOM      9  C9  DEN d   1      -1.186  -5.961  -4.523  0.00  0.00    -0.072 A 
ENDROOT
TORSDOF 0
ENDMDL
