MODEL 1
REMARK minimizedAffinity 12.032259
REMARK minimizedRMSD -1
REMARK  0 active torsions:
REMARK  status: ('A' for Active; 'I' for Inactive)
ROOT
ATOM      1  C1  DEN d   1       1.797  -5.967  -4.130  0.00  0.00     0.130 A 
ATOM      2  C2  DEN d   1       1.808  -5.903  -2.671  0.00  0.00    -0.031 A 
ATOM      3  C3  DEN d   1       0.407  -5.880  -2.205  0.00  0.00     0.027 A 
ATOM      4  C4  DEN d   1      -1.766  -5.942  -3.593  0.00  0.00     0.027 A 
ATOM      5  C5  DEN d   1      -2.282  -5.986  -4.869  0.00  0.00    -0.003 A 
ATOM      6  C6  DEN d   1      -1.481  -5.992  -5.981  0.00  0.00     0.001 A 
ATOM      7  C7  DEN d   1      -0.119  -6.000  -5.835  0.00  0.00     0.017 A 
ATOM      8  C8  DEN d   1       0.408  -5.948  -4.552  0.00  0.00    -0.094 A 
ATOM      9  C9  DEN d   1      -0.418  -5.954  -3.441  0.00  0.00    -0.072 A 
ENDROOT
TORSDOF 0
ENDMDL
