MODEL 1
REMARK minimizedAffinity 9.1335392
REMARK minimizedRMSD -1
REMARK  0 active torsions:
REMARK  status: ('A' for Active; 'I' for Inactive)
ROOT
ATOM      1  C1  DEN d   1      -0.830  -5.963  -2.828  0.00  0.00     0.130 A 
ATOM      2  C2  DEN d   1      -1.995  -5.954  -3.708  0.00  0.00    -0.031 A 
ATOM      3  C3  DEN d   1      -1.512  -5.963  -5.104  0.00  0.00     0.027 A 
ATOM      4  C4  DEN d   1       0.913  -5.996  -5.982  0.00  0.00     0.027 A 
ATOM      5  C5  DEN d   1       2.240  -5.998  -5.614  0.00  0.00    -0.003 A 
ATOM      6  C6  DEN d   1       2.634  -5.955  -4.303  0.00  0.00     0.001 A 
ATOM      7  C7  DEN d   1       1.690  -5.953  -3.310  0.00  0.00     0.017 A 
ATOM      8  C8  DEN d   1       0.350  -5.943  -3.673  0.00  0.00    -0.094 A 
ATOM      9  C9  DEN d   1      -0.028  -6.000  -5.004  0.00  0.00    -0.072 A 
ENDROOT
TORSDOF 0
ENDMDL
