MODEL 1
REMARK minimizedAffinity -2.89823985
REMARK minimizedRMSD -1
REMARK  0 active torsions:
REMARK  status: ('A' for Active; 'I' for Inactive)
ROOT
ATOM      1  C1  DEN d   1      -3.557  -5.710  -4.128  0.00  0.00     0.130 A 
ATOM      2  C2  DEN d   1      -3.737  -5.997  -2.708  0.00  0.00    -0.031 A 
ATOM      3  C3  DEN d   1      -2.406  -5.998  -2.069  0.00  0.00     0.027 A 
ATOM      4  C4  DEN d   1      -0.095  -5.580  -3.136  0.00  0.00     0.027 A 
ATOM      5  C5  DEN d   1       0.565  -5.308  -4.313  0.00  0.00    -0.003 A 
ATOM      6  C6  DEN d   1      -0.094  -5.185  -5.508  0.00  0.00     0.001 A 
ATOM      7  C7  DEN d   1      -1.459  -5.290  -5.544  0.00  0.00     0.017 A 
ATOM      8  C8  DEN d   1      -2.131  -5.572  -4.362  0.00  0.00    -0.094 A 
ATOM      9  C9  DEN d   1      -1.448  -5.681  -3.162  0.00  0.00    -0.072 A 
ENDROOT
TORSDOF 0
ENDMDL
