MODEL 1
REMARK minimizedAffinity 0.344379246
REMARK minimizedRMSD -1
REMARK  0 active torsions:
REMARK  status: ('A' for Active; 'I' for Inactive)
ROOT
ATOM      1  C1  DEN d   1       0.462  -5.958  -5.999  0.00  0.00     0.130 A 
ATOM      2  C2  DEN d   1       1.805  -5.948  -5.424  0.00  0.00    -0.031 A 
ATOM      3  C3  DEN d   1       1.672  -5.959  -3.953  0.00  0.00     0.027 A 
ATOM      4  C4  DEN d   1      -0.471  -5.995  -2.518  0.00  0.00     0.027 A 
ATOM      5  C5  DEN d   1      -1.848  -5.998  -2.556  0.00  0.00    -0.003 A 
ATOM      6  C6  DEN d   1      -2.545  -5.954  -3.734  0.00  0.00     0.001 A 
ATOM      7  C7  DEN d   1      -1.868  -5.951  -4.925  0.00  0.00     0.017 A 
ATOM      8  C8  DEN d   1      -0.480  -5.940  -4.894  0.00  0.00    -0.094 A 
ATOM      9  C9  DEN d   1       0.207  -5.997  -3.693  0.00  0.00    -0.072 A 
ENDROOT
TORSDOF 0
ENDMDL
