MODEL 1
REMARK minimizedAffinity 6.83700991
REMARK minimizedRMSD -1
REMARK  0 active torsions:
REMARK  status: ('A' for Active; 'I' for Inactive)
ROOT
ATOM      1  C1  DEN d   1       5.463   0.123   1.870  0.00  0.00     0.130 A 
ATOM      2  C2  DEN d   1       5.069   0.132   3.276  0.00  0.00    -0.031 A 
ATOM      3  C3  DEN d   1       3.593   0.143   3.337  0.00  0.00     0.027 A 
ATOM      4  C4  DEN d   1       1.890   0.143   1.401  0.00  0.00     0.027 A 
ATOM      5  C5  DEN d   1       1.747   0.150   0.031  0.00  0.00    -0.003 A 
ATOM      6  C6  DEN d   1       2.824   0.182  -0.815  0.00  0.00     0.001 A 
ATOM      7  C7  DEN d   1       4.093   0.164  -0.299  0.00  0.00     0.017 A 
ATOM      8  C8  DEN d   1       4.245   0.164   1.081  0.00  0.00    -0.094 A 
ATOM      9  C9  DEN d   1       3.143   0.119   1.919  0.00  0.00    -0.072 A 
ENDROOT
TORSDOF 0
ENDMDL
