MODEL 1
REMARK minimizedAffinity 13.3274097
REMARK minimizedRMSD -1
REMARK  0 active torsions:
REMARK  status: ('A' for Active; 'I' for Inactive)
ROOT
ATOM      1  C1  DEN d   1      -3.070  -5.727  -1.234  0.00  0.00     0.130 A 
ATOM      2  C2  DEN d   1      -4.503  -5.685  -1.516  0.00  0.00    -0.031 A 
ATOM      3  C3  DEN d   1      -4.683  -5.760  -2.980  0.00  0.00     0.027 A 
ATOM      4  C4  DEN d   1      -2.892  -5.942  -4.827  0.00  0.00     0.027 A 
ATOM      5  C5  DEN d   1      -1.539  -6.000  -5.077  0.00  0.00    -0.003 A 
ATOM      6  C6  DEN d   1      -0.608  -5.937  -4.074  0.00  0.00     0.001 A 
ATOM      7  C7  DEN d   1      -1.019  -5.858  -2.770  0.00  0.00     0.017 A 
ATOM      8  C8  DEN d   1      -2.382  -5.791  -2.511  0.00  0.00    -0.094 A 
ATOM      9  C9  DEN d   1      -3.308  -5.869  -3.537  0.00  0.00    -0.072 A 
ENDROOT
TORSDOF 0
ENDMDL
