MODEL 1
REMARK minimizedAffinity 2.85853481
REMARK minimizedRMSD -1
REMARK  0 active torsions:
REMARK  status: ('A' for Active; 'I' for Inactive)
ROOT
ATOM      1  C1  DEN d   1       0.368  -2.945   0.456  0.00  0.00     0.130 A 
ATOM      2  C2  DEN d   1       0.444  -2.772   1.904  0.00  0.00    -0.031 A 
ATOM      3  C3  DEN d   1       0.467  -1.324   2.191  0.00  0.00     0.027 A 
ATOM      4  C4  DEN d   1       0.388   0.658   0.542  0.00  0.00     0.027 A 
ATOM      5  C5  DEN d   1       0.332   1.010  -0.789  0.00  0.00    -0.003 A 
ATOM      6  C6  DEN d   1       0.319   0.076  -1.791  0.00  0.00     0.001 A 
ATOM      7  C7  DEN d   1       0.317  -1.257  -1.476  0.00  0.00     0.017 A 
ATOM      8  C8  DEN d   1       0.380  -1.620  -0.137  0.00  0.00    -0.094 A 
ATOM      9  C9  DEN d   1       0.380  -0.661   0.862  0.00  0.00    -0.072 A 
ENDROOT
TORSDOF 0
ENDMDL
