MODEL 1
REMARK minimizedAffinity -2.11783791
REMARK minimizedRMSD -1
REMARK  1 active torsions:
REMARK  status: ('A' for Active; 'I' for Inactive)
REMARK    1  A    between atoms: C3_4  and  O_7 
ROOT
ATOM      1  C   UNL d   1      -1.869   2.195  -3.040  0.00  0.00    -0.033 A 
ATOM      2  C1  UNL d   1      -1.908   0.800  -3.001  0.00  0.00     0.039 A 
ATOM      3  C2  UNL d   1      -1.184   0.106  -2.029  0.00  0.00    -0.080 A 
ATOM      4  C3  UNL d   1      -0.427   0.818  -1.103  0.00  0.00     0.150 A 
ATOM      5  C4  UNL d   1      -0.386   2.208  -1.134  0.00  0.00    -0.007 A 
ATOM      6  C5  UNL d   1      -1.109   2.899  -2.106  0.00  0.00     0.039 A 
ENDROOT
BRANCH   4   7
ATOM      7  O   UNL d   1       0.300   0.185  -0.140  0.00  0.00    -0.526 OA
ATOM      8  H5  UNL d   1       0.199  -0.774  -0.258  0.00  0.00     0.418 HD
ENDBRANCH   4   7
TORSDOF 1
ENDMDL
