MODEL 1
REMARK minimizedAffinity -0.4598248
REMARK minimizedRMSD -1
REMARK  1 active torsions:
REMARK  status: ('A' for Active; 'I' for Inactive)
REMARK    1  A    between atoms: C3_4  and  O_7 
ROOT
ATOM      1  C   UNL d   1      -1.154  -1.485   3.019  0.00  0.00    -0.033 A 
ATOM      2  C1  UNL d   1      -1.512  -0.702   1.919  0.00  0.00     0.039 A 
ATOM      3  C2  UNL d   1      -0.596  -0.484   0.888  0.00  0.00    -0.080 A 
ATOM      4  C3  UNL d   1       0.671  -1.054   0.967  0.00  0.00     0.150 A 
ATOM      5  C4  UNL d   1       1.033  -1.838   2.058  0.00  0.00    -0.007 A 
ATOM      6  C5  UNL d   1       0.118  -2.054   3.087  0.00  0.00     0.039 A 
ENDROOT
BRANCH   4   7
ATOM      7  O   UNL d   1       1.600  -0.866  -0.012  0.00  0.00    -0.526 OA
ATOM      8  H5  UNL d   1       1.220  -0.280  -0.688  0.00  0.00     0.418 HD
ENDBRANCH   4   7
TORSDOF 1
ENDMDL
