MODEL 1
REMARK minimizedAffinity -4.93121052
REMARK minimizedRMSD -1
REMARK  1 active torsions:
REMARK  status: ('A' for Active; 'I' for Inactive)
REMARK    1  A    between atoms: C3_4  and  O_7 
ROOT
ATOM      1  C   UNL d   1       0.500  -2.354   0.193  0.00  0.00    -0.033 A 
ATOM      2  C1  UNL d   1       0.167  -2.223   1.543  0.00  0.00     0.039 A 
ATOM      3  C2  UNL d   1      -0.496  -1.080   1.993  0.00  0.00    -0.080 A 
ATOM      4  C3  UNL d   1      -0.821  -0.076   1.084  0.00  0.00     0.150 A 
ATOM      5  C4  UNL d   1      -0.496  -0.202  -0.262  0.00  0.00    -0.007 A 
ATOM      6  C5  UNL d   1       0.167  -1.344  -0.710  0.00  0.00     0.039 A 
ENDROOT
BRANCH   4   7
ATOM      7  O   UNL d   1      -1.464   1.060   1.477  0.00  0.00    -0.526 OA
ATOM      8  H5  UNL d   1      -1.598   1.020   2.439  0.00  0.00     0.418 HD
ENDBRANCH   4   7
TORSDOF 1
ENDMDL
