MODEL 1
REMARK minimizedAffinity 5.16702461
REMARK minimizedRMSD -1
REMARK  1 active torsions:
REMARK  status: ('A' for Active; 'I' for Inactive)
REMARK    1  A    between atoms: C3_4  and  O_7 
ROOT
ATOM      1  C   UNL d   1      -1.858  -1.635   2.837  0.00  0.00    -0.033 A 
ATOM      2  C1  UNL d   1      -0.824  -1.726   3.771  0.00  0.00     0.039 A 
ATOM      3  C2  UNL d   1       0.500  -1.837   3.341  0.00  0.00    -0.080 A 
ATOM      4  C3  UNL d   1       0.776  -1.856   1.977  0.00  0.00     0.150 A 
ATOM      5  C4  UNL d   1      -0.248  -1.762   1.041  0.00  0.00    -0.007 A 
ATOM      6  C5  UNL d   1      -1.570  -1.651   1.472  0.00  0.00     0.039 A 
ENDROOT
BRANCH   4   7
ATOM      7  O   UNL d   1       2.052  -1.968   1.510  0.00  0.00    -0.526 OA
ATOM      8  H5  UNL d   1       2.652  -2.053   2.270  0.00  0.00     0.418 HD
ENDBRANCH   4   7
TORSDOF 1
ENDMDL
