MODEL 1
REMARK minimizedAffinity -2.66365314
REMARK minimizedRMSD -1
REMARK  1 active torsions:
REMARK  status: ('A' for Active; 'I' for Inactive)
REMARK    1  A    between atoms: C3_4  and  O_7 
ROOT
ATOM      1  C   UNL d   1       1.276  -2.475   0.856  0.00  0.00    -0.033 A 
ATOM      2  C1  UNL d   1       1.301  -1.115   1.173  0.00  0.00     0.039 A 
ATOM      3  C2  UNL d   1       1.851  -0.197   0.276  0.00  0.00    -0.080 A 
ATOM      4  C3  UNL d   1       2.372  -0.651  -0.933  0.00  0.00     0.150 A 
ATOM      5  C4  UNL d   1       2.347  -2.003  -1.257  0.00  0.00    -0.007 A 
ATOM      6  C5  UNL d   1       1.798  -2.918  -0.360  0.00  0.00     0.039 A 
ENDROOT
BRANCH   4   7
ATOM      7  O   UNL d   1       2.923   0.207  -1.837  0.00  0.00    -0.526 OA
ATOM      8  H5  UNL d   1       2.897   1.105  -1.466  0.00  0.00     0.418 HD
ENDBRANCH   4   7
TORSDOF 1
ENDMDL
