MODEL 1
REMARK minimizedAffinity 0.397165209
REMARK minimizedRMSD -1
REMARK  1 active torsions:
REMARK  status: ('A' for Active; 'I' for Inactive)
REMARK    1  A    between atoms: C3_4  and  O_7 
ROOT
ATOM      1  C   UNL d   1      -2.940   0.868   1.862  0.00  0.00    -0.033 A 
ATOM      2  C1  UNL d   1      -1.745   0.715   1.157  0.00  0.00     0.039 A 
ATOM      3  C2  UNL d   1      -1.754   0.689  -0.239  0.00  0.00    -0.080 A 
ATOM      4  C3  UNL d   1      -2.964   0.817  -0.917  0.00  0.00     0.150 A 
ATOM      5  C4  UNL d   1      -4.158   0.974  -0.221  0.00  0.00    -0.007 A 
ATOM      6  C5  UNL d   1      -4.147   0.999   1.173  0.00  0.00     0.039 A 
ENDROOT
BRANCH   4   7
ATOM      7  O   UNL d   1      -3.023   0.793  -2.279  0.00  0.00    -0.526 OA
ATOM      8  H5  UNL d   1      -2.126   0.650  -2.623  0.00  0.00     0.418 HD
ENDBRANCH   4   7
TORSDOF 1
ENDMDL
