MODEL 1
REMARK minimizedAffinity -2.07562804
REMARK minimizedRMSD -1
REMARK  1 active torsions:
REMARK  status: ('A' for Active; 'I' for Inactive)
REMARK    1  A    between atoms: C3_4  and  O_7 
ROOT
ATOM      1  C   UNL d   1      -1.680  -1.334   0.902  0.00  0.00    -0.033 A 
ATOM      2  C1  UNL d   1      -2.364  -1.989  -0.123  0.00  0.00     0.039 A 
ATOM      3  C2  UNL d   1      -2.654  -1.317  -1.312  0.00  0.00    -0.080 A 
ATOM      4  C3  UNL d   1      -2.253   0.007  -1.464  0.00  0.00     0.150 A 
ATOM      5  C4  UNL d   1      -1.566   0.665  -0.448  0.00  0.00    -0.007 A 
ATOM      6  C5  UNL d   1      -1.279  -0.007   0.739  0.00  0.00     0.039 A 
ENDROOT
BRANCH   4   7
ATOM      7  O   UNL d   1      -2.517   0.706  -2.604  0.00  0.00    -0.526 OA
ATOM      8  H5  UNL d   1      -3.021   0.133  -3.206  0.00  0.00     0.418 HD
ENDBRANCH   4   7
TORSDOF 1
ENDMDL
