MODEL 1
REMARK minimizedAffinity 1.55099154
REMARK minimizedRMSD -1
REMARK  1 active torsions:
REMARK  status: ('A' for Active; 'I' for Inactive)
REMARK    1  A    between atoms: C3_4  and  O_7 
ROOT
ATOM      1  C   UNL d   1       1.951  -1.932   0.890  0.00  0.00    -0.033 A 
ATOM      2  C1  UNL d   1       2.603  -2.458  -0.227  0.00  0.00     0.039 A 
ATOM      3  C2  UNL d   1       3.094  -1.604  -1.217  0.00  0.00    -0.080 A 
ATOM      4  C3  UNL d   1       2.928  -0.229  -1.077  0.00  0.00     0.150 A 
ATOM      5  C4  UNL d   1       2.283   0.302   0.035  0.00  0.00    -0.007 A 
ATOM      6  C5  UNL d   1       1.792  -0.552   1.022  0.00  0.00     0.039 A 
ENDROOT
BRANCH   4   7
ATOM      7  O   UNL d   1       3.386   0.643  -2.019  0.00  0.00    -0.526 OA
ATOM      8  H5  UNL d   1       3.784   0.133  -2.744  0.00  0.00     0.418 HD
ENDBRANCH   4   7
TORSDOF 1
ENDMDL
