MODEL 1
REMARK minimizedAffinity 3.66247654
REMARK minimizedRMSD -1
REMARK  1 active torsions:
REMARK  status: ('A' for Active; 'I' for Inactive)
REMARK    1  A    between atoms: C3_4  and  O_7 
ROOT
ATOM      1  C   UNL d   1      -2.671   1.638  -2.236  0.00  0.00    -0.033 A 
ATOM      2  C1  UNL d   1      -3.244   0.628  -1.460  0.00  0.00     0.039 A 
ATOM      3  C2  UNL d   1      -3.030   0.599  -0.081  0.00  0.00    -0.080 A 
ATOM      4  C3  UNL d   1      -2.244   1.584   0.510  0.00  0.00     0.150 A 
ATOM      5  C4  UNL d   1      -1.673   2.594  -0.256  0.00  0.00    -0.007 A 
ATOM      6  C5  UNL d   1      -1.886   2.622  -1.634  0.00  0.00     0.039 A 
ENDROOT
BRANCH   4   7
ATOM      7  O   UNL d   1      -2.003   1.594   1.852  0.00  0.00    -0.526 OA
ATOM      8  H5  UNL d   1      -2.437   0.820   2.248  0.00  0.00     0.418 HD
ENDBRANCH   4   7
TORSDOF 1
ENDMDL
