MODEL 1
REMARK minimizedAffinity -0.0580683723
REMARK minimizedRMSD -1
REMARK  1 active torsions:
REMARK  status: ('A' for Active; 'I' for Inactive)
REMARK    1  A    between atoms: C3_4  and  O_7 
ROOT
ATOM      1  C   UNL d   1       0.611  -0.780   1.164  0.00  0.00    -0.033 A 
ATOM      2  C1  UNL d   1       1.378  -1.884   0.787  0.00  0.00     0.039 A 
ATOM      3  C2  UNL d   1       2.345  -1.756  -0.212  0.00  0.00    -0.080 A 
ATOM      4  C3  UNL d   1       2.536  -0.521  -0.824  0.00  0.00     0.150 A 
ATOM      5  C4  UNL d   1       1.778   0.584  -0.450  0.00  0.00    -0.007 A 
ATOM      6  C5  UNL d   1       0.812   0.454   0.546  0.00  0.00     0.039 A 
ENDROOT
BRANCH   4   7
ATOM      7  O   UNL d   1       3.465  -0.348  -1.806  0.00  0.00    -0.526 OA
ATOM      8  H5  UNL d   1       3.893  -1.204  -1.979  0.00  0.00     0.418 HD
ENDBRANCH   4   7
TORSDOF 1
ENDMDL
