MODEL 1
REMARK minimizedAffinity 0.422362804
REMARK minimizedRMSD -1
REMARK  1 active torsions:
REMARK  status: ('A' for Active; 'I' for Inactive)
REMARK    1  A    between atoms: C3_4  and  O_7 
ROOT
ATOM      1  C   UNL d   1       1.667  -2.745   0.992  0.00  0.00    -0.033 A 
ATOM      2  C1  UNL d   1       2.288  -1.563   1.401  0.00  0.00     0.039 A 
ATOM      3  C2  UNL d   1       2.910  -0.738   0.461  0.00  0.00    -0.080 A 
ATOM      4  C3  UNL d   1       2.902  -1.105  -0.882  0.00  0.00     0.150 A 
ATOM      5  C4  UNL d   1       2.282  -2.279  -1.296  0.00  0.00    -0.007 A 
ATOM      6  C5  UNL d   1       1.663  -3.102  -0.356  0.00  0.00     0.039 A 
ENDROOT
BRANCH   4   7
ATOM      7  O   UNL d   1       3.500  -0.335  -1.835  0.00  0.00    -0.526 OA
ATOM      8  H5  UNL d   1       3.912   0.429  -1.399  0.00  0.00     0.418 HD
ENDBRANCH   4   7
TORSDOF 1
ENDMDL
