MODEL 1
REMARK minimizedAffinity 2.49231887
REMARK minimizedRMSD -1
REMARK  1 active torsions:
REMARK  status: ('A' for Active; 'I' for Inactive)
REMARK    1  A    between atoms: C3_4  and  O_7 
ROOT
ATOM      1  C   UNL d   1      -1.163  -0.359   1.405  0.00  0.00    -0.033 A 
ATOM      2  C1  UNL d   1      -1.767   0.109   0.236  0.00  0.00     0.039 A 
ATOM      3  C2  UNL d   1      -2.229  -0.795  -0.723  0.00  0.00    -0.080 A 
ATOM      4  C3  UNL d   1      -2.082  -2.161  -0.501  0.00  0.00     0.150 A 
ATOM      5  C4  UNL d   1      -1.485  -2.634   0.663  0.00  0.00    -0.007 A 
ATOM      6  C5  UNL d   1      -1.023  -1.731   1.619  0.00  0.00     0.039 A 
ENDROOT
BRANCH   4   7
ATOM      7  O   UNL d   1      -2.513  -3.081  -1.410  0.00  0.00    -0.526 OA
ATOM      8  H5  UNL d   1      -2.878  -2.609  -2.177  0.00  0.00     0.418 HD
ENDBRANCH   4   7
TORSDOF 1
ENDMDL
