MODEL 1
REMARK minimizedAffinity 4.43313742
REMARK minimizedRMSD -1
REMARK  1 active torsions:
REMARK  status: ('A' for Active; 'I' for Inactive)
REMARK    1  A    between atoms: C3_4  and  O_7 
ROOT
ATOM      1  C   UNL d   1       1.389  -2.714   1.138  0.00  0.00    -0.033 A 
ATOM      2  C1  UNL d   1       1.577  -3.297  -0.117  0.00  0.00     0.039 A 
ATOM      3  C2  UNL d   1       2.366  -2.657  -1.074  0.00  0.00    -0.080 A 
ATOM      4  C3  UNL d   1       2.961  -1.437  -0.765  0.00  0.00     0.150 A 
ATOM      5  C4  UNL d   1       2.781  -0.852   0.485  0.00  0.00    -0.007 A 
ATOM      6  C5  UNL d   1       1.991  -1.493   1.439  0.00  0.00     0.039 A 
ENDROOT
BRANCH   4   7
ATOM      7  O   UNL d   1       3.736  -0.772  -1.668  0.00  0.00    -0.526 OA
ATOM      8  H5  UNL d   1       3.747  -1.280  -2.496  0.00  0.00     0.418 HD
ENDBRANCH   4   7
TORSDOF 1
ENDMDL
