MODEL 1
REMARK minimizedAffinity -0.364773989
REMARK minimizedRMSD -1
REMARK  1 active torsions:
REMARK  status: ('A' for Active; 'I' for Inactive)
REMARK    1  A    between atoms: C3_4  and  O_7 
ROOT
ATOM      1  C   UNL d   1       2.099  -0.975   0.631  0.00  0.00    -0.033 A 
ATOM      2  C1  UNL d   1       2.720  -1.851  -0.262  0.00  0.00     0.039 A 
ATOM      3  C2  UNL d   1       3.314  -1.359  -1.426  0.00  0.00    -0.080 A 
ATOM      4  C3  UNL d   1       3.281   0.008  -1.685  0.00  0.00     0.150 A 
ATOM      5  C4  UNL d   1       2.668   0.887  -0.798  0.00  0.00    -0.007 A 
ATOM      6  C5  UNL d   1       2.074   0.394   0.364  0.00  0.00     0.039 A 
ENDROOT
BRANCH   4   7
ATOM      7  O   UNL d   1       3.843   0.535  -2.810  0.00  0.00    -0.526 OA
ATOM      8  H5  UNL d   1       4.204  -0.193  -3.343  0.00  0.00     0.418 HD
ENDBRANCH   4   7
TORSDOF 1
ENDMDL
