MODEL 1
REMARK minimizedAffinity 1.41299343
REMARK minimizedRMSD -1
REMARK  1 active torsions:
REMARK  status: ('A' for Active; 'I' for Inactive)
REMARK    1  A    between atoms: C3_4  and  O_7 
ROOT
ATOM      1  C   UNL d   1      -2.473   0.406   1.274  0.00  0.00    -0.033 A 
ATOM      2  C1  UNL d   1      -2.849   0.790  -0.015  0.00  0.00     0.039 A 
ATOM      3  C2  UNL d   1      -2.981  -0.169  -1.021  0.00  0.00    -0.080 A 
ATOM      4  C3  UNL d   1      -2.736  -1.508  -0.725  0.00  0.00     0.150 A 
ATOM      5  C4  UNL d   1      -2.365  -1.898   0.557  0.00  0.00    -0.007 A 
ATOM      6  C5  UNL d   1      -2.233  -0.939   1.560  0.00  0.00     0.039 A 
ENDROOT
BRANCH   4   7
ATOM      7  O   UNL d   1      -2.848  -2.479  -1.675  0.00  0.00    -0.526 OA
ATOM      8  H5  UNL d   1      -3.083  -2.059  -2.519  0.00  0.00     0.418 HD
ENDBRANCH   4   7
TORSDOF 1
ENDMDL
