MODEL 1
REMARK minimizedAffinity 5.4438529
REMARK minimizedRMSD -1
REMARK  1 active torsions:
REMARK  status: ('A' for Active; 'I' for Inactive)
REMARK    1  A    between atoms: C1_2  and  C2_3 
ROOT
ATOM      1  C2  UNL d   1       3.027  -3.720   0.174  0.00  0.00    -0.073 A 
ATOM      2  C3  UNL d   1       4.305  -3.466  -0.336  0.00  0.00    -0.002 A 
ATOM      3  C4  UNL d   1       5.431  -4.023   0.272  0.00  0.00     0.004 A 
ATOM      4  C5  UNL d   1       5.290  -4.845   1.391  0.00  0.00    -0.004 A 
ATOM      5  C6  UNL d   1       4.020  -5.120   1.908  0.00  0.00    -0.075 A 
ATOM      6  C7  UNL d   1       3.852  -5.999   3.112  0.00  0.00     0.076 C 
ATOM      7  C8  UNL d   1       2.895  -4.554   1.294  0.00  0.00     0.001 A 
ENDROOT
BRANCH   1   8
ATOM      8  C1  UNL d   1       1.809  -3.125  -0.483  0.00  0.00     0.053 C 
ATOM      9  C   UNL d   1       0.965  -2.325   0.497  0.00  0.00     0.018 C 
ENDBRANCH   1   8
TORSDOF 1
ENDMDL
