MODEL 1
REMARK minimizedAffinity -6.19528341
REMARK minimizedRMSD -1
REMARK  1 active torsions:
REMARK  status: ('A' for Active; 'I' for Inactive)
REMARK    1  A    between atoms: C1_2  and  C2_3 
ROOT
ATOM      1  C2  UNL d   1      -3.072   0.666  -3.116  0.00  0.00    -0.073 A 
ATOM      2  C3  UNL d   1      -2.023  -0.184  -2.748  0.00  0.00    -0.002 A 
ATOM      3  C4  UNL d   1      -1.927  -1.464  -3.295  0.00  0.00     0.004 A 
ATOM      4  C5  UNL d   1      -2.874  -1.905  -4.220  0.00  0.00    -0.004 A 
ATOM      5  C6  UNL d   1      -3.922  -1.066  -4.610  0.00  0.00    -0.075 A 
ATOM      6  C7  UNL d   1      -4.950  -1.525  -5.603  0.00  0.00     0.076 C 
ATOM      7  C8  UNL d   1      -4.013   0.217  -4.054  0.00  0.00     0.001 A 
ENDROOT
BRANCH   1   8
ATOM      8  C1  UNL d   1      -3.175   2.051  -2.533  0.00  0.00     0.053 C 
ATOM      9  C   UNL d   1      -4.300   2.854  -3.167  0.00  0.00     0.018 C 
ENDBRANCH   1   8
TORSDOF 1
ENDMDL
