MODEL 1
REMARK minimizedAffinity 2.73880839
REMARK minimizedRMSD -1
REMARK  1 active torsions:
REMARK  status: ('A' for Active; 'I' for Inactive)
REMARK    1  A    between atoms: C1_2  and  C2_3 
ROOT
ATOM      1  C2  UNL d   1      -3.330   1.236  -3.008  0.00  0.00    -0.073 A 
ATOM      2  C3  UNL d   1      -3.204  -0.053  -2.478  0.00  0.00    -0.002 A 
ATOM      3  C4  UNL d   1      -3.855  -1.130  -3.081  0.00  0.00     0.004 A 
ATOM      4  C5  UNL d   1      -4.632  -0.931  -4.222  0.00  0.00    -0.004 A 
ATOM      5  C6  UNL d   1      -4.760   0.348  -4.774  0.00  0.00    -0.075 A 
ATOM      6  C7  UNL d   1      -5.594   0.579  -6.000  0.00  0.00     0.076 C 
ATOM      7  C8  UNL d   1      -4.106   1.424  -4.161  0.00  0.00     0.001 A 
ENDROOT
BRANCH   1   8
ATOM      8  C1  UNL d   1      -2.624   2.401  -2.364  0.00  0.00     0.053 C 
ATOM      9  C   UNL d   1      -2.251   3.472  -3.377  0.00  0.00     0.018 C 
ENDBRANCH   1   8
TORSDOF 1
ENDMDL
