MODEL 1
REMARK minimizedAffinity -1.57596171
REMARK minimizedRMSD -1
REMARK  1 active torsions:
REMARK  status: ('A' for Active; 'I' for Inactive)
REMARK    1  A    between atoms: C1_2  and  C2_3 
ROOT
ATOM      1  C2  UNL d   1       3.422  -1.077  -0.608  0.00  0.00    -0.073 A 
ATOM      2  C3  UNL d   1       2.214  -1.482  -0.029  0.00  0.00    -0.002 A 
ATOM      3  C4  UNL d   1       2.156  -2.642   0.744  0.00  0.00     0.004 A 
ATOM      4  C5  UNL d   1       3.305  -3.405   0.951  0.00  0.00    -0.004 A 
ATOM      5  C6  UNL d   1       4.524  -3.011   0.390  0.00  0.00    -0.075 A 
ATOM      6  C7  UNL d   1       5.769  -3.822   0.602  0.00  0.00     0.076 C 
ATOM      7  C8  UNL d   1       4.573  -1.846  -0.387  0.00  0.00     0.001 A 
ENDROOT
BRANCH   1   8
ATOM      8  C1  UNL d   1       3.490   0.178  -1.438  0.00  0.00     0.053 C 
ATOM      9  C   UNL d   1       3.767  -0.121  -2.903  0.00  0.00     0.018 C 
ENDBRANCH   1   8
TORSDOF 1
ENDMDL
