MODEL 1
REMARK minimizedAffinity -1.84504259
REMARK minimizedRMSD -1
REMARK  1 active torsions:
REMARK  status: ('A' for Active; 'I' for Inactive)
REMARK    1  A    between atoms: C1_2  and  C2_3 
ROOT
ATOM      1  C2  UNL d   1      -1.363  -0.736  -1.033  0.00  0.00    -0.073 A 
ATOM      2  C3  UNL d   1      -0.130  -0.918  -0.398  0.00  0.00    -0.002 A 
ATOM      3  C4  UNL d   1      -0.005  -0.701   0.975  0.00  0.00     0.004 A 
ATOM      4  C5  UNL d   1      -1.112  -0.307   1.727  0.00  0.00    -0.004 A 
ATOM      5  C6  UNL d   1      -2.356  -0.131   1.112  0.00  0.00    -0.075 A 
ATOM      6  C7  UNL d   1      -3.556   0.295   1.905  0.00  0.00     0.076 C 
ATOM      7  C8  UNL d   1      -2.472  -0.348  -0.268  0.00  0.00     0.001 A 
ENDROOT
BRANCH   1   8
ATOM      8  C1  UNL d   1      -1.503  -0.976  -2.514  0.00  0.00     0.053 C 
ATOM      9  C   UNL d   1      -2.266   0.145  -3.203  0.00  0.00     0.018 C 
ENDBRANCH   1   8
TORSDOF 1
ENDMDL
