MODEL 1
REMARK minimizedAffinity 1.55401552
REMARK minimizedRMSD -1
REMARK  0 active torsions:
REMARK  status: ('A' for Active; 'I' for Inactive)
ROOT
ATOM      1  C   UNL d   1       0.539   4.538  -1.299  0.00  0.00    -0.002 A 
ATOM      2  C1  UNL d   1       0.149   3.333  -1.867  0.00  0.00     0.010 A 
ATOM      3  C2  UNL d   1       0.066   2.176  -1.089  0.00  0.00     0.041 A 
ATOM      4  C3  UNL d   1       0.382   2.251   0.282  0.00  0.00    -0.075 A 
ATOM      5  S   UNL d   1       0.350   0.964   1.428  0.00  0.00     0.015 SA
ATOM      6  C4  UNL d   1       0.852   1.984   2.698  0.00  0.00     0.022 A 
ATOM      7  C5  UNL d   1       1.044   3.278   2.276  0.00  0.00     0.026 A 
ATOM      8  C6  UNL d   1       0.776   3.454   0.876  0.00  0.00    -0.082 A 
ATOM      9  C7  UNL d   1       0.852   4.609   0.061  0.00  0.00     0.045 A 
ENDROOT
TORSDOF 0
ENDMDL
