MODEL 1
REMARK minimizedAffinity -5.1927681
REMARK minimizedRMSD -1
REMARK  0 active torsions:
REMARK  status: ('A' for Active; 'I' for Inactive)
ROOT
ATOM      1  C   UNL d   1      -0.261   1.865   1.306  0.00  0.00    -0.002 A 
ATOM      2  C1  UNL d   1      -0.516   1.096   0.179  0.00  0.00     0.010 A 
ATOM      3  C2  UNL d   1      -0.681   1.700  -1.069  0.00  0.00     0.041 A 
ATOM      4  C3  UNL d   1      -0.582   3.102  -1.167  0.00  0.00    -0.075 A 
ATOM      5  S   UNL d   1      -0.747   4.059  -2.591  0.00  0.00     0.015 SA
ATOM      6  C4  UNL d   1      -0.482   5.510  -1.737  0.00  0.00     0.022 A 
ATOM      7  C5  UNL d   1      -0.272   5.288  -0.397  0.00  0.00     0.026 A 
ATOM      8  C6  UNL d   1      -0.325   3.897  -0.046  0.00  0.00    -0.082 A 
ATOM      9  C7  UNL d   1      -0.164   3.255   1.205  0.00  0.00     0.045 A 
ENDROOT
TORSDOF 0
ENDMDL
