MODEL 1
REMARK minimizedAffinity 0.328938186
REMARK minimizedRMSD -1
REMARK  0 active torsions:
REMARK  status: ('A' for Active; 'I' for Inactive)
ROOT
ATOM      1  C   UNL d   1       0.593   1.098   2.308  0.00  0.00    -0.002 A 
ATOM      2  C1  UNL d   1       0.529   0.192   1.259  0.00  0.00     0.010 A 
ATOM      3  C2  UNL d   1       0.426   0.638  -0.060  0.00  0.00     0.041 A 
ATOM      4  C3  UNL d   1       0.389   2.024  -0.310  0.00  0.00    -0.075 A 
ATOM      5  S   UNL d   1       0.267   2.801  -1.844  0.00  0.00     0.015 SA
ATOM      6  C4  UNL d   1       0.297   4.354  -1.144  0.00  0.00     0.022 A 
ATOM      7  C5  UNL d   1       0.398   4.300   0.226  0.00  0.00     0.026 A 
ATOM      8  C6  UNL d   1       0.453   2.956   0.729  0.00  0.00    -0.082 A 
ATOM      9  C7  UNL d   1       0.556   2.472   2.056  0.00  0.00     0.045 A 
ENDROOT
TORSDOF 0
ENDMDL
