MODEL 1
REMARK minimizedAffinity 0.861325979
REMARK minimizedRMSD -1
REMARK  0 active torsions:
REMARK  status: ('A' for Active; 'I' for Inactive)
ROOT
ATOM      1  C   UNL d   1      -0.316   5.679  -2.394  0.00  0.00    -0.002 A 
ATOM      2  C1  UNL d   1       0.597   5.391  -1.389  0.00  0.00     0.010 A 
ATOM      3  C2  UNL d   1       0.685   4.102  -0.858  0.00  0.00     0.041 A 
ATOM      4  C3  UNL d   1      -0.167   3.099  -1.360  0.00  0.00    -0.075 A 
ATOM      5  S   UNL d   1      -0.236   1.450  -0.862  0.00  0.00     0.015 SA
ATOM      6  C4  UNL d   1      -1.478   1.089  -1.972  0.00  0.00     0.022 A 
ATOM      7  C5  UNL d   1      -1.844   2.188  -2.712  0.00  0.00     0.026 A 
ATOM      8  C6  UNL d   1      -1.094   3.365  -2.372  0.00  0.00    -0.082 A 
ATOM      9  C7  UNL d   1      -1.160   4.681  -2.889  0.00  0.00     0.045 A 
ENDROOT
TORSDOF 0
ENDMDL
