MODEL 1
REMARK minimizedAffinity -2.11000538
REMARK minimizedRMSD -1
REMARK  0 active torsions:
REMARK  status: ('A' for Active; 'I' for Inactive)
ROOT
ATOM      1  C   UNL d   1      -1.073   5.345  -2.540  0.00  0.00    -0.002 A 
ATOM      2  C1  UNL d   1       0.088   5.234  -1.788  0.00  0.00     0.010 A 
ATOM      3  C2  UNL d   1       0.458   4.009  -1.229  0.00  0.00     0.041 A 
ATOM      4  C3  UNL d   1      -0.366   2.886  -1.444  0.00  0.00    -0.075 A 
ATOM      5  S   UNL d   1      -0.112   1.284  -0.858  0.00  0.00     0.015 SA
ATOM      6  C4  UNL d   1      -1.538   0.710  -1.594  0.00  0.00     0.022 A 
ATOM      7  C5  UNL d   1      -2.204   1.702  -2.274  0.00  0.00     0.026 A 
ATOM      8  C6  UNL d   1      -1.539   2.973  -2.198  0.00  0.00    -0.082 A 
ATOM      9  C7  UNL d   1      -1.887   4.229  -2.750  0.00  0.00     0.045 A 
ENDROOT
TORSDOF 0
ENDMDL
