MODEL 1
REMARK minimizedAffinity 8.43655109
REMARK minimizedRMSD -1
REMARK  0 active torsions:
REMARK  status: ('A' for Active; 'I' for Inactive)
ROOT
ATOM      1  C   UNL d   1       1.506   1.881   3.195  0.00  0.00    -0.002 A 
ATOM      2  C1  UNL d   1       0.647   1.199   2.345  0.00  0.00     0.010 A 
ATOM      3  C2  UNL d   1       0.268   1.756   1.122  0.00  0.00     0.041 A 
ATOM      4  C3  UNL d   1       0.773   3.022   0.764  0.00  0.00    -0.075 A 
ATOM      5  S   UNL d   1       0.447   3.899  -0.684  0.00  0.00     0.015 SA
ATOM      6  C4  UNL d   1       1.440   5.199  -0.208  0.00  0.00     0.022 A 
ATOM      7  C5  UNL d   1       2.014   4.986   1.022  0.00  0.00     0.026 A 
ATOM      8  C6  UNL d   1       1.639   3.727   1.603  0.00  0.00    -0.082 A 
ATOM      9  C7  UNL d   1       2.004   3.136   2.837  0.00  0.00     0.045 A 
ENDROOT
TORSDOF 0
ENDMDL
