MODEL 1
REMARK minimizedAffinity 0.247297958
REMARK minimizedRMSD -1
REMARK  0 active torsions:
REMARK  status: ('A' for Active; 'I' for Inactive)
ROOT
ATOM      1  C   UNL d   1       1.678   3.943  -4.978  0.00  0.00     0.023 A 
ATOM      2  C1  UNL d   1       2.852   3.355  -4.506  0.00  0.00     0.003 A 
ATOM      3  C2  UNL d   1       4.088   3.944  -4.780  0.00  0.00     0.048 A 
ATOM      4  C3  UNL d   1       4.143   5.121  -5.526  0.00  0.00     0.023 A 
ATOM      5  C4  UNL d   1       2.971   5.713  -6.000  0.00  0.00     0.048 A 
ATOM      6  C5  UNL d   1       1.737   5.120  -5.724  0.00  0.00     0.003 A 
ATOM      7  I   UNL d   1       5.981   6.000  -5.935  0.00  0.00    -0.146 I 
ENDROOT
TORSDOF 0
ENDMDL
