MODEL 1
REMARK minimizedAffinity 2.15014338
REMARK minimizedRMSD -1
REMARK  0 active torsions:
REMARK  status: ('A' for Active; 'I' for Inactive)
ROOT
ATOM      1  C   UNL d   1       3.240   6.000  -5.998  0.00  0.00     0.023 A 
ATOM      2  C1  UNL d   1       4.556   5.538  -5.997  0.00  0.00     0.003 A 
ATOM      3  C2  UNL d   1       4.883   4.359  -5.323  0.00  0.00     0.048 A 
ATOM      4  C3  UNL d   1       3.889   3.648  -4.652  0.00  0.00     0.023 A 
ATOM      5  C4  UNL d   1       2.571   4.106  -4.651  0.00  0.00     0.048 A 
ATOM      6  C5  UNL d   1       2.249   5.285  -5.325  0.00  0.00     0.003 A 
ATOM      7  I   UNL d   1       4.374   1.894  -3.648  0.00  0.00    -0.146 I 
ENDROOT
TORSDOF 0
ENDMDL
