MODEL 1
REMARK minimizedAffinity 1.06948733
REMARK minimizedRMSD -1
REMARK  0 active torsions:
REMARK  status: ('A' for Active; 'I' for Inactive)
ROOT
ATOM      1  C   UNL d   1       1.549   4.284  -4.910  0.00  0.00     0.023 A 
ATOM      2  C1  UNL d   1       2.683   3.560  -4.540  0.00  0.00     0.003 A 
ATOM      3  C2  UNL d   1       3.955   4.047  -4.849  0.00  0.00     0.048 A 
ATOM      4  C3  UNL d   1       4.086   5.259  -5.526  0.00  0.00     0.023 A 
ATOM      5  C4  UNL d   1       2.954   5.987  -5.898  0.00  0.00     0.048 A 
ATOM      6  C5  UNL d   1       1.685   5.496  -5.588  0.00  0.00     0.003 A 
ATOM      7  I   UNL d   1       5.978   5.986  -5.987  0.00  0.00    -0.146 I 
ENDROOT
TORSDOF 0
ENDMDL
