MODEL 1
REMARK minimizedAffinity 8.08975506
REMARK minimizedRMSD -1
REMARK  0 active torsions:
REMARK  status: ('A' for Active; 'I' for Inactive)
ROOT
ATOM      1  C   UNL d   1       3.302   5.998  -6.000  0.00  0.00     0.023 A 
ATOM      2  C1  UNL d   1       4.412   5.157  -5.920  0.00  0.00     0.003 A 
ATOM      3  C2  UNL d   1       4.472   4.169  -4.935  0.00  0.00     0.048 A 
ATOM      4  C3  UNL d   1       3.418   4.028  -4.033  0.00  0.00     0.023 A 
ATOM      5  C4  UNL d   1       2.305   4.866  -4.109  0.00  0.00     0.048 A 
ATOM      6  C5  UNL d   1       2.250   5.853  -5.096  0.00  0.00     0.003 A 
ATOM      7  I   UNL d   1       3.505   2.558  -2.566  0.00  0.00    -0.146 I 
ENDROOT
TORSDOF 0
ENDMDL
