MODEL 1
REMARK minimizedAffinity 0.0909278914
REMARK minimizedRMSD -1
REMARK  0 active torsions:
REMARK  status: ('A' for Active; 'I' for Inactive)
ROOT
ATOM      1  C   UNL d   1       4.816   6.000  -6.000  0.00  0.00     0.023 A 
ATOM      2  C1  UNL d   1       3.747   5.918  -5.107  0.00  0.00     0.003 A 
ATOM      3  C2  UNL d   1       3.721   4.915  -4.136  0.00  0.00     0.048 A 
ATOM      4  C3  UNL d   1       4.769   3.997  -4.063  0.00  0.00     0.023 A 
ATOM      5  C4  UNL d   1       5.841   4.076  -4.953  0.00  0.00     0.048 A 
ATOM      6  C5  UNL d   1       5.862   5.080  -5.923  0.00  0.00     0.003 A 
ATOM      7  I   UNL d   1       4.733   2.503  -2.618  0.00  0.00    -0.146 I 
ENDROOT
TORSDOF 0
ENDMDL
