MODEL 1
REMARK minimizedAffinity 3.72070265
REMARK minimizedRMSD -1
REMARK  0 active torsions:
REMARK  status: ('A' for Active; 'I' for Inactive)
ROOT
ATOM      1  C   UNL d   1       2.663   2.274  -4.299  0.00  0.00     0.023 A 
ATOM      2  C1  UNL d   1       2.094   3.420  -4.855  0.00  0.00     0.003 A 
ATOM      3  C2  UNL d   1       2.906   4.490  -5.237  0.00  0.00     0.048 A 
ATOM      4  C3  UNL d   1       4.287   4.407  -5.060  0.00  0.00     0.023 A 
ATOM      5  C4  UNL d   1       4.861   3.263  -4.504  0.00  0.00     0.048 A 
ATOM      6  C5  UNL d   1       4.045   2.196  -4.123  0.00  0.00     0.003 A 
ATOM      7  I   UNL d   1       5.498   5.998  -5.627  0.00  0.00    -0.146 I 
ENDROOT
TORSDOF 0
ENDMDL
