MODEL 1
REMARK minimizedAffinity 5.91822672
REMARK minimizedRMSD -1
REMARK  0 active torsions:
REMARK  status: ('A' for Active; 'I' for Inactive)
ROOT
ATOM      1  C   UNL d   1      -3.129  -1.125  -1.950  0.00  0.00     0.023 A 
ATOM      2  C1  UNL d   1      -2.888  -1.885  -3.095  0.00  0.00     0.003 A 
ATOM      3  C2  UNL d   1      -2.888  -3.280  -3.021  0.00  0.00     0.048 A 
ATOM      4  C3  UNL d   1      -3.130  -3.908  -1.800  0.00  0.00     0.023 A 
ATOM      5  C4  UNL d   1      -3.372  -3.152  -0.652  0.00  0.00     0.048 A 
ATOM      6  C5  UNL d   1      -3.371  -1.758  -0.730  0.00  0.00     0.003 A 
ATOM      7  I   UNL d   1      -3.130  -5.983  -1.688  0.00  0.00    -0.146 I 
ENDROOT
TORSDOF 0
ENDMDL
