MODEL 1
REMARK minimizedAffinity 1.5259546
REMARK minimizedRMSD -1
REMARK  0 active torsions:
REMARK  status: ('A' for Active; 'I' for Inactive)
ROOT
ATOM      1  C   UNL d   1      -4.259   0.425   3.716  0.00  0.00     0.023 A 
ATOM      2  C1  UNL d   1      -3.909   1.768   3.852  0.00  0.00     0.003 A 
ATOM      3  C2  UNL d   1      -2.683   2.225   3.363  0.00  0.00     0.048 A 
ATOM      4  C3  UNL d   1      -1.812   1.333   2.738  0.00  0.00     0.023 A 
ATOM      5  C4  UNL d   1      -2.159  -0.012   2.598  0.00  0.00     0.048 A 
ATOM      6  C5  UNL d   1      -3.385  -0.464   3.090  0.00  0.00     0.003 A 
ATOM      7  I   UNL d   1       0.012   2.010   2.009  0.00  0.00    -0.146 I 
ENDROOT
TORSDOF 0
ENDMDL
