MODEL 1
REMARK minimizedAffinity 4.29445028
REMARK minimizedRMSD -1
REMARK  0 active torsions:
REMARK  status: ('A' for Active; 'I' for Inactive)
ROOT
ATOM      1  C   UNL d   1      -1.755   0.480   2.255  0.00  0.00     0.023 A 
ATOM      2  C1  UNL d   1      -1.688   1.840   2.560  0.00  0.00     0.003 A 
ATOM      3  C2  UNL d   1      -2.607   2.404   3.447  0.00  0.00     0.048 A 
ATOM      4  C3  UNL d   1      -3.590   1.602   4.026  0.00  0.00     0.023 A 
ATOM      5  C4  UNL d   1      -3.660   0.241   3.725  0.00  0.00     0.048 A 
ATOM      6  C5  UNL d   1      -2.739  -0.318   2.837  0.00  0.00     0.003 A 
ATOM      7  I   UNL d   1      -4.959   2.438   5.347  0.00  0.00    -0.146 I 
ENDROOT
TORSDOF 0
ENDMDL
