MODEL 1
REMARK minimizedAffinity 2.11409235
REMARK minimizedRMSD -1
REMARK  0 active torsions:
REMARK  status: ('A' for Active; 'I' for Inactive)
ROOT
ATOM      1  C   UNL d   1      -1.661   0.525   2.366  0.00  0.00     0.023 A 
ATOM      2  C1  UNL d   1      -1.682   1.896   2.626  0.00  0.00     0.003 A 
ATOM      3  C2  UNL d   1      -2.632   2.428   3.500  0.00  0.00     0.048 A 
ATOM      4  C3  UNL d   1      -3.557   1.584   4.112  0.00  0.00     0.023 A 
ATOM      5  C4  UNL d   1      -3.540   0.212   3.857  0.00  0.00     0.048 A 
ATOM      6  C5  UNL d   1      -2.589  -0.316   2.981  0.00  0.00     0.003 A 
ATOM      7  I   UNL d   1      -4.972   2.373   5.414  0.00  0.00    -0.146 I 
ENDROOT
TORSDOF 0
ENDMDL
