MODEL 1
REMARK minimizedAffinity 9.12021446
REMARK minimizedRMSD -1
REMARK  0 active torsions:
REMARK  status: ('A' for Active; 'I' for Inactive)
ROOT
ATOM      1  C   UNL d   1       2.307   2.956  -3.540  0.00  0.00     0.023 A 
ATOM      2  C1  UNL d   1       3.365   2.454  -4.298  0.00  0.00     0.003 A 
ATOM      3  C2  UNL d   1       4.195   3.326  -5.005  0.00  0.00     0.048 A 
ATOM      4  C3  UNL d   1       3.962   4.700  -4.949  0.00  0.00     0.023 A 
ATOM      5  C4  UNL d   1       2.905   5.207  -4.191  0.00  0.00     0.048 A 
ATOM      6  C5  UNL d   1       2.077   4.331  -3.487  0.00  0.00     0.003 A 
ATOM      7  I   UNL d   1       5.197   6.000  -6.000  0.00  0.00    -0.146 I 
ENDROOT
TORSDOF 0
ENDMDL
