MODEL 1
REMARK minimizedAffinity 5.02566385
REMARK minimizedRMSD -1
REMARK  0 active torsions:
REMARK  status: ('A' for Active; 'I' for Inactive)
ROOT
ATOM      1  C   UNL d   1      -1.945   1.145   2.522  0.00  0.00     0.023 A 
ATOM      2  C1  UNL d   1      -1.945   2.448   3.018  0.00  0.00     0.003 A 
ATOM      3  C2  UNL d   1      -2.849   2.818   4.016  0.00  0.00     0.048 A 
ATOM      4  C3  UNL d   1      -3.750   1.878   4.514  0.00  0.00     0.023 A 
ATOM      5  C4  UNL d   1      -3.754   0.572   4.022  0.00  0.00     0.048 A 
ATOM      6  C5  UNL d   1      -2.849   0.207   3.023  0.00  0.00     0.003 A 
ATOM      7  I   UNL d   1      -5.096   2.425   6.000  0.00  0.00    -0.146 I 
ENDROOT
TORSDOF 0
ENDMDL
