MODEL 1
REMARK minimizedAffinity -3.64710689
REMARK minimizedRMSD -1
REMARK  0 active torsions:
REMARK  status: ('A' for Active; 'I' for Inactive)
ROOT
ATOM      1  C   UNL d   1      -2.888   0.725   2.915  0.00  0.00     0.023 A 
ATOM      2  C1  UNL d   1      -2.403  -0.404   2.255  0.00  0.00     0.003 A 
ATOM      3  C2  UNL d   1      -1.172  -0.355   1.597  0.00  0.00     0.048 A 
ATOM      4  C3  UNL d   1      -0.431   0.826   1.605  0.00  0.00     0.023 A 
ATOM      5  C4  UNL d   1      -0.912   1.958   2.265  0.00  0.00     0.048 A 
ATOM      6  C5  UNL d   1      -2.143   1.905   2.920  0.00  0.00     0.003 A 
ATOM      7  I   UNL d   1       1.402   0.902   0.627  0.00  0.00    -0.146 I 
ENDROOT
TORSDOF 0
ENDMDL
