MODEL 1
REMARK minimizedAffinity 5.29765224
REMARK minimizedRMSD -1
REMARK  0 active torsions:
REMARK  status: ('A' for Active; 'I' for Inactive)
ROOT
ATOM      1  C   UNL d   1      -2.339  -1.928   3.790  0.00  0.00     0.023 A 
ATOM      2  C1  UNL d   1      -3.601  -2.229   3.277  0.00  0.00     0.003 A 
ATOM      3  C2  UNL d   1      -3.787  -2.341   1.897  0.00  0.00     0.048 A 
ATOM      4  C3  UNL d   1      -2.706  -2.152   1.037  0.00  0.00     0.023 A 
ATOM      5  C4  UNL d   1      -1.441  -1.852   1.546  0.00  0.00     0.048 A 
ATOM      6  C5  UNL d   1      -1.261  -1.740   2.926  0.00  0.00     0.003 A 
ATOM      7  I   UNL d   1      -2.979  -2.319  -1.017  0.00  0.00    -0.146 I 
ENDROOT
TORSDOF 0
ENDMDL
