MODEL 1
REMARK minimizedAffinity 2.31952643
REMARK minimizedRMSD -1
REMARK  0 active torsions:
REMARK  status: ('A' for Active; 'I' for Inactive)
ROOT
ATOM      1  C   UNL d   1      -2.588   1.580   2.677  0.00  0.00     0.023 A 
ATOM      2  C1  UNL d   1      -1.477   2.410   2.521  0.00  0.00     0.003 A 
ATOM      3  C2  UNL d   1      -0.192   1.865   2.517  0.00  0.00     0.048 A 
ATOM      4  C3  UNL d   1      -0.024   0.489   2.667  0.00  0.00     0.023 A 
ATOM      5  C4  UNL d   1      -1.132  -0.346   2.822  0.00  0.00     0.048 A 
ATOM      6  C5  UNL d   1      -2.416   0.204   2.827  0.00  0.00     0.003 A 
ATOM      7  I   UNL d   1       1.888  -0.326   2.660  0.00  0.00    -0.146 I 
ENDROOT
TORSDOF 0
ENDMDL
