MODEL 1
REMARK minimizedAffinity 3.62399292
REMARK minimizedRMSD -1
REMARK  0 active torsions:
REMARK  status: ('A' for Active; 'I' for Inactive)
ROOT
ATOM      1  C   UNL d   1      -0.951   3.083   1.318  0.00  0.00     0.023 A 
ATOM      2  C1  UNL d   1      -2.195   3.705   1.211  0.00  0.00     0.003 A 
ATOM      3  C2  UNL d   1      -3.207   3.407   2.126  0.00  0.00     0.048 A 
ATOM      4  C3  UNL d   1      -2.968   2.488   3.146  0.00  0.00     0.023 A 
ATOM      5  C4  UNL d   1      -1.725   1.864   3.258  0.00  0.00     0.048 A 
ATOM      6  C5  UNL d   1      -0.716   2.164   2.340  0.00  0.00     0.003 A 
ATOM      7  I   UNL d   1      -4.473   2.043   4.509  0.00  0.00    -0.146 I 
ENDROOT
TORSDOF 0
ENDMDL
