MODEL 1
REMARK minimizedAffinity 6.94534206
REMARK minimizedRMSD -1
REMARK  0 active torsions:
REMARK  status: ('A' for Active; 'I' for Inactive)
ROOT
ATOM      1  C   UNL d   1       5.491  -1.133  -0.740  0.00  0.00     0.023 A 
ATOM      2  C1  UNL d   1       5.995  -0.775   0.510  0.00  0.00     0.003 A 
ATOM      3  C2  UNL d   1       5.127  -0.598   1.589  0.00  0.00     0.048 A 
ATOM      4  C3  UNL d   1       3.756  -0.782   1.412  0.00  0.00     0.023 A 
ATOM      5  C4  UNL d   1       3.248  -1.142   0.163  0.00  0.00     0.048 A 
ATOM      6  C5  UNL d   1       4.119  -1.317  -0.914  0.00  0.00     0.003 A 
ATOM      7  I   UNL d   1       2.462  -0.520   3.017  0.00  0.00    -0.146 I 
ENDROOT
TORSDOF 0
ENDMDL
