MODEL 1
REMARK minimizedAffinity 4.95923281
REMARK minimizedRMSD -1
REMARK  0 active torsions:
REMARK  status: ('A' for Active; 'I' for Inactive)
ROOT
ATOM      1  C   UNL d   1      -1.749   1.517   2.140  0.00  0.00     0.023 A 
ATOM      2  C1  UNL d   1      -1.917   2.838   2.555  0.00  0.00     0.003 A 
ATOM      3  C2  UNL d   1      -2.894   3.155   3.501  0.00  0.00     0.048 A 
ATOM      4  C3  UNL d   1      -3.699   2.146   4.029  0.00  0.00     0.023 A 
ATOM      5  C4  UNL d   1      -3.534   0.823   3.617  0.00  0.00     0.048 A 
ATOM      6  C5  UNL d   1      -2.557   0.510   2.670  0.00  0.00     0.003 A 
ATOM      7  I   UNL d   1      -5.153   2.616   5.438  0.00  0.00    -0.146 I 
ENDROOT
TORSDOF 0
ENDMDL
