MODEL 1
REMARK minimizedAffinity 2.48031545
REMARK minimizedRMSD -1
REMARK  0 active torsions:
REMARK  status: ('A' for Active; 'I' for Inactive)
ROOT
ATOM      1  C   UNL d   1       3.546   1.197  -0.895  0.00  0.00     0.023 A 
ATOM      2  C1  UNL d   1       3.311   0.908  -2.239  0.00  0.00     0.003 A 
ATOM      3  C2  UNL d   1       2.755  -0.320  -2.603  0.00  0.00     0.048 A 
ATOM      4  C3  UNL d   1       2.435  -1.254  -1.618  0.00  0.00     0.023 A 
ATOM      5  C4  UNL d   1       2.667  -0.968  -0.272  0.00  0.00     0.048 A 
ATOM      6  C5  UNL d   1       3.225   0.260   0.087  0.00  0.00     0.003 A 
ATOM      7  I   UNL d   1       1.606  -3.082  -2.158  0.00  0.00    -0.146 I 
ENDROOT
TORSDOF 0
ENDMDL
