MODEL 1
REMARK minimizedAffinity -2.02103543
REMARK minimizedRMSD -1
REMARK  0 active torsions:
REMARK  status: ('A' for Active; 'I' for Inactive)
ROOT
ATOM      1  C2' OXE d   1      -1.626  -1.609  -0.076  0.00  0.00     0.078 C 
ATOM      2  C1' OXE d   1       0.756  -0.604  -1.169  0.00  0.00     0.078 C 
ATOM      3  C1  OXE d   1       0.809  -1.943  -0.478  0.00  0.00    -0.078 A 
ATOM      4  C2  OXE d   1      -0.351  -2.406   0.095  0.00  0.00    -0.078 A 
ATOM      5  C3  OXE d   1      -0.370  -3.660   0.698  0.00  0.00     0.003 A 
ATOM      6  C4  OXE d   1       0.816  -4.386   0.861  0.00  0.00    -0.002 A 
ATOM      7  C5  OXE d   1       2.017  -3.915   0.320  0.00  0.00    -0.002 A 
ATOM      8  C6  OXE d   1       2.022  -2.718  -0.388  0.00  0.00     0.003 A 
ENDROOT
TORSDOF 0
ENDMDL
