MODEL 1
REMARK minimizedAffinity -3.02537107
REMARK minimizedRMSD -1
REMARK  0 active torsions:
REMARK  status: ('A' for Active; 'I' for Inactive)
ROOT
ATOM      1  C2' OXE d   1      -1.007  -4.382   0.493  0.00  0.00     0.078 C 
ATOM      2  C1' OXE d   1       1.779  -4.709   0.388  0.00  0.00     0.078 C 
ATOM      3  C1  OXE d   1       1.220  -3.342   0.083  0.00  0.00    -0.078 A 
ATOM      4  C2  OXE d   1      -0.147  -3.203   0.091  0.00  0.00    -0.078 A 
ATOM      5  C3  OXE d   1      -0.714  -1.950  -0.129  0.00  0.00     0.003 A 
ATOM      6  C4  OXE d   1       0.088  -0.867  -0.511  0.00  0.00    -0.002 A 
ATOM      7  C5  OXE d   1       1.480  -0.998  -0.564  0.00  0.00    -0.002 A 
ATOM      8  C6  OXE d   1       2.063  -2.215  -0.229  0.00  0.00     0.003 A 
ENDROOT
TORSDOF 0
ENDMDL
