MODEL 1
REMARK minimizedAffinity -5.56574821
REMARK minimizedRMSD -1
REMARK  0 active torsions:
REMARK  status: ('A' for Active; 'I' for Inactive)
ROOT
ATOM      1  C2' OXE d   1       0.862  -3.941   0.618  0.00  0.00     0.078 C 
ATOM      2  C1' OXE d   1      -0.959  -1.873   0.083  0.00  0.00     0.078 C 
ATOM      3  C1  OXE d   1       0.432  -1.750  -0.486  0.00  0.00    -0.078 A 
ATOM      4  C2  OXE d   1       1.331  -2.744  -0.180  0.00  0.00    -0.078 A 
ATOM      5  C3  OXE d   1       2.611  -2.707  -0.725  0.00  0.00     0.003 A 
ATOM      6  C4  OXE d   1       3.040  -1.591  -1.454  0.00  0.00    -0.002 A 
ATOM      7  C5  OXE d   1       2.152  -0.549  -1.743  0.00  0.00    -0.002 A 
ATOM      8  C6  OXE d   1       0.836  -0.633  -1.304  0.00  0.00     0.003 A 
ENDROOT
TORSDOF 0
ENDMDL
