MODEL 1
REMARK minimizedAffinity -2.56019092
REMARK minimizedRMSD -1
REMARK  0 active torsions:
REMARK  status: ('A' for Active; 'I' for Inactive)
ROOT
ATOM      1  C2' OXE d   1       1.108  -0.807  -1.361  0.00  0.00     0.078 C 
ATOM      2  C1' OXE d   1       3.279  -2.298  -0.389  0.00  0.00     0.078 C 
ATOM      3  C1  OXE d   1       1.894  -2.864  -0.196  0.00  0.00    -0.078 A 
ATOM      4  C2  OXE d   1       0.835  -2.105  -0.632  0.00  0.00    -0.078 A 
ATOM      5  C3  OXE d   1      -0.460  -2.604  -0.528  0.00  0.00     0.003 A 
ATOM      6  C4  OXE d   1      -0.705  -3.801   0.156  0.00  0.00    -0.002 A 
ATOM      7  C5  OXE d   1       0.356  -4.570   0.644  0.00  0.00    -0.002 A 
ATOM      8  C6  OXE d   1       1.662  -4.138   0.439  0.00  0.00     0.003 A 
ENDROOT
TORSDOF 0
ENDMDL
