MODEL 1
REMARK minimizedAffinity 1.05715084
REMARK minimizedRMSD -1
REMARK  0 active torsions:
REMARK  status: ('A' for Active; 'I' for Inactive)
ROOT
ATOM      1  C2' OXE d   1       0.148  -0.704  -3.824  0.00  0.00     0.078 C 
ATOM      2  C1' OXE d   1      -0.064   1.296  -1.865  0.00  0.00     0.078 C 
ATOM      3  C1  OXE d   1       0.773   0.082  -1.544  0.00  0.00    -0.078 A 
ATOM      4  C2  OXE d   1       0.832  -0.913  -2.490  0.00  0.00    -0.078 A 
ATOM      5  C3  OXE d   1       1.634  -2.029  -2.267  0.00  0.00     0.003 A 
ATOM      6  C4  OXE d   1       2.255  -2.219  -1.027  0.00  0.00    -0.002 A 
ATOM      7  C5  OXE d   1       2.175  -1.236  -0.035  0.00  0.00    -0.002 A 
ATOM      8  C6  OXE d   1       1.474  -0.063  -0.293  0.00  0.00     0.003 A 
ENDROOT
TORSDOF 0
ENDMDL
