MODEL 1
REMARK minimizedAffinity -1.92331386
REMARK minimizedRMSD -1
REMARK  0 active torsions:
REMARK  status: ('A' for Active; 'I' for Inactive)
ROOT
ATOM      1  C2' OXE d   1       1.277  -4.596   0.963  0.00  0.00     0.078 C 
ATOM      2  C1' OXE d   1      -1.213  -3.308   1.114  0.00  0.00     0.078 C 
ATOM      3  C1  OXE d   1      -0.139  -2.667   0.270  0.00  0.00    -0.078 A 
ATOM      4  C2  OXE d   1       1.090  -3.280   0.240  0.00  0.00    -0.078 A 
ATOM      5  C3  OXE d   1       2.099  -2.760  -0.566  0.00  0.00     0.003 A 
ATOM      6  C4  OXE d   1       1.922  -1.537  -1.224  0.00  0.00    -0.002 A 
ATOM      7  C5  OXE d   1       0.690  -0.876  -1.174  0.00  0.00    -0.002 A 
ATOM      8  C6  OXE d   1      -0.362  -1.449  -0.468  0.00  0.00     0.003 A 
ENDROOT
TORSDOF 0
ENDMDL
