MODEL 1
REMARK minimizedAffinity 8.57244587
REMARK minimizedRMSD -1
REMARK  0 active torsions:
REMARK  status: ('A' for Active; 'I' for Inactive)
ROOT
ATOM      1  C2' OXE d   1      -5.824  -0.822   2.756  0.00  0.00     0.078 C 
ATOM      2  C1' OXE d   1      -3.938  -2.838   3.263  0.00  0.00     0.078 C 
ATOM      3  C1  OXE d   1      -3.621  -1.443   3.740  0.00  0.00    -0.078 A 
ATOM      4  C2  OXE d   1      -4.529  -0.454   3.447  0.00  0.00    -0.078 A 
ATOM      5  C3  OXE d   1      -4.312   0.840   3.911  0.00  0.00     0.003 A 
ATOM      6  C4  OXE d   1      -3.107   1.175   4.541  0.00  0.00    -0.002 A 
ATOM      7  C5  OXE d   1      -2.151   0.191   4.814  0.00  0.00    -0.002 A 
ATOM      8  C6  OXE d   1      -2.412  -1.129   4.459  0.00  0.00     0.003 A 
ENDROOT
TORSDOF 0
ENDMDL
