MODEL 1
REMARK minimizedAffinity 4.53416538
REMARK minimizedRMSD -1
REMARK  0 active torsions:
REMARK  status: ('A' for Active; 'I' for Inactive)
ROOT
ATOM      1  C2' OXE d   1       1.877  -3.595   0.299  0.00  0.00     0.078 C 
ATOM      2  C1' OXE d   1      -0.857  -2.982   0.484  0.00  0.00     0.078 C 
ATOM      3  C1  OXE d   1       0.026  -2.034  -0.289  0.00  0.00    -0.078 A 
ATOM      4  C2  OXE d   1       1.370  -2.317  -0.335  0.00  0.00    -0.078 A 
ATOM      5  C3  OXE d   1       2.220  -1.504  -1.080  0.00  0.00     0.003 A 
ATOM      6  C4  OXE d   1       1.745  -0.319  -1.654  0.00  0.00    -0.002 A 
ATOM      7  C5  OXE d   1       0.387   0.008  -1.585  0.00  0.00    -0.002 A 
ATOM      8  C6  OXE d   1      -0.492  -0.858  -0.944  0.00  0.00     0.003 A 
ENDROOT
TORSDOF 0
ENDMDL
