MODEL 1
REMARK minimizedAffinity -5.19681787
REMARK minimizedRMSD -1
REMARK  0 active torsions:
REMARK  status: ('A' for Active; 'I' for Inactive)
ROOT
ATOM      1  C2' OXE d   1       1.379  -0.395  -0.748  0.00  0.00     0.078 C 
ATOM      2  C1' OXE d   1      -1.275  -1.276  -0.496  0.00  0.00     0.078 C 
ATOM      3  C1  OXE d   1      -0.174  -2.259  -0.181  0.00  0.00    -0.078 A 
ATOM      4  C2  OXE d   1       1.121  -1.833  -0.352  0.00  0.00    -0.078 A 
ATOM      5  C3  OXE d   1       2.174  -2.681  -0.023  0.00  0.00     0.003 A 
ATOM      6  C4  OXE d   1       1.928  -4.013   0.333  0.00  0.00    -0.002 A 
ATOM      7  C5  OXE d   1       0.616  -4.478   0.474  0.00  0.00    -0.002 A 
ATOM      8  C6  OXE d   1      -0.444  -3.604   0.263  0.00  0.00     0.003 A 
ENDROOT
TORSDOF 0
ENDMDL
