MODEL 1
REMARK minimizedAffinity -0.787621558
REMARK minimizedRMSD -1
REMARK  0 active torsions:
REMARK  status: ('A' for Active; 'I' for Inactive)
ROOT
ATOM      1  C2' OXE d   1       1.086  -0.036  -1.045  0.00  0.00     0.078 C 
ATOM      2  C1' OXE d   1      -1.443  -1.228  -1.300  0.00  0.00     0.078 C 
ATOM      3  C1  OXE d   1      -0.373  -1.997  -0.567  0.00  0.00    -0.078 A 
ATOM      4  C2  OXE d   1       0.874  -1.427  -0.487  0.00  0.00    -0.078 A 
ATOM      5  C3  OXE d   1       1.882  -2.069   0.226  0.00  0.00     0.003 A 
ATOM      6  C4  OXE d   1       1.681  -3.360   0.731  0.00  0.00    -0.002 A 
ATOM      7  C5  OXE d   1       0.430  -3.976   0.626  0.00  0.00    -0.002 A 
ATOM      8  C6  OXE d   1      -0.618  -3.292   0.019  0.00  0.00     0.003 A 
ENDROOT
TORSDOF 0
ENDMDL
