MODEL 1
REMARK minimizedAffinity -1.42176735
REMARK minimizedRMSD -1
REMARK  0 active torsions:
REMARK  status: ('A' for Active; 'I' for Inactive)
ROOT
ATOM      1  C2' OXE d   1      -0.513  -4.047   0.267  0.00  0.00     0.078 C 
ATOM      2  C1' OXE d   1      -1.959  -1.980  -0.964  0.00  0.00     0.078 C 
ATOM      3  C1  OXE d   1      -0.514  -1.719  -0.621  0.00  0.00    -0.078 A 
ATOM      4  C2  OXE d   1       0.173  -2.720   0.024  0.00  0.00    -0.078 A 
ATOM      5  C3  OXE d   1       1.524  -2.552   0.314  0.00  0.00     0.003 A 
ATOM      6  C4  OXE d   1       2.148  -1.318   0.095  0.00  0.00    -0.002 A 
ATOM      7  C5  OXE d   1       1.455  -0.272  -0.524  0.00  0.00    -0.002 A 
ATOM      8  C6  OXE d   1       0.139  -0.470  -0.926  0.00  0.00     0.003 A 
ENDROOT
TORSDOF 0
ENDMDL
