MODEL 1
REMARK minimizedAffinity 2.21342874
REMARK minimizedRMSD -1
REMARK  0 active torsions:
REMARK  status: ('A' for Active; 'I' for Inactive)
ROOT
ATOM      1  C2' OXE d   1       2.260  -3.733   0.506  0.00  0.00     0.078 C 
ATOM      2  C1' OXE d   1      -0.526  -3.637   0.836  0.00  0.00     0.078 C 
ATOM      3  C1  OXE d   1       0.126  -2.533   0.043  0.00  0.00    -0.078 A 
ATOM      4  C2  OXE d   1       1.495  -2.562  -0.074  0.00  0.00    -0.078 A 
ATOM      5  C3  OXE d   1       2.142  -1.597  -0.841  0.00  0.00     0.003 A 
ATOM      6  C4  OXE d   1       1.429  -0.513  -1.365  0.00  0.00    -0.002 A 
ATOM      7  C5  OXE d   1       0.039  -0.442  -1.223  0.00  0.00    -0.002 A 
ATOM      8  C6  OXE d   1      -0.631  -1.464  -0.560  0.00  0.00     0.003 A 
ENDROOT
TORSDOF 0
ENDMDL
