MODEL 1
REMARK minimizedAffinity 4.05359125
REMARK minimizedRMSD -1
REMARK  0 active torsions:
REMARK  status: ('A' for Active; 'I' for Inactive)
ROOT
ATOM      1  C2' OXE d   1      -1.423  -1.528  -0.752  0.00  0.00     0.078 C 
ATOM      2  C1' OXE d   1       0.241   0.652  -1.351  0.00  0.00     0.078 C 
ATOM      3  C1  OXE d   1       0.898  -0.656  -0.986  0.00  0.00    -0.078 A 
ATOM      4  C2  OXE d   1       0.076  -1.705  -0.649  0.00  0.00    -0.078 A 
ATOM      5  C3  OXE d   1       0.630  -2.948  -0.358  0.00  0.00     0.003 A 
ATOM      6  C4  OXE d   1       2.018  -3.100  -0.256  0.00  0.00    -0.002 A 
ATOM      7  C5  OXE d   1       2.873  -2.034  -0.556  0.00  0.00    -0.002 A 
ATOM      8  C6  OXE d   1       2.331  -0.820  -0.963  0.00  0.00     0.003 A 
ENDROOT
TORSDOF 0
ENDMDL
