MODEL 1
REMARK minimizedAffinity -2.87397885
REMARK minimizedRMSD -1
REMARK  0 active torsions:
REMARK  status: ('A' for Active; 'I' for Inactive)
ROOT
ATOM      1  C2' OXE d   1       1.483  -5.385   1.031  0.00  0.00     0.078 C 
ATOM      2  C1' OXE d   1      -1.068  -4.214   1.012  0.00  0.00     0.078 C 
ATOM      3  C1  OXE d   1       0.083  -3.404   0.468  0.00  0.00    -0.078 A 
ATOM      4  C2  OXE d   1       1.335  -3.967   0.524  0.00  0.00    -0.078 A 
ATOM      5  C3  OXE d   1       2.422  -3.285  -0.015  0.00  0.00     0.003 A 
ATOM      6  C4  OXE d   1       2.278  -1.970  -0.472  0.00  0.00    -0.002 A 
ATOM      7  C5  OXE d   1       1.018  -1.362  -0.501  0.00  0.00    -0.002 A 
ATOM      8  C6  OXE d   1      -0.094  -2.080  -0.075  0.00  0.00     0.003 A 
ENDROOT
TORSDOF 0
ENDMDL
