MODEL 1
REMARK minimizedAffinity -1.80920875
REMARK minimizedRMSD -1
REMARK  0 active torsions:
REMARK  status: ('A' for Active; 'I' for Inactive)
ROOT
ATOM      1  C2' OXE d   1      -1.965   0.090   4.746  0.00  0.00     0.078 C 
ATOM      2  C1' OXE d   1      -4.151   1.553   5.728  0.00  0.00     0.078 C 
ATOM      3  C1  OXE d   1      -4.388   0.639   4.552  0.00  0.00    -0.078 A 
ATOM      4  C2  OXE d   1      -3.303  -0.038   4.048  0.00  0.00    -0.078 A 
ATOM      5  C3  OXE d   1      -3.476  -0.936   2.999  0.00  0.00     0.003 A 
ATOM      6  C4  OXE d   1      -4.714  -1.041   2.353  0.00  0.00    -0.002 A 
ATOM      7  C5  OXE d   1      -5.823  -0.330   2.825  0.00  0.00    -0.002 A 
ATOM      8  C6  OXE d   1      -5.687   0.479   3.947  0.00  0.00     0.003 A 
ENDROOT
TORSDOF 0
ENDMDL
