MODEL 1
REMARK minimizedAffinity -5.11185169
REMARK minimizedRMSD -1
REMARK  0 active torsions:
REMARK  status: ('A' for Active; 'I' for Inactive)
ROOT
ATOM      1  C2' OXE d   1       2.214  -0.812  -0.681  0.00  0.00     0.078 C 
ATOM      2  C1' OXE d   1      -0.569  -1.105  -0.467  0.00  0.00     0.078 C 
ATOM      3  C1  OXE d   1       0.294  -2.274  -0.062  0.00  0.00    -0.078 A 
ATOM      4  C2  OXE d   1       1.653  -2.138  -0.214  0.00  0.00    -0.078 A 
ATOM      5  C3  OXE d   1       2.499  -3.165   0.195  0.00  0.00     0.003 A 
ATOM      6  C4  OXE d   1       1.972  -4.392   0.617  0.00  0.00    -0.002 A 
ATOM      7  C5  OXE d   1       0.589  -4.565   0.741  0.00  0.00    -0.002 A 
ATOM      8  C6  OXE d   1      -0.260  -3.504   0.447  0.00  0.00     0.003 A 
ENDROOT
TORSDOF 0
ENDMDL
