MODEL 1
REMARK minimizedAffinity -0.350603372
REMARK minimizedRMSD -1
REMARK  0 active torsions:
REMARK  status: ('A' for Active; 'I' for Inactive)
ROOT
ATOM      1  C2' OXE d   1      -4.725  -1.052   2.793  0.00  0.00     0.078 C 
ATOM      2  C1' OXE d   1      -3.418   1.218   3.802  0.00  0.00     0.078 C 
ATOM      3  C1  OXE d   1      -3.784   1.209   2.339  0.00  0.00    -0.078 A 
ATOM      4  C2  OXE d   1      -4.381   0.075   1.844  0.00  0.00    -0.078 A 
ATOM      5  C3  OXE d   1      -4.789   0.035   0.513  0.00  0.00     0.003 A 
ATOM      6  C4  OXE d   1      -4.458   1.078  -0.361  0.00  0.00    -0.002 A 
ATOM      7  C5  OXE d   1      -3.814   2.225   0.114  0.00  0.00    -0.002 A 
ATOM      8  C6  OXE d   1      -3.509   2.324   1.467  0.00  0.00     0.003 A 
ENDROOT
TORSDOF 0
ENDMDL
