MODEL 1
REMARK minimizedAffinity -4.05540705
REMARK minimizedRMSD -1
REMARK  0 active torsions:
REMARK  status: ('A' for Active; 'I' for Inactive)
ROOT
ATOM      1  C2' OXE d   1      -0.483  -3.464   0.910  0.00  0.00     0.078 C 
ATOM      2  C1' OXE d   1       2.055  -2.418   1.497  0.00  0.00     0.078 C 
ATOM      3  C1  OXE d   1       1.235  -1.723   0.439  0.00  0.00    -0.078 A 
ATOM      4  C2  OXE d   1       0.014  -2.269   0.125  0.00  0.00    -0.078 A 
ATOM      5  C3  OXE d   1      -0.806  -1.637  -0.806  0.00  0.00     0.003 A 
ATOM      6  C4  OXE d   1      -0.334  -0.538  -1.534  0.00  0.00    -0.002 A 
ATOM      7  C5  OXE d   1       0.923   0.011  -1.258  0.00  0.00    -0.002 A 
ATOM      8  C6  OXE d   1       1.701  -0.543  -0.248  0.00  0.00     0.003 A 
ENDROOT
TORSDOF 0
ENDMDL
