MODEL 1
REMARK minimizedAffinity 13.7697983
REMARK minimizedRMSD -1
REMARK  2 active torsions:
REMARK  status: ('A' for Active; 'I' for Inactive)
REMARK    1  A    between atoms: C1_2  and  C2_3 
REMARK    2  A    between atoms: C2_3  and  C3_4 
ROOT
ATOM      1  C3  UNL d   1       3.634  -0.182   1.716  0.00  0.00    -0.075 A 
ATOM      2  C4  UNL d   1       2.601  -0.790   0.988  0.00  0.00     0.002 A 
ATOM      3  C5  UNL d   1       2.346  -0.411  -0.331  0.00  0.00     0.002 A 
ATOM      4  C6  UNL d   1       3.112   0.585  -0.933  0.00  0.00    -0.004 A 
ATOM      5  C7  UNL d   1       4.130   1.207  -0.213  0.00  0.00     0.002 A 
ATOM      6  C8  UNL d   1       4.390   0.827   1.104  0.00  0.00     0.002 A 
ENDROOT
BRANCH   1   7
ATOM      7  C2  UNL d   1       3.934  -0.608   3.133  0.00  0.00     0.056 C 
BRANCH   7   8
ATOM      8  C1  UNL d   1       5.223  -1.423   3.280  0.00  0.00     0.007 C 
ATOM      9  C   UNL d   1       5.955  -1.158   4.589  0.00  0.00     0.009 C 
ENDBRANCH   7   8
ENDBRANCH   1   7
TORSDOF 2
ENDMDL
