MODEL 1
REMARK minimizedAffinity 11.2450962
REMARK minimizedRMSD -1
REMARK  2 active torsions:
REMARK  status: ('A' for Active; 'I' for Inactive)
REMARK    1  A    between atoms: C1_2  and  C2_3 
REMARK    2  A    between atoms: C2_3  and  C3_4 
ROOT
ATOM      1  C3  UNL d   1      -2.491  -2.546  -3.874  0.00  0.00    -0.075 A 
ATOM      2  C4  UNL d   1      -2.133  -3.856  -3.526  0.00  0.00     0.002 A 
ATOM      3  C5  UNL d   1      -1.279  -4.095  -2.449  0.00  0.00     0.002 A 
ATOM      4  C6  UNL d   1      -0.765  -3.029  -1.714  0.00  0.00    -0.004 A 
ATOM      5  C7  UNL d   1      -1.102  -1.722  -2.061  0.00  0.00     0.002 A 
ATOM      6  C8  UNL d   1      -1.959  -1.481  -3.136  0.00  0.00     0.002 A 
ENDROOT
BRANCH   1   7
ATOM      7  C2  UNL d   1      -3.439  -2.283  -5.020  0.00  0.00     0.056 C 
BRANCH   7   8
ATOM      8  C1  UNL d   1      -4.130  -3.539  -5.559  0.00  0.00     0.007 C 
ATOM      9  C   UNL d   1      -5.021  -4.222  -4.530  0.00  0.00     0.009 C 
ENDBRANCH   7   8
ENDBRANCH   1   7
TORSDOF 2
ENDMDL
