MODEL 1
REMARK minimizedAffinity 4.13643789
REMARK minimizedRMSD -1
REMARK  2 active torsions:
REMARK  status: ('A' for Active; 'I' for Inactive)
REMARK    1  A    between atoms: C1_2  and  C2_3 
REMARK    2  A    between atoms: C2_3  and  C3_4 
ROOT
ATOM      1  C3  UNL d   1       4.097   1.468  -1.030  0.00  0.00    -0.075 A 
ATOM      2  C4  UNL d   1       3.001   0.596  -1.098  0.00  0.00     0.002 A 
ATOM      3  C5  UNL d   1       2.290   0.260   0.055  0.00  0.00     0.002 A 
ATOM      4  C6  UNL d   1       2.671   0.783   1.289  0.00  0.00    -0.004 A 
ATOM      5  C7  UNL d   1       3.768   1.637   1.371  0.00  0.00     0.002 A 
ATOM      6  C8  UNL d   1       4.479   1.978   0.218  0.00  0.00     0.002 A 
ENDROOT
BRANCH   1   7
ATOM      7  C2  UNL d   1       4.852   1.859  -2.278  0.00  0.00     0.056 C 
BRANCH   7   8
ATOM      8  C1  UNL d   1       6.000   2.843  -2.030  0.00  0.00     0.007 C 
ATOM      9  C   UNL d   1       6.000   4.021  -2.995  0.00  0.00     0.009 C 
ENDBRANCH   7   8
ENDBRANCH   1   7
TORSDOF 2
ENDMDL
