MODEL 1
REMARK minimizedAffinity 5.0157671
REMARK minimizedRMSD -1
REMARK  2 active torsions:
REMARK  status: ('A' for Active; 'I' for Inactive)
REMARK    1  A    between atoms: C1_2  and  C2_3 
REMARK    2  A    between atoms: C2_3  and  C3_4 
ROOT
ATOM      1  C3  UNL d   1       3.707   0.749  -0.928  0.00  0.00    -0.075 A 
ATOM      2  C4  UNL d   1       2.525   0.001  -1.032  0.00  0.00     0.002 A 
ATOM      3  C5  UNL d   1       1.788  -0.321   0.107  0.00  0.00     0.002 A 
ATOM      4  C6  UNL d   1       2.227   0.089   1.364  0.00  0.00    -0.004 A 
ATOM      5  C7  UNL d   1       3.408   0.818   1.481  0.00  0.00     0.002 A 
ATOM      6  C8  UNL d   1       4.146   1.146   0.342  0.00  0.00     0.002 A 
ENDROOT
BRANCH   1   7
ATOM      7  C2  UNL d   1       4.493   1.127  -2.160  0.00  0.00     0.056 C 
BRANCH   7   8
ATOM      8  C1  UNL d   1       5.799   1.871  -1.863  0.00  0.00     0.007 C 
ATOM      9  C   UNL d   1       5.999   3.104  -2.734  0.00  0.00     0.009 C 
ENDBRANCH   7   8
ENDBRANCH   1   7
TORSDOF 2
ENDMDL
