MODEL 1
REMARK minimizedAffinity 12.4705286
REMARK minimizedRMSD -1
REMARK  2 active torsions:
REMARK  status: ('A' for Active; 'I' for Inactive)
REMARK    1  A    between atoms: C1_2  and  C2_3 
REMARK    2  A    between atoms: C2_3  and  C3_4 
ROOT
ATOM      1  C3  UNL d   1       4.943   2.255  -0.987  0.00  0.00    -0.075 A 
ATOM      2  C4  UNL d   1       5.057   2.423   0.400  0.00  0.00     0.002 A 
ATOM      3  C5  UNL d   1       4.112   1.864   1.262  0.00  0.00     0.002 A 
ATOM      4  C6  UNL d   1       3.039   1.140   0.748  0.00  0.00    -0.004 A 
ATOM      5  C7  UNL d   1       2.906   0.981  -0.630  0.00  0.00     0.002 A 
ATOM      6  C8  UNL d   1       3.852   1.535  -1.494  0.00  0.00     0.002 A 
ENDROOT
BRANCH   1   7
ATOM      7  C2  UNL d   1       5.978   2.832  -1.923  0.00  0.00     0.056 C 
BRANCH   7   8
ATOM      8  C1  UNL d   1       5.998   4.364  -1.963  0.00  0.00     0.007 C 
ATOM      9  C   UNL d   1       5.233   4.944  -3.145  0.00  0.00     0.009 C 
ENDBRANCH   7   8
ENDBRANCH   1   7
TORSDOF 2
ENDMDL
