MODEL 1
REMARK minimizedAffinity 6.13221121
REMARK minimizedRMSD -1
REMARK  2 active torsions:
REMARK  status: ('A' for Active; 'I' for Inactive)
REMARK    1  A    between atoms: C1_2  and  C2_3 
REMARK    2  A    between atoms: C2_3  and  C3_4 
ROOT
ATOM      1  C3  UNL d   1       4.825   1.748  -1.092  0.00  0.00    -0.075 A 
ATOM      2  C4  UNL d   1       3.979   0.955  -1.881  0.00  0.00     0.002 A 
ATOM      3  C5  UNL d   1       2.904   0.277  -1.306  0.00  0.00     0.002 A 
ATOM      4  C6  UNL d   1       2.667   0.374   0.063  0.00  0.00    -0.004 A 
ATOM      5  C7  UNL d   1       3.511   1.145   0.860  0.00  0.00     0.002 A 
ATOM      6  C8  UNL d   1       4.585   1.828   0.286  0.00  0.00     0.002 A 
ENDROOT
BRANCH   1   7
ATOM      7  C2  UNL d   1       5.973   2.508  -1.712  0.00  0.00     0.056 C 
BRANCH   7   8
ATOM      8  C1  UNL d   1       5.999   2.457  -3.244  0.00  0.00     0.007 C 
ATOM      9  C   UNL d   1       5.996   1.039  -3.798  0.00  0.00     0.009 C 
ENDBRANCH   7   8
ENDBRANCH   1   7
TORSDOF 2
ENDMDL
