MODEL 1
REMARK minimizedAffinity 18.8864822
REMARK minimizedRMSD -1
REMARK  2 active torsions:
REMARK  status: ('A' for Active; 'I' for Inactive)
REMARK    1  A    between atoms: C1_2  and  C2_3 
REMARK    2  A    between atoms: C2_3  and  C3_4 
ROOT
ATOM      1  C3  UNL d   1       4.096   1.395  -1.537  0.00  0.00    -0.075 A 
ATOM      2  C4  UNL d   1       4.395   1.828  -0.237  0.00  0.00     0.002 A 
ATOM      3  C5  UNL d   1       3.675   1.343   0.855  0.00  0.00     0.002 A 
ATOM      4  C6  UNL d   1       2.642   0.429   0.661  0.00  0.00    -0.004 A 
ATOM      5  C7  UNL d   1       2.325   0.004  -0.628  0.00  0.00     0.002 A 
ATOM      6  C8  UNL d   1       3.047   0.484  -1.722  0.00  0.00     0.002 A 
ENDROOT
BRANCH   1   7
ATOM      7  C2  UNL d   1       4.891   1.893  -2.720  0.00  0.00     0.056 C 
BRANCH   7   8
ATOM      8  C1  UNL d   1       5.998   2.888  -2.353  0.00  0.00     0.007 C 
ATOM      9  C   UNL d   1       5.976   4.151  -3.203  0.00  0.00     0.009 C 
ENDBRANCH   7   8
ENDBRANCH   1   7
TORSDOF 2
ENDMDL
