MODEL 1
REMARK minimizedAffinity 13.3415966
REMARK minimizedRMSD -1
REMARK  2 active torsions:
REMARK  status: ('A' for Active; 'I' for Inactive)
REMARK    1  A    between atoms: C1_2  and  C2_3 
REMARK    2  A    between atoms: C2_3  and  C3_4 
ROOT
ATOM      1  C3  UNL d   1       0.844   3.319   2.614  0.00  0.00    -0.075 A 
ATOM      2  C4  UNL d   1       2.178   2.905   2.734  0.00  0.00     0.002 A 
ATOM      3  C5  UNL d   1       2.593   2.162   3.840  0.00  0.00     0.002 A 
ATOM      4  C6  UNL d   1       1.683   1.832   4.842  0.00  0.00    -0.004 A 
ATOM      5  C7  UNL d   1       0.359   2.252   4.741  0.00  0.00     0.002 A 
ATOM      6  C8  UNL d   1      -0.060   2.993   3.634  0.00  0.00     0.002 A 
ENDROOT
BRANCH   1   7
ATOM      7  C2  UNL d   1       0.382   4.099   1.406  0.00  0.00     0.056 C 
BRANCH   7   8
ATOM      8  C1  UNL d   1      -0.666   5.172   1.720  0.00  0.00     0.007 C 
ATOM      9  C   UNL d   1      -0.329   5.998   2.954  0.00  0.00     0.009 C 
ENDBRANCH   7   8
ENDBRANCH   1   7
TORSDOF 2
ENDMDL
