MODEL 1
REMARK minimizedAffinity -4.28986311
REMARK minimizedRMSD -1
REMARK  0 active torsions:
REMARK  status: ('A' for Active; 'I' for Inactive)
ROOT
ATOM      1  O1  BZF d   1       0.936   3.373   0.559  0.00  0.00    -0.204 OA
ATOM      2  C2  BZF d   1       2.303   3.299   0.745  0.00  0.00     0.174 A 
ATOM      3  C3  BZF d   1       2.717   2.016   0.742  0.00  0.00    -0.012 A 
ATOM      4  C3A BZF d   1       1.548   1.244   0.450  0.00  0.00    -0.107 A 
ATOM      5  C4  BZF d   1       1.321  -0.094   0.297  0.00  0.00     0.055 A 
ATOM      6  C5  BZF d   1       0.051  -0.528   0.088  0.00  0.00    -0.016 A 
ATOM      7  C6  BZF d   1      -1.015   0.345   0.031  0.00  0.00     0.022 A 
ATOM      8  C7  BZF d   1      -0.839   1.682   0.172  0.00  0.00     0.029 A 
ATOM      9  C7A BZF d   1       0.448   2.127   0.351  0.00  0.00     0.058 A 
ENDROOT
TORSDOF 0
ENDMDL
