MODEL 1
REMARK minimizedAffinity -5.73605251
REMARK minimizedRMSD -1
REMARK  0 active torsions:
REMARK  status: ('A' for Active; 'I' for Inactive)
ROOT
ATOM      1  O1  BZF d   1       0.759  -0.038   0.062  0.00  0.00    -0.204 OA
ATOM      2  C2  BZF d   1       0.872   1.006  -0.835  0.00  0.00     0.174 A 
ATOM      3  C3  BZF d   1      -0.282   1.183  -1.510  0.00  0.00    -0.012 A 
ATOM      4  C3A BZF d   1      -1.201   0.248  -0.937  0.00  0.00    -0.107 A 
ATOM      5  C4  BZF d   1      -2.513  -0.045  -1.174  0.00  0.00     0.055 A 
ATOM      6  C5  BZF d   1      -3.097  -1.064  -0.491  0.00  0.00    -0.016 A 
ATOM      7  C6  BZF d   1      -2.397  -1.815   0.431  0.00  0.00     0.022 A 
ATOM      8  C7  BZF d   1      -1.094  -1.559   0.703  0.00  0.00     0.029 A 
ATOM      9  C7A BZF d   1      -0.511  -0.508   0.039  0.00  0.00     0.058 A 
ENDROOT
TORSDOF 0
ENDMDL
