MODEL 1
REMARK minimizedAffinity -0.467232317
REMARK minimizedRMSD -1
REMARK  0 active torsions:
REMARK  status: ('A' for Active; 'I' for Inactive)
ROOT
ATOM      1  O1  BZF d   1       3.086   4.913   1.477  0.00  0.00    -0.204 OA
ATOM      2  C2  BZF d   1       2.527   3.821   2.113  0.00  0.00     0.174 A 
ATOM      3  C3  BZF d   1       2.841   2.680   1.468  0.00  0.00    -0.012 A 
ATOM      4  C3A BZF d   1       3.722   3.074   0.412  0.00  0.00    -0.107 A 
ATOM      5  C4  BZF d   1       4.385   2.386  -0.565  0.00  0.00     0.055 A 
ATOM      6  C5  BZF d   1       5.108   3.077  -1.485  0.00  0.00    -0.016 A 
ATOM      7  C6  BZF d   1       5.186   4.455  -1.462  0.00  0.00     0.022 A 
ATOM      8  C7  BZF d   1       4.550   5.180  -0.510  0.00  0.00     0.029 A 
ATOM      9  C7A BZF d   1       3.845   4.483   0.441  0.00  0.00     0.058 A 
ENDROOT
TORSDOF 0
ENDMDL
