MODEL 1
REMARK minimizedAffinity 0.463759422
REMARK minimizedRMSD -1
REMARK  0 active torsions:
REMARK  status: ('A' for Active; 'I' for Inactive)
ROOT
ATOM      1  O1  BZF d   1       2.692   1.970   0.685  0.00  0.00    -0.204 OA
ATOM      2  C2  BZF d   1       2.363   3.241   1.113  0.00  0.00     0.174 A 
ATOM      3  C3  BZF d   1       1.040   3.336   1.358  0.00  0.00    -0.012 A 
ATOM      4  C3A BZF d   1       0.524   2.017   1.153  0.00  0.00    -0.107 A 
ATOM      5  C4  BZF d   1      -0.723   1.470   1.257  0.00  0.00     0.055 A 
ATOM      6  C5  BZF d   1      -0.903   0.166   0.916  0.00  0.00    -0.016 A 
ATOM      7  C6  BZF d   1       0.139  -0.616   0.462  0.00  0.00     0.022 A 
ATOM      8  C7  BZF d   1       1.394  -0.119   0.347  0.00  0.00     0.029 A 
ATOM      9  C7A BZF d   1       1.586   1.189   0.722  0.00  0.00     0.058 A 
ENDROOT
TORSDOF 0
ENDMDL
