MODEL 1
REMARK minimizedAffinity -5.62144279
REMARK minimizedRMSD -1
REMARK  0 active torsions:
REMARK  status: ('A' for Active; 'I' for Inactive)
ROOT
ATOM      1  O1  BZF d   1      -0.064  -0.589   0.476  0.00  0.00    -0.204 OA
ATOM      2  C2  BZF d   1      -0.014   0.590  -0.243  0.00  0.00     0.174 A 
ATOM      3  C3  BZF d   1      -1.171   0.796  -0.904  0.00  0.00    -0.012 A 
ATOM      4  C3A BZF d   1      -2.029  -0.277  -0.506  0.00  0.00    -0.107 A 
ATOM      5  C4  BZF d   1      -3.317  -0.613  -0.813  0.00  0.00     0.055 A 
ATOM      6  C5  BZF d   1      -3.836  -1.765  -0.313  0.00  0.00    -0.016 A 
ATOM      7  C6  BZF d   1      -3.096  -2.606   0.492  0.00  0.00     0.022 A 
ATOM      8  C7  BZF d   1      -1.816  -2.312   0.829  0.00  0.00     0.029 A 
ATOM      9  C7A BZF d   1      -1.299  -1.132   0.351  0.00  0.00     0.058 A 
ENDROOT
TORSDOF 0
ENDMDL
