MODEL 1
REMARK minimizedAffinity -5.22965431
REMARK minimizedRMSD -1
REMARK  0 active torsions:
REMARK  status: ('A' for Active; 'I' for Inactive)
ROOT
ATOM      1  O1  BZF d   1       0.329  -1.310   0.989  0.00  0.00    -0.204 OA
ATOM      2  C2  BZF d   1       0.631  -0.158   0.289  0.00  0.00     0.174 A 
ATOM      3  C3  BZF d   1      -0.443   0.278  -0.399  0.00  0.00    -0.012 A 
ATOM      4  C3A BZF d   1      -1.507  -0.608  -0.038  0.00  0.00    -0.107 A 
ATOM      5  C4  BZF d   1      -2.827  -0.680  -0.382  0.00  0.00     0.055 A 
ATOM      6  C5  BZF d   1      -3.577  -1.710   0.090  0.00  0.00    -0.016 A 
ATOM      7  C6  BZF d   1      -3.040  -2.687   0.902  0.00  0.00     0.022 A 
ATOM      8  C7  BZF d   1      -1.737  -2.655   1.274  0.00  0.00     0.029 A 
ATOM      9  C7A BZF d   1      -0.984  -1.597   0.826  0.00  0.00     0.058 A 
ENDROOT
TORSDOF 0
ENDMDL
