MODEL 1
REMARK minimizedAffinity -3.37435555
REMARK minimizedRMSD -1
REMARK  0 active torsions:
REMARK  status: ('A' for Active; 'I' for Inactive)
ROOT
ATOM      1  O1  BZF d   1       1.262   3.072   0.632  0.00  0.00    -0.204 OA
ATOM      2  C2  BZF d   1       2.540   3.187   1.144  0.00  0.00     0.174 A 
ATOM      3  C3  BZF d   1       3.093   1.971   1.329  0.00  0.00    -0.012 A 
ATOM      4  C3A BZF d   1       2.134   1.040   0.819  0.00  0.00    -0.107 A 
ATOM      5  C4  BZF d   1       2.113  -0.321   0.707  0.00  0.00     0.055 A 
ATOM      6  C5  BZF d   1       0.994  -0.927   0.231  0.00  0.00    -0.016 A 
ATOM      7  C6  BZF d   1      -0.122  -0.206  -0.138  0.00  0.00     0.022 A 
ATOM      8  C7  BZF d   1      -0.147   1.146  -0.051  0.00  0.00     0.029 A 
ATOM      9  C7A BZF d   1       0.994   1.765   0.400  0.00  0.00     0.058 A 
ENDROOT
TORSDOF 0
ENDMDL
