MODEL 1
REMARK minimizedAffinity -5.94330263
REMARK minimizedRMSD -1
REMARK  0 active torsions:
REMARK  status: ('A' for Active; 'I' for Inactive)
ROOT
ATOM      1  O1  BZF d   1       0.709  -0.433   0.759  0.00  0.00    -0.204 OA
ATOM      2  C2  BZF d   1       0.780   0.760   0.067  0.00  0.00     0.174 A 
ATOM      3  C3  BZF d   1      -0.408   1.058  -0.497  0.00  0.00    -0.012 A 
ATOM      4  C3A BZF d   1      -1.301   0.031  -0.058  0.00  0.00    -0.107 A 
ATOM      5  C4  BZF d   1      -2.628  -0.214  -0.270  0.00  0.00     0.055 A 
ATOM      6  C5  BZF d   1      -3.181  -1.345   0.243  0.00  0.00    -0.016 A 
ATOM      7  C6  BZF d   1      -2.438  -2.253   0.968  0.00  0.00     0.022 A 
ATOM      8  C7  BZF d   1      -1.120  -2.050   1.209  0.00  0.00     0.029 A 
ATOM      9  C7A BZF d   1      -0.565  -0.893   0.720  0.00  0.00     0.058 A 
ENDROOT
TORSDOF 0
ENDMDL
