MODEL 1
REMARK minimizedAffinity -4.15853739
REMARK minimizedRMSD -1
REMARK  0 active torsions:
REMARK  status: ('A' for Active; 'I' for Inactive)
ROOT
ATOM      1  O1  BZF d   1       1.322   3.177   0.990  0.00  0.00    -0.204 OA
ATOM      2  C2  BZF d   1       2.629   3.209   1.435  0.00  0.00     0.174 A 
ATOM      3  C3  BZF d   1       3.165   1.972   1.437  0.00  0.00    -0.012 A 
ATOM      4  C3A BZF d   1       2.157   1.125   0.875  0.00  0.00    -0.107 A 
ATOM      5  C4  BZF d   1       2.100  -0.211   0.600  0.00  0.00     0.055 A 
ATOM      6  C5  BZF d   1       0.943  -0.738   0.121  0.00  0.00    -0.016 A 
ATOM      7  C6  BZF d   1      -0.176   0.040  -0.090  0.00  0.00     0.022 A 
ATOM      8  C7  BZF d   1      -0.166   1.371   0.163  0.00  0.00     0.029 A 
ATOM      9  C7A BZF d   1       1.012   1.913   0.616  0.00  0.00     0.058 A 
ENDROOT
TORSDOF 0
ENDMDL
