MODEL 1
REMARK minimizedAffinity -2.50644875
REMARK minimizedRMSD -1
REMARK  0 active torsions:
REMARK  status: ('A' for Active; 'I' for Inactive)
ROOT
ATOM      1  O1  BZF d   1      -0.351  -0.563  -0.217  0.00  0.00    -0.204 OA
ATOM      2  C2  BZF d   1      -1.131   0.220  -1.046  0.00  0.00     0.174 A 
ATOM      3  C3  BZF d   1      -0.533   1.404  -1.288  0.00  0.00    -0.012 A 
ATOM      4  C3A BZF d   1       0.740   1.322  -0.640  0.00  0.00    -0.107 A 
ATOM      5  C4  BZF d   1       1.797   2.181  -0.533  0.00  0.00     0.055 A 
ATOM      6  C5  BZF d   1       2.862   1.826   0.232  0.00  0.00    -0.016 A 
ATOM      7  C6  BZF d   1       2.901   0.624   0.909  0.00  0.00     0.022 A 
ATOM      8  C7  BZF d   1       1.879  -0.262   0.830  0.00  0.00     0.029 A 
ATOM      9  C7A BZF d   1       0.816   0.079   0.030  0.00  0.00     0.058 A 
ENDROOT
TORSDOF 0
ENDMDL
