MODEL 1
REMARK minimizedAffinity 0.382864982
REMARK minimizedRMSD -1
REMARK  0 active torsions:
REMARK  status: ('A' for Active; 'I' for Inactive)
ROOT
ATOM      1  O1  BZF d   1       1.641   2.392   2.563  0.00  0.00    -0.204 OA
ATOM      2  C2  BZF d   1       2.769   2.310   1.771  0.00  0.00     0.174 A 
ATOM      3  C3  BZF d   1       2.815   1.127   1.125  0.00  0.00    -0.012 A 
ATOM      4  C3A BZF d   1       1.595   0.464   1.468  0.00  0.00    -0.107 A 
ATOM      5  C4  BZF d   1       1.053  -0.742   1.124  0.00  0.00     0.055 A 
ATOM      6  C5  BZF d   1      -0.122  -1.123   1.690  0.00  0.00    -0.016 A 
ATOM      7  C6  BZF d   1      -0.779  -0.328   2.606  0.00  0.00     0.022 A 
ATOM      8  C7  BZF d   1      -0.283   0.878   2.974  0.00  0.00     0.029 A 
ATOM      9  C7A BZF d   1       0.888   1.281   2.379  0.00  0.00     0.058 A 
ENDROOT
TORSDOF 0
ENDMDL
