MODEL 1
REMARK minimizedAffinity -2.12636685
REMARK minimizedRMSD -1
REMARK  0 active torsions:
REMARK  status: ('A' for Active; 'I' for Inactive)
ROOT
ATOM      1  O1  BZF d   1      -0.137   0.313  -1.917  0.00  0.00    -0.204 OA
ATOM      2  C2  BZF d   1       0.712   0.831  -0.958  0.00  0.00     0.174 A 
ATOM      3  C3  BZF d   1       0.296   0.494   0.280  0.00  0.00    -0.012 A 
ATOM      4  C3A BZF d   1      -0.834  -0.359   0.079  0.00  0.00    -0.107 A 
ATOM      5  C4  BZF d   1      -1.670  -1.026   0.928  0.00  0.00     0.055 A 
ATOM      6  C5  BZF d   1      -2.722  -1.716   0.413  0.00  0.00    -0.016 A 
ATOM      7  C6  BZF d   1      -2.971  -1.755  -0.944  0.00  0.00     0.022 A 
ATOM      8  C7  BZF d   1      -2.166  -1.113  -1.826  0.00  0.00     0.029 A 
ATOM      9  C7A BZF d   1      -1.083  -0.443  -1.311  0.00  0.00     0.058 A 
ENDROOT
TORSDOF 0
ENDMDL
