MODEL 1
REMARK minimizedAffinity -4.74534082
REMARK minimizedRMSD -1
REMARK  0 active torsions:
REMARK  status: ('A' for Active; 'I' for Inactive)
ROOT
ATOM      1  O1  BZF d   1       0.406  -0.693   1.043  0.00  0.00    -0.204 OA
ATOM      2  C2  BZF d   1       1.557   0.044   0.844  0.00  0.00     0.174 A 
ATOM      3  C3  BZF d   1       1.481   0.753  -0.300  0.00  0.00    -0.012 A 
ATOM      4  C3A BZF d   1       0.164   0.511  -0.805  0.00  0.00    -0.107 A 
ATOM      5  C4  BZF d   1      -0.515   0.949  -1.906  0.00  0.00     0.055 A 
ATOM      6  C5  BZF d   1      -1.762   0.466  -2.149  0.00  0.00    -0.016 A 
ATOM      7  C6  BZF d   1      -2.358  -0.458  -1.316  0.00  0.00     0.022 A 
ATOM      8  C7  BZF d   1      -1.725  -0.919  -0.209  0.00  0.00     0.029 A 
ATOM      9  C7A BZF d   1      -0.478  -0.408   0.057  0.00  0.00     0.058 A 
ENDROOT
TORSDOF 0
ENDMDL
