MODEL 1
REMARK minimizedAffinity 2.8838892
REMARK minimizedRMSD -1
REMARK  0 active torsions:
REMARK  status: ('A' for Active; 'I' for Inactive)
ROOT
ATOM      1  C1  BNZ d   1       0.314   0.198  -1.108  0.00  0.00     0.000 A 
ATOM      2  C2  BNZ d   1       0.501   1.182  -2.042  0.00  0.00     0.000 A 
ATOM      3  C3  BNZ d   1       1.195   0.931  -3.193  0.00  0.00     0.000 A 
ATOM      4  C4  BNZ d   1       1.734  -0.289  -3.390  0.00  0.00     0.000 A 
ATOM      5  C5  BNZ d   1       1.561  -1.289  -2.454  0.00  0.00     0.000 A 
ATOM      6  C6  BNZ d   1       0.829  -1.045  -1.315  0.00  0.00     0.000 A 
ENDROOT
TORSDOF 0
ENDMDL
