MODEL 1
REMARK minimizedAffinity -2.98906612
REMARK minimizedRMSD -1
REMARK  0 active torsions:
REMARK  status: ('A' for Active; 'I' for Inactive)
ROOT
ATOM      1  C1  BNZ d   1       3.937   1.824  -4.295  0.00  0.00     0.000 A 
ATOM      2  C2  BNZ d   1       3.202   2.978  -4.223  0.00  0.00     0.000 A 
ATOM      3  C3  BNZ d   1       3.737   4.116  -3.687  0.00  0.00     0.000 A 
ATOM      4  C4  BNZ d   1       4.990   4.089  -3.189  0.00  0.00     0.000 A 
ATOM      5  C5  BNZ d   1       5.740   2.931  -3.247  0.00  0.00     0.000 A 
ATOM      6  C6  BNZ d   1       5.212   1.798  -3.821  0.00  0.00     0.000 A 
ENDROOT
TORSDOF 0
ENDMDL
