MODEL 1
REMARK minimizedAffinity 5.37495136
REMARK minimizedRMSD -1
REMARK  0 active torsions:
REMARK  status: ('A' for Active; 'I' for Inactive)
ROOT
ATOM      1  C1  BNZ d   1      -5.999  -4.751  -1.812  0.00  0.00     0.000 A 
ATOM      2  C2  BNZ d   1      -5.212  -3.650  -2.021  0.00  0.00     0.000 A 
ATOM      3  C3  BNZ d   1      -3.929  -3.608  -1.551  0.00  0.00     0.000 A 
ATOM      4  C4  BNZ d   1      -3.449  -4.647  -0.838  0.00  0.00     0.000 A 
ATOM      5  C5  BNZ d   1      -4.234  -5.760  -0.610  0.00  0.00     0.000 A 
ATOM      6  C6  BNZ d   1      -5.511  -5.816  -1.119  0.00  0.00     0.000 A 
ENDROOT
TORSDOF 0
ENDMDL
