MODEL 1
REMARK minimizedAffinity -3.38276935
REMARK minimizedRMSD -1
REMARK  0 active torsions:
REMARK  status: ('A' for Active; 'I' for Inactive)
ROOT
ATOM      1  C1  BNZ d   1       0.528  -0.656  -2.309  0.00  0.00     0.000 A 
ATOM      2  C2  BNZ d   1       1.163  -1.798  -1.899  0.00  0.00     0.000 A 
ATOM      3  C3  BNZ d   1       1.197  -2.144  -0.577  0.00  0.00     0.000 A 
ATOM      4  C4  BNZ d   1       0.631  -1.329   0.336  0.00  0.00     0.000 A 
ATOM      5  C5  BNZ d   1      -0.005  -0.169  -0.060  0.00  0.00     0.000 A 
ATOM      6  C6  BNZ d   1      -0.071   0.156  -1.395  0.00  0.00     0.000 A 
ENDROOT
TORSDOF 0
ENDMDL
