MODEL 1
REMARK minimizedAffinity -2.37423563
REMARK minimizedRMSD -1
REMARK  0 active torsions:
REMARK  status: ('A' for Active; 'I' for Inactive)
ROOT
ATOM      1  C1  BNZ d   1       1.834  -0.790  -2.648  0.00  0.00     0.000 A 
ATOM      2  C2  BNZ d   1       1.748  -1.608  -1.553  0.00  0.00     0.000 A 
ATOM      3  C3  BNZ d   1       0.905  -1.308  -0.520  0.00  0.00     0.000 A 
ATOM      4  C4  BNZ d   1       0.180  -0.172  -0.564  0.00  0.00     0.000 A 
ATOM      5  C5  BNZ d   1       0.263   0.668  -1.656  0.00  0.00     0.000 A 
ATOM      6  C6  BNZ d   1       1.084   0.343  -2.712  0.00  0.00     0.000 A 
ENDROOT
TORSDOF 0
ENDMDL
