MODEL 1
REMARK minimizedAffinity -3.92810869
REMARK minimizedRMSD -1
REMARK  0 active torsions:
REMARK  status: ('A' for Active; 'I' for Inactive)
ROOT
ATOM      1  C1  BNZ d   1      -0.844  -0.365   0.168  0.00  0.00     0.000 A 
ATOM      2  C2  BNZ d   1      -0.006  -1.441   0.045  0.00  0.00     0.000 A 
ATOM      3  C3  BNZ d   1       1.112  -1.372  -0.738  0.00  0.00     0.000 A 
ATOM      4  C4  BNZ d   1       1.370  -0.242  -1.428  0.00  0.00     0.000 A 
ATOM      5  C5  BNZ d   1       0.530   0.848  -1.322  0.00  0.00     0.000 A 
ATOM      6  C6  BNZ d   1      -0.574   0.789  -0.502  0.00  0.00     0.000 A 
ENDROOT
TORSDOF 0
ENDMDL
