MODEL 1
REMARK minimizedAffinity -0.453529745
REMARK minimizedRMSD -1
REMARK  0 active torsions:
REMARK  status: ('A' for Active; 'I' for Inactive)
ROOT
ATOM      1  C1  BNZ d   1       0.051  -0.798  -0.372  0.00  0.00     0.000 A 
ATOM      2  C2  BNZ d   1       0.740  -1.933  -0.707  0.00  0.00     0.000 A 
ATOM      3  C3  BNZ d   1       1.488  -1.986  -1.850  0.00  0.00     0.000 A 
ATOM      4  C4  BNZ d   1       1.516  -0.919  -2.675  0.00  0.00     0.000 A 
ATOM      5  C5  BNZ d   1       0.820   0.229  -2.355  0.00  0.00     0.000 A 
ATOM      6  C6  BNZ d   1       0.099   0.293  -1.185  0.00  0.00     0.000 A 
ENDROOT
TORSDOF 0
ENDMDL
