MODEL 1
REMARK minimizedAffinity -2.5037756
REMARK minimizedRMSD -1
REMARK  0 active torsions:
REMARK  status: ('A' for Active; 'I' for Inactive)
ROOT
ATOM      1  C1  BNZ d   1      -0.300   4.467   1.772  0.00  0.00     0.000 A 
ATOM      2  C2  BNZ d   1      -0.100   3.160   1.413  0.00  0.00     0.000 A 
ATOM      3  C3  BNZ d   1      -0.234   2.764   0.112  0.00  0.00     0.000 A 
ATOM      4  C4  BNZ d   1      -0.607   3.664  -0.821  0.00  0.00     0.000 A 
ATOM      5  C5  BNZ d   1      -0.821   4.983  -0.473  0.00  0.00     0.000 A 
ATOM      6  C6  BNZ d   1      -0.647   5.387   0.831  0.00  0.00     0.000 A 
ENDROOT
TORSDOF 0
ENDMDL
