MODEL 1
REMARK minimizedAffinity -3.0218091
REMARK minimizedRMSD -1
REMARK  0 active torsions:
REMARK  status: ('A' for Active; 'I' for Inactive)
ROOT
ATOM      1  C1  BNZ d   1       0.304   0.384   0.602  0.00  0.00     0.000 A 
ATOM      2  C2  BNZ d   1       1.083  -0.735   0.477  0.00  0.00     0.000 A 
ATOM      3  C3  BNZ d   1       0.567  -1.893  -0.036  0.00  0.00     0.000 A 
ATOM      4  C4  BNZ d   1      -0.735  -1.941  -0.385  0.00  0.00     0.000 A 
ATOM      5  C5  BNZ d   1      -1.535  -0.823  -0.257  0.00  0.00     0.000 A 
ATOM      6  C6  BNZ d   1      -1.003   0.351   0.224  0.00  0.00     0.000 A 
ENDROOT
TORSDOF 0
ENDMDL
