MODEL 1
REMARK minimizedAffinity -3.3705833
REMARK minimizedRMSD -1
REMARK  0 active torsions:
REMARK  status: ('A' for Active; 'I' for Inactive)
ROOT
ATOM      1  C1  BNZ d   1       0.199   1.520  -1.465  0.00  0.00     0.000 A 
ATOM      2  C2  BNZ d   1       0.753   0.336  -1.057  0.00  0.00     0.000 A 
ATOM      3  C3  BNZ d   1       0.025  -0.563  -0.329  0.00  0.00     0.000 A 
ATOM      4  C4  BNZ d   1      -1.241  -0.260   0.024  0.00  0.00     0.000 A 
ATOM      5  C5  BNZ d   1      -1.810   0.934  -0.372  0.00  0.00     0.000 A 
ATOM      6  C6  BNZ d   1      -1.087   1.820  -1.138  0.00  0.00     0.000 A 
ENDROOT
TORSDOF 0
ENDMDL
