MODEL 1
REMARK minimizedAffinity -4.93822241
REMARK minimizedRMSD -1
REMARK  0 active torsions:
REMARK  status: ('A' for Active; 'I' for Inactive)
ROOT
ATOM      1  C1  BNZ d   1       1.635  -0.904  -1.722  0.00  0.00     0.000 A 
ATOM      2  C2  BNZ d   1       1.489   0.120  -2.619  0.00  0.00     0.000 A 
ATOM      3  C3  BNZ d   1       1.494  -0.123  -3.964  0.00  0.00     0.000 A 
ATOM      4  C4  BNZ d   1       1.685  -1.381  -4.410  0.00  0.00     0.000 A 
ATOM      5  C5  BNZ d   1       1.843  -2.423  -3.518  0.00  0.00     0.000 A 
ATOM      6  C6  BNZ d   1       1.798  -2.181  -2.164  0.00  0.00     0.000 A 
ENDROOT
TORSDOF 0
ENDMDL
