MODEL 1
REMARK minimizedAffinity -3.55692077
REMARK minimizedRMSD -1
REMARK  0 active torsions:
REMARK  status: ('A' for Active; 'I' for Inactive)
ROOT
ATOM      1  C1  BNZ d   1       5.269   1.003   5.496  0.00  0.00     0.000 A 
ATOM      2  C2  BNZ d   1       5.332  -0.274   5.989  0.00  0.00     0.000 A 
ATOM      3  C3  BNZ d   1       5.471  -1.342   5.148  0.00  0.00     0.000 A 
ATOM      4  C4  BNZ d   1       5.507  -1.138   3.816  0.00  0.00     0.000 A 
ATOM      5  C5  BNZ d   1       5.435   0.142   3.303  0.00  0.00     0.000 A 
ATOM      6  C6  BNZ d   1       5.334   1.219   4.154  0.00  0.00     0.000 A 
ENDROOT
TORSDOF 0
ENDMDL
