MODEL 1
REMARK minimizedAffinity 0.694050193
REMARK minimizedRMSD -1
REMARK  0 active torsions:
REMARK  status: ('A' for Active; 'I' for Inactive)
ROOT
ATOM      1  C1  BNZ d   1      -0.588  -1.215   0.154  0.00  0.00     0.000 A 
ATOM      2  C2  BNZ d   1       0.139  -2.346   0.416  0.00  0.00     0.000 A 
ATOM      3  C3  BNZ d   1       1.178  -2.713  -0.393  0.00  0.00     0.000 A 
ATOM      4  C4  BNZ d   1       1.462  -1.972  -1.483  0.00  0.00     0.000 A 
ATOM      5  C5  BNZ d   1       0.733  -0.835  -1.766  0.00  0.00     0.000 A 
ATOM      6  C6  BNZ d   1      -0.287  -0.447  -0.928  0.00  0.00     0.000 A 
ENDROOT
TORSDOF 0
ENDMDL
