MODEL 1
REMARK minimizedAffinity -2.80864811
REMARK minimizedRMSD -1
REMARK  2 active torsions:
REMARK  status: ('A' for Active; 'I' for Inactive)
REMARK    1  A    between atoms: C2'_3  and  C1'_4 
REMARK    2  A    between atoms: C1'_4  and  C1_5 
ROOT
ATOM      1  C1  I4B d   1      -0.115   0.420   0.525  0.00  0.00    -0.075 A 
ATOM      2  C2  I4B d   1       0.581  -0.722   0.217  0.00  0.00     0.003 A 
ATOM      3  C3  I4B d   1       0.214  -1.960   0.798  0.00  0.00     0.002 A 
ATOM      4  C4  I4B d   1      -0.816  -2.001   1.715  0.00  0.00    -0.004 A 
ATOM      5  C5  I4B d   1      -1.536  -0.846   2.010  0.00  0.00     0.002 A 
ATOM      6  C6  I4B d   1      -1.191   0.370   1.401  0.00  0.00     0.003 A 
ENDROOT
BRANCH   1   7
ATOM      7  C1' I4B d   1       0.320   1.715  -0.082  0.00  0.00     0.060 C 
BRANCH   7   8
ATOM      8  C2' I4B d   1       0.863   1.423  -1.467  0.00  0.00    -0.013 C 
ATOM      9  C4' I4B d   1      -0.196   1.622  -2.520  0.00  0.00     0.013 C 
ATOM     10  C3' I4B d   1       2.038   2.325  -1.703  0.00  0.00     0.013 C 
ENDBRANCH   7   8
ENDBRANCH   1   7
TORSDOF 2
ENDMDL
