MODEL 1
REMARK minimizedAffinity -4.38090897
REMARK minimizedRMSD -1
REMARK  2 active torsions:
REMARK  status: ('A' for Active; 'I' for Inactive)
REMARK    1  A    between atoms: C2'_3  and  C1'_4 
REMARK    2  A    between atoms: C1'_4  and  C1_5 
ROOT
ATOM      1  C1  I4B d   1       0.585   0.429  -0.480  0.00  0.00    -0.075 A 
ATOM      2  C2  I4B d   1       0.853  -0.912  -0.607  0.00  0.00     0.003 A 
ATOM      3  C3  I4B d   1       0.158  -1.856   0.187  0.00  0.00     0.002 A 
ATOM      4  C4  I4B d   1      -0.753  -1.415   1.125  0.00  0.00    -0.004 A 
ATOM      5  C5  I4B d   1      -1.040  -0.057   1.237  0.00  0.00     0.002 A 
ATOM      6  C6  I4B d   1      -0.375   0.870   0.421  0.00  0.00     0.003 A 
ENDROOT
BRANCH   1   7
ATOM      7  C1' I4B d   1       1.361   1.400  -1.311  0.00  0.00     0.060 C 
BRANCH   7   8
ATOM      8  C2' I4B d   1       0.800   1.363  -2.718  0.00  0.00    -0.013 C 
ATOM      9  C4' I4B d   1      -0.008   2.599  -3.016  0.00  0.00     0.013 C 
ATOM     10  C3' I4B d   1       1.949   1.226  -3.672  0.00  0.00     0.013 C 
ENDBRANCH   7   8
ENDBRANCH   1   7
TORSDOF 2
ENDMDL
