MODEL 1
REMARK minimizedAffinity -4.75557852
REMARK minimizedRMSD -1
REMARK  2 active torsions:
REMARK  status: ('A' for Active; 'I' for Inactive)
REMARK    1  A    between atoms: C2'_3  and  C1'_4 
REMARK    2  A    between atoms: C1'_4  and  C1_5 
ROOT
ATOM      1  C1  I4B d   1      -0.047   0.059   0.051  0.00  0.00    -0.075 A 
ATOM      2  C2  I4B d   1      -1.389  -0.044   0.321  0.00  0.00     0.003 A 
ATOM      3  C3  I4B d   1      -1.934  -1.271   0.770  0.00  0.00     0.002 A 
ATOM      4  C4  I4B d   1      -1.115  -2.376   0.887  0.00  0.00    -0.004 A 
ATOM      5  C5  I4B d   1       0.249  -2.264   0.635  0.00  0.00     0.002 A 
ATOM      6  C6  I4B d   1       0.789  -1.036   0.226  0.00  0.00     0.003 A 
ENDROOT
BRANCH   1   7
ATOM      7  C1' I4B d   1       0.489   1.361  -0.453  0.00  0.00     0.060 C 
BRANCH   7   8
ATOM      8  C2' I4B d   1       0.552   1.286  -1.965  0.00  0.00    -0.013 C 
ATOM      9  C4' I4B d   1      -0.637   1.963  -2.594  0.00  0.00     0.013 C 
ATOM     10  C3' I4B d   1       1.835   1.923  -2.408  0.00  0.00     0.013 C 
ENDBRANCH   7   8
ENDBRANCH   1   7
TORSDOF 2
ENDMDL
