MODEL 1
REMARK minimizedAffinity -1.477507
REMARK minimizedRMSD -1
REMARK  2 active torsions:
REMARK  status: ('A' for Active; 'I' for Inactive)
REMARK    1  A    between atoms: C2'_3  and  C1'_4 
REMARK    2  A    between atoms: C1'_4  and  C1_5 
ROOT
ATOM      1  C1  I4B d   1       0.695   0.336  -0.637  0.00  0.00    -0.075 A 
ATOM      2  C2  I4B d   1       0.964   1.671  -0.812  0.00  0.00     0.003 A 
ATOM      3  C3  I4B d   1       0.846   2.259  -2.095  0.00  0.00     0.002 A 
ATOM      4  C4  I4B d   1       0.507   1.471  -3.175  0.00  0.00    -0.004 A 
ATOM      5  C5  I4B d   1       0.212   0.123  -2.991  0.00  0.00     0.002 A 
ATOM      6  C6  I4B d   1       0.295  -0.446  -1.712  0.00  0.00     0.003 A 
ENDROOT
BRANCH   1   7
ATOM      7  C1' I4B d   1       0.863  -0.260   0.725  0.00  0.00     0.060 C 
BRANCH   7   8
ATOM      8  C2' I4B d   1       0.181  -1.613   0.730  0.00  0.00    -0.013 C 
ATOM      9  C4' I4B d   1       1.149  -2.712   0.382  0.00  0.00     0.013 C 
ATOM     10  C3' I4B d   1      -0.416  -1.826   2.089  0.00  0.00     0.013 C 
ENDBRANCH   7   8
ENDBRANCH   1   7
TORSDOF 2
ENDMDL
