MODEL 1
REMARK minimizedAffinity -1.0746491
REMARK minimizedRMSD -1
REMARK  2 active torsions:
REMARK  status: ('A' for Active; 'I' for Inactive)
REMARK    1  A    between atoms: C2'_3  and  C1'_4 
REMARK    2  A    between atoms: C1'_4  and  C1_5 
ROOT
ATOM      1  C1  I4B d   1       0.573   0.283  -0.008  0.00  0.00    -0.075 A 
ATOM      2  C2  I4B d   1      -0.525   0.122   0.799  0.00  0.00     0.003 A 
ATOM      3  C3  I4B d   1      -0.828  -1.149   1.346  0.00  0.00     0.002 A 
ATOM      4  C4  I4B d   1      -0.040  -2.234   1.022  0.00  0.00    -0.004 A 
ATOM      5  C5  I4B d   1       1.087  -2.064   0.222  0.00  0.00     0.002 A 
ATOM      6  C6  I4B d   1       1.403  -0.796  -0.286  0.00  0.00     0.003 A 
ENDROOT
BRANCH   1   7
ATOM      7  C1' I4B d   1       0.845   1.631  -0.595  0.00  0.00     0.060 C 
BRANCH   7   8
ATOM      8  C2' I4B d   1       0.908   1.480  -2.101  0.00  0.00    -0.013 C 
ATOM      9  C4' I4B d   1      -0.313   2.069  -2.759  0.00  0.00     0.013 C 
ATOM     10  C3' I4B d   1       2.159   2.152  -2.582  0.00  0.00     0.013 C 
ENDBRANCH   7   8
ENDBRANCH   1   7
TORSDOF 2
ENDMDL
