MODEL 1
REMARK minimizedAffinity -2.99158621
REMARK minimizedRMSD -1
REMARK  2 active torsions:
REMARK  status: ('A' for Active; 'I' for Inactive)
REMARK    1  A    between atoms: C2'_3  and  C1'_4 
REMARK    2  A    between atoms: C1'_4  and  C1_5 
ROOT
ATOM      1  C1  I4B d   1       1.005   0.484  -0.798  0.00  0.00    -0.075 A 
ATOM      2  C2  I4B d   1       0.256   0.643   0.342  0.00  0.00     0.003 A 
ATOM      3  C3  I4B d   1      -0.114  -0.484   1.115  0.00  0.00     0.002 A 
ATOM      4  C4  I4B d   1       0.241  -1.747   0.687  0.00  0.00    -0.004 A 
ATOM      5  C5  I4B d   1       1.020  -1.905  -0.456  0.00  0.00     0.002 A 
ATOM      6  C6  I4B d   1       1.415  -0.781  -1.196  0.00  0.00     0.003 A 
ENDROOT
BRANCH   1   7
ATOM      7  C1' I4B d   1       1.349   1.693  -1.608  0.00  0.00     0.060 C 
BRANCH   7   8
ATOM      8  C2' I4B d   1       0.449   1.711  -2.826  0.00  0.00    -0.013 C 
ATOM      9  C4' I4B d   1      -0.247   3.039  -2.971  0.00  0.00     0.013 C 
ATOM     10  C3' I4B d   1       1.291   1.407  -4.029  0.00  0.00     0.013 C 
ENDBRANCH   7   8
ENDBRANCH   1   7
TORSDOF 2
ENDMDL
