MODEL 1
REMARK minimizedAffinity 13.9223185
REMARK minimizedRMSD -1
REMARK  2 active torsions:
REMARK  status: ('A' for Active; 'I' for Inactive)
REMARK    1  A    between atoms: C2'_3  and  C1'_4 
REMARK    2  A    between atoms: C1'_4  and  C1_5 
ROOT
ATOM      1  C1  I4B d   1      -0.156  -2.775   2.590  0.00  0.00    -0.075 A 
ATOM      2  C2  I4B d   1      -1.145  -2.388   3.459  0.00  0.00     0.003 A 
ATOM      3  C3  I4B d   1      -1.007  -2.626   4.848  0.00  0.00     0.002 A 
ATOM      4  C4  I4B d   1       0.106  -3.296   5.315  0.00  0.00    -0.004 A 
ATOM      5  C5  I4B d   1       1.118  -3.667   4.435  0.00  0.00     0.002 A 
ATOM      6  C6  I4B d   1       0.993  -3.394   3.065  0.00  0.00     0.003 A 
ENDROOT
BRANCH   1   7
ATOM      7  C1' I4B d   1      -0.349  -2.537   1.126  0.00  0.00     0.060 C 
BRANCH   7   8
ATOM      8  C2' I4B d   1       0.089  -1.118   0.821  0.00  0.00    -0.013 C 
ATOM      9  C4' I4B d   1       1.172  -1.095  -0.225  0.00  0.00     0.013 C 
ATOM     10  C3' I4B d   1      -1.116  -0.348   0.371  0.00  0.00     0.013 C 
ENDBRANCH   7   8
ENDBRANCH   1   7
TORSDOF 2
ENDMDL
