MODEL 1
REMARK minimizedAffinity -2.25406957
REMARK minimizedRMSD -1
REMARK  2 active torsions:
REMARK  status: ('A' for Active; 'I' for Inactive)
REMARK    1  A    between atoms: C2'_3  and  C1'_4 
REMARK    2  A    between atoms: C1'_4  and  C1_5 
ROOT
ATOM      1  C1  I4B d   1       0.512   0.864  -2.111  0.00  0.00    -0.075 A 
ATOM      2  C2  I4B d   1       0.093   1.014  -3.409  0.00  0.00     0.003 A 
ATOM      3  C3  I4B d   1       0.358   2.216  -4.110  0.00  0.00     0.002 A 
ATOM      4  C4  I4B d   1       0.996   3.254  -3.462  0.00  0.00    -0.004 A 
ATOM      5  C5  I4B d   1       1.441   3.091  -2.153  0.00  0.00     0.002 A 
ATOM      6  C6  I4B d   1       1.208   1.885  -1.477  0.00  0.00     0.003 A 
ENDROOT
BRANCH   1   7
ATOM      7  C1' I4B d   1       0.186  -0.405  -1.390  0.00  0.00     0.060 C 
BRANCH   7   8
ATOM      8  C2' I4B d   1       0.487  -0.198   0.080  0.00  0.00    -0.013 C 
ATOM      9  C4' I4B d   1      -0.755   0.182   0.842  0.00  0.00     0.013 C 
ATOM     10  C3' I4B d   1       1.084  -1.466   0.614  0.00  0.00     0.013 C 
ENDBRANCH   7   8
ENDBRANCH   1   7
TORSDOF 2
ENDMDL
