MODEL 1
REMARK minimizedAffinity -4.07421446
REMARK minimizedRMSD -1
REMARK  2 active torsions:
REMARK  status: ('A' for Active; 'I' for Inactive)
REMARK    1  A    between atoms: C2'_3  and  C1'_4 
REMARK    2  A    between atoms: C1'_4  and  C1_5 
ROOT
ATOM      1  C1  I4B d   1      -0.364  -0.697   0.469  0.00  0.00    -0.075 A 
ATOM      2  C2  I4B d   1      -0.416  -2.012   0.861  0.00  0.00     0.003 A 
ATOM      3  C3  I4B d   1      -1.392  -2.440   1.792  0.00  0.00     0.002 A 
ATOM      4  C4  I4B d   1      -2.258  -1.517   2.342  0.00  0.00    -0.004 A 
ATOM      5  C5  I4B d   1      -2.220  -0.190   1.926  0.00  0.00     0.002 A 
ATOM      6  C6  I4B d   1      -1.275   0.221   0.974  0.00  0.00     0.003 A 
ENDROOT
BRANCH   1   7
ATOM      7  C1' I4B d   1       0.701  -0.273  -0.492  0.00  0.00     0.060 C 
BRANCH   7   8
ATOM      8  C2' I4B d   1       0.392   1.143  -0.935  0.00  0.00    -0.013 C 
ATOM      9  C4' I4B d   1       1.110   2.151  -0.077  0.00  0.00     0.013 C 
ATOM     10  C3' I4B d   1       0.791   1.275  -2.375  0.00  0.00     0.013 C 
ENDBRANCH   7   8
ENDBRANCH   1   7
TORSDOF 2
ENDMDL
