MODEL 1
REMARK minimizedAffinity -4.80868101
REMARK minimizedRMSD -1
REMARK  2 active torsions:
REMARK  status: ('A' for Active; 'I' for Inactive)
REMARK    1  A    between atoms: C2'_3  and  C1'_4 
REMARK    2  A    between atoms: C1'_4  and  C1_5 
ROOT
ATOM      1  C1  I4B d   1       0.547   0.228  -0.379  0.00  0.00    -0.075 A 
ATOM      2  C2  I4B d   1       1.112  -1.018  -0.487  0.00  0.00     0.003 A 
ATOM      3  C3  I4B d   1       0.588  -2.104   0.256  0.00  0.00     0.002 A 
ATOM      4  C4  I4B d   1      -0.461  -1.890   1.126  0.00  0.00    -0.004 A 
ATOM      5  C5  I4B d   1      -1.047  -0.630   1.217  0.00  0.00     0.002 A 
ATOM      6  C6  I4B d   1      -0.548   0.433   0.450  0.00  0.00     0.003 A 
ENDROOT
BRANCH   1   7
ATOM      7  C1' I4B d   1       1.145   1.360  -1.153  0.00  0.00     0.060 C 
BRANCH   7   8
ATOM      8  C2' I4B d   1       0.415   1.458  -2.477  0.00  0.00    -0.013 C 
ATOM      9  C4' I4B d   1      -0.070   2.861  -2.730  0.00  0.00     0.013 C 
ATOM     10  C3' I4B d   1       1.351   1.006  -3.557  0.00  0.00     0.013 C 
ENDBRANCH   7   8
ENDBRANCH   1   7
TORSDOF 2
ENDMDL
