MODEL 1
REMARK minimizedAffinity -2.61318064
REMARK minimizedRMSD -1
REMARK  2 active torsions:
REMARK  status: ('A' for Active; 'I' for Inactive)
REMARK    1  A    between atoms: C2'_3  and  C1'_4 
REMARK    2  A    between atoms: C1'_4  and  C1_5 
ROOT
ATOM      1  C1  I4B d   1       0.388   0.623  -0.359  0.00  0.00    -0.075 A 
ATOM      2  C2  I4B d   1      -0.684   1.060   0.378  0.00  0.00     0.003 A 
ATOM      3  C3  I4B d   1      -1.354   0.174   1.256  0.00  0.00     0.002 A 
ATOM      4  C4  I4B d   1      -0.954  -1.144   1.327  0.00  0.00    -0.004 A 
ATOM      5  C5  I4B d   1       0.148  -1.580   0.596  0.00  0.00     0.002 A 
ATOM      6  C6  I4B d   1       0.831  -0.688  -0.243  0.00  0.00     0.003 A 
ENDROOT
BRANCH   1   7
ATOM      7  C1' I4B d   1       1.052   1.577  -1.301  0.00  0.00     0.060 C 
BRANCH   7   8
ATOM      8  C2' I4B d   1       0.733   1.135  -2.714  0.00  0.00    -0.013 C 
ATOM      9  C4' I4B d   1      -0.483   1.846  -3.247  0.00  0.00     0.013 C 
ATOM     10  C3' I4B d   1       1.936   1.409  -3.567  0.00  0.00     0.013 C 
ENDBRANCH   7   8
ENDBRANCH   1   7
TORSDOF 2
ENDMDL
