MODEL 1
REMARK minimizedAffinity -2.8971796
REMARK minimizedRMSD -1
REMARK  2 active torsions:
REMARK  status: ('A' for Active; 'I' for Inactive)
REMARK    1  A    between atoms: C2'_3  and  C1'_4 
REMARK    2  A    between atoms: C1'_4  and  C1_5 
ROOT
ATOM      1  C1  I4B d   1       1.310   1.535  -1.525  0.00  0.00    -0.075 A 
ATOM      2  C2  I4B d   1       2.613   1.460  -1.949  0.00  0.00     0.003 A 
ATOM      3  C3  I4B d   1       2.926   1.615  -3.321  0.00  0.00     0.002 A 
ATOM      4  C4  I4B d   1       1.907   1.791  -4.235  0.00  0.00    -0.004 A 
ATOM      5  C5  I4B d   1       0.588   1.889  -3.800  0.00  0.00     0.002 A 
ATOM      6  C6  I4B d   1       0.289   1.773  -2.435  0.00  0.00     0.003 A 
ENDROOT
BRANCH   1   7
ATOM      7  C1' I4B d   1       1.012   1.334  -0.073  0.00  0.00     0.060 C 
BRANCH   7   8
ATOM      8  C2' I4B d   1       1.218  -0.132   0.248  0.00  0.00    -0.013 C 
ATOM      9  C4' I4B d   1       1.738  -0.317   1.649  0.00  0.00     0.013 C 
ATOM     10  C3' I4B d   1      -0.094  -0.835   0.060  0.00  0.00     0.013 C 
ENDBRANCH   7   8
ENDBRANCH   1   7
TORSDOF 2
ENDMDL
