MODEL 1
REMARK minimizedAffinity -1.00180686
REMARK minimizedRMSD -1
REMARK  2 active torsions:
REMARK  status: ('A' for Active; 'I' for Inactive)
REMARK    1  A    between atoms: C2'_3  and  C1'_4 
REMARK    2  A    between atoms: C1'_4  and  C1_5 
ROOT
ATOM      1  C1  I4B d   1       0.669   1.160  -1.298  0.00  0.00    -0.075 A 
ATOM      2  C2  I4B d   1       1.992   1.344  -1.614  0.00  0.00     0.003 A 
ATOM      3  C3  I4B d   1       2.357   1.862  -2.880  0.00  0.00     0.002 A 
ATOM      4  C4  I4B d   1       1.376   2.132  -3.813  0.00  0.00    -0.004 A 
ATOM      5  C5  I4B d   1       0.034   1.965  -3.483  0.00  0.00     0.002 A 
ATOM      6  C6  I4B d   1      -0.323   1.488  -2.213  0.00  0.00     0.003 A 
ENDROOT
BRANCH   1   7
ATOM      7  C1' I4B d   1       0.321   0.580   0.036  0.00  0.00     0.060 C 
BRANCH   7   8
ATOM      8  C2' I4B d   1       1.299  -0.540   0.329  0.00  0.00    -0.013 C 
ATOM      9  C4' I4B d   1       1.552  -0.670   1.807  0.00  0.00     0.013 C 
ATOM     10  C3' I4B d   1       0.733  -1.808  -0.238  0.00  0.00     0.013 C 
ENDBRANCH   7   8
ENDBRANCH   1   7
TORSDOF 2
ENDMDL
