MODEL 1
REMARK minimizedAffinity -1.78166783
REMARK minimizedRMSD -1
REMARK  1 active torsions:
REMARK  status: ('A' for Active; 'I' for Inactive)
REMARK    1  A    between atoms: C1_2  and  C2_3 
ROOT
ATOM      1  C2  UNL d   1      -1.734  -0.751   1.198  0.00  0.00    -0.073 A 
ATOM      2  C3  UNL d   1      -1.220  -0.707  -0.103  0.00  0.00    -0.002 A 
ATOM      3  C4  UNL d   1       0.159  -0.678  -0.315  0.00  0.00     0.004 A 
ATOM      4  C5  UNL d   1       1.037  -0.698   0.769  0.00  0.00    -0.004 A 
ATOM      5  C6  UNL d   1       0.542  -0.754   2.076  0.00  0.00    -0.075 A 
ATOM      6  C7  UNL d   1       1.472  -0.774   3.253  0.00  0.00     0.076 C 
ATOM      7  C8  UNL d   1      -0.844  -0.780   2.281  0.00  0.00     0.001 A 
ENDROOT
BRANCH   1   8
ATOM      8  C1  UNL d   1      -3.223  -0.789   1.431  0.00  0.00     0.053 C 
ATOM      9  C   UNL d   1      -3.826  -2.129   1.042  0.00  0.00     0.018 C 
ENDBRANCH   1   8
TORSDOF 1
ENDMDL
