MODEL 1
REMARK minimizedAffinity -0.939561605
REMARK minimizedRMSD -1
REMARK  1 active torsions:
REMARK  status: ('A' for Active; 'I' for Inactive)
REMARK    1  A    between atoms: C1_2  and  C2_3 
ROOT
ATOM      1  C2  UNL d   1       1.038  -0.859   0.309  0.00  0.00    -0.073 A 
ATOM      2  C3  UNL d   1       1.676  -1.335   1.460  0.00  0.00    -0.002 A 
ATOM      3  C4  UNL d   1       0.991  -1.391   2.675  0.00  0.00     0.004 A 
ATOM      4  C5  UNL d   1      -0.340  -0.979   2.749  0.00  0.00    -0.004 A 
ATOM      5  C6  UNL d   1      -0.999  -0.511   1.608  0.00  0.00    -0.075 A 
ATOM      6  C7  UNL d   1      -2.429  -0.062   1.672  0.00  0.00     0.076 C 
ATOM      7  C8  UNL d   1      -0.303  -0.456   0.392  0.00  0.00     0.001 A 
ENDROOT
BRANCH   1   8
ATOM      8  C1  UNL d   1       1.772  -0.803  -1.005  0.00  0.00     0.053 C 
ATOM      9  C   UNL d   1       2.669   0.421  -1.106  0.00  0.00     0.018 C 
ENDBRANCH   1   8
TORSDOF 1
ENDMDL
