MODEL 1
REMARK minimizedAffinity 0.463951349
REMARK minimizedRMSD -1
REMARK  1 active torsions:
REMARK  status: ('A' for Active; 'I' for Inactive)
REMARK    1  A    between atoms: C1_2  and  C2_3 
ROOT
ATOM      1  C2  UNL d   1       0.542  -1.116   2.571  0.00  0.00    -0.073 A 
ATOM      2  C3  UNL d   1       1.627  -0.572   3.268  0.00  0.00    -0.002 A 
ATOM      3  C4  UNL d   1       2.778  -0.178   2.583  0.00  0.00     0.004 A 
ATOM      4  C5  UNL d   1       2.853  -0.318   1.198  0.00  0.00    -0.004 A 
ATOM      5  C6  UNL d   1       1.775  -0.849   0.483  0.00  0.00    -0.075 A 
ATOM      6  C7  UNL d   1       1.841  -1.008  -1.008  0.00  0.00     0.076 C 
ATOM      7  C8  UNL d   1       0.624  -1.244   1.177  0.00  0.00     0.001 A 
ENDROOT
BRANCH   1   8
ATOM      8  C1  UNL d   1      -0.705  -1.536   3.305  0.00  0.00     0.053 C 
ATOM      9  C   UNL d   1      -1.143  -2.942   2.926  0.00  0.00     0.018 C 
ENDBRANCH   1   8
TORSDOF 1
ENDMDL
