MODEL 1
REMARK minimizedAffinity -6.6247468
REMARK minimizedRMSD -1
REMARK  1 active torsions:
REMARK  status: ('A' for Active; 'I' for Inactive)
REMARK    1  A    between atoms: C1_2  and  C2_3 
ROOT
ATOM      1  C2  UNL d   1      -1.309   1.045  -1.846  0.00  0.00    -0.073 A 
ATOM      2  C3  UNL d   1      -0.351   1.640  -2.674  0.00  0.00    -0.002 A 
ATOM      3  C4  UNL d   1      -0.715   2.661  -3.552  0.00  0.00     0.004 A 
ATOM      4  C5  UNL d   1      -2.037   3.103  -3.606  0.00  0.00    -0.004 A 
ATOM      5  C6  UNL d   1      -3.006   2.529  -2.778  0.00  0.00    -0.075 A 
ATOM      6  C7  UNL d   1      -4.433   2.992  -2.825  0.00  0.00     0.076 C 
ATOM      7  C8  UNL d   1      -2.634   1.502  -1.901  0.00  0.00     0.001 A 
ENDROOT
BRANCH   1   8
ATOM      8  C1  UNL d   1      -0.920  -0.054  -0.891  0.00  0.00     0.053 C 
ATOM      9  C   UNL d   1       0.365   0.267  -0.146  0.00  0.00     0.018 C 
ENDBRANCH   1   8
TORSDOF 1
ENDMDL
