MODEL 1
REMARK minimizedAffinity -4.38440514
REMARK minimizedRMSD -1
REMARK  1 active torsions:
REMARK  status: ('A' for Active; 'I' for Inactive)
REMARK    1  A    between atoms: C1_2  and  C2_3 
ROOT
ATOM      1  C2  UNL d   1       1.148  -0.875  -0.668  0.00  0.00    -0.073 A 
ATOM      2  C3  UNL d   1       0.514  -0.993   0.574  0.00  0.00    -0.002 A 
ATOM      3  C4  UNL d   1      -0.500  -0.106   0.935  0.00  0.00     0.004 A 
ATOM      4  C5  UNL d   1      -0.895   0.903   0.058  0.00  0.00    -0.004 A 
ATOM      5  C6  UNL d   1      -0.283   1.030  -1.193  0.00  0.00    -0.075 A 
ATOM      6  C7  UNL d   1      -0.695   2.112  -2.148  0.00  0.00     0.076 C 
ATOM      7  C8  UNL d   1       0.737   0.137  -1.548  0.00  0.00     0.001 A 
ENDROOT
BRANCH   1   8
ATOM      8  C1  UNL d   1       2.239  -1.836  -1.066  0.00  0.00     0.053 C 
ATOM      9  C   UNL d   1       2.841  -2.544   0.138  0.00  0.00     0.018 C 
ENDBRANCH   1   8
TORSDOF 1
ENDMDL
