MODEL 1
REMARK minimizedAffinity -2.71128559
REMARK minimizedRMSD -1
REMARK  1 active torsions:
REMARK  status: ('A' for Active; 'I' for Inactive)
REMARK    1  A    between atoms: C1_2  and  C2_3 
ROOT
ATOM      1  C2  UNL d   1      -0.470   0.151   0.188  0.00  0.00    -0.073 A 
ATOM      2  C3  UNL d   1      -0.558  -0.934  -0.691  0.00  0.00    -0.002 A 
ATOM      3  C4  UNL d   1      -0.768  -0.722  -2.054  0.00  0.00     0.004 A 
ATOM      4  C5  UNL d   1      -0.885   0.575  -2.553  0.00  0.00    -0.004 A 
ATOM      5  C6  UNL d   1      -0.788   1.673  -1.693  0.00  0.00    -0.075 A 
ATOM      6  C7  UNL d   1      -0.913   3.075  -2.213  0.00  0.00     0.076 C 
ATOM      7  C8  UNL d   1      -0.580   1.452  -0.324  0.00  0.00     0.001 A 
ENDROOT
BRANCH   1   8
ATOM      8  C1  UNL d   1      -0.237  -0.072   1.660  0.00  0.00     0.053 C 
ATOM      9  C   UNL d   1       0.435  -1.408   1.934  0.00  0.00     0.018 C 
ENDBRANCH   1   8
TORSDOF 1
ENDMDL
