MODEL 1
REMARK minimizedAffinity 6.25848913
REMARK minimizedRMSD -1
REMARK  0 active torsions:
REMARK  status: ('A' for Active; 'I' for Inactive)
ROOT
ATOM      1  C4' PXY d   1       0.779  -0.781   4.777  0.00  0.00     0.077 C 
ATOM      2  C1' PXY d   1      -0.241   3.245   0.756  0.00  0.00     0.077 C 
ATOM      3  C1  PXY d   1       0.020   2.196   1.819  0.00  0.00    -0.082 A 
ATOM      4  C2  PXY d   1       1.073   1.402   1.711  0.00  0.00     0.003 A 
ATOM      5  C3  PXY d   1       1.306   0.427   2.646  0.00  0.00     0.003 A 
ATOM      6  C4  PXY d   1       0.482   0.298   3.732  0.00  0.00    -0.082 A 
ATOM      7  C5  PXY d   1      -0.589   1.111   3.855  0.00  0.00     0.003 A 
ATOM      8  C6  PXY d   1      -0.831   2.067   2.873  0.00  0.00     0.003 A 
ENDROOT
TORSDOF 0
ENDMDL
