MODEL 1
REMARK minimizedAffinity 3.69020844
REMARK minimizedRMSD -1
REMARK  0 active torsions:
REMARK  status: ('A' for Active; 'I' for Inactive)
ROOT
ATOM      1  C4' PXY d   1      -2.621   5.404   0.840  0.00  0.00     0.077 C 
ATOM      2  C1' PXY d   1      -0.226   0.578   2.934  0.00  0.00     0.077 C 
ATOM      3  C1  PXY d   1      -0.844   1.845   2.377  0.00  0.00    -0.082 A 
ATOM      4  C2  PXY d   1      -1.720   2.519   3.103  0.00  0.00     0.003 A 
ATOM      5  C3  PXY d   1      -2.313   3.650   2.602  0.00  0.00     0.003 A 
ATOM      6  C4  PXY d   1      -1.965   4.124   1.366  0.00  0.00    -0.082 A 
ATOM      7  C5  PXY d   1      -1.064   3.448   0.623  0.00  0.00     0.003 A 
ATOM      8  C6  PXY d   1      -0.504   2.280   1.133  0.00  0.00     0.003 A 
ENDROOT
TORSDOF 0
ENDMDL
