MODEL 1
REMARK minimizedAffinity 1.66621625
REMARK minimizedRMSD -1
REMARK  0 active torsions:
REMARK  status: ('A' for Active; 'I' for Inactive)
ROOT
ATOM      1  C4' PXY d   1       0.050  -1.475   3.841  0.00  0.00     0.077 C 
ATOM      2  C1' PXY d   1      -0.028   3.657   1.182  0.00  0.00     0.077 C 
ATOM      3  C1  PXY d   1      -0.009   2.305   1.868  0.00  0.00    -0.082 A 
ATOM      4  C2  PXY d   1      -0.367   2.211   3.138  0.00  0.00     0.003 A 
ATOM      5  C3  PXY d   1      -0.325   1.001   3.783  0.00  0.00     0.003 A 
ATOM      6  C4  PXY d   1       0.036  -0.132   3.106  0.00  0.00    -0.082 A 
ATOM      7  C5  PXY d   1       0.392  -0.046   1.806  0.00  0.00     0.003 A 
ATOM      8  C6  PXY d   1       0.383   1.197   1.182  0.00  0.00     0.003 A 
ENDROOT
TORSDOF 0
ENDMDL
