MODEL 1
REMARK minimizedAffinity -0.0147013869
REMARK minimizedRMSD -1
REMARK  0 active torsions:
REMARK  status: ('A' for Active; 'I' for Inactive)
ROOT
ATOM      1  C4' PXY d   1      -0.197  -0.185   3.176  0.00  0.00     0.077 C 
ATOM      2  C1' PXY d   1      -2.565   4.835   1.559  0.00  0.00     0.077 C 
ATOM      3  C1  PXY d   1      -1.939   3.517   1.971  0.00  0.00    -0.082 A 
ATOM      4  C2  PXY d   1      -2.407   2.873   3.028  0.00  0.00     0.003 A 
ATOM      5  C3  PXY d   1      -1.832   1.696   3.433  0.00  0.00     0.003 A 
ATOM      6  C4  PXY d   1      -0.804   1.145   2.718  0.00  0.00    -0.082 A 
ATOM      7  C5  PXY d   1      -0.328   1.790   1.631  0.00  0.00     0.003 A 
ATOM      8  C6  PXY d   1      -0.898   3.004   1.260  0.00  0.00     0.003 A 
ENDROOT
TORSDOF 0
ENDMDL
