MODEL 1
REMARK minimizedAffinity 5.89860392
REMARK minimizedRMSD -1
REMARK  0 active torsions:
REMARK  status: ('A' for Active; 'I' for Inactive)
ROOT
ATOM      1  C4' PXY d   1      -1.112  -0.956  -3.597  0.00  0.00     0.077 C 
ATOM      2  C1' PXY d   1      -1.310   3.423   0.171  0.00  0.00     0.077 C 
ATOM      3  C1  PXY d   1      -1.265   2.267  -0.809  0.00  0.00    -0.082 A 
ATOM      4  C2  PXY d   1      -0.255   2.168  -1.658  0.00  0.00     0.003 A 
ATOM      5  C3  PXY d   1      -0.216   1.147  -2.573  0.00  0.00     0.003 A 
ATOM      6  C4  PXY d   1      -1.193   0.189  -2.583  0.00  0.00    -0.082 A 
ATOM      7  C5  PXY d   1      -2.221   0.277  -1.713  0.00  0.00     0.003 A 
ATOM      8  C6  PXY d   1      -2.264   1.344  -0.820  0.00  0.00     0.003 A 
ENDROOT
TORSDOF 0
ENDMDL
