MODEL 1
REMARK minimizedAffinity 3.09859443
REMARK minimizedRMSD -1
REMARK  0 active torsions:
REMARK  status: ('A' for Active; 'I' for Inactive)
ROOT
ATOM      1  C4' PXY d   1      -2.240  -1.415  -1.837  0.00  0.00     0.077 C 
ATOM      2  C1' PXY d   1       3.460  -1.722  -0.923  0.00  0.00     0.077 C 
ATOM      3  C1  PXY d   1       1.966  -1.629  -1.162  0.00  0.00    -0.082 A 
ATOM      4  C2  PXY d   1       1.189  -2.656  -0.858  0.00  0.00     0.003 A 
ATOM      5  C3  PXY d   1      -0.160  -2.600  -1.097  0.00  0.00     0.003 A 
ATOM      6  C4  PXY d   1      -0.727  -1.462  -1.604  0.00  0.00    -0.082 A 
ATOM      7  C5  PXY d   1       0.057  -0.405  -1.907  0.00  0.00     0.003 A 
ATOM      8  C6  PXY d   1       1.430  -0.497  -1.695  0.00  0.00     0.003 A 
ENDROOT
TORSDOF 0
ENDMDL
