MODEL 1
REMARK minimizedAffinity -2.36785507
REMARK minimizedRMSD -1
REMARK  0 active torsions:
REMARK  status: ('A' for Active; 'I' for Inactive)
ROOT
ATOM      1  C4' PXY d   1      -4.652   4.720  -3.826  0.00  0.00     0.077 C 
ATOM      2  C1' PXY d   1      -3.525  -0.516  -1.653  0.00  0.00     0.077 C 
ATOM      3  C1  PXY d   1      -3.810   0.862  -2.217  0.00  0.00    -0.082 A 
ATOM      4  C2  PXY d   1      -5.053   1.200  -2.521  0.00  0.00     0.003 A 
ATOM      5  C3  PXY d   1      -5.324   2.431  -3.062  0.00  0.00     0.003 A 
ATOM      6  C4  PXY d   1      -4.320   3.343  -3.245  0.00  0.00    -0.082 A 
ATOM      7  C5  PXY d   1      -3.051   3.009  -2.928  0.00  0.00     0.003 A 
ATOM      8  C6  PXY d   1      -2.791   1.740  -2.418  0.00  0.00     0.003 A 
ENDROOT
TORSDOF 0
ENDMDL
