MODEL 1
REMARK minimizedAffinity -0.643685758
REMARK minimizedRMSD -1
REMARK  0 active torsions:
REMARK  status: ('A' for Active; 'I' for Inactive)
ROOT
ATOM      1  C4' PXY d   1      -2.908   2.292   1.863  0.00  0.00     0.077 C 
ATOM      2  C1' PXY d   1       1.854   4.820  -0.223  0.00  0.00     0.077 C 
ATOM      3  C1  PXY d   1       0.612   4.148   0.329  0.00  0.00    -0.082 A 
ATOM      4  C2  PXY d   1      -0.556   4.348  -0.258  0.00  0.00     0.003 A 
ATOM      5  C3  PXY d   1      -1.694   3.773   0.248  0.00  0.00     0.003 A 
ATOM      6  C4  PXY d   1      -1.627   2.943   1.334  0.00  0.00    -0.082 A 
ATOM      7  C5  PXY d   1      -0.437   2.725   1.933  0.00  0.00     0.003 A 
ATOM      8  C6  PXY d   1       0.700   3.351   1.429  0.00  0.00     0.003 A 
ENDROOT
TORSDOF 0
ENDMDL
