MODEL 1
REMARK minimizedAffinity 4.11227703
REMARK minimizedRMSD -1
REMARK  0 active torsions:
REMARK  status: ('A' for Active; 'I' for Inactive)
ROOT
ATOM      1  C4' PXY d   1      -3.689  -2.663   5.924  0.00  0.00     0.077 C 
ATOM      2  C1' PXY d   1       1.991  -1.595   5.997  0.00  0.00     0.077 C 
ATOM      3  C1  PXY d   1       0.499  -1.863   5.984  0.00  0.00    -0.082 A 
ATOM      4  C2  PXY d   1       0.059  -3.111   5.969  0.00  0.00     0.003 A 
ATOM      5  C3  PXY d   1      -1.286  -3.372   5.924  0.00  0.00     0.003 A 
ATOM      6  C4  PXY d   1      -2.192  -2.345   5.948  0.00  0.00    -0.082 A 
ATOM      7  C5  PXY d   1      -1.751  -1.069   5.974  0.00  0.00     0.003 A 
ATOM      8  C6  PXY d   1      -0.381  -0.826   5.978  0.00  0.00     0.003 A 
ENDROOT
TORSDOF 0
ENDMDL
