MODEL 1
REMARK minimizedAffinity 1.900056
REMARK minimizedRMSD -1
REMARK  0 active torsions:
REMARK  status: ('A' for Active; 'I' for Inactive)
ROOT
ATOM      1  C   UNL d   1      -5.082   6.000   1.124  0.00  0.00     0.077 C 
ATOM      2  C1  UNL d   1      -4.018   4.950   1.006  0.00  0.00    -0.074 A 
ATOM      3  C2  UNL d   1      -3.989   3.854   1.875  0.00  0.00    -0.005 A 
ATOM      4  C3  UNL d   1      -2.999   2.880   1.746  0.00  0.00     0.006 A 
ATOM      5  C4  UNL d   1      -2.029   2.992   0.750  0.00  0.00    -0.005 A 
ATOM      6  C5  UNL d   1      -2.042   4.080  -0.129  0.00  0.00    -0.074 A 
ATOM      7  C6  UNL d   1      -1.012   4.210  -1.212  0.00  0.00     0.077 C 
ATOM      8  C7  UNL d   1      -3.044   5.051   0.002  0.00  0.00    -0.001 A 
ENDROOT
TORSDOF 0
ENDMDL
