MODEL 1
REMARK minimizedAffinity 10.5111027
REMARK minimizedRMSD -1
REMARK  0 active torsions:
REMARK  status: ('A' for Active; 'I' for Inactive)
ROOT
ATOM      1  C   UNL d   1      -1.094   0.088  -4.842  0.00  0.00     0.077 C 
ATOM      2  C1  UNL d   1      -2.170   0.824  -4.101  0.00  0.00    -0.074 A 
ATOM      3  C2  UNL d   1      -3.205   0.132  -3.463  0.00  0.00    -0.005 A 
ATOM      4  C3  UNL d   1      -4.194   0.829  -2.770  0.00  0.00     0.006 A 
ATOM      5  C4  UNL d   1      -4.159   2.223  -2.707  0.00  0.00    -0.005 A 
ATOM      6  C5  UNL d   1      -3.131   2.931  -3.338  0.00  0.00    -0.074 A 
ATOM      7  C6  UNL d   1      -3.073   4.429  -3.272  0.00  0.00     0.077 C 
ATOM      8  C7  UNL d   1      -2.137   2.223  -4.027  0.00  0.00    -0.001 A 
ENDROOT
TORSDOF 0
ENDMDL
