MODEL 1
REMARK minimizedAffinity 13.8478575
REMARK minimizedRMSD -1
REMARK  0 active torsions:
REMARK  status: ('A' for Active; 'I' for Inactive)
ROOT
ATOM      1  C   UNL d   1      -3.370   3.084  -1.467  0.00  0.00     0.077 C 
ATOM      2  C1  UNL d   1      -1.878   3.231  -1.406  0.00  0.00    -0.074 A 
ATOM      3  C2  UNL d   1      -1.084   2.252  -0.799  0.00  0.00    -0.005 A 
ATOM      4  C3  UNL d   1       0.302   2.398  -0.758  0.00  0.00     0.006 A 
ATOM      5  C4  UNL d   1       0.908   3.520  -1.324  0.00  0.00    -0.005 A 
ATOM      6  C5  UNL d   1       0.131   4.508  -1.936  0.00  0.00    -0.074 A 
ATOM      7  C6  UNL d   1       0.767   5.716  -2.557  0.00  0.00     0.077 C 
ATOM      8  C7  UNL d   1      -1.262   4.352  -1.979  0.00  0.00    -0.001 A 
ENDROOT
TORSDOF 0
ENDMDL
