MODEL 1
REMARK minimizedAffinity -0.536160231
REMARK minimizedRMSD -1
REMARK  0 active torsions:
REMARK  status: ('A' for Active; 'I' for Inactive)
ROOT
ATOM      1  C   UNL d   1      -4.019   6.000   1.493  0.00  0.00     0.077 C 
ATOM      2  C1  UNL d   1      -3.222   4.735   1.376  0.00  0.00    -0.074 A 
ATOM      3  C2  UNL d   1      -3.474   3.646   2.217  0.00  0.00    -0.005 A 
ATOM      4  C3  UNL d   1      -2.731   2.472   2.090  0.00  0.00     0.006 A 
ATOM      5  C4  UNL d   1      -1.730   2.376   1.123  0.00  0.00    -0.005 A 
ATOM      6  C5  UNL d   1      -1.465   3.454   0.272  0.00  0.00    -0.074 A 
ATOM      7  C6  UNL d   1      -0.399   3.363  -0.779  0.00  0.00     0.077 C 
ATOM      8  C7  UNL d   1      -2.220   4.627   0.402  0.00  0.00    -0.001 A 
ENDROOT
TORSDOF 0
ENDMDL
