MODEL 1
REMARK minimizedAffinity 5.84510231
REMARK minimizedRMSD -1
REMARK  0 active torsions:
REMARK  status: ('A' for Active; 'I' for Inactive)
ROOT
ATOM      1  C   UNL d   1       1.761   6.000  -2.388  0.00  0.00     0.077 C 
ATOM      2  C1  UNL d   1       0.965   4.838  -1.871  0.00  0.00    -0.074 A 
ATOM      3  C2  UNL d   1       1.445   4.047  -0.823  0.00  0.00    -0.005 A 
ATOM      4  C3  UNL d   1       0.689   2.976  -0.347  0.00  0.00     0.006 A 
ATOM      5  C4  UNL d   1      -0.552   2.685  -0.913  0.00  0.00    -0.005 A 
ATOM      6  C5  UNL d   1      -1.049   3.466  -1.962  0.00  0.00    -0.074 A 
ATOM      7  C6  UNL d   1      -2.387   3.174  -2.575  0.00  0.00     0.077 C 
ATOM      8  C7  UNL d   1      -0.287   4.545  -2.430  0.00  0.00    -0.001 A 
ENDROOT
TORSDOF 0
ENDMDL
