MODEL 1
REMARK minimizedAffinity 14.4401875
REMARK minimizedRMSD -1
REMARK  0 active torsions:
REMARK  status: ('A' for Active; 'I' for Inactive)
ROOT
ATOM      1  C   UNL d   1      -6.000   0.352  -2.452  0.00  0.00     0.077 C 
ATOM      2  C1  UNL d   1      -4.690   1.053  -2.659  0.00  0.00    -0.074 A 
ATOM      3  C2  UNL d   1      -4.349   2.177  -1.899  0.00  0.00    -0.005 A 
ATOM      4  C3  UNL d   1      -3.123   2.813  -2.096  0.00  0.00     0.006 A 
ATOM      5  C4  UNL d   1      -2.228   2.333  -3.052  0.00  0.00    -0.005 A 
ATOM      6  C5  UNL d   1      -2.551   1.210  -3.820  0.00  0.00    -0.074 A 
ATOM      7  C6  UNL d   1      -1.596   0.674  -4.845  0.00  0.00     0.077 C 
ATOM      8  C7  UNL d   1      -3.782   0.572  -3.612  0.00  0.00    -0.001 A 
ENDROOT
TORSDOF 0
ENDMDL
