MODEL 1
REMARK minimizedAffinity 5.68701696
REMARK minimizedRMSD -1
REMARK  0 active torsions:
REMARK  status: ('A' for Active; 'I' for Inactive)
ROOT
ATOM      1  C   UNL d   1       5.759  -2.473   1.925  0.00  0.00     0.077 C 
ATOM      2  C1  UNL d   1       4.334  -2.030   1.777  0.00  0.00    -0.074 A 
ATOM      3  C2  UNL d   1       3.645  -1.453   2.848  0.00  0.00    -0.005 A 
ATOM      4  C3  UNL d   1       2.323  -1.037   2.692  0.00  0.00     0.006 A 
ATOM      5  C4  UNL d   1       1.677  -1.194   1.465  0.00  0.00    -0.005 A 
ATOM      6  C5  UNL d   1       2.350  -1.768   0.382  0.00  0.00    -0.074 A 
ATOM      7  C6  UNL d   1       1.674  -1.934  -0.946  0.00  0.00     0.077 C 
ATOM      8  C7  UNL d   1       3.681  -2.177   0.545  0.00  0.00    -0.001 A 
ENDROOT
TORSDOF 0
ENDMDL
