MODEL 1
REMARK minimizedAffinity 8.34372234
REMARK minimizedRMSD -1
REMARK  0 active torsions:
REMARK  status: ('A' for Active; 'I' for Inactive)
ROOT
ATOM      1  C   UNL d   1      -5.991  -1.141   5.997  0.00  0.00     0.077 C 
ATOM      2  C1  UNL d   1      -5.391  -0.819   4.660  0.00  0.00    -0.074 A 
ATOM      3  C2  UNL d   1      -5.992  -1.262   3.477  0.00  0.00    -0.005 A 
ATOM      4  C3  UNL d   1      -5.427  -0.946   2.241  0.00  0.00     0.006 A 
ATOM      5  C4  UNL d   1      -4.259  -0.187   2.176  0.00  0.00    -0.005 A 
ATOM      6  C5  UNL d   1      -3.645   0.266   3.348  0.00  0.00    -0.074 A 
ATOM      7  C6  UNL d   1      -2.394   1.092   3.295  0.00  0.00     0.077 C 
ATOM      8  C7  UNL d   1      -4.222  -0.049   4.586  0.00  0.00    -0.001 A 
ENDROOT
TORSDOF 0
ENDMDL
