MODEL 1
REMARK minimizedAffinity -3.36941171
REMARK minimizedRMSD -1
REMARK  0 active torsions:
REMARK  status: ('A' for Active; 'I' for Inactive)
ROOT
ATOM      1  C   UNL d   1      -0.318   3.379  -0.749  0.00  0.00     0.077 C 
ATOM      2  C1  UNL d   1      -1.505   3.446   0.165  0.00  0.00    -0.074 A 
ATOM      3  C2  UNL d   1      -1.879   2.343   0.939  0.00  0.00    -0.005 A 
ATOM      4  C3  UNL d   1      -2.980   2.423   1.792  0.00  0.00     0.006 A 
ATOM      5  C4  UNL d   1      -3.716   3.605   1.880  0.00  0.00    -0.005 A 
ATOM      6  C5  UNL d   1      -3.356   4.719   1.115  0.00  0.00    -0.074 A 
ATOM      7  C6  UNL d   1      -4.131   6.000   1.205  0.00  0.00     0.077 C 
ATOM      8  C7  UNL d   1      -2.245   4.633   0.265  0.00  0.00    -0.001 A 
ENDROOT
TORSDOF 0
ENDMDL
