MODEL 1
REMARK minimizedAffinity -3.15551138
REMARK minimizedRMSD -1
REMARK  0 active torsions:
REMARK  status: ('A' for Active; 'I' for Inactive)
ROOT
ATOM      1  C1  DEN d   1       0.529   0.920   0.182  0.00  0.00     0.130 A 
ATOM      2  C2  DEN d   1       0.902  -0.168  -0.718  0.00  0.00    -0.031 A 
ATOM      3  C3  DEN d   1      -0.221  -1.126  -0.764  0.00  0.00     0.027 A 
ATOM      4  C4  DEN d   1      -2.490  -1.028   0.458  0.00  0.00     0.027 A 
ATOM      5  C5  DEN d   1      -3.259  -0.302   1.340  0.00  0.00    -0.003 A 
ATOM      6  C6  DEN d   1      -2.810   0.855   1.919  0.00  0.00     0.001 A 
ATOM      7  C7  DEN d   1      -1.575   1.345   1.588  0.00  0.00     0.017 A 
ATOM      8  C8  DEN d   1      -0.790   0.614   0.706  0.00  0.00    -0.094 A 
ATOM      9  C9  DEN d   1      -1.266  -0.547   0.121  0.00  0.00    -0.072 A 
ENDROOT
TORSDOF 0
ENDMDL
