MODEL 1
REMARK minimizedAffinity -3.95561552
REMARK minimizedRMSD -1
REMARK  0 active torsions:
REMARK  status: ('A' for Active; 'I' for Inactive)
ROOT
ATOM      1  C1  DEN d   1      -0.288  -0.759   0.830  0.00  0.00     0.130 A 
ATOM      2  C2  DEN d   1       0.335   0.007   1.906  0.00  0.00    -0.031 A 
ATOM      3  C3  DEN d   1       1.326   0.920   1.302  0.00  0.00     0.027 A 
ATOM      4  C4  DEN d   1       1.951   1.222  -1.182  0.00  0.00     0.027 A 
ATOM      5  C5  DEN d   1       1.699   0.785  -2.464  0.00  0.00    -0.003 A 
ATOM      6  C6  DEN d   1       0.800  -0.213  -2.732  0.00  0.00     0.001 A 
ATOM      7  C7  DEN d   1       0.086  -0.776  -1.708  0.00  0.00     0.017 A 
ATOM      8  C8  DEN d   1       0.339  -0.346  -0.412  0.00  0.00    -0.094 A 
ATOM      9  C9  DEN d   1       1.243   0.673  -0.163  0.00  0.00    -0.072 A 
ENDROOT
TORSDOF 0
ENDMDL
