MODEL 1
REMARK minimizedAffinity -6.65679741
REMARK minimizedRMSD -1
REMARK  0 active torsions:
REMARK  status: ('A' for Active; 'I' for Inactive)
ROOT
ATOM      1  C1  DEN d   1       1.805  -2.284  -2.045  0.00  0.00     0.130 A 
ATOM      2  C2  DEN d   1       2.040  -1.282  -3.080  0.00  0.00    -0.031 A 
ATOM      3  C3  DEN d   1       1.692   0.041  -2.523  0.00  0.00     0.027 A 
ATOM      4  C4  DEN d   1       0.819   0.630  -0.168  0.00  0.00     0.027 A 
ATOM      5  C5  DEN d   1       0.450   0.113   1.054  0.00  0.00    -0.003 A 
ATOM      6  C6  DEN d   1       0.474  -1.231   1.316  0.00  0.00     0.001 A 
ATOM      7  C7  DEN d   1       0.919  -2.101   0.356  0.00  0.00     0.017 A 
ATOM      8  C8  DEN d   1       1.286  -1.589  -0.881  0.00  0.00    -0.094 A 
ATOM      9  C9  DEN d   1       1.266  -0.225  -1.122  0.00  0.00    -0.072 A 
ENDROOT
TORSDOF 0
ENDMDL
