MODEL 1
REMARK minimizedAffinity -4.38004971
REMARK minimizedRMSD -1
REMARK  0 active torsions:
REMARK  status: ('A' for Active; 'I' for Inactive)
ROOT
ATOM      1  C1  DEN d   1       1.061   0.975   1.265  0.00  0.00     0.130 A 
ATOM      2  C2  DEN d   1      -0.168   0.296   1.665  0.00  0.00    -0.031 A 
ATOM      3  C3  DEN d   1      -0.541  -0.644   0.589  0.00  0.00     0.027 A 
ATOM      4  C4  DEN d   1       0.663  -1.115  -1.643  0.00  0.00     0.027 A 
ATOM      5  C5  DEN d   1       1.740  -0.774  -2.432  0.00  0.00    -0.003 A 
ATOM      6  C6  DEN d   1       2.639   0.191  -2.062  0.00  0.00     0.001 A 
ATOM      7  C7  DEN d   1       2.504   0.816  -0.851  0.00  0.00     0.017 A 
ATOM      8  C8  DEN d   1       1.417   0.483  -0.053  0.00  0.00    -0.094 A 
ATOM      9  C9  DEN d   1       0.525  -0.504  -0.440  0.00  0.00    -0.072 A 
ENDROOT
TORSDOF 0
ENDMDL
