MODEL 1
REMARK minimizedAffinity -3.65181494
REMARK minimizedRMSD -1
REMARK  0 active torsions:
REMARK  status: ('A' for Active; 'I' for Inactive)
ROOT
ATOM      1  C1  DEN d   1      -0.808  -1.301  -0.093  0.00  0.00     0.130 A 
ATOM      2  C2  DEN d   1      -0.904  -0.641   1.206  0.00  0.00    -0.031 A 
ATOM      3  C3  DEN d   1       0.061   0.476   1.223  0.00  0.00     0.027 A 
ATOM      4  C4  DEN d   1       1.684   1.246  -0.628  0.00  0.00     0.027 A 
ATOM      5  C5  DEN d   1       2.135   0.989  -1.904  0.00  0.00    -0.003 A 
ATOM      6  C6  DEN d   1       1.665  -0.061  -2.647  0.00  0.00     0.001 A 
ATOM      7  C7  DEN d   1       0.682  -0.867  -2.136  0.00  0.00     0.017 A 
ATOM      8  C8  DEN d   1       0.227  -0.619  -0.848  0.00  0.00    -0.094 A 
ATOM      9  C9  DEN d   1       0.706   0.456  -0.118  0.00  0.00    -0.072 A 
ENDROOT
TORSDOF 0
ENDMDL
