MODEL 1
REMARK minimizedAffinity -3.27757311
REMARK minimizedRMSD -1
REMARK  0 active torsions:
REMARK  status: ('A' for Active; 'I' for Inactive)
ROOT
ATOM      1  C1  DEN d   1      -0.136  -1.253   0.971  0.00  0.00     0.130 A 
ATOM      2  C2  DEN d   1       0.758  -1.300  -0.183  0.00  0.00    -0.031 A 
ATOM      3  C3  DEN d   1       0.218  -0.393  -1.216  0.00  0.00     0.027 A 
ATOM      4  C4  DEN d   1      -1.902   1.073  -1.141  0.00  0.00     0.027 A 
ATOM      5  C5  DEN d   1      -2.988   1.438  -0.376  0.00  0.00    -0.003 A 
ATOM      6  C6  DEN d   1      -3.216   0.910   0.867  0.00  0.00     0.001 A 
ATOM      7  C7  DEN d   1      -2.321   0.021   1.402  0.00  0.00     0.017 A 
ATOM      8  C8  DEN d   1      -1.228  -0.357   0.634  0.00  0.00    -0.094 A 
ATOM      9  C9  DEN d   1      -1.008   0.197  -0.616  0.00  0.00    -0.072 A 
ENDROOT
TORSDOF 0
ENDMDL
