MODEL 1
REMARK minimizedAffinity -3.47819853
REMARK minimizedRMSD -1
REMARK  0 active torsions:
REMARK  status: ('A' for Active; 'I' for Inactive)
ROOT
ATOM      1  C1  DEN d   1      -1.236   1.573  -0.362  0.00  0.00     0.130 A 
ATOM      2  C2  DEN d   1      -1.742   1.452   1.003  0.00  0.00    -0.031 A 
ATOM      3  C3  DEN d   1      -1.428   0.093   1.488  0.00  0.00     0.027 A 
ATOM      4  C4  DEN d   1      -0.209  -1.824   0.267  0.00  0.00     0.027 A 
ATOM      5  C5  DEN d   1       0.396  -2.198  -0.912  0.00  0.00    -0.003 A 
ATOM      6  C6  DEN d   1       0.469  -1.360  -1.993  0.00  0.00     0.001 A 
ATOM      7  C7  DEN d   1      -0.032  -0.089  -1.902  0.00  0.00     0.017 A 
ATOM      8  C8  DEN d   1      -0.651   0.293  -0.719  0.00  0.00    -0.094 A 
ATOM      9  C9  DEN d   1      -0.703  -0.564   0.367  0.00  0.00    -0.072 A 
ENDROOT
TORSDOF 0
ENDMDL
