MODEL 1
REMARK minimizedAffinity -0.453052521
REMARK minimizedRMSD -1
REMARK  0 active torsions:
REMARK  status: ('A' for Active; 'I' for Inactive)
ROOT
ATOM      1  C1  DEN d   1      -1.264  -0.770  -0.292  0.00  0.00     0.130 A 
ATOM      2  C2  DEN d   1       0.126  -0.419  -0.015  0.00  0.00    -0.031 A 
ATOM      3  C3  DEN d   1       0.138   0.559   1.092  0.00  0.00     0.027 A 
ATOM      4  C4  DEN d   1      -1.851   1.554   2.399  0.00  0.00     0.027 A 
ATOM      5  C5  DEN d   1      -3.223   1.567   2.517  0.00  0.00    -0.003 A 
ATOM      6  C6  DEN d   1      -4.033   0.834   1.691  0.00  0.00     0.001 A 
ATOM      7  C7  DEN d   1      -3.476   0.021   0.739  0.00  0.00     0.017 A 
ATOM      8  C8  DEN d   1      -2.093   0.009   0.610  0.00  0.00    -0.094 A 
ATOM      9  C9  DEN d   1      -1.291   0.748   1.462  0.00  0.00    -0.072 A 
ENDROOT
TORSDOF 0
ENDMDL
