MODEL 1
REMARK minimizedAffinity -2.91663265
REMARK minimizedRMSD -1
REMARK  0 active torsions:
REMARK  status: ('A' for Active; 'I' for Inactive)
ROOT
ATOM      1  C1  DEN d   1      -2.027   2.922   4.473  0.00  0.00     0.130 A 
ATOM      2  C2  DEN d   1      -2.992   4.002   4.664  0.00  0.00    -0.031 A 
ATOM      3  C3  DEN d   1      -4.150   3.739   3.785  0.00  0.00     0.027 A 
ATOM      4  C4  DEN d   1      -4.541   1.775   2.160  0.00  0.00     0.027 A 
ATOM      5  C5  DEN d   1      -3.999   0.618   1.646  0.00  0.00    -0.003 A 
ATOM      6  C6  DEN d   1      -2.757   0.169   2.011  0.00  0.00     0.001 A 
ATOM      7  C7  DEN d   1      -2.034   0.859   2.948  0.00  0.00     0.017 A 
ATOM      8  C8  DEN d   1      -2.572   2.030   3.465  0.00  0.00    -0.094 A 
ATOM      9  C9  DEN d   1      -3.834   2.461   3.093  0.00  0.00    -0.072 A 
ENDROOT
TORSDOF 0
ENDMDL
