MODEL 1
REMARK minimizedAffinity -1.93218029
REMARK minimizedRMSD -1
REMARK  0 active torsions:
REMARK  status: ('A' for Active; 'I' for Inactive)
ROOT
ATOM      1  C1  DEN d   1      -1.450  -1.078   0.738  0.00  0.00     0.130 A 
ATOM      2  C2  DEN d   1      -0.090  -0.546   0.698  0.00  0.00    -0.031 A 
ATOM      3  C3  DEN d   1      -0.136   0.859   1.150  0.00  0.00     0.027 A 
ATOM      4  C4  DEN d   1      -2.169   2.254   1.907  0.00  0.00     0.027 A 
ATOM      5  C5  DEN d   1      -3.533   2.238   2.099  0.00  0.00    -0.003 A 
ATOM      6  C6  DEN d   1      -4.296   1.136   1.820  0.00  0.00     0.001 A 
ATOM      7  C7  DEN d   1      -3.695  -0.012   1.377  0.00  0.00     0.017 A 
ATOM      8  C8  DEN d   1      -2.321  -0.002   1.174  0.00  0.00    -0.094 A 
ATOM      9  C9  DEN d   1      -1.565   1.119   1.473  0.00  0.00    -0.072 A 
ENDROOT
TORSDOF 0
ENDMDL
