MODEL 1
REMARK minimizedAffinity -0.794967532
REMARK minimizedRMSD -1
REMARK  0 active torsions:
REMARK  status: ('A' for Active; 'I' for Inactive)
ROOT
ATOM      1  C1  DEN d   1      -0.493   1.400   1.143  0.00  0.00     0.130 A 
ATOM      2  C2  DEN d   1      -1.352   0.325   1.631  0.00  0.00    -0.031 A 
ATOM      3  C3  DEN d   1      -1.000  -0.908   0.899  0.00  0.00     0.027 A 
ATOM      4  C4  DEN d   1       0.785  -1.256  -0.930  0.00  0.00     0.027 A 
ATOM      5  C5  DEN d   1       1.755  -0.633  -1.684  0.00  0.00    -0.003 A 
ATOM      6  C6  DEN d   1       2.018   0.706  -1.574  0.00  0.00     0.001 A 
ATOM      7  C7  DEN d   1       1.333   1.459  -0.657  0.00  0.00     0.017 A 
ATOM      8  C8  DEN d   1       0.349   0.841   0.102  0.00  0.00    -0.094 A 
ATOM      9  C9  DEN d   1       0.107  -0.518  -0.015  0.00  0.00    -0.072 A 
ENDROOT
TORSDOF 0
ENDMDL
