MODEL 1
REMARK minimizedAffinity -2.68419981
REMARK minimizedRMSD -1
REMARK  0 active torsions:
REMARK  status: ('A' for Active; 'I' for Inactive)
ROOT
ATOM      1  C1  DEN d   1      -1.583   2.782   3.535  0.00  0.00     0.130 A 
ATOM      2  C2  DEN d   1      -2.518   3.901   3.615  0.00  0.00    -0.031 A 
ATOM      3  C3  DEN d   1      -3.681   3.586   2.761  0.00  0.00     0.027 A 
ATOM      4  C4  DEN d   1      -4.124   1.483   1.335  0.00  0.00     0.027 A 
ATOM      5  C5  DEN d   1      -3.613   0.266   0.940  0.00  0.00    -0.003 A 
ATOM      6  C6  DEN d   1      -2.385  -0.178   1.352  0.00  0.00     0.001 A 
ATOM      7  C7  DEN d   1      -1.645   0.580   2.221  0.00  0.00     0.017 A 
ATOM      8  C8  DEN d   1      -2.151   1.811   2.618  0.00  0.00    -0.094 A 
ATOM      9  C9  DEN d   1      -3.400   2.237   2.200  0.00  0.00    -0.072 A 
ENDROOT
TORSDOF 0
ENDMDL
