MODEL 1
REMARK minimizedAffinity 0.959425807
REMARK minimizedRMSD -1
REMARK  0 active torsions:
REMARK  status: ('A' for Active; 'I' for Inactive)
ROOT
ATOM      1  C1  DEN d   1      -1.963   2.285  -0.128  0.00  0.00     0.130 A 
ATOM      2  C2  DEN d   1      -2.885   2.015   0.973  0.00  0.00    -0.031 A 
ATOM      3  C3  DEN d   1      -2.411   0.808   1.680  0.00  0.00     0.027 A 
ATOM      4  C4  DEN d   1      -0.347  -0.658   1.183  0.00  0.00     0.027 A 
ATOM      5  C5  DEN d   1       0.730  -0.832   0.342  0.00  0.00    -0.003 A 
ATOM      6  C6  DEN d   1       0.964  -0.006  -0.725  0.00  0.00     0.001 A 
ATOM      7  C7  DEN d   1       0.134   1.059  -0.954  0.00  0.00     0.017 A 
ATOM      8  C8  DEN d   1      -0.958   1.237  -0.115  0.00  0.00    -0.094 A 
ATOM      9  C9  DEN d   1      -1.171   0.399   0.966  0.00  0.00    -0.072 A 
ENDROOT
TORSDOF 0
ENDMDL
