MODEL 1
REMARK minimizedAffinity -4.93211317
REMARK minimizedRMSD -1
REMARK  0 active torsions:
REMARK  status: ('A' for Active; 'I' for Inactive)
ROOT
ATOM      1  C1  DEN d   1      -1.856   0.269   0.069  0.00  0.00     0.130 A 
ATOM      2  C2  DEN d   1      -1.389   0.138   1.447  0.00  0.00    -0.031 A 
ATOM      3  C3  DEN d   1       0.087   0.118   1.429  0.00  0.00     0.027 A 
ATOM      4  C4  DEN d   1       1.688   0.281  -0.587  0.00  0.00     0.027 A 
ATOM      5  C5  DEN d   1       1.759   0.393  -1.958  0.00  0.00    -0.003 A 
ATOM      6  C6  DEN d   1       0.639   0.437  -2.746  0.00  0.00     0.001 A 
ATOM      7  C7  DEN d   1      -0.601   0.414  -2.164  0.00  0.00     0.017 A 
ATOM      8  C8  DEN d   1      -0.681   0.294  -0.783  0.00  0.00    -0.094 A 
ATOM      9  C9  DEN d   1       0.463   0.263  -0.003  0.00  0.00    -0.072 A 
ENDROOT
TORSDOF 0
ENDMDL
