MODEL 1
REMARK minimizedAffinity 1.26157475
REMARK minimizedRMSD -1
REMARK  1 active torsions:
REMARK  status: ('A' for Active; 'I' for Inactive)
REMARK    1  A    between atoms: C1_2  and  C2_3 
ROOT
ATOM      1  C2  UNL d   1      -0.638   1.682   0.029  0.00  0.00    -0.077 A 
ATOM      2  C3  UNL d   1       0.351   1.151   0.869  0.00  0.00     0.002 A 
ATOM      3  C4  UNL d   1       1.315   1.984   1.440  0.00  0.00     0.002 A 
ATOM      4  C5  UNL d   1       1.296   3.353   1.182  0.00  0.00    -0.004 A 
ATOM      5  C6  UNL d   1       0.318   3.891   0.346  0.00  0.00     0.002 A 
ATOM      6  C7  UNL d   1      -0.646   3.059  -0.227  0.00  0.00     0.002 A 
ENDROOT
BRANCH   1   7
ATOM      7  C1  UNL d   1      -1.707   0.793  -0.549  0.00  0.00     0.055 C 
ATOM      8  C   UNL d   1      -2.942   0.762   0.340  0.00  0.00     0.019 C 
ENDBRANCH   1   7
TORSDOF 1
ENDMDL
