MODEL 1
REMARK minimizedAffinity 0.794799089
REMARK minimizedRMSD -1
REMARK  1 active torsions:
REMARK  status: ('A' for Active; 'I' for Inactive)
REMARK    1  A    between atoms: C1_2  and  C2_3 
ROOT
ATOM      1  C2  UNL d   1       0.501   1.704   0.566  0.00  0.00    -0.077 A 
ATOM      2  C3  UNL d   1       0.423   3.000   0.037  0.00  0.00     0.002 A 
ATOM      3  C4  UNL d   1      -0.660   3.373  -0.761  0.00  0.00     0.002 A 
ATOM      4  C5  UNL d   1      -1.674   2.458  -1.035  0.00  0.00    -0.004 A 
ATOM      5  C6  UNL d   1      -1.604   1.166  -0.516  0.00  0.00     0.002 A 
ATOM      6  C7  UNL d   1      -0.522   0.791   0.282  0.00  0.00     0.002 A 
ENDROOT
BRANCH   1   7
ATOM      7  C1  UNL d   1       1.643   1.315   1.467  0.00  0.00     0.055 C 
ATOM      8  C   UNL d   1       1.825   2.319   2.596  0.00  0.00     0.019 C 
ENDBRANCH   1   7
TORSDOF 1
ENDMDL
