MODEL 1
REMARK minimizedAffinity 2.14888763
REMARK minimizedRMSD -1
REMARK  1 active torsions:
REMARK  status: ('A' for Active; 'I' for Inactive)
REMARK    1  A    between atoms: C1_2  and  C2_3 
ROOT
ATOM      1  C2  UNL d   1       1.940  -2.293  -0.103  0.00  0.00    -0.077 A 
ATOM      2  C3  UNL d   1       1.364  -2.291  -1.381  0.00  0.00     0.002 A 
ATOM      3  C4  UNL d   1       0.438  -3.272  -1.740  0.00  0.00     0.002 A 
ATOM      4  C5  UNL d   1       0.076  -4.259  -0.826  0.00  0.00    -0.004 A 
ATOM      5  C6  UNL d   1       0.644  -4.270   0.447  0.00  0.00     0.002 A 
ATOM      6  C7  UNL d   1       1.571  -3.291   0.807  0.00  0.00     0.002 A 
ENDROOT
BRANCH   1   7
ATOM      7  C1  UNL d   1       2.902  -1.207   0.303  0.00  0.00     0.055 C 
ATOM      8  C   UNL d   1       2.328   0.175   0.021  0.00  0.00     0.019 C 
ENDBRANCH   1   7
TORSDOF 1
ENDMDL
