MODEL 1
REMARK minimizedAffinity -1.94574809
REMARK minimizedRMSD -1
REMARK  1 active torsions:
REMARK  status: ('A' for Active; 'I' for Inactive)
REMARK    1  A    between atoms: C1_2  and  C2_3 
ROOT
ATOM      1  C2  UNL d   1      -3.892   5.982   2.900  0.00  0.00    -0.077 A 
ATOM      2  C3  UNL d   1      -3.208   5.988   4.124  0.00  0.00     0.002 A 
ATOM      3  C4  UNL d   1      -3.915   5.999   5.328  0.00  0.00     0.002 A 
ATOM      4  C5  UNL d   1      -5.309   6.000   5.320  0.00  0.00    -0.004 A 
ATOM      5  C6  UNL d   1      -5.998   5.996   4.108  0.00  0.00     0.002 A 
ATOM      6  C7  UNL d   1      -5.293   5.986   2.904  0.00  0.00     0.002 A 
ENDROOT
BRANCH   1   7
ATOM      7  C1  UNL d   1      -3.132   5.920   1.601  0.00  0.00     0.055 C 
ATOM      8  C   UNL d   1      -4.072   5.983   0.406  0.00  0.00     0.019 C 
ENDBRANCH   1   7
TORSDOF 1
ENDMDL
