MODEL 1
REMARK minimizedAffinity -2.44992685
REMARK minimizedRMSD -1
REMARK  1 active torsions:
REMARK  status: ('A' for Active; 'I' for Inactive)
REMARK    1  A    between atoms: C1_2  and  C2_3 
ROOT
ATOM      1  C2  UNL d   1       4.245   1.425  -1.300  0.00  0.00    -0.073 A 
ATOM      2  C3  UNL d   1       5.450   0.857  -0.870  0.00  0.00    -0.002 A 
ATOM      3  C4  UNL d   1       5.576   0.375   0.433  0.00  0.00     0.004 A 
ATOM      4  C5  UNL d   1       4.500   0.450   1.317  0.00  0.00    -0.004 A 
ATOM      5  C6  UNL d   1       3.284   1.003   0.903  0.00  0.00    -0.075 A 
ATOM      6  C7  UNL d   1       2.117   1.093   1.842  0.00  0.00     0.076 C 
ATOM      7  C8  UNL d   1       3.166   1.488  -0.407  0.00  0.00     0.001 A 
ENDROOT
BRANCH   1   8
ATOM      8  C1  UNL d   1       4.102   1.941  -2.708  0.00  0.00     0.053 C 
ATOM      9  C   UNL d   1       2.683   1.784  -3.231  0.00  0.00     0.018 C 
ENDBRANCH   1   8
TORSDOF 1
ENDMDL
