MODEL 1
REMARK minimizedAffinity -1.1255486
REMARK minimizedRMSD -1
REMARK  1 active torsions:
REMARK  status: ('A' for Active; 'I' for Inactive)
REMARK    1  A    between atoms: C1_2  and  C2_3 
ROOT
ATOM      1  C2  UNL d   1       3.401   0.710  -1.127  0.00  0.00    -0.073 A 
ATOM      2  C3  UNL d   1       2.019   0.744  -1.348  0.00  0.00    -0.002 A 
ATOM      3  C4  UNL d   1       1.508   1.270  -2.535  0.00  0.00     0.004 A 
ATOM      4  C5  UNL d   1       2.371   1.759  -3.515  0.00  0.00    -0.004 A 
ATOM      5  C6  UNL d   1       3.756   1.722  -3.318  0.00  0.00    -0.075 A 
ATOM      6  C7  UNL d   1       4.698   2.247  -4.362  0.00  0.00     0.076 C 
ATOM      7  C8  UNL d   1       4.261   1.196  -2.122  0.00  0.00     0.001 A 
ENDROOT
BRANCH   1   8
ATOM      8  C1  UNL d   1       3.958   0.138   0.151  0.00  0.00     0.053 C 
ATOM      9  C   UNL d   1       3.364   0.805   1.381  0.00  0.00     0.018 C 
ENDBRANCH   1   8
TORSDOF 1
ENDMDL
