MODEL 1
REMARK minimizedAffinity -3.21502852
REMARK minimizedRMSD -1
REMARK  1 active torsions:
REMARK  status: ('A' for Active; 'I' for Inactive)
REMARK    1  A    between atoms: C1_2  and  C2_3 
ROOT
ATOM      1  C2  UNL d   1       4.124   1.111  -1.302  0.00  0.00    -0.073 A 
ATOM      2  C3  UNL d   1       2.956   0.529  -0.795  0.00  0.00    -0.002 A 
ATOM      3  C4  UNL d   1       2.779   0.388   0.581  0.00  0.00     0.004 A 
ATOM      4  C5  UNL d   1       3.763   0.832   1.465  0.00  0.00    -0.004 A 
ATOM      5  C6  UNL d   1       4.931   1.427   0.978  0.00  0.00    -0.075 A 
ATOM      6  C7  UNL d   1       6.000   1.908   1.915  0.00  0.00     0.076 C 
ATOM      7  C8  UNL d   1       5.103   1.563  -0.406  0.00  0.00     0.001 A 
ENDROOT
BRANCH   1   8
ATOM      8  C1  UNL d   1       4.316   1.272  -2.788  0.00  0.00     0.053 C 
ATOM      9  C   UNL d   1       3.010   1.579  -3.502  0.00  0.00     0.018 C 
ENDBRANCH   1   8
TORSDOF 1
ENDMDL
