MODEL 1
REMARK minimizedAffinity 1.51018918
REMARK minimizedRMSD -1
REMARK  1 active torsions:
REMARK  status: ('A' for Active; 'I' for Inactive)
REMARK    1  A    between atoms: C1_2  and  C2_3 
ROOT
ATOM      1  C2  UNL d   1       3.645   1.304  -1.265  0.00  0.00    -0.073 A 
ATOM      2  C3  UNL d   1       2.491   1.410  -0.481  0.00  0.00    -0.002 A 
ATOM      3  C4  UNL d   1       2.452   0.847   0.796  0.00  0.00     0.004 A 
ATOM      4  C5  UNL d   1       3.567   0.179   1.302  0.00  0.00    -0.004 A 
ATOM      5  C6  UNL d   1       4.733   0.072   0.538  0.00  0.00    -0.075 A 
ATOM      6  C7  UNL d   1       5.940  -0.645   1.068  0.00  0.00     0.076 C 
ATOM      7  C8  UNL d   1       4.764   0.638  -0.744  0.00  0.00     0.001 A 
ENDROOT
BRANCH   1   8
ATOM      8  C1  UNL d   1       3.694   1.916  -2.641  0.00  0.00     0.053 C 
ATOM      9  C   UNL d   1       2.323   1.955  -3.297  0.00  0.00     0.018 C 
ENDBRANCH   1   8
TORSDOF 1
ENDMDL
