MODEL 1
REMARK minimizedAffinity 4.34949112
REMARK minimizedRMSD -1
REMARK  1 active torsions:
REMARK  status: ('A' for Active; 'I' for Inactive)
REMARK    1  A    between atoms: C1_2  and  C2_3 
ROOT
ATOM      1  C2  UNL d   1       3.155   1.316  -1.149  0.00  0.00    -0.073 A 
ATOM      2  C3  UNL d   1       2.135   1.359  -0.191  0.00  0.00    -0.002 A 
ATOM      3  C4  UNL d   1       2.264   0.657   1.008  0.00  0.00     0.004 A 
ATOM      4  C5  UNL d   1       3.414  -0.090   1.264  0.00  0.00    -0.004 A 
ATOM      5  C6  UNL d   1       4.449  -0.136   0.324  0.00  0.00    -0.075 A 
ATOM      6  C7  UNL d   1       5.692  -0.936   0.584  0.00  0.00     0.076 C 
ATOM      7  C8  UNL d   1       4.311   0.570  -0.878  0.00  0.00     0.001 A 
ENDROOT
BRANCH   1   8
ATOM      8  C1  UNL d   1       3.023   2.078  -2.442  0.00  0.00     0.053 C 
ATOM      9  C   UNL d   1       1.588   2.503  -2.709  0.00  0.00     0.018 C 
ENDBRANCH   1   8
TORSDOF 1
ENDMDL
