MODEL 1
REMARK minimizedAffinity 5.47022438
REMARK minimizedRMSD -1
REMARK  1 active torsions:
REMARK  status: ('A' for Active; 'I' for Inactive)
REMARK    1  A    between atoms: C1_2  and  C2_3 
ROOT
ATOM      1  C2  UNL d   1       3.629   1.010  -0.548  0.00  0.00    -0.073 A 
ATOM      2  C3  UNL d   1       4.697   0.177  -0.196  0.00  0.00    -0.002 A 
ATOM      3  C4  UNL d   1       4.594  -0.673   0.906  0.00  0.00     0.004 A 
ATOM      4  C5  UNL d   1       3.423  -0.703   1.662  0.00  0.00    -0.004 A 
ATOM      5  C6  UNL d   1       2.340   0.113   1.319  0.00  0.00    -0.075 A 
ATOM      6  C7  UNL d   1       1.074   0.094   2.124  0.00  0.00     0.076 C 
ATOM      7  C8  UNL d   1       2.452   0.966   0.213  0.00  0.00     0.001 A 
ENDROOT
BRANCH   1   8
ATOM      8  C1  UNL d   1       3.733   1.924  -1.741  0.00  0.00     0.053 C 
ATOM      9  C   UNL d   1       4.058   1.163  -3.017  0.00  0.00     0.018 C 
ENDBRANCH   1   8
TORSDOF 1
ENDMDL
