MODEL 1
REMARK minimizedAffinity 16.5275726
REMARK minimizedRMSD -1
REMARK  1 active torsions:
REMARK  status: ('A' for Active; 'I' for Inactive)
REMARK    1  A    between atoms: C1_2  and  C2_3 
ROOT
ATOM      1  C2  UNL d   1       3.298   1.917   0.340  0.00  0.00    -0.073 A 
ATOM      2  C3  UNL d   1       1.950   1.848   0.710  0.00  0.00    -0.002 A 
ATOM      3  C4  UNL d   1       1.284   2.988   1.163  0.00  0.00     0.004 A 
ATOM      4  C5  UNL d   1       1.956   4.207   1.245  0.00  0.00    -0.004 A 
ATOM      5  C6  UNL d   1       3.300   4.299   0.869  0.00  0.00    -0.075 A 
ATOM      6  C7  UNL d   1       4.038   5.603   0.953  0.00  0.00     0.076 C 
ATOM      7  C8  UNL d   1       3.962   3.149   0.417  0.00  0.00     0.001 A 
ENDROOT
BRANCH   1   8
ATOM      8  C1  UNL d   1       4.019   0.690  -0.156  0.00  0.00     0.053 C 
ATOM      9  C   UNL d   1       4.287  -0.305   0.961  0.00  0.00     0.018 C 
ENDBRANCH   1   8
TORSDOF 1
ENDMDL
