MODEL 1
REMARK minimizedAffinity 13.3573399
REMARK minimizedRMSD -1
REMARK  1 active torsions:
REMARK  status: ('A' for Active; 'I' for Inactive)
REMARK    1  A    between atoms: C1_2  and  C2_3 
ROOT
ATOM      1  C2  UNL d   1      -1.575  -2.709  -1.006  0.00  0.00    -0.073 A 
ATOM      2  C3  UNL d   1      -2.878  -2.920  -0.540  0.00  0.00    -0.002 A 
ATOM      3  C4  UNL d   1      -3.930  -3.087  -1.442  0.00  0.00     0.004 A 
ATOM      4  C5  UNL d   1      -3.690  -3.051  -2.815  0.00  0.00    -0.004 A 
ATOM      5  C6  UNL d   1      -2.393  -2.853  -3.300  0.00  0.00    -0.075 A 
ATOM      6  C7  UNL d   1      -2.119  -2.810  -4.774  0.00  0.00     0.076 C 
ATOM      7  C8  UNL d   1      -1.342  -2.684  -2.388  0.00  0.00     0.001 A 
ENDROOT
BRANCH   1   8
ATOM      8  C1  UNL d   1      -0.435  -2.535  -0.036  0.00  0.00     0.053 C 
ATOM      9  C   UNL d   1       0.896  -2.957  -0.639  0.00  0.00     0.018 C 
ENDBRANCH   1   8
TORSDOF 1
ENDMDL
