MODEL 1
REMARK minimizedAffinity 14.8932266
REMARK minimizedRMSD -1
REMARK  1 active torsions:
REMARK  status: ('A' for Active; 'I' for Inactive)
REMARK    1  A    between atoms: C1_2  and  C2_3 
ROOT
ATOM      1  C2  UNL d   1      -2.007  -2.837  -0.207  0.00  0.00    -0.073 A 
ATOM      2  C3  UNL d   1      -1.192  -2.250   0.768  0.00  0.00    -0.002 A 
ATOM      3  C4  UNL d   1      -1.015  -2.870   2.005  0.00  0.00     0.004 A 
ATOM      4  C5  UNL d   1      -1.645  -4.084   2.278  0.00  0.00    -0.004 A 
ATOM      5  C6  UNL d   1      -2.453  -4.693   1.313  0.00  0.00    -0.075 A 
ATOM      6  C7  UNL d   1      -3.139  -5.998   1.591  0.00  0.00     0.076 C 
ATOM      7  C8  UNL d   1      -2.628  -4.063   0.073  0.00  0.00     0.001 A 
ENDROOT
BRANCH   1   8
ATOM      8  C1  UNL d   1      -2.195  -2.175  -1.547  0.00  0.00     0.053 C 
ATOM      9  C   UNL d   1      -2.907  -3.083  -2.537  0.00  0.00     0.018 C 
ENDBRANCH   1   8
TORSDOF 1
ENDMDL
