MODEL 1
REMARK minimizedAffinity 8.91383076
REMARK minimizedRMSD -1
REMARK  1 active torsions:
REMARK  status: ('A' for Active; 'I' for Inactive)
REMARK    1  A    between atoms: C1_2  and  C2_3 
ROOT
ATOM      1  C2  UNL d   1      -1.841  -2.537  -1.171  0.00  0.00    -0.073 A 
ATOM      2  C3  UNL d   1      -1.424  -1.953  -2.372  0.00  0.00    -0.002 A 
ATOM      3  C4  UNL d   1      -2.078  -2.255  -3.567  0.00  0.00     0.004 A 
ATOM      4  C5  UNL d   1      -3.159  -3.137  -3.572  0.00  0.00    -0.004 A 
ATOM      5  C6  UNL d   1      -3.598  -3.722  -2.380  0.00  0.00    -0.075 A 
ATOM      6  C7  UNL d   1      -4.758  -4.674  -2.369  0.00  0.00     0.076 C 
ATOM      7  C8  UNL d   1      -2.934  -3.416  -1.185  0.00  0.00     0.001 A 
ENDROOT
BRANCH   1   8
ATOM      8  C1  UNL d   1      -1.142  -2.210   0.123  0.00  0.00     0.053 C 
ATOM      9  C   UNL d   1      -0.989  -3.432   1.014  0.00  0.00     0.018 C 
ENDBRANCH   1   8
TORSDOF 1
ENDMDL
