MODEL 1
REMARK minimizedAffinity 9.91132641
REMARK minimizedRMSD -1
REMARK  1 active torsions:
REMARK  status: ('A' for Active; 'I' for Inactive)
REMARK    1  A    between atoms: C1_2  and  C2_3 
ROOT
ATOM      1  C2  UNL d   1       3.573   1.257  -1.773  0.00  0.00    -0.073 A 
ATOM      2  C3  UNL d   1       2.416   1.210  -0.987  0.00  0.00    -0.002 A 
ATOM      3  C4  UNL d   1       2.399   0.475   0.199  0.00  0.00     0.004 A 
ATOM      4  C5  UNL d   1       3.539  -0.214   0.615  0.00  0.00    -0.004 A 
ATOM      5  C6  UNL d   1       4.709  -0.169  -0.151  0.00  0.00    -0.075 A 
ATOM      6  C7  UNL d   1       5.942  -0.906   0.281  0.00  0.00     0.076 C 
ATOM      7  C8  UNL d   1       4.717   0.569  -1.342  0.00  0.00     0.001 A 
ENDROOT
BRANCH   1   8
ATOM      8  C1  UNL d   1       3.599   2.055  -3.051  0.00  0.00     0.053 C 
ATOM      9  C   UNL d   1       3.989   1.201  -4.248  0.00  0.00     0.018 C 
ENDBRANCH   1   8
TORSDOF 1
ENDMDL
