MODEL 1
REMARK minimizedAffinity 12.6618853
REMARK minimizedRMSD -1
REMARK  0 active torsions:
REMARK  status: ('A' for Active; 'I' for Inactive)
ROOT
ATOM      1  C   UNL d   1      -0.816  -0.831   2.172  0.00  0.00     0.124 A 
ATOM      2  C1  UNL d   1       0.388  -0.757   2.858  0.00  0.00     0.062 A 
ATOM      3  C2  UNL d   1       1.541  -1.314   2.313  0.00  0.00     0.162 A 
ATOM      4  C3  UNL d   1       1.496  -1.951   1.072  0.00  0.00    -0.034 A 
ATOM      5  C4  UNL d   1       0.281  -2.023   0.388  0.00  0.00     0.162 A 
ATOM      6  C5  UNL d   1      -0.868  -1.464   0.938  0.00  0.00     0.062 A 
ATOM      7  F   UNL d   1      -2.031  -1.537   0.273  0.00  0.00    -0.097 F 
ATOM      8  F1  UNL d   1       0.202  -2.627  -0.806  0.00  0.00    -0.096 F 
ATOM      9  I   UNL d   1       3.217  -2.785   0.253  0.00  0.00    -0.060 I 
ATOM     10  F2  UNL d   1       2.691  -1.227   2.998  0.00  0.00    -0.096 F 
ATOM     11  F3  UNL d   1       0.442  -0.147   4.051  0.00  0.00    -0.097 F 
ATOM     12  F4  UNL d   1      -1.924  -0.295   2.700  0.00  0.00    -0.092 F 
ENDROOT
TORSDOF 0
ENDMDL
