MODEL 1
REMARK minimizedAffinity 5.98269081
REMARK minimizedRMSD -1
REMARK  0 active torsions:
REMARK  status: ('A' for Active; 'I' for Inactive)
ROOT
ATOM      1  C   UNL d   1      -0.971  -0.656   1.567  0.00  0.00     0.124 A 
ATOM      2  C1  UNL d   1      -1.337  -0.973   0.266  0.00  0.00     0.062 A 
ATOM      3  C2  UNL d   1      -2.510  -0.457  -0.277  0.00  0.00     0.162 A 
ATOM      4  C3  UNL d   1      -3.326   0.382   0.481  0.00  0.00    -0.034 A 
ATOM      5  C4  UNL d   1      -2.952   0.696   1.789  0.00  0.00     0.162 A 
ATOM      6  C5  UNL d   1      -1.779   0.178   2.327  0.00  0.00     0.062 A 
ATOM      7  F   UNL d   1      -1.427   0.485   3.585  0.00  0.00    -0.097 F 
ATOM      8  F1  UNL d   1      -3.714   1.500   2.546  0.00  0.00    -0.096 F 
ATOM      9  I   UNL d   1      -5.081   1.156  -0.327  0.00  0.00    -0.060 I 
ATOM     10  F2  UNL d   1      -2.838  -0.780  -1.536  0.00  0.00    -0.096 F 
ATOM     11  F3  UNL d   1      -0.558  -1.779  -0.470  0.00  0.00    -0.097 F 
ATOM     12  F4  UNL d   1       0.158  -1.155   2.087  0.00  0.00    -0.092 F 
ENDROOT
TORSDOF 0
ENDMDL
