MODEL 1
REMARK minimizedAffinity 0.781892776
REMARK minimizedRMSD -1
REMARK  0 active torsions:
REMARK  status: ('A' for Active; 'I' for Inactive)
ROOT
ATOM      1  C   UNL d   1      -2.268  -0.929  -5.793  0.00  0.00     0.124 A 
ATOM      2  C1  UNL d   1      -2.281   0.446  -5.608  0.00  0.00     0.062 A 
ATOM      3  C2  UNL d   1      -1.086   1.143  -5.451  0.00  0.00     0.162 A 
ATOM      4  C3  UNL d   1       0.132   0.465  -5.479  0.00  0.00    -0.034 A 
ATOM      5  C4  UNL d   1       0.137  -0.919  -5.664  0.00  0.00     0.162 A 
ATOM      6  C5  UNL d   1      -1.060  -1.610  -5.821  0.00  0.00     0.062 A 
ATOM      7  F   UNL d   1      -1.045  -2.939  -5.999  0.00  0.00    -0.097 F 
ATOM      8  F1  UNL d   1       1.291  -1.602  -5.696  0.00  0.00    -0.096 F 
ATOM      9  I   UNL d   1       1.921   1.503  -5.245  0.00  0.00    -0.060 I 
ATOM     10  F2  UNL d   1      -1.129   2.472  -5.275  0.00  0.00    -0.096 F 
ATOM     11  F3  UNL d   1      -3.448   1.107  -5.580  0.00  0.00    -0.097 F 
ATOM     12  F4  UNL d   1      -3.419  -1.597  -5.943  0.00  0.00    -0.092 F 
ENDROOT
TORSDOF 0
ENDMDL
