MODEL 1
REMARK minimizedAffinity 12.3283863
REMARK minimizedRMSD -1
REMARK  0 active torsions:
REMARK  status: ('A' for Active; 'I' for Inactive)
ROOT
ATOM      1  C   UNL d   1      -2.553   0.893   1.766  0.00  0.00     0.124 A 
ATOM      2  C1  UNL d   1      -1.540   0.155   2.363  0.00  0.00     0.062 A 
ATOM      3  C2  UNL d   1      -0.999  -0.948   1.709  0.00  0.00     0.162 A 
ATOM      4  C3  UNL d   1      -1.468  -1.319   0.449  0.00  0.00    -0.034 A 
ATOM      5  C4  UNL d   1      -2.488  -0.573  -0.145  0.00  0.00     0.162 A 
ATOM      6  C5  UNL d   1      -3.026   0.528   0.513  0.00  0.00     0.062 A 
ATOM      7  F   UNL d   1      -4.004   1.239  -0.065  0.00  0.00    -0.097 F 
ATOM      8  F1  UNL d   1      -2.962  -0.903  -1.355  0.00  0.00    -0.096 F 
ATOM      9  I   UNL d   1      -0.661  -2.968  -0.532  0.00  0.00    -0.060 I 
ATOM     10  F2  UNL d   1      -0.021  -1.642   2.310  0.00  0.00    -0.096 F 
ATOM     11  F3  UNL d   1      -1.083   0.505   3.574  0.00  0.00    -0.097 F 
ATOM     12  F4  UNL d   1      -3.073   1.953   2.398  0.00  0.00    -0.092 F 
ENDROOT
TORSDOF 0
ENDMDL
