MODEL 1
REMARK minimizedAffinity 2.8970294
REMARK minimizedRMSD -1
REMARK  0 active torsions:
REMARK  status: ('A' for Active; 'I' for Inactive)
ROOT
ATOM      1  C   UNL d   1      -0.819  -0.785  -3.768  0.00  0.00     0.124 A 
ATOM      2  C1  UNL d   1       0.307  -1.577  -3.592  0.00  0.00     0.062 A 
ATOM      3  C2  UNL d   1       1.500  -1.248  -4.228  0.00  0.00     0.162 A 
ATOM      4  C3  UNL d   1       1.574  -0.120  -5.046  0.00  0.00    -0.034 A 
ATOM      5  C4  UNL d   1       0.437   0.671  -5.219  0.00  0.00     0.162 A 
ATOM      6  C5  UNL d   1      -0.753   0.338  -4.581  0.00  0.00     0.062 A 
ATOM      7  F   UNL d   1      -1.841   1.104  -4.752  0.00  0.00    -0.097 F 
ATOM      8  F1  UNL d   1       0.473   1.762  -5.998  0.00  0.00    -0.096 F 
ATOM      9  I   UNL d   1       3.356   0.375  -6.000  0.00  0.00    -0.060 I 
ATOM     10  F2  UNL d   1       2.573  -2.031  -4.040  0.00  0.00    -0.096 F 
ATOM     11  F3  UNL d   1       0.245  -2.662  -2.807  0.00  0.00    -0.097 F 
ATOM     12  F4  UNL d   1      -1.967  -1.104  -3.155  0.00  0.00    -0.092 F 
ENDROOT
TORSDOF 0
ENDMDL
