MODEL 1
REMARK minimizedAffinity 15.0962458
REMARK minimizedRMSD -1
REMARK  0 active torsions:
REMARK  status: ('A' for Active; 'I' for Inactive)
ROOT
ATOM      1  C   UNL d   1      -1.213  -1.071   2.946  0.00  0.00     0.124 A 
ATOM      2  C1  UNL d   1      -0.966  -0.794   1.608  0.00  0.00     0.062 A 
ATOM      3  C2  UNL d   1      -1.706  -1.427   0.614  0.00  0.00     0.162 A 
ATOM      4  C3  UNL d   1      -2.701  -2.344   0.954  0.00  0.00    -0.034 A 
ATOM      5  C4  UNL d   1      -2.943  -2.618   2.301  0.00  0.00     0.162 A 
ATOM      6  C5  UNL d   1      -2.201  -1.982   3.291  0.00  0.00     0.062 A 
ATOM      7  F   UNL d   1      -2.441  -2.251   4.582  0.00  0.00    -0.097 F 
ATOM      8  F1  UNL d   1      -3.893  -3.493   2.662  0.00  0.00    -0.096 F 
ATOM      9  I   UNL d   1      -3.810  -3.293  -0.530  0.00  0.00    -0.060 I 
ATOM     10  F2  UNL d   1      -1.446  -1.140  -0.670  0.00  0.00    -0.096 F 
ATOM     11  F3  UNL d   1      -0.011   0.085   1.272  0.00  0.00    -0.097 F 
ATOM     12  F4  UNL d   1      -0.498  -0.461   3.900  0.00  0.00    -0.092 F 
ENDROOT
TORSDOF 0
ENDMDL
