MODEL 1
REMARK minimizedAffinity 7.12068272
REMARK minimizedRMSD -1
REMARK  0 active torsions:
REMARK  status: ('A' for Active; 'I' for Inactive)
ROOT
ATOM      1  C   UNL d   1       4.638   1.936   3.877  0.00  0.00     0.124 A 
ATOM      2  C1  UNL d   1       5.135   3.017   4.594  0.00  0.00     0.062 A 
ATOM      3  C2  UNL d   1       5.524   4.177   3.931  0.00  0.00     0.162 A 
ATOM      4  C3  UNL d   1       5.418   4.264   2.543  0.00  0.00    -0.034 A 
ATOM      5  C4  UNL d   1       4.919   3.173   1.829  0.00  0.00     0.162 A 
ATOM      6  C5  UNL d   1       4.531   2.016   2.496  0.00  0.00     0.062 A 
ATOM      7  F   UNL d   1       4.052   0.973   1.802  0.00  0.00    -0.097 F 
ATOM      8  F1  UNL d   1       4.803   3.223   0.493  0.00  0.00    -0.096 F 
ATOM      9  I   UNL d   1       5.999   5.997   1.548  0.00  0.00    -0.060 I 
ATOM     10  F2  UNL d   1       5.999   5.205   4.649  0.00  0.00    -0.096 F 
ATOM     11  F3  UNL d   1       5.240   2.943   5.928  0.00  0.00    -0.097 F 
ATOM     12  F4  UNL d   1       4.266   0.821   4.517  0.00  0.00    -0.092 F 
ENDROOT
TORSDOF 0
ENDMDL
