MODEL 1
REMARK minimizedAffinity -2.83469725
REMARK minimizedRMSD -1
REMARK  1 active torsions:
REMARK  status: ('A' for Active; 'I' for Inactive)
REMARK    1  A    between atoms: C3_4  and  O_7 
ROOT
ATOM      1  C   UNL d   1      -0.764  -0.542  -0.369  0.00  0.00    -0.033 A 
ATOM      2  C1  UNL d   1       0.603  -0.755  -0.176  0.00  0.00     0.039 A 
ATOM      3  C2  UNL d   1       1.102  -0.973   1.109  0.00  0.00    -0.080 A 
ATOM      4  C3  UNL d   1       0.227  -0.976   2.192  0.00  0.00     0.150 A 
ATOM      5  C4  UNL d   1      -1.136  -0.768   2.006  0.00  0.00    -0.007 A 
ATOM      6  C5  UNL d   1      -1.633  -0.550   0.722  0.00  0.00     0.039 A 
ENDROOT
BRANCH   4   7
ATOM      7  O   UNL d   1       0.668  -1.179   3.465  0.00  0.00    -0.526 OA
ATOM      8  H5  UNL d   1       1.635  -1.279   3.443  0.00  0.00     0.418 HD
ENDBRANCH   4   7
TORSDOF 1
ENDMDL
