MODEL 1
REMARK minimizedAffinity 2.23315763
REMARK minimizedRMSD -1
REMARK  1 active torsions:
REMARK  status: ('A' for Active; 'I' for Inactive)
REMARK    1  A    between atoms: C3_4  and  O_7 
ROOT
ATOM      1  C   UNL d   1       0.500   0.505   0.740  0.00  0.00    -0.033 A 
ATOM      2  C1  UNL d   1      -0.672  -0.252   0.801  0.00  0.00     0.039 A 
ATOM      3  C2  UNL d   1      -0.793  -1.281   1.738  0.00  0.00    -0.080 A 
ATOM      4  C3  UNL d   1       0.264  -1.542   2.606  0.00  0.00     0.150 A 
ATOM      5  C4  UNL d   1       1.432  -0.789   2.553  0.00  0.00    -0.007 A 
ATOM      6  C5  UNL d   1       1.551   0.237   1.617  0.00  0.00     0.039 A 
ENDROOT
BRANCH   4   7
ATOM      7  O   UNL d   1       0.194  -2.538   3.534  0.00  0.00    -0.526 OA
ATOM      8  H5  UNL d   1      -0.659  -2.992   3.435  0.00  0.00     0.418 HD
ENDBRANCH   4   7
TORSDOF 1
ENDMDL
