MODEL 1
REMARK minimizedAffinity 0.768475294
REMARK minimizedRMSD -1
REMARK  1 active torsions:
REMARK  status: ('A' for Active; 'I' for Inactive)
REMARK    1  A    between atoms: C3_4  and  O_7 
ROOT
ATOM      1  C   UNL d   1       2.742  -0.338   1.085  0.00  0.00    -0.033 A 
ATOM      2  C1  UNL d   1       2.789  -0.136   2.466  0.00  0.00     0.039 A 
ATOM      3  C2  UNL d   1       1.713  -0.521   3.267  0.00  0.00    -0.080 A 
ATOM      4  C3  UNL d   1       0.597  -1.108   2.676  0.00  0.00     0.150 A 
ATOM      5  C4  UNL d   1       0.545  -1.316   1.302  0.00  0.00    -0.007 A 
ATOM      6  C5  UNL d   1       1.621  -0.930   0.504  0.00  0.00     0.039 A 
ENDROOT
BRANCH   4   7
ATOM      7  O   UNL d   1      -0.480  -1.496   3.417  0.00  0.00    -0.526 OA
ATOM      8  H5  UNL d   1      -0.314  -1.264   4.346  0.00  0.00     0.418 HD
ENDBRANCH   4   7
TORSDOF 1
ENDMDL
