MODEL 1
REMARK minimizedAffinity -4.67564154
REMARK minimizedRMSD -1
REMARK  1 active torsions:
REMARK  status: ('A' for Active; 'I' for Inactive)
REMARK    1  A    between atoms: C3_4  and  O_7 
ROOT
ATOM      1  C   UNL d   1      -2.488   2.979  -3.560  0.00  0.00    -0.033 A 
ATOM      2  C1  UNL d   1      -1.111   2.970  -3.794  0.00  0.00     0.039 A 
ATOM      3  C2  UNL d   1      -0.277   2.151  -3.032  0.00  0.00    -0.080 A 
ATOM      4  C3  UNL d   1      -0.831   1.346  -2.040  0.00  0.00     0.150 A 
ATOM      5  C4  UNL d   1      -2.201   1.347  -1.803  0.00  0.00    -0.007 A 
ATOM      6  C5  UNL d   1      -3.033   2.167  -2.565  0.00  0.00     0.039 A 
ENDROOT
BRANCH   4   7
ATOM      7  O   UNL d   1      -0.056   0.533  -1.267  0.00  0.00    -0.526 OA
ATOM      8  H5  UNL d   1       0.873   0.658  -1.524  0.00  0.00     0.418 HD
ENDBRANCH   4   7
TORSDOF 1
ENDMDL
