MODEL 1
REMARK minimizedAffinity -1.91163027
REMARK minimizedRMSD -1
REMARK  1 active torsions:
REMARK  status: ('A' for Active; 'I' for Inactive)
REMARK    1  A    between atoms: C3_4  and  O_7 
ROOT
ATOM      1  C   UNL d   1      -1.180   3.630  -2.906  0.00  0.00    -0.033 A 
ATOM      2  C1  UNL d   1       0.181   3.362  -3.063  0.00  0.00     0.039 A 
ATOM      3  C2  UNL d   1       0.715   2.158  -2.598  0.00  0.00    -0.080 A 
ATOM      4  C3  UNL d   1      -0.121   1.233  -1.981  0.00  0.00     0.150 A 
ATOM      5  C4  UNL d   1      -1.479   1.492  -1.825  0.00  0.00    -0.007 A 
ATOM      6  C5  UNL d   1      -2.010   2.694  -2.289  0.00  0.00     0.039 A 
ENDROOT
BRANCH   4   7
ATOM      7  O   UNL d   1       0.355   0.046  -1.507  0.00  0.00    -0.526 OA
ATOM      8  H5  UNL d   1       1.315   0.017  -1.659  0.00  0.00     0.418 HD
ENDBRANCH   4   7
TORSDOF 1
ENDMDL
