MODEL 1
REMARK minimizedAffinity 3.02927446
REMARK minimizedRMSD -1
REMARK  1 active torsions:
REMARK  status: ('A' for Active; 'I' for Inactive)
REMARK    1  A    between atoms: C3_4  and  O_7 
ROOT
ATOM      1  C   UNL d   1       1.867   2.881  -3.753  0.00  0.00    -0.033 A 
ATOM      2  C1  UNL d   1       1.310   2.536  -2.521  0.00  0.00     0.039 A 
ATOM      3  C2  UNL d   1      -0.048   2.755  -2.281  0.00  0.00    -0.080 A 
ATOM      4  C3  UNL d   1      -0.836   3.319  -3.281  0.00  0.00     0.150 A 
ATOM      5  C4  UNL d   1      -0.288   3.662  -4.512  0.00  0.00    -0.007 A 
ATOM      6  C5  UNL d   1       1.068   3.442  -4.750  0.00  0.00     0.039 A 
ENDROOT
BRANCH   4   7
ATOM      7  O   UNL d   1      -2.165   3.556  -3.091  0.00  0.00    -0.526 OA
ATOM      8  H5  UNL d   1      -2.398   3.296  -2.184  0.00  0.00     0.418 HD
ENDBRANCH   4   7
TORSDOF 1
ENDMDL
