MODEL 1
REMARK minimizedAffinity 8.49532795
REMARK minimizedRMSD -1
REMARK  1 active torsions:
REMARK  status: ('A' for Active; 'I' for Inactive)
REMARK    1  A    between atoms: C3_4  and  O_7 
ROOT
ATOM      1  C   UNL d   1      -4.124   1.267  -4.016  0.00  0.00    -0.033 A 
ATOM      2  C1  UNL d   1      -3.224   2.020  -3.261  0.00  0.00     0.039 A 
ATOM      3  C2  UNL d   1      -3.425   3.392  -3.095  0.00  0.00    -0.080 A 
ATOM      4  C3  UNL d   1      -4.530   3.997  -3.688  0.00  0.00     0.150 A 
ATOM      5  C4  UNL d   1      -5.433   3.252  -4.439  0.00  0.00    -0.007 A 
ATOM      6  C5  UNL d   1      -5.230   1.882  -4.604  0.00  0.00     0.039 A 
ENDROOT
BRANCH   4   7
ATOM      7  O   UNL d   1      -4.766   5.333  -3.559  0.00  0.00    -0.526 OA
ATOM      8  H5  UNL d   1      -4.044   5.724  -3.038  0.00  0.00     0.418 HD
ENDBRANCH   4   7
TORSDOF 1
ENDMDL
