MODEL 1
REMARK minimizedAffinity -2.986269
REMARK minimizedRMSD -1
REMARK  1 active torsions:
REMARK  status: ('A' for Active; 'I' for Inactive)
REMARK    1  A    between atoms: C3_4  and  O_7 
ROOT
ATOM      1  C   UNL d   1      -1.115   2.711  -3.163  0.00  0.00    -0.033 A 
ATOM      2  C1  UNL d   1      -0.100   3.198  -2.337  0.00  0.00     0.039 A 
ATOM      3  C2  UNL d   1       0.273   2.488  -1.194  0.00  0.00    -0.080 A 
ATOM      4  C3  UNL d   1      -0.374   1.294  -0.889  0.00  0.00     0.150 A 
ATOM      5  C4  UNL d   1      -1.384   0.801  -1.710  0.00  0.00    -0.007 A 
ATOM      6  C5  UNL d   1      -1.756   1.512  -2.850  0.00  0.00     0.039 A 
ENDROOT
BRANCH   4   7
ATOM      7  O   UNL d   1      -0.048   0.569   0.218  0.00  0.00    -0.526 OA
ATOM      8  H5  UNL d   1       0.645   1.046   0.705  0.00  0.00     0.418 HD
ENDBRANCH   4   7
TORSDOF 1
ENDMDL
