MODEL 1
REMARK minimizedAffinity -3.22722673
REMARK minimizedRMSD -1
REMARK  1 active torsions:
REMARK  status: ('A' for Active; 'I' for Inactive)
REMARK    1  A    between atoms: C3_4  and  O_7 
ROOT
ATOM      1  C   UNL d   1       1.454  -2.291   2.148  0.00  0.00    -0.033 A 
ATOM      2  C1  UNL d   1       2.127  -2.325   0.925  0.00  0.00     0.039 A 
ATOM      3  C2  UNL d   1       1.677  -1.547  -0.144  0.00  0.00    -0.080 A 
ATOM      4  C3  UNL d   1       0.555  -0.740   0.023  0.00  0.00     0.150 A 
ATOM      5  C4  UNL d   1      -0.118  -0.698   1.240  0.00  0.00    -0.007 A 
ATOM      6  C5  UNL d   1       0.332  -1.476   2.306  0.00  0.00     0.039 A 
ENDROOT
BRANCH   4   7
ATOM      7  O   UNL d   1       0.076   0.033  -0.992  0.00  0.00    -0.526 OA
ATOM      8  H5  UNL d   1       0.623  -0.120  -1.780  0.00  0.00     0.418 HD
ENDBRANCH   4   7
TORSDOF 1
ENDMDL
