MODEL 1
REMARK minimizedAffinity 8.4856329
REMARK minimizedRMSD -1
REMARK  0 active torsions:
REMARK  status: ('A' for Active; 'I' for Inactive)
ROOT
ATOM      1  C1  BNZ d   1       3.949  -1.275  -4.150  0.00  0.00     0.000 A 
ATOM      2  C2  BNZ d   1       4.874  -1.649  -5.087  0.00  0.00     0.000 A 
ATOM      3  C3  BNZ d   1       5.349  -0.750  -6.000  0.00  0.00     0.000 A 
ATOM      4  C4  BNZ d   1       4.870   0.511  -6.000  0.00  0.00     0.000 A 
ATOM      5  C5  BNZ d   1       3.930   0.901  -5.067  0.00  0.00     0.000 A 
ATOM      6  C6  BNZ d   1       3.483   0.004  -4.125  0.00  0.00     0.000 A 
ENDROOT
TORSDOF 0
ENDMDL
