MODEL 1
REMARK minimizedAffinity -3.81797051
REMARK minimizedRMSD -1
REMARK  0 active torsions:
REMARK  status: ('A' for Active; 'I' for Inactive)
ROOT
ATOM      1  C1  BNZ d   1      -5.470  -3.784  -2.588  0.00  0.00     0.000 A 
ATOM      2  C2  BNZ d   1      -5.479  -3.793  -3.957  0.00  0.00     0.000 A 
ATOM      3  C3  BNZ d   1      -5.101  -4.908  -4.652  0.00  0.00     0.000 A 
ATOM      4  C4  BNZ d   1      -4.676  -5.996  -3.978  0.00  0.00     0.000 A 
ATOM      5  C5  BNZ d   1      -4.652  -5.999  -2.598  0.00  0.00     0.000 A 
ATOM      6  C6  BNZ d   1      -5.071  -4.889  -1.901  0.00  0.00     0.000 A 
ENDROOT
TORSDOF 0
ENDMDL
