MODEL 1
REMARK minimizedAffinity 2.26609755
REMARK minimizedRMSD -1
REMARK  0 active torsions:
REMARK  status: ('A' for Active; 'I' for Inactive)
ROOT
ATOM      1  C1  BNZ d   1       1.631  -2.328   1.823  0.00  0.00     0.000 A 
ATOM      2  C2  BNZ d   1       1.660  -3.021   3.004  0.00  0.00     0.000 A 
ATOM      3  C3  BNZ d   1       1.168  -2.467   4.153  0.00  0.00     0.000 A 
ATOM      4  C4  BNZ d   1       0.686  -1.208   4.128  0.00  0.00     0.000 A 
ATOM      5  C5  BNZ d   1       0.659  -0.493   2.948  0.00  0.00     0.000 A 
ATOM      6  C6  BNZ d   1       1.119  -1.068   1.785  0.00  0.00     0.000 A 
ENDROOT
TORSDOF 0
ENDMDL
