MODEL 1
REMARK minimizedAffinity 2.45080876
REMARK minimizedRMSD -1
REMARK  0 active torsions:
REMARK  status: ('A' for Active; 'I' for Inactive)
ROOT
ATOM      1  C1  BNZ d   1       0.440  -1.191   3.422  0.00  0.00     0.000 A 
ATOM      2  C2  BNZ d   1       1.036  -0.588   2.347  0.00  0.00     0.000 A 
ATOM      3  C3  BNZ d   1       1.987  -1.242   1.615  0.00  0.00     0.000 A 
ATOM      4  C4  BNZ d   1       2.369  -2.483   1.982  0.00  0.00     0.000 A 
ATOM      5  C5  BNZ d   1       1.784  -3.101   3.069  0.00  0.00     0.000 A 
ATOM      6  C6  BNZ d   1       0.799  -2.454   3.780  0.00  0.00     0.000 A 
ENDROOT
TORSDOF 0
ENDMDL
