MODEL 1
REMARK minimizedAffinity 2.28890514
REMARK minimizedRMSD -1
REMARK  0 active torsions:
REMARK  status: ('A' for Active; 'I' for Inactive)
ROOT
ATOM      1  C1  BNZ d   1       5.958  -2.609   3.958  0.00  0.00     0.000 A 
ATOM      2  C2  BNZ d   1       4.756  -2.611   3.303  0.00  0.00     0.000 A 
ATOM      3  C3  BNZ d   1       3.587  -2.415   3.984  0.00  0.00     0.000 A 
ATOM      4  C4  BNZ d   1       3.618  -2.259   5.323  0.00  0.00     0.000 A 
ATOM      5  C5  BNZ d   1       4.822  -2.264   5.999  0.00  0.00     0.000 A 
ATOM      6  C6  BNZ d   1       6.000  -2.422   5.306  0.00  0.00     0.000 A 
ENDROOT
TORSDOF 0
ENDMDL
