MODEL 1
REMARK minimizedAffinity 4.88546944
REMARK minimizedRMSD -1
REMARK  0 active torsions:
REMARK  status: ('A' for Active; 'I' for Inactive)
ROOT
ATOM      1  C1  BNZ d   1       3.352  -5.953  -3.617  0.00  0.00     0.000 A 
ATOM      2  C2  BNZ d   1       2.671  -5.982  -4.805  0.00  0.00     0.000 A 
ATOM      3  C3  BNZ d   1       3.342  -5.999  -5.996  0.00  0.00     0.000 A 
ATOM      4  C4  BNZ d   1       4.689  -5.947  -5.999  0.00  0.00     0.000 A 
ATOM      5  C5  BNZ d   1       5.390  -5.909  -4.810  0.00  0.00     0.000 A 
ATOM      6  C6  BNZ d   1       4.713  -5.930  -3.613  0.00  0.00     0.000 A 
ENDROOT
TORSDOF 0
ENDMDL
