MODEL 1
REMARK minimizedAffinity -2.78703785
REMARK minimizedRMSD -1
REMARK  0 active torsions:
REMARK  status: ('A' for Active; 'I' for Inactive)
ROOT
ATOM      1  C1  BNZ d   1       2.190  -4.383   4.353  0.00  0.00     0.000 A 
ATOM      2  C2  BNZ d   1       1.785  -3.116   4.677  0.00  0.00     0.000 A 
ATOM      3  C3  BNZ d   1       1.228  -2.297   3.734  0.00  0.00     0.000 A 
ATOM      4  C4  BNZ d   1       1.114  -2.731   2.463  0.00  0.00     0.000 A 
ATOM      5  C5  BNZ d   1       1.527  -4.003   2.119  0.00  0.00     0.000 A 
ATOM      6  C6  BNZ d   1       2.051  -4.838   3.079  0.00  0.00     0.000 A 
ENDROOT
TORSDOF 0
ENDMDL
