MODEL 1
REMARK minimizedAffinity 1.61019218
REMARK minimizedRMSD -1
REMARK  0 active torsions:
REMARK  status: ('A' for Active; 'I' for Inactive)
ROOT
ATOM      1  C1  BNZ d   1      -4.875  -3.953  -3.772  0.00  0.00     0.000 A 
ATOM      2  C2  BNZ d   1      -5.250  -5.270  -3.784  0.00  0.00     0.000 A 
ATOM      3  C3  BNZ d   1      -5.790  -5.833  -4.906  0.00  0.00     0.000 A 
ATOM      4  C4  BNZ d   1      -5.992  -5.071  -5.999  0.00  0.00     0.000 A 
ATOM      5  C5  BNZ d   1      -5.629  -3.739  -6.000  0.00  0.00     0.000 A 
ATOM      6  C6  BNZ d   1      -5.049  -3.185  -4.881  0.00  0.00     0.000 A 
ENDROOT
TORSDOF 0
ENDMDL
