MODEL 1
REMARK minimizedAffinity 2.4085691
REMARK minimizedRMSD -1
REMARK  0 active torsions:
REMARK  status: ('A' for Active; 'I' for Inactive)
ROOT
ATOM      1  C1  BNZ d   1       3.319  -2.228   2.560  0.00  0.00     0.000 A 
ATOM      2  C2  BNZ d   1       2.107  -1.696   2.207  0.00  0.00     0.000 A 
ATOM      3  C3  BNZ d   1       0.960  -2.091   2.837  0.00  0.00     0.000 A 
ATOM      4  C4  BNZ d   1       1.020  -3.043   3.790  0.00  0.00     0.000 A 
ATOM      5  C5  BNZ d   1       2.233  -3.596   4.150  0.00  0.00     0.000 A 
ATOM      6  C6  BNZ d   1       3.391  -3.168   3.541  0.00  0.00     0.000 A 
ENDROOT
TORSDOF 0
ENDMDL
