MODEL 1
REMARK minimizedAffinity 5.29422331
REMARK minimizedRMSD -1
REMARK  1 active torsions:
REMARK  status: ('A' for Active; 'I' for Inactive)
REMARK    1  A    between atoms: C1_2  and  C2_3 
ROOT
ATOM      1  C2  UNL d   1      -0.914   1.578   2.415  0.00  0.00    -0.073 A 
ATOM      2  C3  UNL d   1      -2.197   2.138   2.385  0.00  0.00    -0.002 A 
ATOM      3  C4  UNL d   1      -3.312   1.363   2.706  0.00  0.00     0.004 A 
ATOM      4  C5  UNL d   1      -3.157   0.025   3.067  0.00  0.00    -0.004 A 
ATOM      5  C6  UNL d   1      -1.882  -0.550   3.114  0.00  0.00    -0.075 A 
ATOM      6  C7  UNL d   1      -1.699  -1.989   3.497  0.00  0.00     0.076 C 
ATOM      7  C8  UNL d   1      -0.768   0.234   2.787  0.00  0.00     0.001 A 
ENDROOT
BRANCH   1   8
ATOM      8  C1  UNL d   1       0.293   2.412   2.075  0.00  0.00     0.053 C 
ATOM      9  C   UNL d   1       1.454   1.561   1.583  0.00  0.00     0.018 C 
ENDBRANCH   1   8
TORSDOF 1
ENDMDL
