MODEL 1
REMARK minimizedAffinity 12.1709805
REMARK minimizedRMSD -1
REMARK  1 active torsions:
REMARK  status: ('A' for Active; 'I' for Inactive)
REMARK    1  A    between atoms: C1_2  and  C2_3 
ROOT
ATOM      1  C2  UNL d   1       1.132   1.022   2.075  0.00  0.00    -0.073 A 
ATOM      2  C3  UNL d   1       1.359   2.165   1.299  0.00  0.00    -0.002 A 
ATOM      3  C4  UNL d   1       2.589   2.356   0.669  0.00  0.00     0.004 A 
ATOM      4  C5  UNL d   1       3.601   1.405   0.801  0.00  0.00    -0.004 A 
ATOM      5  C6  UNL d   1       3.389   0.251   1.561  0.00  0.00    -0.075 A 
ATOM      6  C7  UNL d   1       4.468  -0.781   1.715  0.00  0.00     0.076 C 
ATOM      7  C8  UNL d   1       2.152   0.067   2.194  0.00  0.00     0.001 A 
ENDROOT
BRANCH   1   8
ATOM      8  C1  UNL d   1      -0.196   0.809   2.752  0.00  0.00     0.053 C 
ATOM      9  C   UNL d   1      -1.129   1.995   2.565  0.00  0.00     0.018 C 
ENDBRANCH   1   8
TORSDOF 1
ENDMDL
