MODEL 1
REMARK minimizedAffinity 2.93551254
REMARK minimizedRMSD -1
REMARK  1 active torsions:
REMARK  status: ('A' for Active; 'I' for Inactive)
REMARK    1  A    between atoms: C1_2  and  C2_3 
ROOT
ATOM      1  C2  UNL d   1      -3.426  -4.016  -2.606  0.00  0.00    -0.073 A 
ATOM      2  C3  UNL d   1      -3.048  -3.101  -1.617  0.00  0.00    -0.002 A 
ATOM      3  C4  UNL d   1      -2.199  -2.039  -1.928  0.00  0.00     0.004 A 
ATOM      4  C5  UNL d   1      -1.725  -1.876  -3.230  0.00  0.00    -0.004 A 
ATOM      5  C6  UNL d   1      -2.100  -2.774  -4.234  0.00  0.00    -0.075 A 
ATOM      6  C7  UNL d   1      -1.597  -2.615  -5.639  0.00  0.00     0.076 C 
ATOM      7  C8  UNL d   1      -2.952  -3.840  -3.914  0.00  0.00     0.001 A 
ENDROOT
BRANCH   1   8
ATOM      8  C1  UNL d   1      -4.349  -5.162  -2.277  0.00  0.00     0.053 C 
ATOM      9  C   UNL d   1      -5.668  -5.065  -3.027  0.00  0.00     0.018 C 
ENDBRANCH   1   8
TORSDOF 1
ENDMDL
