MODEL 1
REMARK minimizedAffinity -0.274742037
REMARK minimizedRMSD -1
REMARK  1 active torsions:
REMARK  status: ('A' for Active; 'I' for Inactive)
REMARK    1  A    between atoms: C1_2  and  C2_3 
ROOT
ATOM      1  C2  UNL d   1       4.604   1.060   1.203  0.00  0.00    -0.073 A 
ATOM      2  C3  UNL d   1       4.306   2.422   1.088  0.00  0.00    -0.002 A 
ATOM      3  C4  UNL d   1       3.011   2.836   0.774  0.00  0.00     0.004 A 
ATOM      4  C5  UNL d   1       2.001   1.894   0.578  0.00  0.00    -0.004 A 
ATOM      5  C6  UNL d   1       2.277   0.528   0.699  0.00  0.00    -0.075 A 
ATOM      6  C7  UNL d   1       1.202  -0.498   0.489  0.00  0.00     0.076 C 
ATOM      7  C8  UNL d   1       3.580   0.120   1.012  0.00  0.00     0.001 A 
ENDROOT
BRANCH   1   8
ATOM      8  C1  UNL d   1       6.000   0.608   1.548  0.00  0.00     0.053 C 
ATOM      9  C   UNL d   1       6.000  -0.697   2.329  0.00  0.00     0.018 C 
ENDBRANCH   1   8
TORSDOF 1
ENDMDL
