MODEL 1
REMARK minimizedAffinity -2.84738398
REMARK minimizedRMSD -1
REMARK  1 active torsions:
REMARK  status: ('A' for Active; 'I' for Inactive)
REMARK    1  A    between atoms: C1_2  and  C2_3 
ROOT
ATOM      1  C2  UNL d   1      -5.397   3.586   4.982  0.00  0.00    -0.073 A 
ATOM      2  C3  UNL d   1      -5.088   3.496   3.620  0.00  0.00    -0.002 A 
ATOM      3  C4  UNL d   1      -4.843   2.253   3.034  0.00  0.00     0.004 A 
ATOM      4  C5  UNL d   1      -4.912   1.090   3.800  0.00  0.00    -0.004 A 
ATOM      5  C6  UNL d   1      -5.231   1.158   5.160  0.00  0.00    -0.075 A 
ATOM      6  C7  UNL d   1      -5.306  -0.084   5.998  0.00  0.00     0.076 C 
ATOM      7  C8  UNL d   1      -5.472   2.410   5.742  0.00  0.00     0.001 A 
ENDROOT
BRANCH   1   8
ATOM      8  C1  UNL d   1      -5.668   4.925   5.618  0.00  0.00     0.053 C 
ATOM      9  C   UNL d   1      -5.958   6.000   4.583  0.00  0.00     0.018 C 
ENDBRANCH   1   8
TORSDOF 1
ENDMDL
