MODEL 1
REMARK minimizedAffinity 12.4411955
REMARK minimizedRMSD -1
REMARK  1 active torsions:
REMARK  status: ('A' for Active; 'I' for Inactive)
REMARK    1  A    between atoms: C1_2  and  C2_3 
ROOT
ATOM      1  C2  UNL d   1      -0.349  -2.391  -0.463  0.00  0.00    -0.073 A 
ATOM      2  C3  UNL d   1       0.498  -3.408  -0.917  0.00  0.00    -0.002 A 
ATOM      3  C4  UNL d   1       1.883  -3.274  -0.807  0.00  0.00     0.004 A 
ATOM      4  C5  UNL d   1       2.434  -2.127  -0.235  0.00  0.00    -0.004 A 
ATOM      5  C6  UNL d   1       1.603  -1.105   0.236  0.00  0.00    -0.075 A 
ATOM      6  C7  UNL d   1       2.180   0.136   0.851  0.00  0.00     0.076 C 
ATOM      7  C8  UNL d   1       0.214  -1.246   0.119  0.00  0.00     0.001 A 
ENDROOT
BRANCH   1   8
ATOM      8  C1  UNL d   1      -1.845  -2.534  -0.574  0.00  0.00     0.053 C 
ATOM      9  C   UNL d   1      -2.297  -2.691  -2.017  0.00  0.00     0.018 C 
ENDBRANCH   1   8
TORSDOF 1
ENDMDL
