MODEL 1
REMARK minimizedAffinity 17.7268734
REMARK minimizedRMSD -1
REMARK  1 active torsions:
REMARK  status: ('A' for Active; 'I' for Inactive)
REMARK    1  A    between atoms: C1_2  and  C2_3 
ROOT
ATOM      1  C2  UNL d   1       3.119   2.688   1.055  0.00  0.00    -0.073 A 
ATOM      2  C3  UNL d   1       3.452   1.692   0.130  0.00  0.00    -0.002 A 
ATOM      3  C4  UNL d   1       2.846   0.437   0.197  0.00  0.00     0.004 A 
ATOM      4  C5  UNL d   1       1.897   0.167   1.183  0.00  0.00    -0.004 A 
ATOM      5  C6  UNL d   1       1.542   1.154   2.109  0.00  0.00    -0.075 A 
ATOM      6  C7  UNL d   1       0.525   0.879   3.177  0.00  0.00     0.076 C 
ATOM      7  C8  UNL d   1       2.157   2.411   2.037  0.00  0.00     0.001 A 
ENDROOT
BRANCH   1   8
ATOM      8  C1  UNL d   1       3.766   4.047   0.983  0.00  0.00     0.053 C 
ATOM      9  C   UNL d   1       3.388   4.922   2.167  0.00  0.00     0.018 C 
ENDBRANCH   1   8
TORSDOF 1
ENDMDL
