MODEL 1
REMARK minimizedAffinity 11.0836239
REMARK minimizedRMSD -1
REMARK  1 active torsions:
REMARK  status: ('A' for Active; 'I' for Inactive)
REMARK    1  A    between atoms: C1_2  and  C2_3 
ROOT
ATOM      1  C2  UNL d   1      -1.339  -3.138  -0.935  0.00  0.00    -0.073 A 
ATOM      2  C3  UNL d   1      -2.475  -2.700  -1.625  0.00  0.00    -0.002 A 
ATOM      3  C4  UNL d   1      -2.675  -3.063  -2.957  0.00  0.00     0.004 A 
ATOM      4  C5  UNL d   1      -1.746  -3.873  -3.611  0.00  0.00    -0.004 A 
ATOM      5  C6  UNL d   1      -0.611  -4.331  -2.935  0.00  0.00    -0.075 A 
ATOM      6  C7  UNL d   1       0.399  -5.201  -3.625  0.00  0.00     0.076 C 
ATOM      7  C8  UNL d   1      -0.416  -3.960  -1.598  0.00  0.00     0.001 A 
ENDROOT
BRANCH   1   8
ATOM      8  C1  UNL d   1      -1.122  -2.754   0.505  0.00  0.00     0.053 C 
ATOM      9  C   UNL d   1      -1.230  -3.951   1.437  0.00  0.00     0.018 C 
ENDBRANCH   1   8
TORSDOF 1
ENDMDL
