MODEL 1
REMARK minimizedAffinity 14.6531649
REMARK minimizedRMSD -1
REMARK  1 active torsions:
REMARK  status: ('A' for Active; 'I' for Inactive)
REMARK    1  A    between atoms: C1_2  and  C2_3 
ROOT
ATOM      1  C2  UNL d   1       1.021   0.781   3.510  0.00  0.00    -0.073 A 
ATOM      2  C3  UNL d   1       0.531   1.996   3.016  0.00  0.00    -0.002 A 
ATOM      3  C4  UNL d   1       1.145   2.611   1.925  0.00  0.00     0.004 A 
ATOM      4  C5  UNL d   1       2.247   2.017   1.311  0.00  0.00    -0.004 A 
ATOM      5  C6  UNL d   1       2.744   0.797   1.783  0.00  0.00    -0.075 A 
ATOM      6  C7  UNL d   1       3.931   0.146   1.135  0.00  0.00     0.076 C 
ATOM      7  C8  UNL d   1       2.125   0.187   2.881  0.00  0.00     0.001 A 
ENDROOT
BRANCH   1   8
ATOM      8  C1  UNL d   1       0.358   0.109   4.685  0.00  0.00     0.053 C 
ATOM      9  C   UNL d   1       0.689   0.800   5.998  0.00  0.00     0.018 C 
ENDBRANCH   1   8
TORSDOF 1
ENDMDL
