MODEL 1
REMARK minimizedAffinity -1.75599682
REMARK minimizedRMSD -1
REMARK  1 active torsions:
REMARK  status: ('A' for Active; 'I' for Inactive)
REMARK    1  A    between atoms: C1_2  and  C2_3 
ROOT
ATOM      1  C2  UNL d   1      -0.277  -1.278   2.364  0.00  0.00    -0.076 A 
ATOM      2  C3  UNL d   1       1.045  -1.042   2.779  0.00  0.00     0.004 A 
ATOM      3  C4  UNL d   1       1.825  -0.062   2.169  0.00  0.00    -0.003 A 
ATOM      4  C5  UNL d   1       1.295   0.700   1.133  0.00  0.00     0.000 A 
ATOM      5  C6  UNL d   1      -0.020   0.492   0.720  0.00  0.00     0.000 A 
ATOM      6  C7  UNL d   1      -0.825  -0.481   1.336  0.00  0.00    -0.073 A 
ATOM      7  C8  UNL d   1      -2.235  -0.667   0.846  0.00  0.00     0.078 C 
ENDROOT
BRANCH   1   8
ATOM      8  C1  UNL d   1      -1.066  -2.373   3.045  0.00  0.00     0.053 C 
ATOM      9  C   UNL d   1      -0.455  -3.750   2.832  0.00  0.00     0.018 C 
ENDBRANCH   1   8
TORSDOF 1
ENDMDL
