MODEL 1
REMARK minimizedAffinity -2.9625895
REMARK minimizedRMSD -1
REMARK  1 active torsions:
REMARK  status: ('A' for Active; 'I' for Inactive)
REMARK    1  A    between atoms: C1_2  and  C2_3 
ROOT
ATOM      1  C2  UNL d   1       0.288  -0.111  -0.993  0.00  0.00    -0.076 A 
ATOM      2  C3  UNL d   1       1.657  -0.420  -1.066  0.00  0.00     0.004 A 
ATOM      3  C4  UNL d   1       2.431  -0.528   0.088  0.00  0.00    -0.003 A 
ATOM      4  C5  UNL d   1       1.847  -0.331   1.335  0.00  0.00     0.000 A 
ATOM      5  C6  UNL d   1       0.486  -0.042   1.427  0.00  0.00     0.000 A 
ATOM      6  C7  UNL d   1      -0.311   0.055   0.274  0.00  0.00    -0.073 A 
ATOM      7  C8  UNL d   1      -1.773   0.375   0.432  0.00  0.00     0.078 C 
ENDROOT
BRANCH   1   8
ATOM      8  C1  UNL d   1      -0.495   0.021  -2.280  0.00  0.00     0.053 C 
ATOM      9  C   UNL d   1      -0.526   1.450  -2.799  0.00  0.00     0.018 C 
ENDBRANCH   1   8
TORSDOF 1
ENDMDL
