MODEL 1
REMARK minimizedAffinity -1.96252143
REMARK minimizedRMSD -1
REMARK  1 active torsions:
REMARK  status: ('A' for Active; 'I' for Inactive)
REMARK    1  A    between atoms: C1_2  and  C2_3 
ROOT
ATOM      1  C2  UNL d   1      -0.061  -0.245  -0.157  0.00  0.00    -0.076 A 
ATOM      2  C3  UNL d   1      -0.647  -0.019   1.101  0.00  0.00     0.004 A 
ATOM      3  C4  UNL d   1      -0.078  -0.541   2.261  0.00  0.00    -0.003 A 
ATOM      4  C5  UNL d   1       1.087  -1.297   2.183  0.00  0.00     0.000 A 
ATOM      5  C6  UNL d   1       1.692  -1.516   0.946  0.00  0.00     0.000 A 
ATOM      6  C7  UNL d   1       1.140  -0.983  -0.232  0.00  0.00    -0.073 A 
ATOM      7  C8  UNL d   1       1.831  -1.256  -1.540  0.00  0.00     0.078 C 
ENDROOT
BRANCH   1   8
ATOM      8  C1  UNL d   1      -0.738   0.323  -1.384  0.00  0.00     0.053 C 
ATOM      9  C   UNL d   1      -0.404   1.790  -1.606  0.00  0.00     0.018 C 
ENDBRANCH   1   8
TORSDOF 1
ENDMDL
