MODEL 1
REMARK minimizedAffinity -4.26211977
REMARK minimizedRMSD -1
REMARK  1 active torsions:
REMARK  status: ('A' for Active; 'I' for Inactive)
REMARK    1  A    between atoms: C1_2  and  C2_3 
ROOT
ATOM      1  C2  UNL d   1      -3.477   1.385  -2.895  0.00  0.00    -0.076 A 
ATOM      2  C3  UNL d   1      -4.483   0.423  -3.087  0.00  0.00     0.004 A 
ATOM      3  C4  UNL d   1      -5.734   0.782  -3.585  0.00  0.00    -0.003 A 
ATOM      4  C5  UNL d   1      -5.999   2.110  -3.901  0.00  0.00     0.000 A 
ATOM      5  C6  UNL d   1      -5.007   3.075  -3.734  0.00  0.00     0.000 A 
ATOM      6  C7  UNL d   1      -3.735   2.727  -3.248  0.00  0.00    -0.073 A 
ATOM      7  C8  UNL d   1      -2.705   3.811  -3.081  0.00  0.00     0.078 C 
ENDROOT
BRANCH   1   8
ATOM      8  C1  UNL d   1      -2.149   0.942  -2.325  0.00  0.00     0.053 C 
ATOM      9  C   UNL d   1      -2.255  -0.361  -1.547  0.00  0.00     0.018 C 
ENDBRANCH   1   8
TORSDOF 1
ENDMDL
