MODEL 1
REMARK minimizedAffinity -3.5092845
REMARK minimizedRMSD -1
REMARK  1 active torsions:
REMARK  status: ('A' for Active; 'I' for Inactive)
REMARK    1  A    between atoms: C1_2  and  C2_3 
ROOT
ATOM      1  C2  UNL d   1      -0.102   0.336  -0.833  0.00  0.00    -0.076 A 
ATOM      2  C3  UNL d   1      -0.230   1.421  -1.717  0.00  0.00     0.004 A 
ATOM      3  C4  UNL d   1      -0.542   2.696  -1.248  0.00  0.00    -0.003 A 
ATOM      4  C5  UNL d   1      -0.729   2.907   0.113  0.00  0.00     0.000 A 
ATOM      5  C6  UNL d   1      -0.588   1.846   1.007  0.00  0.00     0.000 A 
ATOM      6  C7  UNL d   1      -0.259   0.558   0.552  0.00  0.00    -0.073 A 
ATOM      7  C8  UNL d   1      -0.125  -0.551   1.559  0.00  0.00     0.078 C 
ENDROOT
BRANCH   1   8
ATOM      8  C1  UNL d   1       0.211  -1.029  -1.402  0.00  0.00     0.053 C 
ATOM      9  C   UNL d   1       1.700  -1.338  -1.391  0.00  0.00     0.018 C 
ENDBRANCH   1   8
TORSDOF 1
ENDMDL
