MODEL 1
REMARK minimizedAffinity 11.871171
REMARK minimizedRMSD -1
REMARK  0 active torsions:
REMARK  status: ('A' for Active; 'I' for Inactive)
ROOT
ATOM      1  C   UNL d   1      -1.441  -2.517   3.270  0.00  0.00     0.023 A 
ATOM      2  C1  UNL d   1      -1.309  -3.892   3.079  0.00  0.00     0.003 A 
ATOM      3  C2  UNL d   1      -0.126  -4.416   2.554  0.00  0.00     0.048 A 
ATOM      4  C3  UNL d   1       0.923  -3.558   2.225  0.00  0.00     0.023 A 
ATOM      5  C4  UNL d   1       0.797  -2.181   2.415  0.00  0.00     0.048 A 
ATOM      6  C5  UNL d   1      -0.389  -1.662   2.938  0.00  0.00     0.003 A 
ATOM      7  I   UNL d   1       2.686  -4.335   1.445  0.00  0.00    -0.146 I 
ENDROOT
TORSDOF 0
ENDMDL
