MODEL 1
REMARK minimizedAffinity 5.9621377
REMARK minimizedRMSD -1
REMARK  0 active torsions:
REMARK  status: ('A' for Active; 'I' for Inactive)
ROOT
ATOM      1  C   UNL d   1       1.508  -2.386   2.171  0.00  0.00     0.023 A 
ATOM      2  C1  UNL d   1       2.649  -2.330   2.971  0.00  0.00     0.003 A 
ATOM      3  C2  UNL d   1       3.810  -3.001   2.581  0.00  0.00     0.048 A 
ATOM      4  C3  UNL d   1       3.823  -3.726   1.389  0.00  0.00     0.023 A 
ATOM      5  C4  UNL d   1       2.684  -3.784   0.585  0.00  0.00     0.048 A 
ATOM      6  C5  UNL d   1       1.525  -3.112   0.979  0.00  0.00     0.003 A 
ATOM      7  I   UNL d   1       5.550  -4.725   0.807  0.00  0.00    -0.146 I 
ENDROOT
TORSDOF 0
ENDMDL
