MODEL 1
REMARK minimizedAffinity 4.02638102
REMARK minimizedRMSD -1
REMARK  0 active torsions:
REMARK  status: ('A' for Active; 'I' for Inactive)
ROOT
ATOM      1  C   UNL d   1      -1.103  -3.297   2.924  0.00  0.00     0.023 A 
ATOM      2  C1  UNL d   1      -0.312  -2.154   3.037  0.00  0.00     0.003 A 
ATOM      3  C2  UNL d   1       1.007  -2.168   2.578  0.00  0.00     0.048 A 
ATOM      4  C3  UNL d   1       1.527  -3.328   2.005  0.00  0.00     0.023 A 
ATOM      5  C4  UNL d   1       0.738  -4.474   1.889  0.00  0.00     0.048 A 
ATOM      6  C5  UNL d   1      -0.579  -4.455   2.351  0.00  0.00     0.003 A 
ATOM      7  I   UNL d   1       3.489  -3.352   1.320  0.00  0.00    -0.146 I 
ENDROOT
TORSDOF 0
ENDMDL
