MODEL 1
REMARK minimizedAffinity 14.6687603
REMARK minimizedRMSD -1
REMARK  0 active torsions:
REMARK  status: ('A' for Active; 'I' for Inactive)
ROOT
ATOM      1  C   UNL d   1       1.279  -0.638   0.795  0.00  0.00     0.023 A 
ATOM      2  C1  UNL d   1       1.584   0.695   0.516  0.00  0.00     0.003 A 
ATOM      3  C2  UNL d   1       1.653   1.628   1.552  0.00  0.00     0.048 A 
ATOM      4  C3  UNL d   1       1.418   1.222   2.865  0.00  0.00     0.023 A 
ATOM      5  C4  UNL d   1       1.114  -0.110   3.150  0.00  0.00     0.048 A 
ATOM      6  C5  UNL d   1       1.044  -1.039   2.110  0.00  0.00     0.003 A 
ATOM      7  I   UNL d   1       1.521   2.610   4.409  0.00  0.00    -0.146 I 
ENDROOT
TORSDOF 0
ENDMDL
