MODEL 1
REMARK minimizedAffinity 6.3304553
REMARK minimizedRMSD -1
REMARK  0 active torsions:
REMARK  status: ('A' for Active; 'I' for Inactive)
ROOT
ATOM      1  C1  BNZ d   1       4.105   1.050  -1.890  0.00  0.00     0.000 A 
ATOM      2  C2  BNZ d   1       3.056   0.349  -1.357  0.00  0.00     0.000 A 
ATOM      3  C3  BNZ d   1       2.860   0.302  -0.005  0.00  0.00     0.000 A 
ATOM      4  C4  BNZ d   1       3.735   0.921   0.813  0.00  0.00     0.000 A 
ATOM      5  C5  BNZ d   1       4.802   1.624   0.292  0.00  0.00     0.000 A 
ATOM      6  C6  BNZ d   1       4.974   1.702  -1.071  0.00  0.00     0.000 A 
ENDROOT
TORSDOF 0
ENDMDL
