MODEL 1
REMARK minimizedAffinity 4.60831499
REMARK minimizedRMSD -1
REMARK  0 active torsions:
REMARK  status: ('A' for Active; 'I' for Inactive)
ROOT
ATOM      1  C1  BNZ d   1      -4.939  -0.460  -1.096  0.00  0.00     0.000 A 
ATOM      2  C2  BNZ d   1      -3.866   0.374  -0.934  0.00  0.00     0.000 A 
ATOM      3  C3  BNZ d   1      -3.837   1.289   0.081  0.00  0.00     0.000 A 
ATOM      4  C4  BNZ d   1      -4.897   1.395   0.908  0.00  0.00     0.000 A 
ATOM      5  C5  BNZ d   1      -5.991   0.567   0.752  0.00  0.00     0.000 A 
ATOM      6  C6  BNZ d   1      -6.000  -0.378  -0.248  0.00  0.00     0.000 A 
ENDROOT
TORSDOF 0
ENDMDL
