MODEL 1
REMARK minimizedAffinity -0.0996351093
REMARK minimizedRMSD -1
REMARK  0 active torsions:
REMARK  status: ('A' for Active; 'I' for Inactive)
ROOT
ATOM      1  C1  BNZ d   1       3.744   5.629   2.320  0.00  0.00     0.000 A 
ATOM      2  C2  BNZ d   1       2.475   5.824   1.844  0.00  0.00     0.000 A 
ATOM      3  C3  BNZ d   1       1.386   5.473   2.591  0.00  0.00     0.000 A 
ATOM      4  C4  BNZ d   1       1.567   4.891   3.794  0.00  0.00     0.000 A 
ATOM      5  C5  BNZ d   1       2.840   4.679   4.284  0.00  0.00     0.000 A 
ATOM      6  C6  BNZ d   1       3.934   5.070   3.546  0.00  0.00     0.000 A 
ENDROOT
TORSDOF 0
ENDMDL
