MODEL 1
REMARK minimizedAffinity 5.72862577
REMARK minimizedRMSD -1
REMARK  0 active torsions:
REMARK  status: ('A' for Active; 'I' for Inactive)
ROOT
ATOM      1  C1  BNZ d   1       3.813   1.085   1.287  0.00  0.00     0.000 A 
ATOM      2  C2  BNZ d   1       2.741   0.279   1.011  0.00  0.00     0.000 A 
ATOM      3  C3  BNZ d   1       2.334   0.072  -0.277  0.00  0.00     0.000 A 
ATOM      4  C4  BNZ d   1       2.974   0.702  -1.284  0.00  0.00     0.000 A 
ATOM      5  C5  BNZ d   1       4.051   1.525  -1.021  0.00  0.00     0.000 A 
ATOM      6  C6  BNZ d   1       4.482   1.700   0.274  0.00  0.00     0.000 A 
ENDROOT
TORSDOF 0
ENDMDL
