MODEL 1
REMARK minimizedAffinity 1.86603904
REMARK minimizedRMSD -1
REMARK  0 active torsions:
REMARK  status: ('A' for Active; 'I' for Inactive)
ROOT
ATOM      1  C1  BNZ d   1      -4.912  -0.379  -0.033  0.00  0.00     0.000 A 
ATOM      2  C2  BNZ d   1      -3.746   0.338   0.003  0.00  0.00     0.000 A 
ATOM      3  C3  BNZ d   1      -3.652   1.484   0.741  0.00  0.00     0.000 A 
ATOM      4  C4  BNZ d   1      -4.733   1.934   1.409  0.00  0.00     0.000 A 
ATOM      5  C5  BNZ d   1      -5.919   1.227   1.375  0.00  0.00     0.000 A 
ATOM      6  C6  BNZ d   1      -5.999   0.053   0.663  0.00  0.00     0.000 A 
ENDROOT
TORSDOF 0
ENDMDL
