MODEL 1
REMARK minimizedAffinity 5.16007853
REMARK minimizedRMSD -1
REMARK  0 active torsions:
REMARK  status: ('A' for Active; 'I' for Inactive)
ROOT
ATOM      1  C1  BNZ d   1       6.000   2.249  -0.197  0.00  0.00     0.000 A 
ATOM      2  C2  BNZ d   1       4.969   1.600   0.428  0.00  0.00     0.000 A 
ATOM      3  C3  BNZ d   1       3.936   1.070  -0.294  0.00  0.00     0.000 A 
ATOM      4  C4  BNZ d   1       3.914   1.226  -1.633  0.00  0.00     0.000 A 
ATOM      5  C5  BNZ d   1       4.942   1.886  -2.277  0.00  0.00     0.000 A 
ATOM      6  C6  BNZ d   1       6.000   2.384  -1.551  0.00  0.00     0.000 A 
ENDROOT
TORSDOF 0
ENDMDL
