MODEL 1
REMARK minimizedAffinity 7.85018635
REMARK minimizedRMSD -1
REMARK  3 active torsions:
REMARK  status: ('A' for Active; 'I' for Inactive)
REMARK    1  A    between atoms: C3'_2  and  C2'_3 
REMARK    2  A    between atoms: C2'_3  and  C1'_4 
REMARK    3  A    between atoms: C1'_4  and  C1_5 
ROOT
ATOM      1  C1  N4B d   1       4.607   0.972  -1.197  0.00  0.00    -0.075 A 
ATOM      2  C2  N4B d   1       3.481   0.213  -1.582  0.00  0.00     0.002 A 
ATOM      3  C3  N4B d   1       3.046  -0.821  -0.789  0.00  0.00     0.002 A 
ATOM      4  C4  N4B d   1       3.730  -1.124   0.379  0.00  0.00    -0.004 A 
ATOM      5  C5  N4B d   1       4.801  -0.369   0.757  0.00  0.00     0.002 A 
ATOM      6  C6  N4B d   1       5.247   0.675  -0.029  0.00  0.00     0.002 A 
ENDROOT
BRANCH   1   7
ATOM      7  C1' N4B d   1       5.171   2.057  -2.074  0.00  0.00     0.057 C 
BRANCH   7   8
ATOM      8  C2' N4B d   1       4.810   3.417  -1.484  0.00  0.00     0.009 C 
BRANCH   8   9
ATOM      9  C3' N4B d   1       5.835   4.480  -1.838  0.00  0.00     0.004 C 
ATOM     10  C4' N4B d   1       5.999   5.510  -0.761  0.00  0.00     0.003 C 
ENDBRANCH   8   9
ENDBRANCH   7   8
ENDBRANCH   1   7
TORSDOF 3
ENDMDL
