MODEL 1
REMARK minimizedAffinity 4.83995676
REMARK minimizedRMSD -1
REMARK  3 active torsions:
REMARK  status: ('A' for Active; 'I' for Inactive)
REMARK    1  A    between atoms: C3'_2  and  C2'_3 
REMARK    2  A    between atoms: C2'_3  and  C1'_4 
REMARK    3  A    between atoms: C1'_4  and  C1_5 
ROOT
ATOM      1  C1  N4B d   1       3.904  -1.080  -0.450  0.00  0.00    -0.075 A 
ATOM      2  C2  N4B d   1       5.188  -1.081   0.139  0.00  0.00     0.002 A 
ATOM      3  C3  N4B d   1       6.000   0.020   0.015  0.00  0.00     0.002 A 
ATOM      4  C4  N4B d   1       5.559   1.120  -0.705  0.00  0.00    -0.004 A 
ATOM      5  C5  N4B d   1       4.308   1.122  -1.249  0.00  0.00     0.002 A 
ATOM      6  C6  N4B d   1       3.479   0.025  -1.129  0.00  0.00     0.002 A 
ENDROOT
BRANCH   1   7
ATOM      7  C1' N4B d   1       3.014  -2.292  -0.414  0.00  0.00     0.057 C 
BRANCH   7   8
ATOM      8  C2' N4B d   1       2.294  -2.425  -1.753  0.00  0.00     0.009 C 
BRANCH   8   9
ATOM      9  C3' N4B d   1       2.689  -3.695  -2.487  0.00  0.00     0.004 C 
ATOM     10  C4' N4B d   1       3.450  -3.423  -3.750  0.00  0.00     0.003 C 
ENDBRANCH   8   9
ENDBRANCH   7   8
ENDBRANCH   1   7
TORSDOF 3
ENDMDL
