MODEL 1
REMARK minimizedAffinity 4.59570599
REMARK minimizedRMSD -1
REMARK  3 active torsions:
REMARK  status: ('A' for Active; 'I' for Inactive)
REMARK    1  A    between atoms: C3'_2  and  C2'_3 
REMARK    2  A    between atoms: C2'_3  and  C1'_4 
REMARK    3  A    between atoms: C1'_4  and  C1_5 
ROOT
ATOM      1  C1  N4B d   1       3.743   0.036  -0.994  0.00  0.00    -0.075 A 
ATOM      2  C2  N4B d   1       3.696   0.997   0.040  0.00  0.00     0.002 A 
ATOM      3  C3  N4B d   1       4.803   1.760   0.318  0.00  0.00     0.002 A 
ATOM      4  C4  N4B d   1       5.969   1.569  -0.409  0.00  0.00    -0.004 A 
ATOM      5  C5  N4B d   1       5.997   0.656  -1.423  0.00  0.00     0.002 A 
ATOM      6  C6  N4B d   1       4.891  -0.115  -1.716  0.00  0.00     0.002 A 
ENDROOT
BRANCH   1   7
ATOM      7  C1' N4B d   1       2.585  -0.882  -1.278  0.00  0.00     0.057 C 
BRANCH   7   8
ATOM      8  C2' N4B d   1       2.967  -2.306  -0.884  0.00  0.00     0.009 C 
BRANCH   8   9
ATOM      9  C3' N4B d   1       2.601  -3.311  -1.962  0.00  0.00     0.004 C 
ATOM     10  C4' N4B d   1       3.351  -3.090  -3.242  0.00  0.00     0.003 C 
ENDBRANCH   8   9
ENDBRANCH   7   8
ENDBRANCH   1   7
TORSDOF 3
ENDMDL
