MODEL 1
REMARK minimizedAffinity -2.52198267
REMARK minimizedRMSD -1
REMARK  0 active torsions:
REMARK  status: ('A' for Active; 'I' for Inactive)
ROOT
ATOM      1  C   UNL d   1      -2.141  -5.601  -5.085  0.00  0.00     0.023 A 
ATOM      2  C1  UNL d   1      -2.204  -4.606  -4.110  0.00  0.00     0.003 A 
ATOM      3  C2  UNL d   1      -3.311  -3.757  -4.047  0.00  0.00     0.048 A 
ATOM      4  C3  UNL d   1      -4.352  -3.909  -4.963  0.00  0.00     0.023 A 
ATOM      5  C4  UNL d   1      -4.293  -4.903  -5.940  0.00  0.00     0.048 A 
ATOM      6  C5  UNL d   1      -3.185  -5.749  -5.999  0.00  0.00     0.003 A 
ATOM      7  I   UNL d   1      -6.000  -2.646  -4.871  0.00  0.00    -0.146 I 
ENDROOT
TORSDOF 0
ENDMDL
