MODEL 1
REMARK minimizedAffinity -2.08803153
REMARK minimizedRMSD -1
REMARK  0 active torsions:
REMARK  status: ('A' for Active; 'I' for Inactive)
ROOT
ATOM      1  C   UNL d   1      -3.081  -5.806  -5.999  0.00  0.00     0.023 A 
ATOM      2  C1  UNL d   1      -2.539  -4.528  -5.863  0.00  0.00     0.003 A 
ATOM      3  C2  UNL d   1      -3.375  -3.434  -5.632  0.00  0.00     0.048 A 
ATOM      4  C3  UNL d   1      -4.753  -3.625  -5.537  0.00  0.00     0.023 A 
ATOM      5  C4  UNL d   1      -5.300  -4.902  -5.672  0.00  0.00     0.048 A 
ATOM      6  C5  UNL d   1      -4.460  -5.993  -5.903  0.00  0.00     0.003 A 
ATOM      7  I   UNL d   1      -6.000  -1.998  -5.194  0.00  0.00    -0.146 I 
ENDROOT
TORSDOF 0
ENDMDL
