MODEL 1
REMARK minimizedAffinity -1.33437979
REMARK minimizedRMSD -1
REMARK  0 active torsions:
REMARK  status: ('A' for Active; 'I' for Inactive)
ROOT
ATOM      1  C   UNL d   1      -1.618  -5.844  -4.982  0.00  0.00     0.023 A 
ATOM      2  C1  UNL d   1      -2.627  -5.979  -4.028  0.00  0.00     0.003 A 
ATOM      3  C2  UNL d   1      -3.732  -5.126  -4.054  0.00  0.00     0.048 A 
ATOM      4  C3  UNL d   1      -3.823  -4.142  -5.037  0.00  0.00     0.023 A 
ATOM      5  C4  UNL d   1      -2.817  -4.004  -5.994  0.00  0.00     0.048 A 
ATOM      6  C5  UNL d   1      -1.713  -4.858  -5.964  0.00  0.00     0.003 A 
ATOM      7  I   UNL d   1      -5.468  -2.872  -5.078  0.00  0.00    -0.146 I 
ENDROOT
TORSDOF 0
ENDMDL
