MODEL 1
REMARK minimizedAffinity 1.73512757
REMARK minimizedRMSD -1
REMARK  0 active torsions:
REMARK  status: ('A' for Active; 'I' for Inactive)
ROOT
ATOM      1  C   UNL d   1      -4.356  -5.130  -5.465  0.00  0.00     0.023 A 
ATOM      2  C1  UNL d   1      -5.529  -4.596  -5.999  0.00  0.00     0.003 A 
ATOM      3  C2  UNL d   1      -6.000  -3.358  -5.557  0.00  0.00     0.048 A 
ATOM      4  C3  UNL d   1      -5.292  -2.659  -4.580  0.00  0.00     0.023 A 
ATOM      5  C4  UNL d   1      -4.117  -3.188  -4.043  0.00  0.00     0.048 A 
ATOM      6  C5  UNL d   1      -3.651  -4.427  -4.488  0.00  0.00     0.003 A 
ATOM      7  I   UNL d   1      -5.990  -0.816  -3.920  0.00  0.00    -0.146 I 
ENDROOT
TORSDOF 0
ENDMDL
