MODEL 1
REMARK minimizedAffinity -2.46510077
REMARK minimizedRMSD -1
REMARK  0 active torsions:
REMARK  status: ('A' for Active; 'I' for Inactive)
ROOT
ATOM      1  C   UNL d   1      -5.999  -2.634  -4.816  0.00  0.00     0.023 A 
ATOM      2  C1  UNL d   1      -5.525  -3.201  -5.999  0.00  0.00     0.003 A 
ATOM      3  C2  UNL d   1      -4.384  -4.005  -5.981  0.00  0.00     0.048 A 
ATOM      4  C3  UNL d   1      -3.722  -4.239  -4.776  0.00  0.00     0.023 A 
ATOM      5  C4  UNL d   1      -4.193  -3.674  -3.589  0.00  0.00     0.048 A 
ATOM      6  C5  UNL d   1      -5.334  -2.870  -3.613  0.00  0.00     0.003 A 
ATOM      7  I   UNL d   1      -2.023  -5.436  -4.746  0.00  0.00    -0.146 I 
ENDROOT
TORSDOF 0
ENDMDL
