MODEL 1
REMARK minimizedAffinity 3.51035595
REMARK minimizedRMSD -1
REMARK  0 active torsions:
REMARK  status: ('A' for Active; 'I' for Inactive)
ROOT
ATOM      1  C   UNL d   1      -3.624  -1.784  -0.051  0.00  0.00     0.023 A 
ATOM      2  C1  UNL d   1      -3.200  -0.506  -0.413  0.00  0.00     0.003 A 
ATOM      3  C2  UNL d   1      -1.870  -0.129  -0.220  0.00  0.00     0.048 A 
ATOM      4  C3  UNL d   1      -0.968  -1.036   0.335  0.00  0.00     0.023 A 
ATOM      5  C4  UNL d   1      -1.387  -2.317   0.698  0.00  0.00     0.048 A 
ATOM      6  C5  UNL d   1      -2.719  -2.689   0.503  0.00  0.00     0.003 A 
ATOM      7  I   UNL d   1       1.013  -0.477   0.624  0.00  0.00    -0.146 I 
ENDROOT
TORSDOF 0
ENDMDL
