MODEL 1
REMARK minimizedAffinity -3.25093985
REMARK minimizedRMSD -1
REMARK  0 active torsions:
REMARK  status: ('A' for Active; 'I' for Inactive)
ROOT
ATOM      1  C   UNL d   1      -5.999  -4.321  -5.147  0.00  0.00     0.023 A 
ATOM      2  C1  UNL d   1      -4.941  -3.633  -4.552  0.00  0.00     0.003 A 
ATOM      3  C2  UNL d   1      -3.635  -4.113  -4.678  0.00  0.00     0.048 A 
ATOM      4  C3  UNL d   1      -3.395  -5.280  -5.402  0.00  0.00     0.023 A 
ATOM      5  C4  UNL d   1      -4.450  -5.971  -6.000  0.00  0.00     0.048 A 
ATOM      6  C5  UNL d   1      -5.754  -5.488  -5.870  0.00  0.00     0.003 A 
ATOM      7  I   UNL d   1      -1.453  -5.996  -5.592  0.00  0.00    -0.146 I 
ENDROOT
TORSDOF 0
ENDMDL
