MODEL 1
REMARK minimizedAffinity -2.24488926
REMARK minimizedRMSD -1
REMARK  0 active torsions:
REMARK  status: ('A' for Active; 'I' for Inactive)
ROOT
ATOM      1  C   UNL d   1      -2.242  -5.887  -4.104  0.00  0.00     0.023 A 
ATOM      2  C1  UNL d   1      -2.580  -5.999  -5.453  0.00  0.00     0.003 A 
ATOM      3  C2  UNL d   1      -3.566  -5.174  -5.998  0.00  0.00     0.048 A 
ATOM      4  C3  UNL d   1      -4.208  -4.237  -5.190  0.00  0.00     0.023 A 
ATOM      5  C4  UNL d   1      -3.873  -4.120  -3.840  0.00  0.00     0.048 A 
ATOM      6  C5  UNL d   1      -2.888  -4.948  -3.299  0.00  0.00     0.003 A 
ATOM      7  I   UNL d   1      -5.675  -3.008  -6.000  0.00  0.00    -0.146 I 
ENDROOT
TORSDOF 0
ENDMDL
