MODEL 1
REMARK minimizedAffinity -2.40580487
REMARK minimizedRMSD -1
REMARK  0 active torsions:
REMARK  status: ('A' for Active; 'I' for Inactive)
ROOT
ATOM      1  C   UNL d   1      -2.616  -5.996  -5.205  0.00  0.00     0.023 A 
ATOM      2  C1  UNL d   1      -2.442  -5.105  -4.146  0.00  0.00     0.003 A 
ATOM      3  C2  UNL d   1      -3.412  -4.137  -3.880  0.00  0.00     0.048 A 
ATOM      4  C3  UNL d   1      -4.554  -4.065  -4.677  0.00  0.00     0.023 A 
ATOM      5  C4  UNL d   1      -4.734  -4.955  -5.737  0.00  0.00     0.048 A 
ATOM      6  C5  UNL d   1      -3.761  -5.921  -6.000  0.00  0.00     0.003 A 
ATOM      7  I   UNL d   1      -5.999  -2.624  -4.283  0.00  0.00    -0.146 I 
ENDROOT
TORSDOF 0
ENDMDL
