MODEL 1
REMARK minimizedAffinity 7.22813177
REMARK minimizedRMSD -1
REMARK  0 active torsions:
REMARK  status: ('A' for Active; 'I' for Inactive)
ROOT
ATOM      1  C   UNL d   1      -2.033  -3.739  -3.178  0.00  0.00     0.023 A 
ATOM      2  C1  UNL d   1      -1.927  -3.391  -4.525  0.00  0.00     0.003 A 
ATOM      3  C2  UNL d   1      -3.064  -3.379  -5.336  0.00  0.00     0.048 A 
ATOM      4  C3  UNL d   1      -4.304  -3.716  -4.793  0.00  0.00     0.023 A 
ATOM      5  C4  UNL d   1      -4.415  -4.064  -3.446  0.00  0.00     0.048 A 
ATOM      6  C5  UNL d   1      -3.275  -4.076  -2.640  0.00  0.00     0.003 A 
ATOM      7  I   UNL d   1      -5.997  -3.699  -5.999  0.00  0.00    -0.146 I 
ENDROOT
TORSDOF 0
ENDMDL
