MODEL 1
REMARK minimizedAffinity -1.2185452
REMARK minimizedRMSD -1
REMARK  0 active torsions:
REMARK  status: ('A' for Active; 'I' for Inactive)
ROOT
ATOM      1  C   UNL d   1      -0.631  -5.984  -2.958  0.00  0.00     0.023 A 
ATOM      2  C1  UNL d   1      -0.420  -6.000  -4.336  0.00  0.00     0.003 A 
ATOM      3  C2  UNL d   1      -1.503  -5.884  -5.211  0.00  0.00     0.048 A 
ATOM      4  C3  UNL d   1      -2.793  -5.752  -4.700  0.00  0.00     0.023 A 
ATOM      5  C4  UNL d   1      -3.009  -5.734  -3.321  0.00  0.00     0.048 A 
ATOM      6  C5  UNL d   1      -1.924  -5.851  -2.450  0.00  0.00     0.003 A 
ATOM      7  I   UNL d   1      -4.406  -5.579  -5.999  0.00  0.00    -0.146 I 
ENDROOT
TORSDOF 0
ENDMDL
