MODEL 1
REMARK minimizedAffinity -2.45975757
REMARK minimizedRMSD -1
REMARK  0 active torsions:
REMARK  status: ('A' for Active; 'I' for Inactive)
ROOT
ATOM      1  C   UNL d   1      -5.913  -4.167  -5.674  0.00  0.00     0.023 A 
ATOM      2  C1  UNL d   1      -4.857  -3.329  -5.316  0.00  0.00     0.003 A 
ATOM      3  C2  UNL d   1      -3.551  -3.824  -5.282  0.00  0.00     0.048 A 
ATOM      4  C3  UNL d   1      -3.309  -5.158  -5.608  0.00  0.00     0.023 A 
ATOM      5  C4  UNL d   1      -4.363  -6.000  -5.968  0.00  0.00     0.048 A 
ATOM      6  C5  UNL d   1      -5.666  -5.501  -6.000  0.00  0.00     0.003 A 
ATOM      7  I   UNL d   1      -1.367  -5.897  -5.558  0.00  0.00    -0.146 I 
ENDROOT
TORSDOF 0
ENDMDL
