MODEL 1
REMARK minimizedAffinity -1.63265491
REMARK minimizedRMSD -1
REMARK  0 active torsions:
REMARK  status: ('A' for Active; 'I' for Inactive)
ROOT
ATOM      1  C   UNL d   1      -5.975  -3.988  -5.985  0.00  0.00     0.023 A 
ATOM      2  C1  UNL d   1      -4.930  -3.176  -5.546  0.00  0.00     0.003 A 
ATOM      3  C2  UNL d   1      -3.731  -3.749  -5.117  0.00  0.00     0.048 A 
ATOM      4  C3  UNL d   1      -3.584  -5.135  -5.130  0.00  0.00     0.023 A 
ATOM      5  C4  UNL d   1      -4.627  -5.952  -5.570  0.00  0.00     0.048 A 
ATOM      6  C5  UNL d   1      -5.824  -5.375  -5.997  0.00  0.00     0.003 A 
ATOM      7  I   UNL d   1      -1.800  -5.991  -4.492  0.00  0.00    -0.146 I 
ENDROOT
TORSDOF 0
ENDMDL
