MODEL 1
REMARK minimizedAffinity -0.556460142
REMARK minimizedRMSD -1
REMARK  0 active torsions:
REMARK  status: ('A' for Active; 'I' for Inactive)
ROOT
ATOM      1  C   UNL d   1      -2.533  -5.989  -5.181  0.00  0.00     0.023 A 
ATOM      2  C1  UNL d   1      -3.662  -5.986  -6.000  0.00  0.00     0.003 A 
ATOM      3  C2  UNL d   1      -4.658  -5.025  -5.815  0.00  0.00     0.048 A 
ATOM      4  C3  UNL d   1      -4.518  -4.069  -4.809  0.00  0.00     0.023 A 
ATOM      5  C4  UNL d   1      -3.389  -4.068  -3.987  0.00  0.00     0.048 A 
ATOM      6  C5  UNL d   1      -2.396  -5.032  -4.176  0.00  0.00     0.003 A 
ATOM      7  I   UNL d   1      -5.998  -2.638  -4.531  0.00  0.00    -0.146 I 
ENDROOT
TORSDOF 0
ENDMDL
