MODEL 1
REMARK minimizedAffinity -2.48711181
REMARK minimizedRMSD -1
REMARK  0 active torsions:
REMARK  status: ('A' for Active; 'I' for Inactive)
ROOT
ATOM      1  C   UNL d   1      -6.000  -4.378  -5.231  0.00  0.00     0.023 A 
ATOM      2  C1  UNL d   1      -5.659  -5.510  -5.971  0.00  0.00     0.003 A 
ATOM      3  C2  UNL d   1      -4.336  -5.957  -5.996  0.00  0.00     0.048 A 
ATOM      4  C3  UNL d   1      -3.360  -5.269  -5.277  0.00  0.00     0.023 A 
ATOM      5  C4  UNL d   1      -3.697  -4.136  -4.534  0.00  0.00     0.048 A 
ATOM      6  C5  UNL d   1      -5.020  -3.692  -4.513  0.00  0.00     0.003 A 
ATOM      7  I   UNL d   1      -1.391  -5.933  -5.312  0.00  0.00    -0.146 I 
ENDROOT
TORSDOF 0
ENDMDL
