MODEL 1
REMARK minimizedAffinity -2.73582506
REMARK minimizedRMSD -1
REMARK  0 active torsions:
REMARK  status: ('A' for Active; 'I' for Inactive)
ROOT
ATOM      1  C   UNL d   1      -5.998  -4.112  -5.995  0.00  0.00     0.023 A 
ATOM      2  C1  UNL d   1      -5.777  -5.490  -5.992  0.00  0.00     0.003 A 
ATOM      3  C2  UNL d   1      -4.546  -6.000  -5.576  0.00  0.00     0.048 A 
ATOM      4  C3  UNL d   1      -3.540  -5.127  -5.163  0.00  0.00     0.023 A 
ATOM      5  C4  UNL d   1      -3.756  -3.748  -5.164  0.00  0.00     0.048 A 
ATOM      6  C5  UNL d   1      -4.989  -3.243  -5.581  0.00  0.00     0.003 A 
ATOM      7  I   UNL d   1      -1.706  -5.884  -4.544  0.00  0.00    -0.146 I 
ENDROOT
TORSDOF 0
ENDMDL
