MODEL 1
REMARK minimizedAffinity 4.31942272
REMARK minimizedRMSD -1
REMARK  0 active torsions:
REMARK  status: ('A' for Active; 'I' for Inactive)
ROOT
ATOM      1  C1  DEN d   1       2.078   5.998   5.679  0.00  0.00     0.130 A 
ATOM      2  C2  DEN d   1       0.631   5.809   5.718  0.00  0.00    -0.031 A 
ATOM      3  C3  DEN d   1       0.363   4.362   5.849  0.00  0.00     0.027 A 
ATOM      4  C4  DEN d   1       2.039   2.408   6.000  0.00  0.00     0.027 A 
ATOM      5  C5  DEN d   1       3.375   2.073   5.998  0.00  0.00    -0.003 A 
ATOM      6  C6  DEN d   1       4.364   3.011   5.857  0.00  0.00     0.001 A 
ATOM      7  C7  DEN d   1       4.032   4.336   5.757  0.00  0.00     0.017 A 
ATOM      8  C8  DEN d   1       2.687   4.682   5.750  0.00  0.00    -0.094 A 
ATOM      9  C9  DEN d   1       1.703   3.720   5.906  0.00  0.00    -0.072 A 
ENDROOT
TORSDOF 0
ENDMDL
