MODEL 1
REMARK minimizedAffinity -1.69221342
REMARK minimizedRMSD -1
REMARK  0 active torsions:
REMARK  status: ('A' for Active; 'I' for Inactive)
ROOT
ATOM      1  C1  DEN d   1       0.968   4.104   5.999  0.00  0.00     0.130 A 
ATOM      2  C2  DEN d   1       1.576   5.380   5.634  0.00  0.00    -0.031 A 
ATOM      3  C3  DEN d   1       2.955   5.115   5.178  0.00  0.00     0.027 A 
ATOM      4  C4  DEN d   1       4.200   2.864   4.996  0.00  0.00     0.027 A 
ATOM      5  C5  DEN d   1       4.099   1.506   5.203  0.00  0.00    -0.003 A 
ATOM      6  C6  DEN d   1       2.969   0.927   5.717  0.00  0.00     0.001 A 
ATOM      7  C7  DEN d   1       1.877   1.704   6.000  0.00  0.00     0.017 A 
ATOM      8  C8  DEN d   1       1.974   3.075   5.801  0.00  0.00    -0.094 A 
ATOM      9  C9  DEN d   1       3.121   3.640   5.269  0.00  0.00    -0.072 A 
ENDROOT
TORSDOF 0
ENDMDL
