MODEL 1
REMARK minimizedAffinity 5.47051191
REMARK minimizedRMSD -1
REMARK  0 active torsions:
REMARK  status: ('A' for Active; 'I' for Inactive)
ROOT
ATOM      1  C1  DEN d   1      -3.391  -0.518  -2.035  0.00  0.00     0.130 A 
ATOM      2  C2  DEN d   1      -2.008  -0.087  -1.844  0.00  0.00    -0.031 A 
ATOM      3  C3  DEN d   1      -1.922   0.608  -0.545  0.00  0.00     0.027 A 
ATOM      4  C4  DEN d   1      -3.784   1.054   1.184  0.00  0.00     0.027 A 
ATOM      5  C5  DEN d   1      -5.124   0.888   1.458  0.00  0.00    -0.003 A 
ATOM      6  C6  DEN d   1      -5.979   0.278   0.580  0.00  0.00     0.001 A 
ATOM      7  C7  DEN d   1      -5.495  -0.230  -0.596  0.00  0.00     0.017 A 
ATOM      8  C8  DEN d   1      -4.147  -0.061  -0.884  0.00  0.00    -0.094 A 
ATOM      9  C9  DEN d   1      -3.296   0.549   0.022  0.00  0.00    -0.072 A 
ENDROOT
TORSDOF 0
ENDMDL
