MODEL 1
REMARK minimizedAffinity 15.7759714
REMARK minimizedRMSD -1
REMARK  0 active torsions:
REMARK  status: ('A' for Active; 'I' for Inactive)
ROOT
ATOM      1  C1  DEN d   1      -1.772   0.405  -3.508  0.00  0.00     0.130 A 
ATOM      2  C2  DEN d   1      -1.901  -0.364  -2.274  0.00  0.00    -0.031 A 
ATOM      3  C3  DEN d   1      -3.284  -0.876  -2.197  0.00  0.00     0.027 A 
ATOM      4  C4  DEN d   1      -5.227  -0.557  -3.863  0.00  0.00     0.027 A 
ATOM      5  C5  DEN d   1      -5.601   0.029  -5.052  0.00  0.00    -0.003 A 
ATOM      6  C6  DEN d   1      -4.743   0.803  -5.787  0.00  0.00     0.001 A 
ATOM      7  C7  DEN d   1      -3.452   0.975  -5.362  0.00  0.00     0.017 A 
ATOM      8  C8  DEN d   1      -3.069   0.393  -4.161  0.00  0.00    -0.094 A 
ATOM      9  C9  DEN d   1      -3.948  -0.396  -3.438  0.00  0.00    -0.072 A 
ENDROOT
TORSDOF 0
ENDMDL
