MODEL 1
REMARK minimizedAffinity 4.3455267
REMARK minimizedRMSD -1
REMARK  0 active torsions:
REMARK  status: ('A' for Active; 'I' for Inactive)
ROOT
ATOM      1  C1  DEN d   1       2.007  -3.989   2.480  0.00  0.00     0.130 A 
ATOM      2  C2  DEN d   1       1.191  -4.432   1.353  0.00  0.00    -0.031 A 
ATOM      3  C3  DEN d   1       0.017  -5.146   1.893  0.00  0.00     0.027 A 
ATOM      4  C4  DEN d   1      -0.616  -5.602   4.351  0.00  0.00     0.027 A 
ATOM      5  C5  DEN d   1      -0.226  -5.430   5.661  0.00  0.00    -0.003 A 
ATOM      6  C6  DEN d   1       0.943  -4.802   5.999  0.00  0.00     0.001 A 
ATOM      7  C7  DEN d   1       1.742  -4.281   5.015  0.00  0.00     0.017 A 
ATOM      8  C8  DEN d   1       1.359  -4.456   3.692  0.00  0.00    -0.094 A 
ATOM      9  C9  DEN d   1       0.167  -5.084   3.372  0.00  0.00    -0.072 A 
ENDROOT
TORSDOF 0
ENDMDL
