MODEL 1
REMARK minimizedAffinity -4.76983929
REMARK minimizedRMSD -1
REMARK  1 active torsions:
REMARK  status: ('A' for Active; 'I' for Inactive)
REMARK    1  A    between atoms: N_2  and  C1_3 
ROOT
ATOM      1  C1  UNL d   1       0.983  -1.172   0.820  0.00  0.00     0.143 A 
ATOM      2  C2  UNL d   1       0.314  -2.282   1.348  0.00  0.00    -0.057 A 
ATOM      3  C3  UNL d   1      -1.080  -2.295   1.478  0.00  0.00     0.033 A 
ATOM      4  C4  UNL d   1      -1.830  -1.184   1.109  0.00  0.00    -0.042 A 
ATOM      5  C5  UNL d   1      -1.184  -0.060   0.606  0.00  0.00     0.033 A 
ATOM      6  C6  UNL d   1       0.207  -0.055   0.471  0.00  0.00    -0.057 A 
ENDROOT
BRANCH   1   7
ATOM      7  N   UNL d   1       2.374  -1.059   0.757  0.00  0.00    -0.732 N 
ATOM      8  C   UNL d   1       3.060   0.007   1.455  0.00  0.00     0.284 C 
ATOM      9  H3  UNL d   1       2.840  -1.962   0.816  0.00  0.00     0.395 HD
ENDBRANCH   1   7
TORSDOF 1
ENDMDL
