MODEL 1
REMARK minimizedAffinity 0.230700672
REMARK minimizedRMSD -1
REMARK  1 active torsions:
REMARK  status: ('A' for Active; 'I' for Inactive)
REMARK    1  A    between atoms: N_2  and  C1_3 
ROOT
ATOM      1  C1  UNL d   1       1.621   0.048   0.779  0.00  0.00     0.143 A 
ATOM      2  C2  UNL d   1       2.485   1.106   1.081  0.00  0.00    -0.057 A 
ATOM      3  C3  UNL d   1       3.829   0.878   1.400  0.00  0.00     0.033 A 
ATOM      4  C4  UNL d   1       4.327  -0.420   1.451  0.00  0.00    -0.042 A 
ATOM      5  C5  UNL d   1       3.481  -1.489   1.179  0.00  0.00     0.033 A 
ATOM      6  C6  UNL d   1       2.141  -1.254   0.855  0.00  0.00    -0.057 A 
ENDROOT
BRANCH   1   7
ATOM      7  N   UNL d   1       0.252   0.203   0.551  0.00  0.00    -0.732 N 
ATOM      8  C   UNL d   1      -0.372  -0.385  -0.615  0.00  0.00     0.284 C 
ATOM      9  H3  UNL d   1      -0.296   0.117   1.404  0.00  0.00     0.395 HD
ENDBRANCH   1   7
TORSDOF 1
ENDMDL
