MODEL 1
REMARK minimizedAffinity -3.53597975
REMARK minimizedRMSD -1
REMARK  1 active torsions:
REMARK  status: ('A' for Active; 'I' for Inactive)
REMARK    1  A    between atoms: N_2  and  C1_3 
ROOT
ATOM      1  C1  UNL d   1      -0.154  -0.498  -0.186  0.00  0.00     0.143 A 
ATOM      2  C2  UNL d   1      -0.081  -1.091   1.079  0.00  0.00    -0.057 A 
ATOM      3  C3  UNL d   1      -0.922  -2.153   1.433  0.00  0.00     0.033 A 
ATOM      4  C4  UNL d   1      -1.875  -2.622   0.535  0.00  0.00    -0.042 A 
ATOM      5  C5  UNL d   1      -1.983  -2.030  -0.719  0.00  0.00     0.033 A 
ATOM      6  C6  UNL d   1      -1.135  -0.975  -1.069  0.00  0.00    -0.057 A 
ENDROOT
BRANCH   1   7
ATOM      7  N   UNL d   1       0.587   0.625  -0.562  0.00  0.00    -0.732 N 
ATOM      8  C   UNL d   1       0.574   1.092  -1.932  0.00  0.00     0.284 C 
ATOM      9  H3  UNL d   1       0.545   1.369   0.131  0.00  0.00     0.395 HD
ENDBRANCH   1   7
TORSDOF 1
ENDMDL
