MODEL 1
REMARK minimizedAffinity -4.20923519
REMARK minimizedRMSD -1
REMARK  1 active torsions:
REMARK  status: ('A' for Active; 'I' for Inactive)
REMARK    1  A    between atoms: N_2  and  C1_3 
ROOT
ATOM      1  C1  UNL d   1      -0.554  -0.398   0.376  0.00  0.00     0.143 A 
ATOM      2  C2  UNL d   1       0.288  -1.484   0.639  0.00  0.00    -0.057 A 
ATOM      3  C3  UNL d   1      -0.231  -2.748   0.947  0.00  0.00     0.033 A 
ATOM      4  C4  UNL d   1      -1.606  -2.941   1.027  0.00  0.00    -0.042 A 
ATOM      5  C5  UNL d   1      -2.462  -1.869   0.795  0.00  0.00     0.033 A 
ATOM      6  C6  UNL d   1      -1.937  -0.612   0.481  0.00  0.00    -0.057 A 
ENDROOT
BRANCH   1   7
ATOM      7  N   UNL d   1      -0.098   0.905   0.161  0.00  0.00    -0.732 N 
ATOM      8  C   UNL d   1       0.627   1.242  -1.045  0.00  0.00     0.284 C 
ATOM      9  H3  UNL d   1      -0.777   1.606   0.448  0.00  0.00     0.395 HD
ENDBRANCH   1   7
TORSDOF 1
ENDMDL
