MODEL 1
REMARK minimizedAffinity -4.65696192
REMARK minimizedRMSD -1
REMARK  1 active torsions:
REMARK  status: ('A' for Active; 'I' for Inactive)
REMARK    1  A    between atoms: N_2  and  C1_3 
ROOT
ATOM      1  C1  UNL d   1      -0.330  -0.462   0.266  0.00  0.00     0.143 A 
ATOM      2  C2  UNL d   1       0.371  -1.503   0.884  0.00  0.00    -0.057 A 
ATOM      3  C3  UNL d   1      -0.291  -2.638   1.367  0.00  0.00     0.033 A 
ATOM      4  C4  UNL d   1      -1.674  -2.740   1.265  0.00  0.00    -0.042 A 
ATOM      5  C5  UNL d   1      -2.395  -1.707   0.677  0.00  0.00     0.033 A 
ATOM      6  C6  UNL d   1      -1.727  -0.579   0.191  0.00  0.00    -0.057 A 
ENDROOT
BRANCH   1   7
ATOM      7  N   UNL d   1       0.258   0.736  -0.146  0.00  0.00    -0.732 N 
ATOM      8  C   UNL d   1       1.376   1.296   0.583  0.00  0.00     0.284 C 
ATOM      9  H3  UNL d   1       0.349   0.797  -1.157  0.00  0.00     0.395 HD
ENDBRANCH   1   7
TORSDOF 1
ENDMDL
