MODEL 1
REMARK minimizedAffinity -3.53628707
REMARK minimizedRMSD -1
REMARK  1 active torsions:
REMARK  status: ('A' for Active; 'I' for Inactive)
REMARK    1  A    between atoms: N_2  and  C1_3 
ROOT
ATOM      1  C1  UNL d   1       0.390  -0.097  -0.020  0.00  0.00     0.143 A 
ATOM      2  C2  UNL d   1      -0.781   0.264   0.653  0.00  0.00    -0.057 A 
ATOM      3  C3  UNL d   1      -1.500  -0.668   1.411  0.00  0.00     0.033 A 
ATOM      4  C4  UNL d   1      -1.075  -1.990   1.486  0.00  0.00    -0.042 A 
ATOM      5  C5  UNL d   1       0.073  -2.378   0.804  0.00  0.00     0.033 A 
ATOM      6  C6  UNL d   1       0.791  -1.441   0.054  0.00  0.00    -0.057 A 
ENDROOT
BRANCH   1   7
ATOM      7  N   UNL d   1       1.095   0.759  -0.869  0.00  0.00    -0.732 N 
ATOM      8  C   UNL d   1       0.395   1.592  -1.823  0.00  0.00     0.284 C 
ATOM      9  H3  UNL d   1       1.867   1.225  -0.398  0.00  0.00     0.395 HD
ENDBRANCH   1   7
TORSDOF 1
ENDMDL
