MODEL 1
REMARK minimizedAffinity -2.2727797
REMARK minimizedRMSD -1
REMARK  1 active torsions:
REMARK  status: ('A' for Active; 'I' for Inactive)
REMARK    1  A    between atoms: N_2  and  C1_3 
ROOT
ATOM      1  C1  UNL d   1      -0.126  -1.687   1.972  0.00  0.00     0.143 A 
ATOM      2  C2  UNL d   1       0.712  -2.721   2.404  0.00  0.00    -0.057 A 
ATOM      3  C3  UNL d   1       0.555  -3.303   3.667  0.00  0.00     0.033 A 
ATOM      4  C4  UNL d   1      -0.428  -2.840   4.536  0.00  0.00    -0.042 A 
ATOM      5  C5  UNL d   1      -1.256  -1.797   4.138  0.00  0.00     0.033 A 
ATOM      6  C6  UNL d   1      -1.099  -1.224   2.873  0.00  0.00    -0.057 A 
ENDROOT
BRANCH   1   7
ATOM      7  N   UNL d   1       0.042  -1.000   0.767  0.00  0.00    -0.732 N 
ATOM      8  C   UNL d   1       0.852   0.197   0.708  0.00  0.00     0.284 C 
ATOM      9  H3  UNL d   1       0.170  -1.629  -0.023  0.00  0.00     0.395 HD
ENDBRANCH   1   7
TORSDOF 1
ENDMDL
