MODEL 1
REMARK minimizedAffinity -3.64868426
REMARK minimizedRMSD -1
REMARK  1 active torsions:
REMARK  status: ('A' for Active; 'I' for Inactive)
REMARK    1  A    between atoms: N_2  and  C1_3 
ROOT
ATOM      1  C1  UNL d   1      -0.001  -1.615   1.510  0.00  0.00     0.143 A 
ATOM      2  C2  UNL d   1       0.213  -2.957   1.841  0.00  0.00    -0.057 A 
ATOM      3  C3  UNL d   1      -0.375  -3.528   2.977  0.00  0.00     0.033 A 
ATOM      4  C4  UNL d   1      -1.166  -2.754   3.820  0.00  0.00    -0.042 A 
ATOM      5  C5  UNL d   1      -1.372  -1.412   3.524  0.00  0.00     0.033 A 
ATOM      6  C6  UNL d   1      -0.788  -0.850   2.385  0.00  0.00    -0.057 A 
ENDROOT
BRANCH   1   7
ATOM      7  N   UNL d   1       0.635  -0.965   0.449  0.00  0.00    -0.732 N 
ATOM      8  C   UNL d   1       0.500   0.465   0.274  0.00  0.00     0.284 C 
ATOM      9  H3  UNL d   1       1.575  -1.317   0.285  0.00  0.00     0.395 HD
ENDBRANCH   1   7
TORSDOF 1
ENDMDL
