MODEL 1
REMARK minimizedAffinity 3.55400705
REMARK minimizedRMSD -1
REMARK  1 active torsions:
REMARK  status: ('A' for Active; 'I' for Inactive)
REMARK    1  A    between atoms: N_2  and  C1_3 
ROOT
ATOM      1  C1  UNL d   1      -0.812   2.590  -2.968  0.00  0.00     0.143 A 
ATOM      2  C2  UNL d   1      -0.230   3.738  -3.517  0.00  0.00    -0.057 A 
ATOM      3  C3  UNL d   1      -1.016   4.814  -3.950  0.00  0.00     0.033 A 
ATOM      4  C4  UNL d   1      -2.402   4.748  -3.866  0.00  0.00    -0.042 A 
ATOM      5  C5  UNL d   1      -3.003   3.607  -3.346  0.00  0.00     0.033 A 
ATOM      6  C6  UNL d   1      -2.213   2.539  -2.910  0.00  0.00    -0.057 A 
ENDROOT
BRANCH   1   7
ATOM      7  N   UNL d   1      -0.091   1.448  -2.611  0.00  0.00    -0.732 N 
ATOM      8  C   UNL d   1       1.349   1.498  -2.473  0.00  0.00     0.284 C 
ATOM      9  H3  UNL d   1      -0.559   0.902  -1.891  0.00  0.00     0.395 HD
ENDBRANCH   1   7
TORSDOF 1
ENDMDL
