MODEL 1
REMARK minimizedAffinity -2.50716472
REMARK minimizedRMSD -1
REMARK  1 active torsions:
REMARK  status: ('A' for Active; 'I' for Inactive)
REMARK    1  A    between atoms: N_2  and  C1_3 
ROOT
ATOM      1  C1  UNL d   1      -0.338  -1.593   1.956  0.00  0.00     0.143 A 
ATOM      2  C2  UNL d   1      -0.739  -0.631   2.890  0.00  0.00    -0.057 A 
ATOM      3  C3  UNL d   1      -1.572  -0.966   3.964  0.00  0.00     0.033 A 
ATOM      4  C4  UNL d   1      -2.044  -2.266   4.108  0.00  0.00    -0.042 A 
ATOM      5  C5  UNL d   1      -1.678  -3.233   3.177  0.00  0.00     0.033 A 
ATOM      6  C6  UNL d   1      -0.841  -2.894   2.110  0.00  0.00    -0.057 A 
ENDROOT
BRANCH   1   7
ATOM      7  N   UNL d   1       0.409  -1.302   0.811  0.00  0.00    -0.732 N 
ATOM      8  C   UNL d   1       1.316  -0.174   0.790  0.00  0.00     0.284 C 
ATOM      9  H3  UNL d   1       0.775  -2.139   0.363  0.00  0.00     0.395 HD
ENDBRANCH   1   7
TORSDOF 1
ENDMDL
