MODEL 1
REMARK minimizedAffinity 2.17880177
REMARK minimizedRMSD -1
REMARK  1 active torsions:
REMARK  status: ('A' for Active; 'I' for Inactive)
REMARK    1  A    between atoms: N_2  and  C1_3 
ROOT
ATOM      1  C1  UNL d   1       0.521  -2.268   1.799  0.00  0.00     0.143 A 
ATOM      2  C2  UNL d   1       0.970  -2.435   0.485  0.00  0.00    -0.057 A 
ATOM      3  C3  UNL d   1       0.526  -1.597  -0.546  0.00  0.00     0.033 A 
ATOM      4  C4  UNL d   1      -0.399  -0.592  -0.283  0.00  0.00    -0.042 A 
ATOM      5  C5  UNL d   1      -0.878  -0.424   1.011  0.00  0.00     0.033 A 
ATOM      6  C6  UNL d   1      -0.426  -1.260   2.037  0.00  0.00    -0.057 A 
ENDROOT
BRANCH   1   7
ATOM      7  N   UNL d   1       0.849  -3.131   2.848  0.00  0.00    -0.732 N 
ATOM      8  C   UNL d   1       0.538  -2.778   4.217  0.00  0.00     0.284 C 
ATOM      9  H3  UNL d   1       0.671  -4.106   2.619  0.00  0.00     0.395 HD
ENDBRANCH   1   7
TORSDOF 1
ENDMDL
