MODEL 1
REMARK minimizedAffinity -2.74051452
REMARK minimizedRMSD -1
REMARK  1 active torsions:
REMARK  status: ('A' for Active; 'I' for Inactive)
REMARK    1  A    between atoms: N_2  and  C1_3 
ROOT
ATOM      1  C1  UNL d   1      -3.681  -4.917  -5.999  0.00  0.00     0.143 A 
ATOM      2  C2  UNL d   1      -4.086  -3.580  -5.928  0.00  0.00    -0.057 A 
ATOM      3  C3  UNL d   1      -3.151  -2.541  -5.861  0.00  0.00     0.033 A 
ATOM      4  C4  UNL d   1      -1.789  -2.823  -5.834  0.00  0.00    -0.042 A 
ATOM      5  C5  UNL d   1      -1.364  -4.146  -5.879  0.00  0.00     0.033 A 
ATOM      6  C6  UNL d   1      -2.303  -5.180  -5.953  0.00  0.00    -0.057 A 
ENDROOT
BRANCH   1   7
ATOM      7  N   UNL d   1      -4.564  -6.000  -5.969  0.00  0.00    -0.732 N 
ATOM      8  C   UNL d   1      -5.995  -5.786  -6.000  0.00  0.00     0.284 C 
ATOM      9  H3  UNL d   1      -4.247  -6.776  -6.545  0.00  0.00     0.395 HD
ENDBRANCH   1   7
TORSDOF 1
ENDMDL
