MODEL 1
REMARK minimizedAffinity 1.00733244
REMARK minimizedRMSD -1
REMARK  1 active torsions:
REMARK  status: ('A' for Active; 'I' for Inactive)
REMARK    1  A    between atoms: N_2  and  C1_3 
ROOT
ATOM      1  C1  UNL d   1       0.417  -2.476   2.006  0.00  0.00     0.143 A 
ATOM      2  C2  UNL d   1       1.313  -3.209   2.792  0.00  0.00    -0.057 A 
ATOM      3  C3  UNL d   1       1.117  -3.357   4.170  0.00  0.00     0.033 A 
ATOM      4  C4  UNL d   1       0.032  -2.749   4.793  0.00  0.00    -0.042 A 
ATOM      5  C5  UNL d   1      -0.858  -1.996   4.036  0.00  0.00     0.033 A 
ATOM      6  C6  UNL d   1      -0.660  -1.857   2.659  0.00  0.00    -0.057 A 
ENDROOT
BRANCH   1   7
ATOM      7  N   UNL d   1       0.612  -2.210   0.648  0.00  0.00    -0.732 N 
ATOM      8  C   UNL d   1       1.748  -1.431   0.205  0.00  0.00     0.284 C 
ATOM      9  H3  UNL d   1       0.405  -3.015   0.061  0.00  0.00     0.395 HD
ENDBRANCH   1   7
TORSDOF 1
ENDMDL
