MODEL 1
REMARK minimizedAffinity -1.01547837
REMARK minimizedRMSD -1
REMARK  2 active torsions:
REMARK  status: ('A' for Active; 'I' for Inactive)
REMARK    1  A    between atoms: C2'_3  and  C1'_4 
REMARK    2  A    between atoms: C1'_4  and  C1_5 
ROOT
ATOM      1  C1  I4B d   1       5.079  -2.640  -5.825  0.00  0.00    -0.075 A 
ATOM      2  C2  I4B d   1       5.999  -1.627  -5.936  0.00  0.00     0.003 A 
ATOM      3  C3  I4B d   1       5.572  -0.279  -5.999  0.00  0.00     0.002 A 
ATOM      4  C4  I4B d   1       4.222   0.007  -5.999  0.00  0.00    -0.004 A 
ATOM      5  C5  I4B d   1       3.291  -1.019  -5.863  0.00  0.00     0.002 A 
ATOM      6  C6  I4B d   1       3.722  -2.350  -5.763  0.00  0.00     0.003 A 
ENDROOT
BRANCH   1   7
ATOM      7  C1' I4B d   1       5.564  -4.054  -5.793  0.00  0.00     0.060 C 
BRANCH   7   8
ATOM      8  C2' I4B d   1       4.594  -4.862  -4.955  0.00  0.00    -0.013 C 
ATOM      9  C4' I4B d   1       3.645  -5.645  -5.822  0.00  0.00     0.013 C 
ATOM     10  C3' I4B d   1       5.393  -5.770  -4.069  0.00  0.00     0.013 C 
ENDBRANCH   7   8
ENDBRANCH   1   7
TORSDOF 2
ENDMDL
