MODEL 1
REMARK minimizedAffinity 3.51997948
REMARK minimizedRMSD -1
REMARK  2 active torsions:
REMARK  status: ('A' for Active; 'I' for Inactive)
REMARK    1  A    between atoms: C2'_3  and  C1'_4 
REMARK    2  A    between atoms: C1'_4  and  C1_5 
ROOT
ATOM      1  C1  I4B d   1       4.951  -3.426  -4.718  0.00  0.00    -0.075 A 
ATOM      2  C2  I4B d   1       5.999  -2.586  -4.435  0.00  0.00     0.003 A 
ATOM      3  C3  I4B d   1       5.935  -1.716  -3.320  0.00  0.00     0.002 A 
ATOM      4  C4  I4B d   1       4.791  -1.683  -2.549  0.00  0.00    -0.004 A 
ATOM      5  C5  I4B d   1       3.738  -2.551  -2.824  0.00  0.00     0.002 A 
ATOM      6  C6  I4B d   1       3.823  -3.437  -3.908  0.00  0.00     0.003 A 
ENDROOT
BRANCH   1   7
ATOM      7  C1' I4B d   1       5.038  -4.308  -5.923  0.00  0.00     0.060 C 
BRANCH   7   8
ATOM      8  C2' I4B d   1       4.752  -5.729  -5.483  0.00  0.00    -0.013 C 
ATOM      9  C4' I4B d   1       5.311  -5.998  -4.110  0.00  0.00     0.013 C 
ATOM     10  C3' I4B d   1       3.266  -5.932  -5.512  0.00  0.00     0.013 C 
ENDBRANCH   7   8
ENDBRANCH   1   7
TORSDOF 2
ENDMDL
