MODEL 1
REMARK minimizedAffinity -2.79873371
REMARK minimizedRMSD -1
REMARK  2 active torsions:
REMARK  status: ('A' for Active; 'I' for Inactive)
REMARK    1  A    between atoms: C2'_3  and  C1'_4 
REMARK    2  A    between atoms: C1'_4  and  C1_5 
ROOT
ATOM      1  C1  I4B d   1       5.252  -3.858  -5.099  0.00  0.00    -0.075 A 
ATOM      2  C2  I4B d   1       5.962  -4.902  -4.561  0.00  0.00     0.003 A 
ATOM      3  C3  I4B d   1       5.285  -5.979  -3.938  0.00  0.00     0.002 A 
ATOM      4  C4  I4B d   1       3.909  -5.946  -3.831  0.00  0.00    -0.004 A 
ATOM      5  C5  I4B d   1       3.190  -4.898  -4.397  0.00  0.00     0.002 A 
ATOM      6  C6  I4B d   1       3.864  -3.853  -5.046  0.00  0.00     0.003 A 
ENDROOT
BRANCH   1   7
ATOM      7  C1' I4B d   1       6.000  -2.722  -5.720  0.00  0.00     0.060 C 
BRANCH   7   8
ATOM      8  C2' I4B d   1       5.435  -1.431  -5.164  0.00  0.00    -0.013 C 
ATOM      9  C4' I4B d   1       5.806  -1.252  -3.715  0.00  0.00     0.013 C 
ATOM     10  C3' I4B d   1       5.955  -0.299  -5.999  0.00  0.00     0.013 C 
ENDBRANCH   7   8
ENDBRANCH   1   7
TORSDOF 2
ENDMDL
