MODEL 1
REMARK minimizedAffinity 2.55953455
REMARK minimizedRMSD -1
REMARK  2 active torsions:
REMARK  status: ('A' for Active; 'I' for Inactive)
REMARK    1  A    between atoms: C2'_3  and  C1'_4 
REMARK    2  A    between atoms: C1'_4  and  C1_5 
ROOT
ATOM      1  C1  I4B d   1       5.034  -3.622  -5.125  0.00  0.00    -0.075 A 
ATOM      2  C2  I4B d   1       6.000  -3.342  -4.190  0.00  0.00     0.003 A 
ATOM      3  C3  I4B d   1       5.905  -2.174  -3.395  0.00  0.00     0.002 A 
ATOM      4  C4  I4B d   1       4.862  -1.295  -3.601  0.00  0.00    -0.004 A 
ATOM      5  C5  I4B d   1       3.872  -1.591  -4.533  0.00  0.00     0.002 A 
ATOM      6  C6  I4B d   1       3.952  -2.768  -5.292  0.00  0.00     0.003 A 
ENDROOT
BRANCH   1   7
ATOM      7  C1' I4B d   1       5.183  -4.846  -5.971  0.00  0.00     0.060 C 
BRANCH   7   8
ATOM      8  C2' I4B d   1       4.523  -5.999  -5.243  0.00  0.00    -0.013 C 
ATOM      9  C4' I4B d   1       4.885  -6.000  -3.781  0.00  0.00     0.013 C 
ATOM     10  C3' I4B d   1       3.041  -5.879  -5.434  0.00  0.00     0.013 C 
ENDBRANCH   7   8
ENDBRANCH   1   7
TORSDOF 2
ENDMDL
