MODEL 1
REMARK minimizedAffinity -0.0754037425
REMARK minimizedRMSD -1
REMARK  2 active torsions:
REMARK  status: ('A' for Active; 'I' for Inactive)
REMARK    1  A    between atoms: C2'_3  and  C1'_4 
REMARK    2  A    between atoms: C1'_4  and  C1_5 
ROOT
ATOM      1  C1  I4B d   1       5.332  -3.545  -5.296  0.00  0.00    -0.075 A 
ATOM      2  C2  I4B d   1       5.996  -3.014  -4.219  0.00  0.00     0.003 A 
ATOM      3  C3  I4B d   1       5.740  -1.684  -3.808  0.00  0.00     0.002 A 
ATOM      4  C4  I4B d   1       4.855  -0.909  -4.529  0.00  0.00    -0.004 A 
ATOM      5  C5  I4B d   1       4.165  -1.456  -5.608  0.00  0.00     0.002 A 
ATOM      6  C6  I4B d   1       4.396  -2.786  -5.986  0.00  0.00     0.003 A 
ENDROOT
BRANCH   1   7
ATOM      7  C1' I4B d   1       5.651  -4.943  -5.722  0.00  0.00     0.060 C 
BRANCH   7   8
ATOM      8  C2' I4B d   1       5.108  -5.888  -4.670  0.00  0.00    -0.013 C 
ATOM      9  C4' I4B d   1       5.997  -5.920  -3.455  0.00  0.00     0.013 C 
ATOM     10  C3' I4B d   1       3.722  -5.437  -4.315  0.00  0.00     0.013 C 
ENDBRANCH   7   8
ENDBRANCH   1   7
TORSDOF 2
ENDMDL
