MODEL 1
REMARK minimizedAffinity -3.20454741
REMARK minimizedRMSD -1
REMARK  2 active torsions:
REMARK  status: ('A' for Active; 'I' for Inactive)
REMARK    1  A    between atoms: C2'_3  and  C1'_4 
REMARK    2  A    between atoms: C1'_4  and  C1_5 
ROOT
ATOM      1  C1  I4B d   1       5.348  -2.817  -5.172  0.00  0.00    -0.075 A 
ATOM      2  C2  I4B d   1       6.000  -1.826  -5.862  0.00  0.00     0.003 A 
ATOM      3  C3  I4B d   1       5.411  -0.545  -5.996  0.00  0.00     0.002 A 
ATOM      4  C4  I4B d   1       4.156  -0.316  -5.471  0.00  0.00    -0.004 A 
ATOM      5  C5  I4B d   1       3.507  -1.315  -4.752  0.00  0.00     0.002 A 
ATOM      6  C6  I4B d   1       4.111  -2.570  -4.590  0.00  0.00     0.003 A 
ENDROOT
BRANCH   1   7
ATOM      7  C1' I4B d   1       5.984  -4.168  -5.078  0.00  0.00     0.060 C 
BRANCH   7   8
ATOM      8  C2' I4B d   1       4.962  -5.126  -4.501  0.00  0.00    -0.013 C 
ATOM      9  C4' I4B d   1       4.363  -5.996  -5.574  0.00  0.00     0.013 C 
ATOM     10  C3' I4B d   1       5.643  -5.953  -3.451  0.00  0.00     0.013 C 
ENDBRANCH   7   8
ENDBRANCH   1   7
TORSDOF 2
ENDMDL
