MODEL 1
REMARK minimizedAffinity -4.19684649
REMARK minimizedRMSD -1
REMARK  2 active torsions:
REMARK  status: ('A' for Active; 'I' for Inactive)
REMARK    1  A    between atoms: C2'_3  and  C1'_4 
REMARK    2  A    between atoms: C1'_4  and  C1_5 
ROOT
ATOM      1  C1  I4B d   1       4.591  -3.138  -5.566  0.00  0.00    -0.075 A 
ATOM      2  C2  I4B d   1       3.664  -3.878  -4.875  0.00  0.00     0.003 A 
ATOM      3  C3  I4B d   1       3.903  -5.247  -4.605  0.00  0.00     0.002 A 
ATOM      4  C4  I4B d   1       5.050  -5.844  -5.085  0.00  0.00    -0.004 A 
ATOM      5  C5  I4B d   1       5.999  -5.087  -5.767  0.00  0.00     0.002 A 
ATOM      6  C6  I4B d   1       5.774  -3.723  -5.998  0.00  0.00     0.003 A 
ENDROOT
BRANCH   1   7
ATOM      7  C1' I4B d   1       4.291  -1.703  -5.863  0.00  0.00     0.060 C 
BRANCH   7   8
ATOM      8  C2' I4B d   1       5.533  -0.892  -5.548  0.00  0.00    -0.013 C 
ATOM      9  C4' I4B d   1       5.302   0.576  -5.793  0.00  0.00     0.013 C 
ATOM     10  C3' I4B d   1       5.905  -1.151  -4.119  0.00  0.00     0.013 C 
ENDBRANCH   7   8
ENDBRANCH   1   7
TORSDOF 2
ENDMDL
