MODEL 1
REMARK minimizedAffinity -0.870519519
REMARK minimizedRMSD -1
REMARK  0 active torsions:
REMARK  status: ('A' for Active; 'I' for Inactive)
ROOT
ATOM      1  C   UNL d   1       0.051   3.426   0.158  0.00  0.00     0.077 C 
ATOM      2  C1  UNL d   1      -0.150   1.967   0.441  0.00  0.00    -0.074 A 
ATOM      3  C2  UNL d   1      -0.831   1.544   1.587  0.00  0.00    -0.005 A 
ATOM      4  C3  UNL d   1      -1.018   0.183   1.832  0.00  0.00     0.006 A 
ATOM      5  C4  UNL d   1      -0.526  -0.766   0.935  0.00  0.00    -0.005 A 
ATOM      6  C5  UNL d   1       0.157  -0.362  -0.216  0.00  0.00    -0.074 A 
ATOM      7  C6  UNL d   1       0.684  -1.369  -1.195  0.00  0.00     0.077 C 
ATOM      8  C7  UNL d   1       0.335   1.007  -0.459  0.00  0.00    -0.001 A 
ENDROOT
TORSDOF 0
ENDMDL
