MODEL 1
REMARK minimizedAffinity -5.76799202
REMARK minimizedRMSD -1
REMARK  0 active torsions:
REMARK  status: ('A' for Active; 'I' for Inactive)
ROOT
ATOM      1  C   UNL d   1       0.365  -1.080  -0.997  0.00  0.00     0.077 C 
ATOM      2  C1  UNL d   1       0.258   0.414  -0.910  0.00  0.00    -0.074 A 
ATOM      3  C2  UNL d   1       0.982   1.238  -1.778  0.00  0.00    -0.005 A 
ATOM      4  C3  UNL d   1       0.865   2.625  -1.691  0.00  0.00     0.006 A 
ATOM      5  C4  UNL d   1       0.025   3.201  -0.737  0.00  0.00    -0.005 A 
ATOM      6  C5  UNL d   1      -0.707   2.393   0.139  0.00  0.00    -0.074 A 
ATOM      7  C6  UNL d   1      -1.621   2.996   1.163  0.00  0.00     0.077 C 
ATOM      8  C7  UNL d   1      -0.589   1.000   0.041  0.00  0.00    -0.001 A 
ENDROOT
TORSDOF 0
ENDMDL
