MODEL 1
REMARK minimizedAffinity -6.55359507
REMARK minimizedRMSD -1
REMARK  0 active torsions:
REMARK  status: ('A' for Active; 'I' for Inactive)
ROOT
ATOM      1  C   UNL d   1       0.325   3.473  -1.578  0.00  0.00     0.077 C 
ATOM      2  C1  UNL d   1      -0.505   2.779  -0.539  0.00  0.00    -0.074 A 
ATOM      3  C2  UNL d   1      -1.775   3.253  -0.199  0.00  0.00    -0.005 A 
ATOM      4  C3  UNL d   1      -2.539   2.592   0.763  0.00  0.00     0.006 A 
ATOM      5  C4  UNL d   1      -2.041   1.450   1.392  0.00  0.00    -0.005 A 
ATOM      6  C5  UNL d   1      -0.773   0.960   1.064  0.00  0.00    -0.074 A 
ATOM      7  C6  UNL d   1      -0.226  -0.271   1.724  0.00  0.00     0.077 C 
ATOM      8  C7  UNL d   1      -0.014   1.627   0.092  0.00  0.00    -0.001 A 
ENDROOT
TORSDOF 0
ENDMDL
