MODEL 1
REMARK minimizedAffinity -6.43757296
REMARK minimizedRMSD -1
REMARK  0 active torsions:
REMARK  status: ('A' for Active; 'I' for Inactive)
ROOT
ATOM      1  C   UNL d   1      -0.407  -0.714   1.243  0.00  0.00     0.077 C 
ATOM      2  C1  UNL d   1      -0.664   0.594   0.556  0.00  0.00    -0.074 A 
ATOM      3  C2  UNL d   1      -0.182   0.835  -0.735  0.00  0.00    -0.005 A 
ATOM      4  C3  UNL d   1      -0.437   2.052  -1.366  0.00  0.00     0.006 A 
ATOM      5  C4  UNL d   1      -1.177   3.040  -0.714  0.00  0.00    -0.005 A 
ATOM      6  C5  UNL d   1      -1.668   2.817   0.576  0.00  0.00    -0.074 A 
ATOM      7  C6  UNL d   1      -2.473   3.864   1.287  0.00  0.00     0.077 C 
ATOM      8  C7  UNL d   1      -1.413   1.588   1.201  0.00  0.00    -0.001 A 
ENDROOT
TORSDOF 0
ENDMDL
