MODEL 1
REMARK minimizedAffinity -5.86769056
REMARK minimizedRMSD -1
REMARK  0 active torsions:
REMARK  status: ('A' for Active; 'I' for Inactive)
ROOT
ATOM      1  C   UNL d   1      -0.464   1.992  -0.753  0.00  0.00     0.077 C 
ATOM      2  C1  UNL d   1      -0.054   0.728  -1.448  0.00  0.00    -0.074 A 
ATOM      3  C2  UNL d   1       1.249   0.561  -1.927  0.00  0.00    -0.005 A 
ATOM      4  C3  UNL d   1       1.618  -0.624  -2.563  0.00  0.00     0.006 A 
ATOM      5  C4  UNL d   1       0.690  -1.653  -2.725  0.00  0.00    -0.005 A 
ATOM      6  C5  UNL d   1      -0.618  -1.505  -2.252  0.00  0.00    -0.074 A 
ATOM      7  C6  UNL d   1      -1.625  -2.604  -2.410  0.00  0.00     0.077 C 
ATOM      8  C7  UNL d   1      -0.979  -0.313  -1.608  0.00  0.00    -0.001 A 
ENDROOT
TORSDOF 0
ENDMDL
