MODEL 1
REMARK minimizedAffinity -5.322721
REMARK minimizedRMSD -1
REMARK  0 active torsions:
REMARK  status: ('A' for Active; 'I' for Inactive)
ROOT
ATOM      1  C   UNL d   1       0.170   3.009  -1.579  0.00  0.00     0.077 C 
ATOM      2  C1  UNL d   1      -0.689   2.423  -0.498  0.00  0.00    -0.074 A 
ATOM      3  C2  UNL d   1      -0.995   1.058  -0.484  0.00  0.00    -0.005 A 
ATOM      4  C3  UNL d   1      -1.787   0.526   0.533  0.00  0.00     0.006 A 
ATOM      5  C4  UNL d   1      -2.281   1.351   1.544  0.00  0.00    -0.005 A 
ATOM      6  C5  UNL d   1      -1.985   2.718   1.547  0.00  0.00    -0.074 A 
ATOM      7  C6  UNL d   1      -2.500   3.617   2.631  0.00  0.00     0.077 C 
ATOM      8  C7  UNL d   1      -1.182   3.244   0.525  0.00  0.00    -0.001 A 
ENDROOT
TORSDOF 0
ENDMDL
