MODEL 1
REMARK minimizedAffinity -2.49886131
REMARK minimizedRMSD -1
REMARK  0 active torsions:
REMARK  status: ('A' for Active; 'I' for Inactive)
ROOT
ATOM      1  C   UNL d   1       0.267   2.236  -1.882  0.00  0.00     0.077 C 
ATOM      2  C1  UNL d   1       0.347   0.967  -1.087  0.00  0.00    -0.074 A 
ATOM      3  C2  UNL d   1      -0.121   0.913   0.230  0.00  0.00    -0.005 A 
ATOM      4  C3  UNL d   1      -0.049  -0.277   0.954  0.00  0.00     0.006 A 
ATOM      5  C4  UNL d   1       0.490  -1.423   0.370  0.00  0.00    -0.005 A 
ATOM      6  C5  UNL d   1       0.962  -1.389  -0.946  0.00  0.00    -0.074 A 
ATOM      7  C6  UNL d   1       1.536  -2.615  -1.593  0.00  0.00     0.077 C 
ATOM      8  C7  UNL d   1       0.880  -0.191  -1.669  0.00  0.00    -0.001 A 
ENDROOT
TORSDOF 0
ENDMDL
