MODEL 1
REMARK minimizedAffinity -6.17718649
REMARK minimizedRMSD -1
REMARK  0 active torsions:
REMARK  status: ('A' for Active; 'I' for Inactive)
ROOT
ATOM      1  C   UNL d   1      -0.124  -0.211   1.352  0.00  0.00     0.077 C 
ATOM      2  C1  UNL d   1      -0.393   1.142   0.762  0.00  0.00    -0.074 A 
ATOM      3  C2  UNL d   1       0.409   1.650  -0.265  0.00  0.00    -0.005 A 
ATOM      4  C3  UNL d   1       0.140   2.906  -0.811  0.00  0.00     0.006 A 
ATOM      5  C4  UNL d   1      -0.930   3.664  -0.335  0.00  0.00    -0.005 A 
ATOM      6  C5  UNL d   1      -1.743   3.171   0.690  0.00  0.00    -0.074 A 
ATOM      7  C6  UNL d   1      -2.904   3.969   1.206  0.00  0.00     0.077 C 
ATOM      8  C7  UNL d   1      -1.471   1.906   1.228  0.00  0.00    -0.001 A 
ENDROOT
TORSDOF 0
ENDMDL
