MODEL 1
REMARK minimizedAffinity -0.986414492
REMARK minimizedRMSD -1
REMARK  0 active torsions:
REMARK  status: ('A' for Active; 'I' for Inactive)
ROOT
ATOM      1  C   UNL d   1       0.166   3.258  -0.850  0.00  0.00     0.077 C 
ATOM      2  C1  UNL d   1      -0.103   2.068   0.023  0.00  0.00    -0.074 A 
ATOM      3  C2  UNL d   1      -0.739   2.214   1.260  0.00  0.00    -0.005 A 
ATOM      4  C3  UNL d   1      -0.992   1.097   2.057  0.00  0.00     0.006 A 
ATOM      5  C4  UNL d   1      -0.611  -0.174   1.625  0.00  0.00    -0.005 A 
ATOM      6  C5  UNL d   1       0.026  -0.339   0.391  0.00  0.00    -0.074 A 
ATOM      7  C6  UNL d   1       0.433  -1.700  -0.092  0.00  0.00     0.077 C 
ATOM      8  C7  UNL d   1       0.269   0.787  -0.407  0.00  0.00    -0.001 A 
ENDROOT
TORSDOF 0
ENDMDL
