MODEL 1
REMARK minimizedAffinity -3.62911487
REMARK minimizedRMSD -1
REMARK  0 active torsions:
REMARK  status: ('A' for Active; 'I' for Inactive)
ROOT
ATOM      1  C   UNL d   1      -2.180   3.680   2.319  0.00  0.00     0.077 C 
ATOM      2  C1  UNL d   1      -1.386   2.854   1.351  0.00  0.00    -0.074 A 
ATOM      3  C2  UNL d   1      -0.748   3.446   0.256  0.00  0.00    -0.005 A 
ATOM      4  C3  UNL d   1      -0.005   2.666  -0.630  0.00  0.00     0.006 A 
ATOM      5  C4  UNL d   1       0.107   1.289  -0.432  0.00  0.00    -0.005 A 
ATOM      6  C5  UNL d   1      -0.524   0.681   0.658  0.00  0.00    -0.074 A 
ATOM      7  C6  UNL d   1      -0.407  -0.796   0.892  0.00  0.00     0.077 C 
ATOM      8  C7  UNL d   1      -1.263   1.472   1.548  0.00  0.00    -0.001 A 
ENDROOT
TORSDOF 0
ENDMDL
