MODEL 1
REMARK minimizedAffinity -5.58932495
REMARK minimizedRMSD -1
REMARK  0 active torsions:
REMARK  status: ('A' for Active; 'I' for Inactive)
ROOT
ATOM      1  C   UNL d   1       1.117  -2.964  -2.628  0.00  0.00     0.077 C 
ATOM      2  C1  UNL d   1       0.809  -1.606  -2.071  0.00  0.00    -0.074 A 
ATOM      3  C2  UNL d   1       0.616  -0.509  -2.917  0.00  0.00    -0.005 A 
ATOM      4  C3  UNL d   1       0.321   0.746  -2.386  0.00  0.00     0.006 A 
ATOM      5  C4  UNL d   1       0.217   0.917  -1.005  0.00  0.00    -0.005 A 
ATOM      6  C5  UNL d   1       0.406  -0.168  -0.143  0.00  0.00    -0.074 A 
ATOM      7  C6  UNL d   1       0.288  -0.003   1.343  0.00  0.00     0.077 C 
ATOM      8  C7  UNL d   1       0.695  -1.427  -0.685  0.00  0.00    -0.001 A 
ENDROOT
TORSDOF 0
ENDMDL
