MODEL 1
REMARK minimizedAffinity -4.11169052
REMARK minimizedRMSD -1
REMARK  0 active torsions:
REMARK  status: ('A' for Active; 'I' for Inactive)
ROOT
ATOM      1  C   UNL d   1      -2.562   3.108   1.657  0.00  0.00     0.077 C 
ATOM      2  C1  UNL d   1      -1.805   2.051   0.911  0.00  0.00    -0.074 A 
ATOM      3  C2  UNL d   1      -1.666   2.112  -0.480  0.00  0.00    -0.005 A 
ATOM      4  C3  UNL d   1      -0.950   1.126  -1.159  0.00  0.00     0.006 A 
ATOM      5  C4  UNL d   1      -0.368   0.070  -0.456  0.00  0.00    -0.005 A 
ATOM      6  C5  UNL d   1      -0.496  -0.007   0.934  0.00  0.00    -0.074 A 
ATOM      7  C6  UNL d   1       0.132  -1.130   1.706  0.00  0.00     0.077 C 
ATOM      8  C7  UNL d   1      -1.210   0.991   1.611  0.00  0.00    -0.001 A 
ENDROOT
TORSDOF 0
ENDMDL
