MODEL 1
REMARK minimizedAffinity -5.66447115
REMARK minimizedRMSD -1
REMARK  0 active torsions:
REMARK  status: ('A' for Active; 'I' for Inactive)
ROOT
ATOM      1  C   UNL d   1      -0.156  -0.666   0.760  0.00  0.00     0.077 C 
ATOM      2  C1  UNL d   1      -0.769   0.703   0.757  0.00  0.00    -0.074 A 
ATOM      3  C2  UNL d   1      -1.857   1.004   1.583  0.00  0.00    -0.005 A 
ATOM      4  C3  UNL d   1      -2.411   2.284   1.577  0.00  0.00     0.006 A 
ATOM      5  C4  UNL d   1      -1.884   3.274   0.747  0.00  0.00    -0.005 A 
ATOM      6  C5  UNL d   1      -0.796   2.991  -0.085  0.00  0.00    -0.074 A 
ATOM      7  C6  UNL d   1      -0.211   4.046  -0.976  0.00  0.00     0.077 C 
ATOM      8  C7  UNL d   1      -0.240   1.705  -0.068  0.00  0.00    -0.001 A 
ENDROOT
TORSDOF 0
ENDMDL
