MODEL 1
REMARK minimizedAffinity -5.12362719
REMARK minimizedRMSD -1
REMARK  0 active torsions:
REMARK  status: ('A' for Active; 'I' for Inactive)
ROOT
ATOM      1  C   UNL d   1       0.671  -0.704  -0.384  0.00  0.00     0.077 C 
ATOM      2  C1  UNL d   1      -0.012   0.513   0.166  0.00  0.00    -0.074 A 
ATOM      3  C2  UNL d   1      -0.533   0.521   1.464  0.00  0.00    -0.005 A 
ATOM      4  C3  UNL d   1      -1.157   1.664   1.964  0.00  0.00     0.006 A 
ATOM      5  C4  UNL d   1      -1.266   2.808   1.173  0.00  0.00    -0.005 A 
ATOM      6  C5  UNL d   1      -0.751   2.819  -0.127  0.00  0.00    -0.074 A 
ATOM      7  C6  UNL d   1      -0.851   4.044  -0.987  0.00  0.00     0.077 C 
ATOM      8  C7  UNL d   1      -0.119   1.669  -0.620  0.00  0.00    -0.001 A 
ENDROOT
TORSDOF 0
ENDMDL
