MODEL 1
REMARK minimizedAffinity -3.98730254
REMARK minimizedRMSD -1
REMARK  0 active torsions:
REMARK  status: ('A' for Active; 'I' for Inactive)
ROOT
ATOM      1  C   UNL d   1      -2.536   3.710   1.354  0.00  0.00     0.077 C 
ATOM      2  C1  UNL d   1      -1.486   2.965   0.585  0.00  0.00    -0.074 A 
ATOM      3  C2  UNL d   1      -0.720   3.607  -0.393  0.00  0.00    -0.005 A 
ATOM      4  C3  UNL d   1       0.259   2.903  -1.093  0.00  0.00     0.006 A 
ATOM      5  C4  UNL d   1       0.482   1.552  -0.823  0.00  0.00    -0.005 A 
ATOM      6  C5  UNL d   1      -0.273   0.894   0.153  0.00  0.00    -0.074 A 
ATOM      7  C6  UNL d   1      -0.039  -0.555   0.463  0.00  0.00     0.077 C 
ATOM      8  C7  UNL d   1      -1.251   1.610   0.857  0.00  0.00    -0.001 A 
ENDROOT
TORSDOF 0
ENDMDL
