MODEL 1
REMARK minimizedAffinity -5.11466885
REMARK minimizedRMSD -1
REMARK  0 active torsions:
REMARK  status: ('A' for Active; 'I' for Inactive)
ROOT
ATOM      1  C   UNL d   1       0.628  -1.010  -0.468  0.00  0.00     0.077 C 
ATOM      2  C1  UNL d   1      -0.145   0.119   0.147  0.00  0.00    -0.074 A 
ATOM      3  C2  UNL d   1      -1.040  -0.109   1.196  0.00  0.00    -0.005 A 
ATOM      4  C3  UNL d   1      -1.744   0.953   1.764  0.00  0.00     0.006 A 
ATOM      5  C4  UNL d   1      -1.560   2.252   1.289  0.00  0.00    -0.005 A 
ATOM      6  C5  UNL d   1      -0.668   2.500   0.241  0.00  0.00    -0.074 A 
ATOM      7  C6  UNL d   1      -0.450   3.891  -0.275  0.00  0.00     0.077 C 
ATOM      8  C7  UNL d   1       0.041   1.428  -0.320  0.00  0.00    -0.001 A 
ENDROOT
TORSDOF 0
ENDMDL
