MODEL 1
REMARK minimizedAffinity -3.10363793
REMARK minimizedRMSD -1
REMARK  0 active torsions:
REMARK  status: ('A' for Active; 'I' for Inactive)
ROOT
ATOM      1  C1  DEN d   1       0.968  -1.495   3.282  0.00  0.00     0.130 A 
ATOM      2  C2  DEN d   1       0.536  -1.267   1.905  0.00  0.00    -0.031 A 
ATOM      3  C3  DEN d   1       1.728  -0.928   1.103  0.00  0.00     0.027 A 
ATOM      4  C4  DEN d   1       4.189  -0.740   1.852  0.00  0.00     0.027 A 
ATOM      5  C5  DEN d   1       5.045  -0.832   2.927  0.00  0.00    -0.003 A 
ATOM      6  C6  DEN d   1       4.602  -1.116   4.191  0.00  0.00     0.001 A 
ATOM      7  C7  DEN d   1       3.271  -1.363   4.405  0.00  0.00     0.017 A 
ATOM      8  C8  DEN d   1       2.401  -1.264   3.327  0.00  0.00    -0.094 A 
ATOM      9  C9  DEN d   1       2.870  -0.988   2.054  0.00  0.00    -0.072 A 
ENDROOT
TORSDOF 0
ENDMDL
