MODEL 1
REMARK minimizedAffinity 2.70897961
REMARK minimizedRMSD -1
REMARK  0 active torsions:
REMARK  status: ('A' for Active; 'I' for Inactive)
ROOT
ATOM      1  C1  DEN d   1       4.880  -0.729   3.286  0.00  0.00     0.130 A 
ATOM      2  C2  DEN d   1       4.460  -0.489   4.664  0.00  0.00    -0.031 A 
ATOM      3  C3  DEN d   1       2.993  -0.637   4.727  0.00  0.00     0.027 A 
ATOM      4  C4  DEN d   1       1.338  -1.218   2.836  0.00  0.00     0.027 A 
ATOM      5  C5  DEN d   1       1.222  -1.499   1.493  0.00  0.00    -0.003 A 
ATOM      6  C6  DEN d   1       2.304  -1.509   0.653  0.00  0.00     0.001 A 
ATOM      7  C7  DEN d   1       3.557  -1.278   1.157  0.00  0.00     0.017 A 
ATOM      8  C8  DEN d   1       3.681  -0.987   2.509  0.00  0.00    -0.094 A 
ATOM      9  C9  DEN d   1       2.576  -0.993   3.344  0.00  0.00    -0.072 A 
ENDROOT
TORSDOF 0
ENDMDL
