MODEL 1
REMARK minimizedAffinity 1.04991353
REMARK minimizedRMSD -1
REMARK  0 active torsions:
REMARK  status: ('A' for Active; 'I' for Inactive)
ROOT
ATOM      1  C1  DEN d   1      -1.207  -5.565  -3.668  0.00  0.00     0.130 A 
ATOM      2  C2  DEN d   1      -1.991  -5.834  -4.870  0.00  0.00    -0.031 A 
ATOM      3  C3  DEN d   1      -1.053  -6.000  -5.999  0.00  0.00     0.027 A 
ATOM      4  C4  DEN d   1       1.523  -5.870  -6.000  0.00  0.00     0.027 A 
ATOM      5  C5  DEN d   1       2.636  -5.652  -5.219  0.00  0.00    -0.003 A 
ATOM      6  C6  DEN d   1       2.546  -5.359  -3.884  0.00  0.00     0.001 A 
ATOM      7  C7  DEN d   1       1.317  -5.320  -3.280  0.00  0.00     0.017 A 
ATOM      8  C8  DEN d   1       0.190  -5.531  -4.062  0.00  0.00    -0.094 A 
ATOM      9  C9  DEN d   1       0.303  -5.838  -5.407  0.00  0.00    -0.072 A 
ENDROOT
TORSDOF 0
ENDMDL
