MODEL 1
REMARK minimizedAffinity 1.5294795
REMARK minimizedRMSD -1
REMARK  0 active torsions:
REMARK  status: ('A' for Active; 'I' for Inactive)
ROOT
ATOM      1  C1  DEN d   1      -0.814  -5.999  -5.984  0.00  0.00     0.130 A 
ATOM      2  C2  DEN d   1      -1.791  -5.956  -4.900  0.00  0.00    -0.031 A 
ATOM      3  C3  DEN d   1      -1.060  -5.747  -3.635  0.00  0.00     0.027 A 
ATOM      4  C4  DEN d   1       1.477  -5.481  -3.251  0.00  0.00     0.027 A 
ATOM      5  C5  DEN d   1       2.709  -5.460  -3.866  0.00  0.00    -0.003 A 
ATOM      6  C6  DEN d   1       2.855  -5.648  -5.215  0.00  0.00     0.001 A 
ATOM      7  C7  DEN d   1       1.746  -5.823  -6.000  0.00  0.00     0.017 A 
ATOM      8  C8  DEN d   1       0.501  -5.853  -5.386  0.00  0.00    -0.094 A 
ATOM      9  C9  DEN d   1       0.373  -5.648  -4.022  0.00  0.00    -0.072 A 
ENDROOT
TORSDOF 0
ENDMDL
