MODEL 1
REMARK minimizedAffinity 4.26030922
REMARK minimizedRMSD -1
REMARK  0 active torsions:
REMARK  status: ('A' for Active; 'I' for Inactive)
ROOT
ATOM      1  C1  DEN d   1       2.273  -5.003  -3.644  0.00  0.00     0.130 A 
ATOM      2  C2  DEN d   1       3.111  -5.127  -4.834  0.00  0.00    -0.031 A 
ATOM      3  C3  DEN d   1       2.241  -5.497  -5.968  0.00  0.00     0.027 A 
ATOM      4  C4  DEN d   1      -0.308  -5.885  -5.999  0.00  0.00     0.027 A 
ATOM      5  C5  DEN d   1      -1.450  -5.907  -5.228  0.00  0.00    -0.003 A 
ATOM      6  C6  DEN d   1      -1.425  -5.665  -3.880  0.00  0.00     0.001 A 
ATOM      7  C7  DEN d   1      -0.242  -5.345  -3.269  0.00  0.00     0.017 A 
ATOM      8  C8  DEN d   1       0.914  -5.328  -4.038  0.00  0.00    -0.094 A 
ATOM      9  C9  DEN d   1       0.867  -5.564  -5.402  0.00  0.00    -0.072 A 
ENDROOT
TORSDOF 0
ENDMDL
