MODEL 1
REMARK minimizedAffinity 12.9415474
REMARK minimizedRMSD -1
REMARK  0 active torsions:
REMARK  status: ('A' for Active; 'I' for Inactive)
ROOT
ATOM      1  C1  DEN d   1       0.281  -0.071  -0.251  0.00  0.00     0.130 A 
ATOM      2  C2  DEN d   1       1.420  -0.908  -0.616  0.00  0.00    -0.031 A 
ATOM      3  C3  DEN d   1       2.604  -0.036  -0.747  0.00  0.00     0.027 A 
ATOM      4  C4  DEN d   1       2.785   2.516  -0.414  0.00  0.00     0.027 A 
ATOM      5  C5  DEN d   1       2.082   3.660  -0.110  0.00  0.00    -0.003 A 
ATOM      6  C6  DEN d   1       0.734   3.647   0.134  0.00  0.00     0.001 A 
ATOM      7  C7  DEN d   1       0.054   2.458   0.121  0.00  0.00     0.017 A 
ATOM      8  C8  DEN d   1       0.754   1.300  -0.192  0.00  0.00    -0.094 A 
ATOM      9  C9  DEN d   1       2.119   1.333  -0.423  0.00  0.00    -0.072 A 
ENDROOT
TORSDOF 0
ENDMDL
