MODEL 1
REMARK minimizedAffinity 12.2032557
REMARK minimizedRMSD -1
REMARK  0 active torsions:
REMARK  status: ('A' for Active; 'I' for Inactive)
ROOT
ATOM      1  C1  DEN d   1      -0.054  -0.318   1.022  0.00  0.00     0.130 A 
ATOM      2  C2  DEN d   1       0.134   0.052  -0.378  0.00  0.00    -0.031 A 
ATOM      3  C3  DEN d   1       1.544  -0.205  -0.732  0.00  0.00     0.027 A 
ATOM      4  C4  DEN d   1       3.444  -1.139   0.742  0.00  0.00     0.027 A 
ATOM      5  C5  DEN d   1       3.769  -1.587   2.003  0.00  0.00    -0.003 A 
ATOM      6  C6  DEN d   1       2.858  -1.612   3.026  0.00  0.00     0.001 A 
ATOM      7  C7  DEN d   1       1.566  -1.222   2.794  0.00  0.00     0.017 A 
ATOM      8  C8  DEN d   1       1.232  -0.762   1.527  0.00  0.00    -0.094 A 
ATOM      9  C9  DEN d   1       2.164  -0.756   0.503  0.00  0.00    -0.072 A 
ENDROOT
TORSDOF 0
ENDMDL
