MODEL 1
REMARK minimizedAffinity 2.19999361
REMARK minimizedRMSD -1
REMARK  0 active torsions:
REMARK  status: ('A' for Active; 'I' for Inactive)
ROOT
ATOM      1  C1  DEN d   1      -4.251   2.233  -3.765  0.00  0.00     0.130 A 
ATOM      2  C2  DEN d   1      -4.232   0.896  -3.177  0.00  0.00    -0.031 A 
ATOM      3  C3  DEN d   1      -2.824   0.534  -2.915  0.00  0.00     0.027 A 
ATOM      4  C4  DEN d   1      -0.686   1.907  -3.355  0.00  0.00     0.027 A 
ATOM      5  C5  DEN d   1      -0.197   3.095  -3.852  0.00  0.00    -0.003 A 
ATOM      6  C6  DEN d   1      -1.016   4.056  -4.382  0.00  0.00     0.001 A 
ATOM      7  C7  DEN d   1      -2.372   3.866  -4.385  0.00  0.00     0.017 A 
ATOM      8  C8  DEN d   1      -2.872   2.668  -3.893  0.00  0.00    -0.094 A 
ATOM      9  C9  DEN d   1      -2.029   1.713  -3.350  0.00  0.00    -0.072 A 
ENDROOT
TORSDOF 0
ENDMDL
