MODEL 1
REMARK minimizedAffinity 3.9647603
REMARK minimizedRMSD -1
REMARK  0 active torsions:
REMARK  status: ('A' for Active; 'I' for Inactive)
ROOT
ATOM      1  C1  DEN d   1      -1.247  -5.999  -5.988  0.00  0.00     0.130 A 
ATOM      2  C2  DEN d   1      -2.222  -5.313  -5.145  0.00  0.00    -0.031 A 
ATOM      3  C3  DEN d   1      -1.482  -4.481  -4.175  0.00  0.00     0.027 A 
ATOM      4  C4  DEN d   1       1.066  -4.185  -3.903  0.00  0.00     0.027 A 
ATOM      5  C5  DEN d   1       2.298  -4.572  -4.381  0.00  0.00    -0.003 A 
ATOM      6  C6  DEN d   1       2.435  -5.480  -5.398  0.00  0.00     0.001 A 
ATOM      7  C7  DEN d   1       1.319  -5.998  -6.000  0.00  0.00     0.017 A 
ATOM      8  C8  DEN d   1       0.073  -5.619  -5.518  0.00  0.00    -0.094 A 
ATOM      9  C9  DEN d   1      -0.045  -4.690  -4.498  0.00  0.00    -0.072 A 
ENDROOT
TORSDOF 0
ENDMDL
