MODEL 1
REMARK minimizedAffinity 7.47846794
REMARK minimizedRMSD -1
REMARK  0 active torsions:
REMARK  status: ('A' for Active; 'I' for Inactive)
ROOT
ATOM      1  C1  DEN d   1       0.888  -1.068  -0.363  0.00  0.00     0.130 A 
ATOM      2  C2  DEN d   1       0.396   0.148   0.278  0.00  0.00    -0.031 A 
ATOM      3  C3  DEN d   1      -0.983  -0.107   0.743  0.00  0.00     0.027 A 
ATOM      4  C4  DEN d   1      -2.393  -2.257   0.537  0.00  0.00     0.027 A 
ATOM      5  C5  DEN d   1      -2.406  -3.549   0.060  0.00  0.00    -0.003 A 
ATOM      6  C6  DEN d   1      -1.344  -4.089  -0.616  0.00  0.00     0.001 A 
ATOM      7  C7  DEN d   1      -0.206  -3.349  -0.794  0.00  0.00     0.017 A 
ATOM      8  C8  DEN d   1      -0.187  -2.043  -0.323  0.00  0.00    -0.094 A 
ATOM      9  C9  DEN d   1      -1.266  -1.519   0.369  0.00  0.00    -0.072 A 
ENDROOT
TORSDOF 0
ENDMDL
