MODEL 1
REMARK minimizedAffinity 8.0033102
REMARK minimizedRMSD -1
REMARK  0 active torsions:
REMARK  status: ('A' for Active; 'I' for Inactive)
ROOT
ATOM      1  C1  DEN d   1       3.304  -0.088  -0.164  0.00  0.00     0.130 A 
ATOM      2  C2  DEN d   1       1.907  -0.497  -0.283  0.00  0.00    -0.031 A 
ATOM      3  C3  DEN d   1       1.493  -1.088   1.006  0.00  0.00     0.027 A 
ATOM      4  C4  DEN d   1       2.871  -1.403   3.164  0.00  0.00     0.027 A 
ATOM      5  C5  DEN d   1       4.108  -1.221   3.742  0.00  0.00    -0.003 A 
ATOM      6  C6  DEN d   1       5.164  -0.684   3.055  0.00  0.00     0.001 A 
ATOM      7  C7  DEN d   1       4.990  -0.268   1.761  0.00  0.00     0.017 A 
ATOM      8  C8  DEN d   1       3.749  -0.456   1.168  0.00  0.00    -0.094 A 
ATOM      9  C9  DEN d   1       2.690  -0.989   1.884  0.00  0.00    -0.072 A 
ENDROOT
TORSDOF 0
ENDMDL
