MODEL 1
REMARK minimizedAffinity 3.4158504
REMARK minimizedRMSD -1
REMARK  0 active torsions:
REMARK  status: ('A' for Active; 'I' for Inactive)
ROOT
ATOM      1  C1  DEN d   1      -0.867  -5.999  -5.999  0.00  0.00     0.130 A 
ATOM      2  C2  DEN d   1      -1.860  -5.696  -4.972  0.00  0.00    -0.031 A 
ATOM      3  C3  DEN d   1      -1.145  -5.225  -3.769  0.00  0.00     0.027 A 
ATOM      4  C4  DEN d   1       1.392  -4.935  -3.401  0.00  0.00     0.027 A 
ATOM      5  C5  DEN d   1       2.633  -5.076  -3.979  0.00  0.00    -0.003 A 
ATOM      6  C6  DEN d   1       2.796  -5.563  -5.249  0.00  0.00     0.001 A 
ATOM      7  C7  DEN d   1       1.696  -5.884  -5.999  0.00  0.00     0.017 A 
ATOM      8  C8  DEN d   1       0.441  -5.751  -5.420  0.00  0.00    -0.094 A 
ATOM      9  C9  DEN d   1       0.296  -5.246  -4.139  0.00  0.00    -0.072 A 
ENDROOT
TORSDOF 0
ENDMDL
