MODEL 1
REMARK minimizedAffinity -1.24849164
REMARK minimizedRMSD -1
REMARK  0 active torsions:
REMARK  status: ('A' for Active; 'I' for Inactive)
ROOT
ATOM      1  C1  DEN d   1      -1.361  -5.911  -5.683  0.00  0.00     0.130 A 
ATOM      2  C2  DEN d   1       0.061  -5.805  -6.000  0.00  0.00    -0.031 A 
ATOM      3  C3  DEN d   1       0.810  -5.772  -4.728  0.00  0.00     0.027 A 
ATOM      4  C4  DEN d   1      -0.087  -5.880  -2.312  0.00  0.00     0.027 A 
ATOM      5  C5  DEN d   1      -1.225  -5.963  -1.540  0.00  0.00    -0.003 A 
ATOM      6  C6  DEN d   1      -2.479  -6.000  -2.089  0.00  0.00     0.001 A 
ATOM      7  C7  DEN d   1      -2.624  -5.999  -3.452  0.00  0.00     0.017 A 
ATOM      8  C8  DEN d   1      -1.482  -5.908  -4.237  0.00  0.00    -0.094 A 
ATOM      9  C9  DEN d   1      -0.222  -5.885  -3.663  0.00  0.00    -0.072 A 
ENDROOT
TORSDOF 0
ENDMDL
