MODEL 1
REMARK minimizedAffinity -3.24260449
REMARK minimizedRMSD -1
REMARK  0 active torsions:
REMARK  status: ('A' for Active; 'I' for Inactive)
ROOT
ATOM      1  C1  DEN d   1      -4.944  -5.933   0.997  0.00  0.00     0.130 A 
ATOM      2  C2  DEN d   1      -3.858  -5.963   1.974  0.00  0.00    -0.031 A 
ATOM      3  C3  DEN d   1      -2.580  -5.997   1.234  0.00  0.00     0.027 A 
ATOM      4  C4  DEN d   1      -2.179  -5.999  -1.314  0.00  0.00     0.027 A 
ATOM      5  C5  DEN d   1      -2.793  -5.992  -2.547  0.00  0.00    -0.003 A 
ATOM      6  C6  DEN d   1      -4.156  -6.000  -2.684  0.00  0.00     0.001 A 
ATOM      7  C7  DEN d   1      -4.950  -5.969  -1.568  0.00  0.00     0.017 A 
ATOM      8  C8  DEN d   1      -4.339  -5.983  -0.322  0.00  0.00    -0.094 A 
ATOM      9  C9  DEN d   1      -2.959  -5.963  -0.204  0.00  0.00    -0.072 A 
ENDROOT
TORSDOF 0
ENDMDL
