MODEL 1
REMARK minimizedAffinity 15.7767515
REMARK minimizedRMSD -1
REMARK  0 active torsions:
REMARK  status: ('A' for Active; 'I' for Inactive)
ROOT
ATOM      1  N1  IND d   1      -5.952   5.999   4.948  0.00  0.00    -0.196 N 
ATOM      2  C2  IND d   1      -5.876   5.128   5.998  0.00  0.00     0.054 A 
ATOM      3  C3  IND d   1      -5.739   3.860   5.549  0.00  0.00    -0.031 A 
ATOM      4  C4  IND d   1      -5.515   2.995   3.135  0.00  0.00     0.051 A 
ATOM      5  C5  IND d   1      -5.563   3.409   1.833  0.00  0.00    -0.031 A 
ATOM      6  C6  IND d   1      -5.744   4.735   1.497  0.00  0.00     0.015 A 
ATOM      7  C7  IND d   1      -5.873   5.702   2.454  0.00  0.00    -0.016 A 
ATOM      8  C8  IND d   1      -5.832   5.284   3.776  0.00  0.00    -0.047 A 
ATOM      9  C9  IND d   1      -5.691   3.934   4.123  0.00  0.00    -0.096 A 
ATOM     10  HN1 IND d   1      -6.057   6.850   5.008  0.00  0.00     0.298 HD
ENDROOT
TORSDOF 0
ENDMDL
