MODEL 1
REMARK minimizedAffinity 14.5647726
REMARK minimizedRMSD -1
REMARK  0 active torsions:
REMARK  status: ('A' for Active; 'I' for Inactive)
ROOT
ATOM      1  N1  IND d   1      -5.990   0.402  -0.310  0.00  0.00    -0.196 N 
ATOM      2  C2  IND d   1      -4.993   0.388   0.626  0.00  0.00     0.054 A 
ATOM      3  C3  IND d   1      -3.784   0.321   0.024  0.00  0.00    -0.031 A 
ATOM      4  C4  IND d   1      -3.203   0.328  -2.483  0.00  0.00     0.051 A 
ATOM      5  C5  IND d   1      -3.778   0.294  -3.723  0.00  0.00    -0.031 A 
ATOM      6  C6  IND d   1      -5.147   0.297  -3.891  0.00  0.00     0.015 A 
ATOM      7  C7  IND d   1      -5.996   0.346  -2.822  0.00  0.00    -0.016 A 
ATOM      8  C8  IND d   1      -5.416   0.374  -1.562  0.00  0.00    -0.047 A 
ATOM      9  C9  IND d   1      -4.027   0.328  -1.383  0.00  0.00    -0.096 A 
ATOM     10  HN1 IND d   1      -6.833   0.425  -0.144  0.00  0.00     0.298 HD
ENDROOT
TORSDOF 0
ENDMDL
