MODEL 1
REMARK minimizedAffinity 7.88347626
REMARK minimizedRMSD -1
REMARK  0 active torsions:
REMARK  status: ('A' for Active; 'I' for Inactive)
ROOT
ATOM      1  N1  IND d   1       5.247   5.074  -1.061  0.00  0.00    -0.196 N 
ATOM      2  C2  IND d   1       5.550   5.525   0.193  0.00  0.00     0.054 A 
ATOM      3  C3  IND d   1       5.098   4.658   1.127  0.00  0.00    -0.031 A 
ATOM      4  C4  IND d   1       3.924   2.388   0.819  0.00  0.00     0.051 A 
ATOM      5  C5  IND d   1       3.398   1.568  -0.140  0.00  0.00    -0.031 A 
ATOM      6  C6  IND d   1       3.466   1.880  -1.482  0.00  0.00     0.015 A 
ATOM      7  C7  IND d   1       4.074   3.023  -1.918  0.00  0.00    -0.016 A 
ATOM      8  C8  IND d   1       4.603   3.861  -0.947  0.00  0.00    -0.047 A 
ATOM      9  C9  IND d   1       4.500   3.571   0.420  0.00  0.00    -0.096 A 
ATOM     10  HN1 IND d   1       5.427   5.479  -1.798  0.00  0.00     0.298 HD
ENDROOT
TORSDOF 0
ENDMDL
