MODEL 1
REMARK minimizedAffinity 19.4080658
REMARK minimizedRMSD -1
REMARK  0 active torsions:
REMARK  status: ('A' for Active; 'I' for Inactive)
ROOT
ATOM      1  N1  IND d   1       5.354   5.542  -1.673  0.00  0.00    -0.196 N 
ATOM      2  C2  IND d   1       5.945   5.899  -2.853  0.00  0.00     0.054 A 
ATOM      3  C3  IND d   1       5.781   4.924  -3.775  0.00  0.00    -0.031 A 
ATOM      4  C4  IND d   1       4.491   2.703  -3.595  0.00  0.00     0.051 A 
ATOM      5  C5  IND d   1       3.814   1.920  -2.703  0.00  0.00    -0.031 A 
ATOM      6  C6  IND d   1       3.610   2.313  -1.396  0.00  0.00     0.015 A 
ATOM      7  C7  IND d   1       4.067   3.514  -0.934  0.00  0.00    -0.016 A 
ATOM      8  C8  IND d   1       4.760   4.310  -1.835  0.00  0.00    -0.047 A 
ATOM      9  C9  IND d   1       5.008   3.897  -3.151  0.00  0.00    -0.096 A 
ATOM     10  HN1 IND d   1       5.354   6.009  -0.951  0.00  0.00     0.298 HD
ENDROOT
TORSDOF 0
ENDMDL
