MODEL 1
REMARK minimizedAffinity 12.0261421
REMARK minimizedRMSD -1
REMARK  0 active torsions:
REMARK  status: ('A' for Active; 'I' for Inactive)
ROOT
ATOM      1  N1  IND d   1       3.254  -0.009  -3.020  0.00  0.00    -0.196 N 
ATOM      2  C2  IND d   1       3.755   1.263  -3.012  0.00  0.00     0.054 A 
ATOM      3  C3  IND d   1       3.734   1.768  -1.758  0.00  0.00    -0.031 A 
ATOM      4  C4  IND d   1       3.018   0.646   0.446  0.00  0.00     0.051 A 
ATOM      5  C5  IND d   1       2.456  -0.498   0.939  0.00  0.00    -0.031 A 
ATOM      6  C6  IND d   1       2.128  -1.560   0.122  0.00  0.00     0.015 A 
ATOM      7  C7  IND d   1       2.360  -1.522  -1.224  0.00  0.00    -0.016 A 
ATOM      8  C8  IND d   1       2.924  -0.359  -1.730  0.00  0.00    -0.047 A 
ATOM      9  C9  IND d   1       3.220   0.739  -0.911  0.00  0.00    -0.096 A 
ATOM     10  HN1 IND d   1       3.162  -0.507  -3.715  0.00  0.00     0.298 HD
ENDROOT
TORSDOF 0
ENDMDL
