MODEL 1
REMARK minimizedAffinity 13.5385981
REMARK minimizedRMSD -1
REMARK  0 active torsions:
REMARK  status: ('A' for Active; 'I' for Inactive)
ROOT
ATOM      1  N1  IND d   1       2.804  -0.225  -1.243  0.00  0.00    -0.196 N 
ATOM      2  C2  IND d   1       2.221   0.085  -0.046  0.00  0.00     0.054 A 
ATOM      3  C3  IND d   1       2.327   1.411   0.199  0.00  0.00    -0.031 A 
ATOM      4  C4  IND d   1       3.326   3.272  -1.274  0.00  0.00     0.051 A 
ATOM      5  C5  IND d   1       4.009   3.472  -2.440  0.00  0.00    -0.031 A 
ATOM      6  C6  IND d   1       4.329   2.430  -3.286  0.00  0.00     0.015 A 
ATOM      7  C7  IND d   1       3.967   1.144  -3.000  0.00  0.00    -0.016 A 
ATOM      8  C8  IND d   1       3.279   0.935  -1.813  0.00  0.00    -0.047 A 
ATOM      9  C9  IND d   1       2.989   1.983  -0.930  0.00  0.00    -0.096 A 
ATOM     10  HN1 IND d   1       2.864  -1.013  -1.583  0.00  0.00     0.298 HD
ENDROOT
TORSDOF 0
ENDMDL
