MODEL 1
REMARK minimizedAffinity 11.4522524
REMARK minimizedRMSD -1
REMARK  0 active torsions:
REMARK  status: ('A' for Active; 'I' for Inactive)
ROOT
ATOM      1  N1  IND d   1       6.000   4.408  -3.841  0.00  0.00    -0.196 N 
ATOM      2  C2  IND d   1       5.918   5.511  -3.038  0.00  0.00     0.054 A 
ATOM      3  C3  IND d   1       4.935   5.355  -2.122  0.00  0.00    -0.031 A 
ATOM      4  C4  IND d   1       3.404   3.330  -1.696  0.00  0.00     0.051 A 
ATOM      5  C5  IND d   1       3.080   2.100  -2.197  0.00  0.00    -0.031 A 
ATOM      6  C6  IND d   1       3.727   1.565  -3.291  0.00  0.00     0.015 A 
ATOM      7  C7  IND d   1       4.736   2.238  -3.922  0.00  0.00    -0.016 A 
ATOM      8  C8  IND d   1       5.062   3.490  -3.421  0.00  0.00    -0.047 A 
ATOM      9  C9  IND d   1       4.380   4.056  -2.336  0.00  0.00    -0.096 A 
ATOM     10  HN1 IND d   1       6.545   4.305  -4.498  0.00  0.00     0.298 HD
ENDROOT
TORSDOF 0
ENDMDL
