MODEL 1
REMARK minimizedAffinity 17.8702736
REMARK minimizedRMSD -1
REMARK  0 active torsions:
REMARK  status: ('A' for Active; 'I' for Inactive)
ROOT
ATOM      1  N1  IND d   1       3.594   0.997  -3.407  0.00  0.00    -0.196 N 
ATOM      2  C2  IND d   1       3.744   1.955  -2.443  0.00  0.00     0.054 A 
ATOM      3  C3  IND d   1       3.310   1.492  -1.250  0.00  0.00    -0.031 A 
ATOM      4  C4  IND d   1       2.410  -0.838  -0.627  0.00  0.00     0.051 A 
ATOM      5  C5  IND d   1       2.055  -2.038  -1.177  0.00  0.00    -0.031 A 
ATOM      6  C6  IND d   1       2.201  -2.293  -2.526  0.00  0.00     0.015 A 
ATOM      7  C7  IND d   1       2.719  -1.358  -3.376  0.00  0.00    -0.016 A 
ATOM      8  C8  IND d   1       3.074  -0.136  -2.822  0.00  0.00    -0.047 A 
ATOM      9  C9  IND d   1       2.889   0.144  -1.462  0.00  0.00    -0.096 A 
ATOM     10  HN1 IND d   1       3.791   1.088  -4.239  0.00  0.00     0.298 HD
ENDROOT
TORSDOF 0
ENDMDL
