MODEL 1
REMARK minimizedAffinity 6.84779167
REMARK minimizedRMSD -1
REMARK  0 active torsions:
REMARK  status: ('A' for Active; 'I' for Inactive)
ROOT
ATOM      1  N1  IND d   1      -0.756  -4.658  -0.032  0.00  0.00    -0.196 N 
ATOM      2  C2  IND d   1      -1.869  -5.060  -0.715  0.00  0.00     0.054 A 
ATOM      3  C3  IND d   1      -1.998  -4.355  -1.861  0.00  0.00    -0.031 A 
ATOM      4  C4  IND d   1      -0.443  -2.565  -2.864  0.00  0.00     0.051 A 
ATOM      5  C5  IND d   1       0.680  -1.837  -2.587  0.00  0.00    -0.031 A 
ATOM      6  C6  IND d   1       1.398  -2.018  -1.423  0.00  0.00     0.015 A 
ATOM      7  C7  IND d   1       1.024  -2.946  -0.492  0.00  0.00    -0.016 A 
ATOM      8  C8  IND d   1      -0.119  -3.682  -0.766  0.00  0.00    -0.047 A 
ATOM      9  C9  IND d   1      -0.876  -3.473  -1.927  0.00  0.00    -0.096 A 
ATOM     10  HN1 IND d   1      -0.496  -4.964   0.729  0.00  0.00     0.298 HD
ENDROOT
TORSDOF 0
ENDMDL
