MODEL 1
REMARK minimizedAffinity 7.4020052
REMARK minimizedRMSD -1
REMARK  0 active torsions:
REMARK  status: ('A' for Active; 'I' for Inactive)
ROOT
ATOM      1  N1  IND d   1      -3.960   4.715   5.146  0.00  0.00    -0.196 N 
ATOM      2  C2  IND d   1      -5.059   5.363   5.638  0.00  0.00     0.054 A 
ATOM      3  C3  IND d   1      -5.995   5.502   4.672  0.00  0.00    -0.031 A 
ATOM      4  C4  IND d   1      -5.976   4.653   2.242  0.00  0.00     0.051 A 
ATOM      5  C5  IND d   1      -5.174   4.038   1.322  0.00  0.00    -0.031 A 
ATOM      6  C6  IND d   1      -3.901   3.607   1.637  0.00  0.00     0.015 A 
ATOM      7  C7  IND d   1      -3.386   3.764   2.892  0.00  0.00    -0.016 A 
ATOM      8  C8  IND d   1      -4.195   4.394   3.827  0.00  0.00    -0.047 A 
ATOM      9  C9  IND d   1      -5.471   4.873   3.502  0.00  0.00    -0.096 A 
ATOM     10  HN1 IND d   1      -3.243   4.538   5.586  0.00  0.00     0.298 HD
ENDROOT
TORSDOF 0
ENDMDL
