MODEL 1
REMARK minimizedAffinity 15.0999117
REMARK minimizedRMSD -1
REMARK  0 active torsions:
REMARK  status: ('A' for Active; 'I' for Inactive)
ROOT
ATOM      1  N1  IND d   1       3.134   1.176  -1.707  0.00  0.00    -0.196 N 
ATOM      2  C2  IND d   1       3.696   1.846  -0.657  0.00  0.00     0.054 A 
ATOM      3  C3  IND d   1       3.539   1.144   0.487  0.00  0.00    -0.031 A 
ATOM      4  C4  IND d   1       2.483  -1.176   0.851  0.00  0.00     0.051 A 
ATOM      5  C5  IND d   1       1.802  -2.164   0.198  0.00  0.00    -0.031 A 
ATOM      6  C6  IND d   1       1.527  -2.089  -1.153  0.00  0.00     0.015 A 
ATOM      7  C7  IND d   1       1.935  -1.024  -1.905  0.00  0.00    -0.016 A 
ATOM      8  C8  IND d   1       2.620  -0.015  -1.243  0.00  0.00    -0.047 A 
ATOM      9  C9  IND d   1       2.865  -0.066   0.136  0.00  0.00    -0.096 A 
ATOM     10  HN1 IND d   1       3.106   1.451  -2.521  0.00  0.00     0.298 HD
ENDROOT
TORSDOF 0
ENDMDL
