MODEL 1
REMARK minimizedAffinity 4.96559525
REMARK minimizedRMSD -1
REMARK  0 active torsions:
REMARK  status: ('A' for Active; 'I' for Inactive)
ROOT
ATOM      1  C1  BNZ d   1       0.227  -1.233   2.518  0.00  0.00     0.000 A 
ATOM      2  C2  BNZ d   1      -1.089  -1.453   2.212  0.00  0.00     0.000 A 
ATOM      3  C3  BNZ d   1      -1.694  -2.637   2.532  0.00  0.00     0.000 A 
ATOM      4  C4  BNZ d   1      -0.972  -3.612   3.120  0.00  0.00     0.000 A 
ATOM      5  C5  BNZ d   1       0.359  -3.409   3.427  0.00  0.00     0.000 A 
ATOM      6  C6  BNZ d   1       0.954  -2.202   3.139  0.00  0.00     0.000 A 
ENDROOT
TORSDOF 0
ENDMDL
