MODEL 1
REMARK minimizedAffinity 3.02490926
REMARK minimizedRMSD -1
REMARK  0 active torsions:
REMARK  status: ('A' for Active; 'I' for Inactive)
ROOT
ATOM      1  C1  BNZ d   1       6.000  -3.436  -3.900  0.00  0.00     0.000 A 
ATOM      2  C2  BNZ d   1       5.980  -4.369  -4.903  0.00  0.00     0.000 A 
ATOM      3  C3  BNZ d   1       5.126  -4.240  -5.962  0.00  0.00     0.000 A 
ATOM      4  C4  BNZ d   1       4.267  -3.201  -5.998  0.00  0.00     0.000 A 
ATOM      5  C5  BNZ d   1       4.268  -2.257  -4.991  0.00  0.00     0.000 A 
ATOM      6  C6  BNZ d   1       5.156  -2.369  -3.945  0.00  0.00     0.000 A 
ENDROOT
TORSDOF 0
ENDMDL
