MODEL 1
REMARK minimizedAffinity 3.43211174
REMARK minimizedRMSD -1
REMARK  0 active torsions:
REMARK  status: ('A' for Active; 'I' for Inactive)
ROOT
ATOM      1  C1  BNZ d   1      -1.313   2.375  -1.740  0.00  0.00     0.000 A 
ATOM      2  C2  BNZ d   1      -0.632   3.388  -2.362  0.00  0.00     0.000 A 
ATOM      3  C3  BNZ d   1       0.604   3.772  -1.925  0.00  0.00     0.000 A 
ATOM      4  C4  BNZ d   1       1.142   3.171  -0.844  0.00  0.00     0.000 A 
ATOM      5  C5  BNZ d   1       0.465   2.155  -0.200  0.00  0.00     0.000 A 
ATOM      6  C6  BNZ d   1      -0.763   1.745  -0.666  0.00  0.00     0.000 A 
ENDROOT
TORSDOF 0
ENDMDL
