MODEL 1
REMARK minimizedAffinity 5.59115505
REMARK minimizedRMSD -1
REMARK  0 active torsions:
REMARK  status: ('A' for Active; 'I' for Inactive)
ROOT
ATOM      1  C1  BNZ d   1      -2.459   3.796  -2.147  0.00  0.00     0.000 A 
ATOM      2  C2  BNZ d   1      -3.523   4.204  -1.387  0.00  0.00     0.000 A 
ATOM      3  C3  BNZ d   1      -4.602   3.387  -1.199  0.00  0.00     0.000 A 
ATOM      4  C4  BNZ d   1      -4.634   2.180  -1.801  0.00  0.00     0.000 A 
ATOM      5  C5  BNZ d   1      -3.573   1.758  -2.577  0.00  0.00     0.000 A 
ATOM      6  C6  BNZ d   1      -2.471   2.568  -2.733  0.00  0.00     0.000 A 
ENDROOT
TORSDOF 0
ENDMDL
