MODEL 1
REMARK minimizedAffinity 2.08988905
REMARK minimizedRMSD -1
REMARK  0 active torsions:
REMARK  status: ('A' for Active; 'I' for Inactive)
ROOT
ATOM      1  C1  BNZ d   1      -0.505  -0.754   4.383  0.00  0.00     0.000 A 
ATOM      2  C2  BNZ d   1       0.576  -0.487   3.586  0.00  0.00     0.000 A 
ATOM      3  C3  BNZ d   1       0.921  -1.332   2.568  0.00  0.00     0.000 A 
ATOM      4  C4  BNZ d   1       0.210  -2.462   2.375  0.00  0.00     0.000 A 
ATOM      5  C5  BNZ d   1      -0.877  -2.750   3.177  0.00  0.00     0.000 A 
ATOM      6  C6  BNZ d   1      -1.245  -1.877   4.175  0.00  0.00     0.000 A 
ENDROOT
TORSDOF 0
ENDMDL
