MODEL 1
REMARK minimizedAffinity 7.0718956
REMARK minimizedRMSD -1
REMARK  0 active torsions:
REMARK  status: ('A' for Active; 'I' for Inactive)
ROOT
ATOM      1  C1  BNZ d   1      -2.882  -3.593   2.376  0.00  0.00     0.000 A 
ATOM      2  C2  BNZ d   1      -2.933  -4.377   1.254  0.00  0.00     0.000 A 
ATOM      3  C3  BNZ d   1      -4.093  -4.504   0.542  0.00  0.00     0.000 A 
ATOM      4  C4  BNZ d   1      -5.208  -3.881   0.974  0.00  0.00     0.000 A 
ATOM      5  C5  BNZ d   1      -5.175  -3.096   2.109  0.00  0.00     0.000 A 
ATOM      6  C6  BNZ d   1      -3.996  -2.938   2.801  0.00  0.00     0.000 A 
ENDROOT
TORSDOF 0
ENDMDL
