MODEL 1
REMARK minimizedAffinity 8.64770889
REMARK minimizedRMSD -1
REMARK  0 active torsions:
REMARK  status: ('A' for Active; 'I' for Inactive)
ROOT
ATOM      1  C1  BNZ d   1      -0.564  -2.557   1.806  0.00  0.00     0.000 A 
ATOM      2  C2  BNZ d   1       0.446  -1.655   2.008  0.00  0.00     0.000 A 
ATOM      3  C3  BNZ d   1       0.396  -0.770   3.049  0.00  0.00     0.000 A 
ATOM      4  C4  BNZ d   1      -0.682  -0.761   3.860  0.00  0.00     0.000 A 
ATOM      5  C5  BNZ d   1      -1.713  -1.658   3.664  0.00  0.00     0.000 A 
ATOM      6  C6  BNZ d   1      -1.641  -2.573   2.639  0.00  0.00     0.000 A 
ENDROOT
TORSDOF 0
ENDMDL
