MODEL 1
REMARK minimizedAffinity 2.93248534
REMARK minimizedRMSD -1
REMARK  0 active torsions:
REMARK  status: ('A' for Active; 'I' for Inactive)
ROOT
ATOM      1  C1  BNZ d   1       0.048  -0.851   3.449  0.00  0.00     0.000 A 
ATOM      2  C2  BNZ d   1       0.109  -0.134   4.614  0.00  0.00     0.000 A 
ATOM      3  C3  BNZ d   1      -0.730  -0.418   5.655  0.00  0.00     0.000 A 
ATOM      4  C4  BNZ d   1      -1.655  -1.390   5.516  0.00  0.00     0.000 A 
ATOM      5  C5  BNZ d   1      -1.735  -2.116   4.344  0.00  0.00     0.000 A 
ATOM      6  C6  BNZ d   1      -0.862  -1.853   3.312  0.00  0.00     0.000 A 
ENDROOT
TORSDOF 0
ENDMDL
