MODEL 1
REMARK minimizedAffinity 4.56259394
REMARK minimizedRMSD -1
REMARK  0 active torsions:
REMARK  status: ('A' for Active; 'I' for Inactive)
ROOT
ATOM      1  C1  BNZ d   1       0.415  -5.068  -2.811  0.00  0.00     0.000 A 
ATOM      2  C2  BNZ d   1       0.090  -5.995  -3.766  0.00  0.00     0.000 A 
ATOM      3  C3  BNZ d   1       0.717  -5.999  -4.980  0.00  0.00     0.000 A 
ATOM      4  C4  BNZ d   1       1.640  -5.054  -5.253  0.00  0.00     0.000 A 
ATOM      5  C5  BNZ d   1       1.972  -4.107  -4.305  0.00  0.00     0.000 A 
ATOM      6  C6  BNZ d   1       1.366  -4.130  -3.069  0.00  0.00     0.000 A 
ENDROOT
TORSDOF 0
ENDMDL
