MODEL 1
REMARK minimizedAffinity 1.9111433
REMARK minimizedRMSD -1
REMARK  0 active torsions:
REMARK  status: ('A' for Active; 'I' for Inactive)
ROOT
ATOM      1  C1  BNZ d   1       0.075  -1.019   4.446  0.00  0.00     0.000 A 
ATOM      2  C2  BNZ d   1      -0.592  -0.682   5.593  0.00  0.00     0.000 A 
ATOM      3  C3  BNZ d   1      -1.689  -1.389   5.999  0.00  0.00     0.000 A 
ATOM      4  C4  BNZ d   1      -2.142  -2.406   5.236  0.00  0.00     0.000 A 
ATOM      5  C5  BNZ d   1      -1.486  -2.752   4.072  0.00  0.00     0.000 A 
ATOM      6  C6  BNZ d   1      -0.359  -2.062   3.687  0.00  0.00     0.000 A 
ENDROOT
TORSDOF 0
ENDMDL
