MODEL 1
REMARK minimizedAffinity 1.49242055
REMARK minimizedRMSD -1
REMARK  0 active torsions:
REMARK  status: ('A' for Active; 'I' for Inactive)
ROOT
ATOM      1  C1  BNZ d   1       2.857  -4.581  -4.810  0.00  0.00     0.000 A 
ATOM      2  C2  BNZ d   1       2.263  -4.940  -5.990  0.00  0.00     0.000 A 
ATOM      3  C3  BNZ d   1       1.084  -5.632  -5.999  0.00  0.00     0.000 A 
ATOM      4  C4  BNZ d   1       0.522  -5.999  -4.829  0.00  0.00     0.000 A 
ATOM      5  C5  BNZ d   1       1.113  -5.653  -3.631  0.00  0.00     0.000 A 
ATOM      6  C6  BNZ d   1       2.280  -4.923  -3.626  0.00  0.00     0.000 A 
ENDROOT
TORSDOF 0
ENDMDL
