MODEL 1
REMARK minimizedAffinity 0.138947457
REMARK minimizedRMSD -1
REMARK  0 active torsions:
REMARK  status: ('A' for Active; 'I' for Inactive)
ROOT
ATOM      1  C1  BNZ d   1      -1.079  -1.927   3.486  0.00  0.00     0.000 A 
ATOM      2  C2  BNZ d   1      -1.809  -2.189   4.615  0.00  0.00     0.000 A 
ATOM      3  C3  BNZ d   1      -1.594  -1.485   5.767  0.00  0.00     0.000 A 
ATOM      4  C4  BNZ d   1      -0.624  -0.549   5.800  0.00  0.00     0.000 A 
ATOM      5  C5  BNZ d   1       0.127  -0.279   4.673  0.00  0.00     0.000 A 
ATOM      6  C6  BNZ d   1      -0.119  -0.963   3.504  0.00  0.00     0.000 A 
ENDROOT
TORSDOF 0
ENDMDL
