MODEL 1
REMARK minimizedAffinity 7.63994265
REMARK minimizedRMSD -1
REMARK  0 active torsions:
REMARK  status: ('A' for Active; 'I' for Inactive)
ROOT
ATOM      1  C1  BNZ d   1      -3.076   2.025  -2.498  0.00  0.00     0.000 A 
ATOM      2  C2  BNZ d   1      -1.959   1.592  -1.834  0.00  0.00     0.000 A 
ATOM      3  C3  BNZ d   1      -0.786   2.292  -1.907  0.00  0.00     0.000 A 
ATOM      4  C4  BNZ d   1      -0.722   3.400  -2.673  0.00  0.00     0.000 A 
ATOM      5  C5  BNZ d   1      -1.837   3.844  -3.356  0.00  0.00     0.000 A 
ATOM      6  C6  BNZ d   1      -3.026   3.159  -3.249  0.00  0.00     0.000 A 
ENDROOT
TORSDOF 0
ENDMDL
