MODEL 1
REMARK minimizedAffinity 7.95992994
REMARK minimizedRMSD -1
REMARK  0 active torsions:
REMARK  status: ('A' for Active; 'I' for Inactive)
ROOT
ATOM      1  C1  BNZ d   1       1.083  -2.454   2.518  0.00  0.00     0.000 A 
ATOM      2  C2  BNZ d   1       0.328  -2.288   3.648  0.00  0.00     0.000 A 
ATOM      3  C3  BNZ d   1       0.410  -1.137   4.382  0.00  0.00     0.000 A 
ATOM      4  C4  BNZ d   1       1.275  -0.173   4.008  0.00  0.00     0.000 A 
ATOM      5  C5  BNZ d   1       2.050  -0.329   2.876  0.00  0.00     0.000 A 
ATOM      6  C6  BNZ d   1       1.936  -1.472   2.119  0.00  0.00     0.000 A 
ENDROOT
TORSDOF 0
ENDMDL
