MODEL 1
REMARK minimizedAffinity 3.58697033
REMARK minimizedRMSD -1
REMARK  0 active torsions:
REMARK  status: ('A' for Active; 'I' for Inactive)
ROOT
ATOM      1  C1  BNZ d   1       2.609  -3.927  -4.989  0.00  0.00     0.000 A 
ATOM      2  C2  BNZ d   1       1.541  -3.936  -4.132  0.00  0.00     0.000 A 
ATOM      3  C3  BNZ d   1       0.662  -4.983  -4.120  0.00  0.00     0.000 A 
ATOM      4  C4  BNZ d   1       0.830  -5.999  -4.991  0.00  0.00     0.000 A 
ATOM      5  C5  BNZ d   1       1.896  -6.000  -5.868  0.00  0.00     0.000 A 
ATOM      6  C6  BNZ d   1       2.801  -4.963  -5.850  0.00  0.00     0.000 A 
ENDROOT
TORSDOF 0
ENDMDL
