MODEL 1
REMARK minimizedAffinity 17.0430775
REMARK minimizedRMSD -1
REMARK  0 active torsions:
REMARK  status: ('A' for Active; 'I' for Inactive)
ROOT
ATOM      1  C1  BNZ d   1       1.055   0.279   1.275  0.00  0.00     0.000 A 
ATOM      2  C2  BNZ d   1       0.093  -0.694   1.338  0.00  0.00     0.000 A 
ATOM      3  C3  BNZ d   1       0.432  -1.999   1.566  0.00  0.00     0.000 A 
ATOM      4  C4  BNZ d   1       1.732  -2.334   1.690  0.00  0.00     0.000 A 
ATOM      5  C5  BNZ d   1       2.714  -1.366   1.619  0.00  0.00     0.000 A 
ATOM      6  C6  BNZ d   1       2.367  -0.048   1.429  0.00  0.00     0.000 A 
ENDROOT
TORSDOF 0
ENDMDL
