MODEL 1
REMARK minimizedAffinity 8.74741745
REMARK minimizedRMSD -1
REMARK  0 active torsions:
REMARK  status: ('A' for Active; 'I' for Inactive)
ROOT
ATOM      1  C1  BNZ d   1       1.080  -3.720  -3.799  0.00  0.00     0.000 A 
ATOM      2  C2  BNZ d   1       1.704  -3.765  -5.018  0.00  0.00     0.000 A 
ATOM      3  C3  BNZ d   1       1.671  -4.899  -5.780  0.00  0.00     0.000 A 
ATOM      4  C4  BNZ d   1       1.050  -5.998  -5.306  0.00  0.00     0.000 A 
ATOM      5  C5  BNZ d   1       0.424  -5.972  -4.076  0.00  0.00     0.000 A 
ATOM      6  C6  BNZ d   1       0.426  -4.817  -3.328  0.00  0.00     0.000 A 
ENDROOT
TORSDOF 0
ENDMDL
