MODEL 1
REMARK minimizedAffinity -2.4002552
REMARK minimizedRMSD -1
REMARK  0 active torsions:
REMARK  status: ('A' for Active; 'I' for Inactive)
ROOT
ATOM      1  O1  BZF d   1      -1.128  -0.947   0.192  0.00  0.00    -0.204 OA
ATOM      2  C2  BZF d   1      -0.929   0.280  -0.410  0.00  0.00     0.174 A 
ATOM      3  C3  BZF d   1       0.313   0.741  -0.158  0.00  0.00    -0.012 A 
ATOM      4  C3A BZF d   1       0.960  -0.304   0.575  0.00  0.00    -0.107 A 
ATOM      5  C4  BZF d   1       2.214  -0.447   1.097  0.00  0.00     0.055 A 
ATOM      6  C5  BZF d   1       2.505  -1.560   1.820  0.00  0.00    -0.016 A 
ATOM      7  C6  BZF d   1       1.566  -2.546   2.046  0.00  0.00     0.022 A 
ATOM      8  C7  BZF d   1       0.311  -2.451   1.544  0.00  0.00     0.029 A 
ATOM      9  C7A BZF d   1       0.024  -1.343   0.785  0.00  0.00     0.058 A 
ENDROOT
TORSDOF 0
ENDMDL
