MODEL 1
REMARK minimizedAffinity -5.75058031
REMARK minimizedRMSD -1
REMARK  0 active torsions:
REMARK  status: ('A' for Active; 'I' for Inactive)
ROOT
ATOM      1  O1  BZF d   1      -0.388  -1.176   1.293  0.00  0.00    -0.204 OA
ATOM      2  C2  BZF d   1      -1.378  -0.441   0.668  0.00  0.00     0.174 A 
ATOM      3  C3  BZF d   1      -0.855   0.634   0.046  0.00  0.00    -0.012 A 
ATOM      4  C3A BZF d   1       0.561   0.518   0.219  0.00  0.00    -0.107 A 
ATOM      5  C4  BZF d   1       1.622   1.276  -0.187  0.00  0.00     0.055 A 
ATOM      6  C5  BZF d   1       2.874   0.927   0.211  0.00  0.00    -0.016 A 
ATOM      7  C6  BZF d   1       3.100  -0.169   1.017  0.00  0.00     0.022 A 
ATOM      8  C7  BZF d   1       2.080  -0.954   1.441  0.00  0.00     0.029 A 
ATOM      9  C7A BZF d   1       0.817  -0.623   1.014  0.00  0.00     0.058 A 
ENDROOT
TORSDOF 0
ENDMDL
