MODEL 1
REMARK minimizedAffinity -4.58452082
REMARK minimizedRMSD -1
REMARK  0 active torsions:
REMARK  status: ('A' for Active; 'I' for Inactive)
ROOT
ATOM      1  O1  BZF d   1       2.178   0.806   0.676  0.00  0.00    -0.204 OA
ATOM      2  C2  BZF d   1       2.591  -0.509   0.764  0.00  0.00     0.174 A 
ATOM      3  C3  BZF d   1       1.576  -1.350   0.480  0.00  0.00    -0.012 A 
ATOM      4  C3A BZF d   1       0.482  -0.506   0.106  0.00  0.00    -0.107 A 
ATOM      5  C4  BZF d   1      -0.798  -0.754  -0.299  0.00  0.00     0.055 A 
ATOM      6  C5  BZF d   1      -1.636   0.294  -0.517  0.00  0.00    -0.016 A 
ATOM      7  C6  BZF d   1      -1.229   1.599  -0.334  0.00  0.00     0.022 A 
ATOM      8  C7  BZF d   1       0.033   1.895   0.062  0.00  0.00     0.029 A 
ATOM      9  C7A BZF d   1       0.892   0.839   0.251  0.00  0.00     0.058 A 
ENDROOT
TORSDOF 0
ENDMDL
