MODEL 1
REMARK minimizedAffinity -3.40500474
REMARK minimizedRMSD -1
REMARK  0 active torsions:
REMARK  status: ('A' for Active; 'I' for Inactive)
ROOT
ATOM      1  O1  BZF d   1      -0.371  -0.535  -0.991  0.00  0.00    -0.204 OA
ATOM      2  C2  BZF d   1      -1.322  -0.085  -0.095  0.00  0.00     0.174 A 
ATOM      3  C3  BZF d   1      -0.765   0.169   1.107  0.00  0.00    -0.012 A 
ATOM      4  C3A BZF d   1       0.637  -0.054   0.926  0.00  0.00    -0.107 A 
ATOM      5  C4  BZF d   1       1.719   0.050   1.753  0.00  0.00     0.055 A 
ATOM      6  C5  BZF d   1       2.943  -0.310   1.287  0.00  0.00    -0.016 A 
ATOM      7  C6  BZF d   1       3.122  -0.782   0.003  0.00  0.00     0.022 A 
ATOM      8  C7  BZF d   1       2.080  -0.898  -0.856  0.00  0.00     0.029 A 
ATOM      9  C7A BZF d   1       0.846  -0.504  -0.398  0.00  0.00     0.058 A 
ENDROOT
TORSDOF 0
ENDMDL
