MODEL 1
REMARK minimizedAffinity -3.38376474
REMARK minimizedRMSD -1
REMARK  0 active torsions:
REMARK  status: ('A' for Active; 'I' for Inactive)
ROOT
ATOM      1  O1  BZF d   1      -0.750  -0.671   0.623  0.00  0.00    -0.204 OA
ATOM      2  C2  BZF d   1      -0.660   0.480  -0.135  0.00  0.00     0.174 A 
ATOM      3  C3  BZF d   1       0.519   1.100   0.076  0.00  0.00    -0.012 A 
ATOM      4  C3A BZF d   1       1.247   0.236   0.954  0.00  0.00    -0.107 A 
ATOM      5  C4  BZF d   1       2.492   0.298   1.512  0.00  0.00     0.055 A 
ATOM      6  C5  BZF d   1       2.873  -0.673   2.384  0.00  0.00    -0.016 A 
ATOM      7  C6  BZF d   1       2.035  -1.715   2.723  0.00  0.00     0.022 A 
ATOM      8  C7  BZF d   1       0.793  -1.821   2.190  0.00  0.00     0.029 A 
ATOM      9  C7A BZF d   1       0.417  -0.860   1.284  0.00  0.00     0.058 A 
ENDROOT
TORSDOF 0
ENDMDL
