MODEL 1
REMARK minimizedAffinity -6.43137217
REMARK minimizedRMSD -1
REMARK  0 active torsions:
REMARK  status: ('A' for Active; 'I' for Inactive)
ROOT
ATOM      1  O1  BZF d   1       0.227   0.662   0.023  0.00  0.00    -0.204 OA
ATOM      2  C2  BZF d   1      -0.973  -0.007   0.174  0.00  0.00     0.174 A 
ATOM      3  C3  BZF d   1      -0.779  -1.214   0.743  0.00  0.00    -0.012 A 
ATOM      4  C3A BZF d   1       0.619  -1.267   1.045  0.00  0.00    -0.107 A 
ATOM      5  C4  BZF d   1       1.417  -2.207   1.633  0.00  0.00     0.055 A 
ATOM      6  C5  BZF d   1       2.754  -1.981   1.713  0.00  0.00    -0.016 A 
ATOM      7  C6  BZF d   1       3.327  -0.831   1.211  0.00  0.00     0.022 A 
ATOM      8  C7  BZF d   1       2.576   0.132   0.623  0.00  0.00     0.029 A 
ATOM      9  C7A BZF d   1       1.220  -0.078   0.571  0.00  0.00     0.058 A 
ENDROOT
TORSDOF 0
ENDMDL
