MODEL 1
REMARK minimizedAffinity -4.13241482
REMARK minimizedRMSD -1
REMARK  0 active torsions:
REMARK  status: ('A' for Active; 'I' for Inactive)
ROOT
ATOM      1  O1  BZF d   1       1.187   1.712   1.131  0.00  0.00    -0.204 OA
ATOM      2  C2  BZF d   1       2.529   1.508   1.386  0.00  0.00     0.174 A 
ATOM      3  C3  BZF d   1       2.854   0.208   1.227  0.00  0.00    -0.012 A 
ATOM      4  C3A BZF d   1       1.658  -0.424   0.760  0.00  0.00    -0.107 A 
ATOM      5  C4  BZF d   1       1.351  -1.707   0.407  0.00  0.00     0.055 A 
ATOM      6  C5  BZF d   1       0.071  -2.009   0.065  0.00  0.00    -0.016 A 
ATOM      7  C6  BZF d   1      -0.926  -1.056   0.069  0.00  0.00     0.022 A 
ATOM      8  C7  BZF d   1      -0.668   0.231   0.407  0.00  0.00     0.029 A 
ATOM      9  C7A BZF d   1       0.631   0.547   0.722  0.00  0.00     0.058 A 
ENDROOT
TORSDOF 0
ENDMDL
