MODEL 1
REMARK minimizedAffinity -3.5886023
REMARK minimizedRMSD -1
REMARK  0 active torsions:
REMARK  status: ('A' for Active; 'I' for Inactive)
ROOT
ATOM      1  O1  BZF d   1      -0.737  -1.037  -0.261  0.00  0.00    -0.204 OA
ATOM      2  C2  BZF d   1      -1.562   0.052  -0.467  0.00  0.00     0.174 A 
ATOM      3  C3  BZF d   1      -0.908   1.203  -0.208  0.00  0.00    -0.012 A 
ATOM      4  C3A BZF d   1       0.435   0.813   0.095  0.00  0.00    -0.107 A 
ATOM      5  C4  BZF d   1       1.564   1.509   0.420  0.00  0.00     0.055 A 
ATOM      6  C5  BZF d   1       2.696   0.824   0.728  0.00  0.00    -0.016 A 
ATOM      7  C6  BZF d   1       2.734  -0.555   0.727  0.00  0.00     0.022 A 
ATOM      8  C7  BZF d   1       1.640  -1.289   0.407  0.00  0.00     0.029 A 
ATOM      9  C7A BZF d   1       0.503  -0.599   0.062  0.00  0.00     0.058 A 
ENDROOT
TORSDOF 0
ENDMDL
