MODEL 1
REMARK minimizedAffinity -2.6164515
REMARK minimizedRMSD -1
REMARK  0 active torsions:
REMARK  status: ('A' for Active; 'I' for Inactive)
ROOT
ATOM      1  O1  BZF d   1      -0.680  -0.650   0.126  0.00  0.00    -0.204 OA
ATOM      2  C2  BZF d   1      -1.217   0.606   0.332  0.00  0.00     0.174 A 
ATOM      3  C3  BZF d   1      -0.299   1.436   0.867  0.00  0.00    -0.012 A 
ATOM      4  C3A BZF d   1       0.912   0.675   0.919  0.00  0.00    -0.107 A 
ATOM      5  C4  BZF d   1       2.181   0.957   1.338  0.00  0.00     0.055 A 
ATOM      6  C5  BZF d   1       3.116  -0.029   1.324  0.00  0.00    -0.016 A 
ATOM      7  C6  BZF d   1       2.815  -1.308   0.903  0.00  0.00     0.022 A 
ATOM      8  C7  BZF d   1       1.572  -1.634   0.474  0.00  0.00     0.029 A 
ATOM      9  C7A BZF d   1       0.634  -0.631   0.456  0.00  0.00     0.058 A 
ENDROOT
TORSDOF 0
ENDMDL
