MODEL 1
REMARK minimizedAffinity -5.35756588
REMARK minimizedRMSD -1
REMARK  0 active torsions:
REMARK  status: ('A' for Active; 'I' for Inactive)
ROOT
ATOM      1  O1  BZF d   1      -1.090  -1.166   0.533  0.00  0.00    -0.204 OA
ATOM      2  C2  BZF d   1      -1.123  -0.001  -0.209  0.00  0.00     0.174 A 
ATOM      3  C3  BZF d   1       0.015   0.703  -0.046  0.00  0.00    -0.012 A 
ATOM      4  C3A BZF d   1       0.848  -0.114   0.782  0.00  0.00    -0.107 A 
ATOM      5  C4  BZF d   1       2.110   0.034   1.282  0.00  0.00     0.055 A 
ATOM      6  C5  BZF d   1       2.605  -0.916   2.119  0.00  0.00    -0.016 A 
ATOM      7  C6  BZF d   1       1.864  -2.022   2.480  0.00  0.00     0.022 A 
ATOM      8  C7  BZF d   1       0.609  -2.215   2.006  0.00  0.00     0.029 A 
ATOM      9  C7A BZF d   1       0.119  -1.274   1.134  0.00  0.00     0.058 A 
ENDROOT
TORSDOF 0
ENDMDL
