MODEL 1
REMARK minimizedAffinity 9.1127491
REMARK minimizedRMSD -1
REMARK  0 active torsions:
REMARK  status: ('A' for Active; 'I' for Inactive)
ROOT
ATOM      1  C   UNL d   1       2.227   2.271   1.240  0.00  0.00     0.020 A 
ATOM      2  C1  UNL d   1       1.442   1.947   0.135  0.00  0.00     0.020 A 
ATOM      3  C2  UNL d   1       1.554   0.687  -0.457  0.00  0.00     0.034 A 
ATOM      4  C3  UNL d   1       2.453  -0.254   0.057  0.00  0.00     0.017 A 
ATOM      5  C4  UNL d   1       3.242   0.072   1.167  0.00  0.00     0.017 A 
ATOM      6  C5  UNL d   1       3.125   1.335   1.755  0.00  0.00     0.034 A 
ATOM      7 Cl   UNL d   1       4.374  -1.037   1.857  0.00  0.00    -0.070 Cl
ATOM      8 Cl1  UNL d   1       2.540  -1.793  -0.724  0.00  0.00    -0.070 Cl
ENDROOT
TORSDOF 0
ENDMDL
