MODEL 1
REMARK minimizedAffinity 18.3556385
REMARK minimizedRMSD -1
REMARK  0 active torsions:
REMARK  status: ('A' for Active; 'I' for Inactive)
ROOT
ATOM      1  C   UNL d   1       5.383   4.331   3.596  0.00  0.00     0.020 A 
ATOM      2  C1  UNL d   1       5.133   2.990   3.309  0.00  0.00     0.020 A 
ATOM      3  C2  UNL d   1       5.076   2.559   1.982  0.00  0.00     0.034 A 
ATOM      4  C3  UNL d   1       5.267   3.471   0.937  0.00  0.00     0.017 A 
ATOM      5  C4  UNL d   1       5.518   4.817   1.226  0.00  0.00     0.017 A 
ATOM      6  C5  UNL d   1       5.575   5.243   2.557  0.00  0.00     0.034 A 
ATOM      7 Cl   UNL d   1       5.765   6.000  -0.009  0.00  0.00    -0.070 Cl
ATOM      8 Cl1  UNL d   1       5.183   2.868  -0.681  0.00  0.00    -0.070 Cl
ENDROOT
TORSDOF 0
ENDMDL
