MODEL 1
REMARK minimizedAffinity 12.5249767
REMARK minimizedRMSD -1
REMARK  0 active torsions:
REMARK  status: ('A' for Active; 'I' for Inactive)
ROOT
ATOM      1  C   UNL d   1       3.381   1.187   0.040  0.00  0.00     0.020 A 
ATOM      2  C1  UNL d   1       3.666   1.855  -1.149  0.00  0.00     0.020 A 
ATOM      3  C2  UNL d   1       4.477   2.993  -1.134  0.00  0.00     0.034 A 
ATOM      4  C3  UNL d   1       5.004   3.464   0.074  0.00  0.00     0.017 A 
ATOM      5  C4  UNL d   1       4.717   2.792   1.267  0.00  0.00     0.017 A 
ATOM      6  C5  UNL d   1       3.905   1.654   1.246  0.00  0.00     0.034 A 
ATOM      7 Cl   UNL d   1       5.332   3.314   2.796  0.00  0.00    -0.070 Cl
ATOM      8 Cl1  UNL d   1       5.999   4.876   0.019  0.00  0.00    -0.070 Cl
ENDROOT
TORSDOF 0
ENDMDL
