MODEL 1
REMARK minimizedAffinity 6.13362932
REMARK minimizedRMSD -1
REMARK  0 active torsions:
REMARK  status: ('A' for Active; 'I' for Inactive)
ROOT
ATOM      1  C   UNL d   1       2.062   1.840  -0.366  0.00  0.00     0.020 A 
ATOM      2  C1  UNL d   1       2.558   1.836   0.937  0.00  0.00     0.020 A 
ATOM      3  C2  UNL d   1       2.903   0.628   1.548  0.00  0.00     0.034 A 
ATOM      4  C3  UNL d   1       2.752  -0.579   0.857  0.00  0.00     0.017 A 
ATOM      5  C4  UNL d   1       2.255  -0.573  -0.451  0.00  0.00     0.017 A 
ATOM      6  C5  UNL d   1       1.911   0.639  -1.059  0.00  0.00     0.034 A 
ATOM      7 Cl   UNL d   1       2.041  -2.023  -1.369  0.00  0.00    -0.070 Cl
ATOM      8 Cl1  UNL d   1       3.199  -2.034   1.674  0.00  0.00    -0.070 Cl
ENDROOT
TORSDOF 0
ENDMDL
