MODEL 1
REMARK minimizedAffinity 14.6511679
REMARK minimizedRMSD -1
REMARK  0 active torsions:
REMARK  status: ('A' for Active; 'I' for Inactive)
ROOT
ATOM      1  C   UNL d   1       2.813  -1.191   0.769  0.00  0.00     0.020 A 
ATOM      2  C1  UNL d   1       2.518  -1.106  -0.591  0.00  0.00     0.020 A 
ATOM      3  C2  UNL d   1       2.791   0.070  -1.293  0.00  0.00     0.034 A 
ATOM      4  C3  UNL d   1       3.361   1.166  -0.635  0.00  0.00     0.017 A 
ATOM      5  C4  UNL d   1       3.657   1.080   0.731  0.00  0.00     0.017 A 
ATOM      6  C5  UNL d   1       3.382  -0.100   1.428  0.00  0.00     0.034 A 
ATOM      7 Cl   UNL d   1       4.361   2.390   1.611  0.00  0.00    -0.070 Cl
ATOM      8 Cl1  UNL d   1       3.672   2.588  -1.565  0.00  0.00    -0.070 Cl
ENDROOT
TORSDOF 0
ENDMDL
