MODEL 1
REMARK minimizedAffinity 10.274085
REMARK minimizedRMSD -1
REMARK  0 active torsions:
REMARK  status: ('A' for Active; 'I' for Inactive)
ROOT
ATOM      1  C   UNL d   1       1.119   5.658   3.690  0.00  0.00     0.020 A 
ATOM      2  C1  UNL d   1       1.459   5.936   5.013  0.00  0.00     0.020 A 
ATOM      3  C2  UNL d   1       2.531   5.271   5.613  0.00  0.00     0.034 A 
ATOM      4  C3  UNL d   1       3.266   4.325   4.890  0.00  0.00     0.017 A 
ATOM      5  C4  UNL d   1       2.924   4.047   3.561  0.00  0.00     0.017 A 
ATOM      6  C5  UNL d   1       1.850   4.716   2.966  0.00  0.00     0.034 A 
ATOM      7 Cl   UNL d   1       3.784   2.893   2.605  0.00  0.00    -0.070 Cl
ATOM      8 Cl1  UNL d   1       4.579   3.542   5.694  0.00  0.00    -0.070 Cl
ENDROOT
TORSDOF 0
ENDMDL
