MODEL 1
REMARK minimizedAffinity 20.0849152
REMARK minimizedRMSD -1
REMARK  0 active torsions:
REMARK  status: ('A' for Active; 'I' for Inactive)
ROOT
ATOM      1  C   UNL d   1      -1.884   0.927  -1.788  0.00  0.00     0.020 A 
ATOM      2  C1  UNL d   1      -2.685  -0.041  -2.392  0.00  0.00     0.020 A 
ATOM      3  C2  UNL d   1      -3.953  -0.319  -1.876  0.00  0.00     0.034 A 
ATOM      4  C3  UNL d   1      -4.422   0.372  -0.753  0.00  0.00     0.017 A 
ATOM      5  C4  UNL d   1      -3.617   1.344  -0.148  0.00  0.00     0.017 A 
ATOM      6  C5  UNL d   1      -2.349   1.618  -0.669  0.00  0.00     0.034 A 
ATOM      7 Cl   UNL d   1      -4.128   2.237   1.241  0.00  0.00    -0.070 Cl
ATOM      8 Cl1  UNL d   1      -6.000  -0.023  -0.168  0.00  0.00    -0.070 Cl
ENDROOT
TORSDOF 0
ENDMDL
