MODEL 1
REMARK minimizedAffinity 5.99070311
REMARK minimizedRMSD -1
REMARK  2 active torsions:
REMARK  status: ('A' for Active; 'I' for Inactive)
REMARK    1  A    between atoms: C1_2  and  C2_3 
REMARK    2  A    between atoms: C2_3  and  C3_4 
ROOT
ATOM      1  C3  UNL d   1       2.282   2.934  -3.274  0.00  0.00    -0.075 A 
ATOM      2  C4  UNL d   1       2.975   2.150  -4.207  0.00  0.00     0.002 A 
ATOM      3  C5  UNL d   1       3.336   0.837  -3.900  0.00  0.00     0.002 A 
ATOM      4  C6  UNL d   1       3.018   0.297  -2.656  0.00  0.00    -0.004 A 
ATOM      5  C7  UNL d   1       2.345   1.073  -1.715  0.00  0.00     0.002 A 
ATOM      6  C8  UNL d   1       1.979   2.385  -2.021  0.00  0.00     0.002 A 
ENDROOT
BRANCH   1   7
ATOM      7  C2  UNL d   1       1.863   4.345  -3.610  0.00  0.00     0.056 C 
BRANCH   7   8
ATOM      8  C1  UNL d   1       2.136   4.747  -5.064  0.00  0.00     0.007 C 
ATOM      9  C   UNL d   1       1.383   6.000  -5.492  0.00  0.00     0.009 C 
ENDBRANCH   7   8
ENDBRANCH   1   7
TORSDOF 2
ENDMDL
