MODEL 1
REMARK minimizedAffinity 14.4695625
REMARK minimizedRMSD -1
REMARK  2 active torsions:
REMARK  status: ('A' for Active; 'I' for Inactive)
REMARK    1  A    between atoms: C1_2  and  C2_3 
REMARK    2  A    between atoms: C2_3  and  C3_4 
ROOT
ATOM      1  C3  UNL d   1       3.126   0.242  -1.854  0.00  0.00    -0.075 A 
ATOM      2  C4  UNL d   1       3.864   0.729  -2.943  0.00  0.00     0.002 A 
ATOM      3  C5  UNL d   1       3.843   0.062  -4.168  0.00  0.00     0.002 A 
ATOM      4  C6  UNL d   1       3.095  -1.103  -4.317  0.00  0.00    -0.004 A 
ATOM      5  C7  UNL d   1       2.371  -1.606  -3.238  0.00  0.00     0.002 A 
ATOM      6  C8  UNL d   1       2.387  -0.938  -2.012  0.00  0.00     0.002 A 
ENDROOT
BRANCH   1   7
ATOM      7  C2  UNL d   1       3.121   0.975  -0.534  0.00  0.00     0.056 C 
BRANCH   7   8
ATOM      8  C1  UNL d   1       4.472   0.967   0.189  0.00  0.00     0.007 C 
ATOM      9  C   UNL d   1       4.512   0.014   1.376  0.00  0.00     0.009 C 
ENDBRANCH   7   8
ENDBRANCH   1   7
TORSDOF 2
ENDMDL
