MODEL 1
REMARK minimizedAffinity -0.550345063
REMARK minimizedRMSD -1
REMARK  2 active torsions:
REMARK  status: ('A' for Active; 'I' for Inactive)
REMARK    1  A    between atoms: C1_2  and  C2_3 
REMARK    2  A    between atoms: C2_3  and  C3_4 
ROOT
ATOM      1  C3  UNL d   1       1.902   0.522  -2.585  0.00  0.00    -0.075 A 
ATOM      2  C4  UNL d   1       2.826   0.925  -3.560  0.00  0.00     0.002 A 
ATOM      3  C5  UNL d   1       3.763   0.022  -4.064  0.00  0.00     0.002 A 
ATOM      4  C6  UNL d   1       3.796  -1.289  -3.593  0.00  0.00    -0.004 A 
ATOM      5  C7  UNL d   1       2.893  -1.695  -2.613  0.00  0.00     0.002 A 
ATOM      6  C8  UNL d   1       1.952  -0.796  -2.110  0.00  0.00     0.002 A 
ENDROOT
BRANCH   1   7
ATOM      7  C2  UNL d   1       0.867   1.486  -2.057  0.00  0.00     0.056 C 
BRANCH   7   8
ATOM      8  C1  UNL d   1      -0.577   1.087  -2.379  0.00  0.00     0.007 C 
ATOM      9  C   UNL d   1      -1.155   1.836  -3.572  0.00  0.00     0.009 C 
ENDBRANCH   7   8
ENDBRANCH   1   7
TORSDOF 2
ENDMDL
