MODEL 1
REMARK minimizedAffinity 4.3857708
REMARK minimizedRMSD -1
REMARK  2 active torsions:
REMARK  status: ('A' for Active; 'I' for Inactive)
REMARK    1  A    between atoms: C1_2  and  C2_3 
REMARK    2  A    between atoms: C2_3  and  C3_4 
ROOT
ATOM      1  C3  UNL d   1      -5.969   1.914   5.275  0.00  0.00    -0.075 A 
ATOM      2  C4  UNL d   1      -5.987   1.862   3.874  0.00  0.00     0.002 A 
ATOM      3  C5  UNL d   1      -5.987   0.635   3.210  0.00  0.00     0.002 A 
ATOM      4  C6  UNL d   1      -5.958  -0.553   3.937  0.00  0.00    -0.004 A 
ATOM      5  C7  UNL d   1      -5.924  -0.514   5.329  0.00  0.00     0.002 A 
ATOM      6  C8  UNL d   1      -5.928   0.713   5.996  0.00  0.00     0.002 A 
ENDROOT
BRANCH   1   7
ATOM      7  C2  UNL d   1      -5.999   3.238   6.000  0.00  0.00     0.056 C 
BRANCH   7   8
ATOM      8  C1  UNL d   1      -4.882   4.201   5.586  0.00  0.00     0.007 C 
ATOM      9  C   UNL d   1      -5.174   5.651   5.947  0.00  0.00     0.009 C 
ENDBRANCH   7   8
ENDBRANCH   1   7
TORSDOF 2
ENDMDL
