MODEL 1
REMARK minimizedAffinity 12.7853527
REMARK minimizedRMSD -1
REMARK  2 active torsions:
REMARK  status: ('A' for Active; 'I' for Inactive)
REMARK    1  A    between atoms: C1_2  and  C2_3 
REMARK    2  A    between atoms: C2_3  and  C3_4 
ROOT
ATOM      1  C3  UNL d   1       1.149  -5.983   0.983  0.00  0.00    -0.075 A 
ATOM      2  C4  UNL d   1       0.752  -5.978   2.328  0.00  0.00     0.002 A 
ATOM      3  C5  UNL d   1      -0.601  -5.991   2.667  0.00  0.00     0.002 A 
ATOM      4  C6  UNL d   1      -1.573  -6.000   1.668  0.00  0.00    -0.004 A 
ATOM      5  C7  UNL d   1      -1.190  -5.988   0.329  0.00  0.00     0.002 A 
ATOM      6  C8  UNL d   1       0.164  -5.979  -0.014  0.00  0.00     0.002 A 
ENDROOT
BRANCH   1   7
ATOM      7  C2  UNL d   1       2.612  -5.998   0.609  0.00  0.00     0.056 C 
BRANCH   7   8
ATOM      8  C1  UNL d   1       3.488  -5.092   1.481  0.00  0.00     0.007 C 
ATOM      9  C   UNL d   1       4.363  -4.145   0.671  0.00  0.00     0.009 C 
ENDBRANCH   7   8
ENDBRANCH   1   7
TORSDOF 2
ENDMDL
