MODEL 1
REMARK minimizedAffinity 3.44645071
REMARK minimizedRMSD -1
REMARK  2 active torsions:
REMARK  status: ('A' for Active; 'I' for Inactive)
REMARK    1  A    between atoms: C1_2  and  C2_3 
REMARK    2  A    between atoms: C2_3  and  C3_4 
ROOT
ATOM      1  C3  UNL d   1      -0.008   0.588  -2.940  0.00  0.00    -0.075 A 
ATOM      2  C4  UNL d   1       0.905  -0.465  -3.103  0.00  0.00     0.002 A 
ATOM      3  C5  UNL d   1       2.227  -0.328  -2.679  0.00  0.00     0.002 A 
ATOM      4  C6  UNL d   1       2.655   0.863  -2.097  0.00  0.00    -0.004 A 
ATOM      5  C7  UNL d   1       1.761   1.921  -1.946  0.00  0.00     0.002 A 
ATOM      6  C8  UNL d   1       0.437   1.785  -2.365  0.00  0.00     0.002 A 
ENDROOT
BRANCH   1   7
ATOM      7  C2  UNL d   1      -1.448   0.435  -3.370  0.00  0.00     0.056 C 
BRANCH   7   8
ATOM      8  C1  UNL d   1      -1.792  -0.954  -3.917  0.00  0.00     0.007 C 
ATOM      9  C   UNL d   1      -1.921  -0.988  -5.434  0.00  0.00     0.009 C 
ENDBRANCH   7   8
ENDBRANCH   1   7
TORSDOF 2
ENDMDL
