MODEL 1
REMARK minimizedAffinity -1.1153425
REMARK minimizedRMSD -1
REMARK  2 active torsions:
REMARK  status: ('A' for Active; 'I' for Inactive)
REMARK    1  A    between atoms: C1_2  and  C2_3 
REMARK    2  A    between atoms: C2_3  and  C3_4 
ROOT
ATOM      1  C3  UNL d   1       0.211   0.976  -3.293  0.00  0.00    -0.075 A 
ATOM      2  C4  UNL d   1      -0.523  -0.144  -3.708  0.00  0.00     0.002 A 
ATOM      3  C5  UNL d   1      -1.878  -0.027  -4.021  0.00  0.00     0.002 A 
ATOM      4  C6  UNL d   1      -2.516   1.206  -3.915  0.00  0.00    -0.004 A 
ATOM      5  C7  UNL d   1      -1.801   2.323  -3.489  0.00  0.00     0.002 A 
ATOM      6  C8  UNL d   1      -0.444   2.209  -3.178  0.00  0.00     0.002 A 
ENDROOT
BRANCH   1   7
ATOM      7  C2  UNL d   1       1.684   0.862  -2.980  0.00  0.00     0.056 C 
BRANCH   7   8
ATOM      8  C1  UNL d   1       2.321  -0.452  -3.446  0.00  0.00     0.007 C 
ATOM      9  C   UNL d   1       3.449  -0.250  -4.449  0.00  0.00     0.009 C 
ENDBRANCH   7   8
ENDBRANCH   1   7
TORSDOF 2
ENDMDL
