MODEL 1
REMARK minimizedAffinity -0.331050456
REMARK minimizedRMSD -1
REMARK  2 active torsions:
REMARK  status: ('A' for Active; 'I' for Inactive)
REMARK    1  A    between atoms: C1_2  and  C2_3 
REMARK    2  A    between atoms: C2_3  and  C3_4 
ROOT
ATOM      1  C3  UNL d   1       0.683   0.962  -2.811  0.00  0.00    -0.075 A 
ATOM      2  C4  UNL d   1       0.083  -0.249  -3.185  0.00  0.00     0.002 A 
ATOM      3  C5  UNL d   1      -1.123  -0.255  -3.885  0.00  0.00     0.002 A 
ATOM      4  C6  UNL d   1      -1.750   0.946  -4.210  0.00  0.00    -0.004 A 
ATOM      5  C7  UNL d   1      -1.171   2.155  -3.829  0.00  0.00     0.002 A 
ATOM      6  C8  UNL d   1       0.038   2.164  -3.132  0.00  0.00     0.002 A 
ENDROOT
BRANCH   1   7
ATOM      7  C2  UNL d   1       2.004   0.976  -2.079  0.00  0.00     0.056 C 
BRANCH   7   8
ATOM      8  C1  UNL d   1       1.957   1.684  -0.721  0.00  0.00     0.007 C 
ATOM      9  C   UNL d   1       3.290   1.661   0.015  0.00  0.00     0.009 C 
ENDBRANCH   7   8
ENDBRANCH   1   7
TORSDOF 2
ENDMDL
