MODEL 1
REMARK minimizedAffinity -3.58566523
REMARK minimizedRMSD -1
REMARK  2 active torsions:
REMARK  status: ('A' for Active; 'I' for Inactive)
REMARK    1  A    between atoms: C1_2  and  C2_3 
REMARK    2  A    between atoms: C2_3  and  C3_4 
ROOT
ATOM      1  C3  UNL d   1       1.087   0.860  -3.208  0.00  0.00    -0.075 A 
ATOM      2  C4  UNL d   1       2.238   1.621  -3.462  0.00  0.00     0.002 A 
ATOM      3  C5  UNL d   1       3.387   1.017  -3.975  0.00  0.00     0.002 A 
ATOM      4  C6  UNL d   1       3.403  -0.352  -4.230  0.00  0.00    -0.004 A 
ATOM      5  C7  UNL d   1       2.271  -1.120  -3.967  0.00  0.00     0.002 A 
ATOM      6  C8  UNL d   1       1.119  -0.518  -3.458  0.00  0.00     0.002 A 
ENDROOT
BRANCH   1   7
ATOM      7  C2  UNL d   1      -0.169   1.512  -2.681  0.00  0.00     0.056 C 
BRANCH   7   8
ATOM      8  C1  UNL d   1      -0.965   2.281  -3.741  0.00  0.00     0.007 C 
ATOM      9  C   UNL d   1      -1.793   1.375  -4.643  0.00  0.00     0.009 C 
ENDBRANCH   7   8
ENDBRANCH   1   7
TORSDOF 2
ENDMDL
