MODEL 1
REMARK minimizedAffinity 4.63778591
REMARK minimizedRMSD -1
REMARK  2 active torsions:
REMARK  status: ('A' for Active; 'I' for Inactive)
REMARK    1  A    between atoms: C1_2  and  C2_3 
REMARK    2  A    between atoms: C2_3  and  C3_4 
ROOT
ATOM      1  C3  UNL d   1       2.857   1.893  -2.115  0.00  0.00    -0.075 A 
ATOM      2  C4  UNL d   1       3.838   1.609  -3.076  0.00  0.00     0.002 A 
ATOM      3  C5  UNL d   1       3.852   2.284  -4.296  0.00  0.00     0.002 A 
ATOM      4  C6  UNL d   1       2.881   3.244  -4.576  0.00  0.00    -0.004 A 
ATOM      5  C7  UNL d   1       1.892   3.523  -3.635  0.00  0.00     0.002 A 
ATOM      6  C8  UNL d   1       1.879   2.852  -2.411  0.00  0.00     0.002 A 
ENDROOT
BRANCH   1   7
ATOM      7  C2  UNL d   1       2.855   1.187  -0.781  0.00  0.00     0.056 C 
BRANCH   7   8
ATOM      8  C1  UNL d   1       4.194   1.251  -0.038  0.00  0.00     0.007 C 
ATOM      9  C   UNL d   1       4.346   0.167   1.020  0.00  0.00     0.009 C 
ENDBRANCH   7   8
ENDBRANCH   1   7
TORSDOF 2
ENDMDL
