MODEL 1
REMARK minimizedAffinity -0.636751711
REMARK minimizedRMSD -1
REMARK  2 active torsions:
REMARK  status: ('A' for Active; 'I' for Inactive)
REMARK    1  A    between atoms: C1_2  and  C2_3 
REMARK    2  A    between atoms: C2_3  and  C3_4 
ROOT
ATOM      1  C3  UNL d   1      -4.032   0.276   4.070  0.00  0.00    -0.075 A 
ATOM      2  C4  UNL d   1      -4.794  -0.758   4.632  0.00  0.00     0.002 A 
ATOM      3  C5  UNL d   1      -5.772  -0.479   5.587  0.00  0.00     0.002 A 
ATOM      4  C6  UNL d   1      -5.992   0.834   6.000  0.00  0.00    -0.004 A 
ATOM      5  C7  UNL d   1      -5.229   1.867   5.460  0.00  0.00     0.002 A 
ATOM      6  C8  UNL d   1      -4.254   1.591   4.501  0.00  0.00     0.002 A 
ENDROOT
BRANCH   1   7
ATOM      7  C2  UNL d   1      -2.992  -0.016   3.014  0.00  0.00     0.056 C 
BRANCH   7   8
ATOM      8  C1  UNL d   1      -2.975   0.992   1.860  0.00  0.00     0.007 C 
ATOM      9  C   UNL d   1      -3.372   0.380   0.523  0.00  0.00     0.009 C 
ENDBRANCH   7   8
ENDBRANCH   1   7
TORSDOF 2
ENDMDL
