MODEL 1
REMARK minimizedAffinity 10.1698942
REMARK minimizedRMSD -1
REMARK  2 active torsions:
REMARK  status: ('A' for Active; 'I' for Inactive)
REMARK    1  A    between atoms: C1_2  and  C2_3 
REMARK    2  A    between atoms: C2_3  and  C3_4 
ROOT
ATOM      1  C3  UNL d   1       0.432  -4.971   1.596  0.00  0.00    -0.075 A 
ATOM      2  C4  UNL d   1       1.507  -5.097   0.704  0.00  0.00     0.002 A 
ATOM      3  C5  UNL d   1       2.540  -4.160   0.703  0.00  0.00     0.002 A 
ATOM      4  C6  UNL d   1       2.507  -3.082   1.585  0.00  0.00    -0.004 A 
ATOM      5  C7  UNL d   1       1.436  -2.937   2.464  0.00  0.00     0.002 A 
ATOM      6  C8  UNL d   1       0.403  -3.876   2.470  0.00  0.00     0.002 A 
ENDROOT
BRANCH   1   7
ATOM      7  C2  UNL d   1      -0.674  -5.999   1.622  0.00  0.00     0.056 C 
BRANCH   7   8
ATOM      8  C1  UNL d   1      -1.881  -5.638   0.749  0.00  0.00     0.007 C 
ATOM      9  C   UNL d   1      -1.895  -4.178   0.319  0.00  0.00     0.009 C 
ENDBRANCH   7   8
ENDBRANCH   1   7
TORSDOF 2
ENDMDL
