MODEL 1
REMARK minimizedAffinity 9.14712524
REMARK minimizedRMSD -1
REMARK  2 active torsions:
REMARK  status: ('A' for Active; 'I' for Inactive)
REMARK    1  A    between atoms: C1_2  and  C2_3 
REMARK    2  A    between atoms: C2_3  and  C3_4 
ROOT
ATOM      1  C3  UNL d   1      -0.896   1.551  -3.209  0.00  0.00    -0.075 A 
ATOM      2  C4  UNL d   1      -1.104   0.167  -3.120  0.00  0.00     0.002 A 
ATOM      3  C5  UNL d   1      -1.975  -0.476  -4.001  0.00  0.00     0.002 A 
ATOM      4  C6  UNL d   1      -2.654   0.256  -4.972  0.00  0.00    -0.004 A 
ATOM      5  C7  UNL d   1      -2.468   1.634  -5.058  0.00  0.00     0.002 A 
ATOM      6  C8  UNL d   1      -1.594   2.280  -4.181  0.00  0.00     0.002 A 
ENDROOT
BRANCH   1   7
ATOM      7  C2  UNL d   1       0.067   2.249  -2.278  0.00  0.00     0.056 C 
BRANCH   7   8
ATOM      8  C1  UNL d   1       1.509   2.300  -2.796  0.00  0.00     0.007 C 
ATOM      9  C   UNL d   1       2.257   0.985  -2.620  0.00  0.00     0.009 C 
ENDBRANCH   7   8
ENDBRANCH   1   7
TORSDOF 2
ENDMDL
