MODEL 1
REMARK minimizedAffinity 0.775001585
REMARK minimizedRMSD -1
REMARK  2 active torsions:
REMARK  status: ('A' for Active; 'I' for Inactive)
REMARK    1  A    between atoms: C1_2  and  C2_3 
REMARK    2  A    between atoms: C2_3  and  C3_4 
ROOT
ATOM      1  C3  UNL d   1      -1.295   1.080  -1.828  0.00  0.00    -0.075 A 
ATOM      2  C4  UNL d   1      -1.579   2.059  -2.791  0.00  0.00     0.002 A 
ATOM      3  C5  UNL d   1      -2.171   1.708  -4.005  0.00  0.00     0.002 A 
ATOM      4  C6  UNL d   1      -2.476   0.376  -4.275  0.00  0.00    -0.004 A 
ATOM      5  C7  UNL d   1      -2.183  -0.607  -3.333  0.00  0.00     0.002 A 
ATOM      6  C8  UNL d   1      -1.594  -0.258  -2.116  0.00  0.00     0.002 A 
ENDROOT
BRANCH   1   7
ATOM      7  C2  UNL d   1      -0.681   1.457  -0.501  0.00  0.00     0.056 C 
BRANCH   7   8
ATOM      8  C1  UNL d   1      -1.462   0.947   0.714  0.00  0.00     0.007 C 
ATOM      9  C   UNL d   1      -2.866   1.528   0.813  0.00  0.00     0.009 C 
ENDBRANCH   7   8
ENDBRANCH   1   7
TORSDOF 2
ENDMDL
