MODEL 1
REMARK minimizedAffinity 19.2910347
REMARK minimizedRMSD -1
REMARK  0 active torsions:
REMARK  status: ('A' for Active; 'I' for Inactive)
ROOT
ATOM      1  N1  IND d   1       5.612  -3.368  -1.438  0.00  0.00    -0.196 N 
ATOM      2  C2  IND d   1       5.384  -2.201  -0.764  0.00  0.00     0.054 A 
ATOM      3  C3  IND d   1       4.153  -2.214  -0.205  0.00  0.00    -0.031 A 
ATOM      4  C4  IND d   1       2.386  -4.085  -0.183  0.00  0.00     0.051 A 
ATOM      5  C5  IND d   1       2.123  -5.325  -0.695  0.00  0.00    -0.031 A 
ATOM      6  C6  IND d   1       3.030  -5.991  -1.494  0.00  0.00     0.015 A 
ATOM      7  C7  IND d   1       4.243  -5.443  -1.804  0.00  0.00    -0.016 A 
ATOM      8  C8  IND d   1       4.510  -4.181  -1.292  0.00  0.00    -0.047 A 
ATOM      9  C9  IND d   1       3.576  -3.483  -0.515  0.00  0.00    -0.096 A 
ATOM     10  HN1 IND d   1       6.324  -3.562  -1.880  0.00  0.00     0.298 HD
ENDROOT
TORSDOF 0
ENDMDL
