MODEL 1
REMARK minimizedAffinity 9.88566113
REMARK minimizedRMSD -1
REMARK  0 active torsions:
REMARK  status: ('A' for Active; 'I' for Inactive)
ROOT
ATOM      1  N1  IND d   1      -1.680  -0.105   5.171  0.00  0.00    -0.196 N 
ATOM      2  C2  IND d   1      -2.814   0.400   5.744  0.00  0.00     0.054 A 
ATOM      3  C3  IND d   1      -3.784   0.550   4.814  0.00  0.00    -0.031 A 
ATOM      4  C4  IND d   1      -3.763  -0.067   2.314  0.00  0.00     0.051 A 
ATOM      5  C5  IND d   1      -2.939  -0.525   1.325  0.00  0.00    -0.031 A 
ATOM      6  C6  IND d   1      -1.627  -0.876   1.572  0.00  0.00     0.015 A 
ATOM      7  C7  IND d   1      -1.092  -0.792   2.827  0.00  0.00    -0.016 A 
ATOM      8  C8  IND d   1      -1.924  -0.321   3.832  0.00  0.00    -0.047 A 
ATOM      9  C9  IND d   1      -3.243   0.077   3.579  0.00  0.00    -0.096 A 
ATOM     10  HN1 IND d   1      -0.939  -0.262   5.578  0.00  0.00     0.298 HD
ENDROOT
TORSDOF 0
ENDMDL
