MODEL 1
REMARK minimizedAffinity 3.95838809
REMARK minimizedRMSD -1
REMARK  0 active torsions:
REMARK  status: ('A' for Active; 'I' for Inactive)
ROOT
ATOM      1  N1  IND d   1      -2.680   5.945  -6.000  0.00  0.00    -0.196 N 
ATOM      2  C2  IND d   1      -1.515   5.426  -5.507  0.00  0.00     0.054 A 
ATOM      3  C3  IND d   1      -1.731   4.841  -4.308  0.00  0.00    -0.031 A 
ATOM      4  C4  IND d   1      -3.934   4.529  -3.013  0.00  0.00     0.051 A 
ATOM      5  C5  IND d   1      -5.258   4.866  -3.044  0.00  0.00    -0.031 A 
ATOM      6  C6  IND d   1      -5.802   5.591  -4.084  0.00  0.00     0.015 A 
ATOM      7  C7  IND d   1      -5.041   6.000  -5.142  0.00  0.00    -0.016 A 
ATOM      8  C8  IND d   1      -3.694   5.666  -5.111  0.00  0.00    -0.047 A 
ATOM      9  C9  IND d   1      -3.128   4.966  -4.038  0.00  0.00    -0.096 A 
ATOM     10  HN1 IND d   1      -2.764   6.374  -6.740  0.00  0.00     0.298 HD
ENDROOT
TORSDOF 0
ENDMDL
