MODEL 1
REMARK minimizedAffinity 12.932909
REMARK minimizedRMSD -1
REMARK  0 active torsions:
REMARK  status: ('A' for Active; 'I' for Inactive)
ROOT
ATOM      1  N1  IND d   1      -3.055  -4.040   1.561  0.00  0.00    -0.196 N 
ATOM      2  C2  IND d   1      -4.243  -4.104   2.232  0.00  0.00     0.054 A 
ATOM      3  C3  IND d   1      -4.495  -2.932   2.857  0.00  0.00    -0.031 A 
ATOM      4  C4  IND d   1      -3.145  -0.740   2.828  0.00  0.00     0.051 A 
ATOM      5  C5  IND d   1      -1.969  -0.205   2.382  0.00  0.00    -0.031 A 
ATOM      6  C6  IND d   1      -1.078  -0.935   1.621  0.00  0.00     0.015 A 
ATOM      7  C7  IND d   1      -1.337  -2.229   1.268  0.00  0.00    -0.016 A 
ATOM      8  C8  IND d   1      -2.526  -2.778   1.725  0.00  0.00    -0.047 A 
ATOM      9  C9  IND d   1      -3.415  -2.056   2.533  0.00  0.00    -0.096 A 
ATOM     10  HN1 IND d   1      -2.697  -4.679   1.111  0.00  0.00     0.298 HD
ENDROOT
TORSDOF 0
ENDMDL
