MODEL 1
REMARK minimizedAffinity 6.43459415
REMARK minimizedRMSD -1
REMARK  0 active torsions:
REMARK  status: ('A' for Active; 'I' for Inactive)
ROOT
ATOM      1  N1  IND d   1       0.207  -1.649   1.503  0.00  0.00    -0.196 N 
ATOM      2  C2  IND d   1      -0.223  -2.579   0.597  0.00  0.00     0.054 A 
ATOM      3  C3  IND d   1      -1.573  -2.661   0.612  0.00  0.00    -0.031 A 
ATOM      4  C4  IND d   1      -3.280  -1.293   1.970  0.00  0.00     0.051 A 
ATOM      5  C5  IND d   1      -3.365  -0.352   2.957  0.00  0.00    -0.031 A 
ATOM      6  C6  IND d   1      -2.241   0.219   3.519  0.00  0.00     0.015 A 
ATOM      7  C7  IND d   1      -0.985  -0.124   3.105  0.00  0.00    -0.016 A 
ATOM      8  C8  IND d   1      -0.895  -1.085   2.108  0.00  0.00    -0.047 A 
ATOM      9  C9  IND d   1      -2.030  -1.699   1.564  0.00  0.00    -0.096 A 
ATOM     10  HN1 IND d   1       1.027  -1.451   1.667  0.00  0.00     0.298 HD
ENDROOT
TORSDOF 0
ENDMDL
