MODEL 1
REMARK minimizedAffinity -2.57239771
REMARK minimizedRMSD -1
REMARK  0 active torsions:
REMARK  status: ('A' for Active; 'I' for Inactive)
ROOT
ATOM      1  N1  IND d   1      -2.067   0.735   3.962  0.00  0.00    -0.196 N 
ATOM      2  C2  IND d   1      -2.181   1.284   5.209  0.00  0.00     0.054 A 
ATOM      3  C3  IND d   1      -3.213   0.721   5.878  0.00  0.00    -0.031 A 
ATOM      4  C4  IND d   1      -4.784  -1.187   5.156  0.00  0.00     0.051 A 
ATOM      5  C5  IND d   1      -5.092  -1.983   4.089  0.00  0.00    -0.031 A 
ATOM      6  C6  IND d   1      -4.392  -1.914   2.902  0.00  0.00     0.015 A 
ATOM      7  C7  IND d   1      -3.346  -1.050   2.741  0.00  0.00    -0.016 A 
ATOM      8  C8  IND d   1      -3.034  -0.236   3.820  0.00  0.00    -0.047 A 
ATOM      9  C9  IND d   1      -3.768  -0.271   5.013  0.00  0.00    -0.096 A 
ATOM     10  HN1 IND d   1      -1.489   0.959   3.367  0.00  0.00     0.298 HD
ENDROOT
TORSDOF 0
ENDMDL
