MODEL 1
REMARK minimizedAffinity 4.06768799
REMARK minimizedRMSD -1
REMARK  0 active torsions:
REMARK  status: ('A' for Active; 'I' for Inactive)
ROOT
ATOM      1  N1  IND d   1      -4.665   0.342   4.606  0.00  0.00    -0.196 N 
ATOM      2  C2  IND d   1      -5.649  -0.399   4.014  0.00  0.00     0.054 A 
ATOM      3  C3  IND d   1      -5.162  -1.051   2.935  0.00  0.00    -0.031 A 
ATOM      4  C4  IND d   1      -2.758  -1.128   2.018  0.00  0.00     0.051 A 
ATOM      5  C5  IND d   1      -1.517  -0.584   2.200  0.00  0.00    -0.031 A 
ATOM      6  C6  IND d   1      -1.257   0.312   3.216  0.00  0.00     0.015 A 
ATOM      7  C7  IND d   1      -2.228   0.691   4.099  0.00  0.00    -0.016 A 
ATOM      8  C8  IND d   1      -3.491   0.147   3.912  0.00  0.00    -0.047 A 
ATOM      9  C9  IND d   1      -3.772  -0.731   2.857  0.00  0.00    -0.096 A 
ATOM     10  HN1 IND d   1      -4.762   0.846   5.296  0.00  0.00     0.298 HD
ENDROOT
TORSDOF 0
ENDMDL
