MODEL 1
REMARK minimizedAffinity 4.06540394
REMARK minimizedRMSD -1
REMARK  0 active torsions:
REMARK  status: ('A' for Active; 'I' for Inactive)
ROOT
ATOM      1  N1  IND d   1      -4.732   4.492  -2.782  0.00  0.00    -0.196 N 
ATOM      2  C2  IND d   1      -6.000   4.871  -3.126  0.00  0.00     0.054 A 
ATOM      3  C3  IND d   1      -5.990   5.526  -4.309  0.00  0.00    -0.031 A 
ATOM      4  C4  IND d   1      -4.023   5.999  -5.900  0.00  0.00     0.051 A 
ATOM      5  C5  IND d   1      -2.665   5.879  -6.000  0.00  0.00    -0.031 A 
ATOM      6  C6  IND d   1      -1.912   5.275  -5.014  0.00  0.00     0.015 A 
ATOM      7  C7  IND d   1      -2.493   4.757  -3.891  0.00  0.00    -0.016 A 
ATOM      8  C8  IND d   1      -3.870   4.884  -3.783  0.00  0.00    -0.047 A 
ATOM      9  C9  IND d   1      -4.635   5.533  -4.761  0.00  0.00    -0.096 A 
ATOM     10  HN1 IND d   1      -4.510   4.078  -2.062  0.00  0.00     0.298 HD
ENDROOT
TORSDOF 0
ENDMDL
