MODEL 1
REMARK minimizedAffinity 12.0647535
REMARK minimizedRMSD -1
REMARK  0 active torsions:
REMARK  status: ('A' for Active; 'I' for Inactive)
ROOT
ATOM      1  N1  IND d   1      -5.801  -0.883   5.007  0.00  0.00    -0.196 N 
ATOM      2  C2  IND d   1      -5.894  -1.503   3.792  0.00  0.00     0.054 A 
ATOM      3  C3  IND d   1      -4.865  -1.133   2.996  0.00  0.00    -0.031 A 
ATOM      4  C4  IND d   1      -2.862   0.398   3.517  0.00  0.00     0.051 A 
ATOM      5  C5  IND d   1      -2.361   1.225   4.483  0.00  0.00    -0.031 A 
ATOM      6  C6  IND d   1      -2.992   1.392   5.698  0.00  0.00     0.015 A 
ATOM      7  C7  IND d   1      -4.147   0.728   5.999  0.00  0.00    -0.016 A 
ATOM      8  C8  IND d   1      -4.663  -0.107   5.018  0.00  0.00    -0.047 A 
ATOM      9  C9  IND d   1      -4.050  -0.248   3.766  0.00  0.00    -0.096 A 
ATOM     10  HN1 IND d   1      -6.360  -0.964   5.655  0.00  0.00     0.298 HD
ENDROOT
TORSDOF 0
ENDMDL
