MODEL 1
REMARK minimizedAffinity 0.73342675
REMARK minimizedRMSD -1
REMARK  0 active torsions:
REMARK  status: ('A' for Active; 'I' for Inactive)
ROOT
ATOM      1  N1  IND d   1       4.837   3.453   2.316  0.00  0.00    -0.196 N 
ATOM      2  C2  IND d   1       5.999   3.816   1.696  0.00  0.00     0.054 A 
ATOM      3  C3  IND d   1       5.958   3.483   0.386  0.00  0.00    -0.031 A 
ATOM      4  C4  IND d   1       4.044   2.426  -0.973  0.00  0.00     0.051 A 
ATOM      5  C5  IND d   1       2.797   1.884  -0.836  0.00  0.00    -0.031 A 
ATOM      6  C6  IND d   1       2.152   1.839   0.383  0.00  0.00     0.015 A 
ATOM      7  C7  IND d   1       2.728   2.347   1.513  0.00  0.00    -0.016 A 
ATOM      8  C8  IND d   1       3.997   2.892   1.379  0.00  0.00    -0.047 A 
ATOM      9  C9  IND d   1       4.674   2.901   0.153  0.00  0.00    -0.096 A 
ATOM     10  HN1 IND d   1       4.659   3.558   3.151  0.00  0.00     0.298 HD
ENDROOT
TORSDOF 0
ENDMDL
