MODEL 1
REMARK minimizedAffinity 10.0259724
REMARK minimizedRMSD -1
REMARK  0 active torsions:
REMARK  status: ('A' for Active; 'I' for Inactive)
ROOT
ATOM      1  N1  IND d   1      -4.877   5.999  -5.999  0.00  0.00    -0.196 N 
ATOM      2  C2  IND d   1      -5.814   5.544  -5.114  0.00  0.00     0.054 A 
ATOM      3  C3  IND d   1      -5.214   4.980  -4.042  0.00  0.00    -0.031 A 
ATOM      4  C4  IND d   1      -2.709   4.787  -3.484  0.00  0.00     0.051 A 
ATOM      5  C5  IND d   1      -1.467   5.025  -4.004  0.00  0.00    -0.031 A 
ATOM      6  C6  IND d   1      -1.296   5.615  -5.240  0.00  0.00     0.015 A 
ATOM      7  C7  IND d   1      -2.364   6.000  -6.000  0.00  0.00    -0.016 A 
ATOM      8  C8  IND d   1      -3.626   5.753  -5.478  0.00  0.00    -0.047 A 
ATOM      9  C9  IND d   1      -3.806   5.117  -4.243  0.00  0.00    -0.096 A 
ATOM     10  HN1 IND d   1      -5.041   6.376  -6.755  0.00  0.00     0.298 HD
ENDROOT
TORSDOF 0
ENDMDL
