MODEL 1
REMARK minimizedAffinity 9.34758854
REMARK minimizedRMSD -1
REMARK  0 active torsions:
REMARK  status: ('A' for Active; 'I' for Inactive)
ROOT
ATOM      1  N1  IND d   1      -1.518   0.856   5.115  0.00  0.00    -0.196 N 
ATOM      2  C2  IND d   1      -2.759   0.879   5.688  0.00  0.00     0.054 A 
ATOM      3  C3  IND d   1      -3.662   0.279   4.881  0.00  0.00    -0.031 A 
ATOM      4  C4  IND d   1      -3.305  -0.902   2.621  0.00  0.00     0.051 A 
ATOM      5  C5  IND d   1      -2.351  -1.150   1.675  0.00  0.00    -0.031 A 
ATOM      6  C6  IND d   1      -1.044  -0.737   1.831  0.00  0.00     0.015 A 
ATOM      7  C7  IND d   1      -0.638  -0.066   2.950  0.00  0.00    -0.016 A 
ATOM      8  C8  IND d   1      -1.605   0.194   3.910  0.00  0.00    -0.047 A 
ATOM      9  C9  IND d   1      -2.942  -0.186   3.738  0.00  0.00    -0.096 A 
ATOM     10  HN1 IND d   1      -0.804   1.197   5.451  0.00  0.00     0.298 HD
ENDROOT
TORSDOF 0
ENDMDL
