MODEL 1
REMARK minimizedAffinity 10.8106585
REMARK minimizedRMSD -1
REMARK  0 active torsions:
REMARK  status: ('A' for Active; 'I' for Inactive)
ROOT
ATOM      1  N1  IND d   1       2.820   2.996  -4.194  0.00  0.00    -0.196 N 
ATOM      2  C2  IND d   1       1.817   2.561  -3.374  0.00  0.00     0.054 A 
ATOM      3  C3  IND d   1       2.204   2.628  -2.080  0.00  0.00    -0.031 A 
ATOM      4  C4  IND d   1       4.401   3.516  -1.075  0.00  0.00     0.051 A 
ATOM      5  C5  IND d   1       5.635   3.986  -1.428  0.00  0.00    -0.031 A 
ATOM      6  C6  IND d   1       6.000   4.157  -2.748  0.00  0.00     0.015 A 
ATOM      7  C7  IND d   1       5.137   3.872  -3.768  0.00  0.00    -0.016 A 
ATOM      8  C8  IND d   1       3.886   3.388  -3.414  0.00  0.00    -0.047 A 
ATOM      9  C9  IND d   1       3.525   3.173  -2.077  0.00  0.00    -0.096 A 
ATOM     10  HN1 IND d   1       2.791   3.020  -5.053  0.00  0.00     0.298 HD
ENDROOT
TORSDOF 0
ENDMDL
