MODEL 1
REMARK minimizedAffinity 6.68390417
REMARK minimizedRMSD -1
REMARK  0 active torsions:
REMARK  status: ('A' for Active; 'I' for Inactive)
ROOT
ATOM      1  N1  IND d   1      -5.999  -0.560   3.023  0.00  0.00    -0.196 N 
ATOM      2  C2  IND d   1      -5.690  -1.862   2.741  0.00  0.00     0.054 A 
ATOM      3  C3  IND d   1      -4.375  -2.090   2.952  0.00  0.00    -0.031 A 
ATOM      4  C4  IND d   1      -2.564  -0.500   3.858  0.00  0.00     0.051 A 
ATOM      5  C5  IND d   1      -2.357   0.801   4.223  0.00  0.00    -0.031 A 
ATOM      6  C6  IND d   1      -3.375   1.732   4.209  0.00  0.00     0.015 A 
ATOM      7  C7  IND d   1      -4.646   1.394   3.838  0.00  0.00    -0.016 A 
ATOM      8  C8  IND d   1      -4.858   0.076   3.460  0.00  0.00    -0.047 A 
ATOM      9  C9  IND d   1      -3.819  -0.864   3.432  0.00  0.00    -0.096 A 
ATOM     10  HN1 IND d   1      -6.775  -0.199   2.941  0.00  0.00     0.298 HD
ENDROOT
TORSDOF 0
ENDMDL
