MODEL 1
REMARK minimizedAffinity 2.78534126
REMARK minimizedRMSD -1
REMARK  1 active torsions:
REMARK  status: ('A' for Active; 'I' for Inactive)
REMARK    1  A    between atoms: C1_2  and  C2_3 
ROOT
ATOM      1  C2  UNL d   1       0.308  -0.369   0.954  0.00  0.00    -0.076 A 
ATOM      2  C3  UNL d   1       0.563  -0.732   2.288  0.00  0.00     0.004 A 
ATOM      3  C4  UNL d   1      -0.452  -0.718   3.242  0.00  0.00    -0.003 A 
ATOM      4  C5  UNL d   1      -1.741  -0.342   2.878  0.00  0.00     0.000 A 
ATOM      5  C6  UNL d   1      -2.016   0.003   1.556  0.00  0.00     0.000 A 
ATOM      6  C7  UNL d   1      -1.007  -0.021   0.577  0.00  0.00    -0.073 A 
ATOM      7  C8  UNL d   1      -1.359   0.368  -0.832  0.00  0.00     0.078 C 
ENDROOT
BRANCH   1   8
ATOM      8  C1  UNL d   1       1.455  -0.376  -0.031  0.00  0.00     0.053 C 
ATOM      9  C   UNL d   1       2.336   0.857   0.092  0.00  0.00     0.018 C 
ENDBRANCH   1   8
TORSDOF 1
ENDMDL
