MODEL 1
REMARK minimizedAffinity 0.311633259
REMARK minimizedRMSD -1
REMARK  1 active torsions:
REMARK  status: ('A' for Active; 'I' for Inactive)
REMARK    1  A    between atoms: C1_2  and  C2_3 
ROOT
ATOM      1  C2  UNL d   1       0.369  -0.362   1.567  0.00  0.00    -0.076 A 
ATOM      2  C3  UNL d   1       0.967  -0.811   2.758  0.00  0.00     0.004 A 
ATOM      3  C4  UNL d   1       0.199  -1.074   3.891  0.00  0.00    -0.003 A 
ATOM      4  C5  UNL d   1      -1.179  -0.894   3.852  0.00  0.00     0.000 A 
ATOM      5  C6  UNL d   1      -1.791  -0.466   2.674  0.00  0.00     0.000 A 
ATOM      6  C7  UNL d   1      -1.034  -0.212   1.518  0.00  0.00    -0.073 A 
ATOM      7  C8  UNL d   1      -1.745   0.253   0.277  0.00  0.00     0.078 C 
ENDROOT
BRANCH   1   8
ATOM      8  C1  UNL d   1       1.255  -0.066   0.378  0.00  0.00     0.053 C 
ATOM      9  C   UNL d   1       2.296   1.000   0.679  0.00  0.00     0.018 C 
ENDBRANCH   1   8
TORSDOF 1
ENDMDL
