MODEL 1
REMARK minimizedAffinity -0.774271131
REMARK minimizedRMSD -1
REMARK  1 active torsions:
REMARK  status: ('A' for Active; 'I' for Inactive)
REMARK    1  A    between atoms: C1_2  and  C2_3 
ROOT
ATOM      1  C2  UNL d   1      -0.452  -0.225   1.010  0.00  0.00    -0.076 A 
ATOM      2  C3  UNL d   1      -1.238   0.340  -0.008  0.00  0.00     0.004 A 
ATOM      3  C4  UNL d   1      -2.515   0.831   0.260  0.00  0.00    -0.003 A 
ATOM      4  C5  UNL d   1      -3.026   0.765   1.551  0.00  0.00     0.000 A 
ATOM      5  C6  UNL d   1      -2.253   0.224   2.578  0.00  0.00     0.000 A 
ATOM      6  C7  UNL d   1      -0.957  -0.261   2.328  0.00  0.00    -0.073 A 
ATOM      7  C8  UNL d   1      -0.170  -0.840   3.471  0.00  0.00     0.078 C 
ENDROOT
BRANCH   1   8
ATOM      8  C1  UNL d   1       0.914  -0.766   0.655  0.00  0.00     0.053 C 
ATOM      9  C   UNL d   1       1.900   0.334   0.293  0.00  0.00     0.018 C 
ENDBRANCH   1   8
TORSDOF 1
ENDMDL
