MODEL 1
REMARK minimizedAffinity 4.49125767
REMARK minimizedRMSD -1
REMARK  1 active torsions:
REMARK  status: ('A' for Active; 'I' for Inactive)
REMARK    1  A    between atoms: C1_2  and  C2_3 
ROOT
ATOM      1  C2  UNL d   1       0.785  -0.149  -0.375  0.00  0.00    -0.076 A 
ATOM      2  C3  UNL d   1       0.790  -0.875   0.829  0.00  0.00     0.004 A 
ATOM      3  C4  UNL d   1       1.983  -1.321   1.393  0.00  0.00    -0.003 A 
ATOM      4  C5  UNL d   1       3.193  -1.047   0.764  0.00  0.00     0.000 A 
ATOM      5  C6  UNL d   1       3.208  -0.313  -0.422  0.00  0.00     0.000 A 
ATOM      6  C7  UNL d   1       2.015   0.158  -0.996  0.00  0.00    -0.073 A 
ATOM      7  C8  UNL d   1       2.090   0.940  -2.278  0.00  0.00     0.078 C 
ENDROOT
BRANCH   1   8
ATOM      8  C1  UNL d   1      -0.542   0.285  -0.954  0.00  0.00     0.053 C 
ATOM      9  C   UNL d   1      -1.701  -0.568  -0.460  0.00  0.00     0.018 C 
ENDBRANCH   1   8
TORSDOF 1
ENDMDL
