MODEL 1
REMARK minimizedAffinity -2.44106436
REMARK minimizedRMSD -1
REMARK  1 active torsions:
REMARK  status: ('A' for Active; 'I' for Inactive)
REMARK    1  A    between atoms: C1_2  and  C2_3 
ROOT
ATOM      1  C2  UNL d   1       0.209  -0.942   1.628  0.00  0.00    -0.076 A 
ATOM      2  C3  UNL d   1       0.710  -0.957   2.941  0.00  0.00     0.004 A 
ATOM      3  C4  UNL d   1      -0.080  -0.550   4.015  0.00  0.00    -0.003 A 
ATOM      4  C5  UNL d   1      -1.384  -0.122   3.793  0.00  0.00     0.000 A 
ATOM      5  C6  UNL d   1      -1.903  -0.118   2.499  0.00  0.00     0.000 A 
ATOM      6  C7  UNL d   1      -1.125  -0.541   1.407  0.00  0.00    -0.073 A 
ATOM      7  C8  UNL d   1      -1.734  -0.510   0.032  0.00  0.00     0.078 C 
ENDROOT
BRANCH   1   8
ATOM      8  C1  UNL d   1       1.122  -1.368   0.500  0.00  0.00     0.053 C 
ATOM      9  C   UNL d   1       2.318  -0.444   0.337  0.00  0.00     0.018 C 
ENDBRANCH   1   8
TORSDOF 1
ENDMDL
