MODEL 1
REMARK minimizedAffinity 2.55221462
REMARK minimizedRMSD -1
REMARK  1 active torsions:
REMARK  status: ('A' for Active; 'I' for Inactive)
REMARK    1  A    between atoms: C1_2  and  C2_3 
ROOT
ATOM      1  C2  UNL d   1       2.567   0.534  -1.174  0.00  0.00    -0.076 A 
ATOM      2  C3  UNL d   1       3.509   0.887  -0.191  0.00  0.00     0.004 A 
ATOM      3  C4  UNL d   1       4.578   1.729  -0.492  0.00  0.00    -0.003 A 
ATOM      4  C5  UNL d   1       4.723   2.232  -1.780  0.00  0.00     0.000 A 
ATOM      5  C6  UNL d   1       3.788   1.907  -2.763  0.00  0.00     0.000 A 
ATOM      6  C7  UNL d   1       2.695   1.073  -2.472  0.00  0.00    -0.073 A 
ATOM      7  C8  UNL d   1       1.721   0.750  -3.571  0.00  0.00     0.078 C 
ENDROOT
BRANCH   1   8
ATOM      8  C1  UNL d   1       1.443  -0.405  -0.796  0.00  0.00     0.053 C 
ATOM      9  C   UNL d   1       1.258  -0.515   0.710  0.00  0.00     0.018 C 
ENDBRANCH   1   8
TORSDOF 1
ENDMDL
