MODEL 1
REMARK minimizedAffinity -0.769131601
REMARK minimizedRMSD -1
REMARK  1 active torsions:
REMARK  status: ('A' for Active; 'I' for Inactive)
REMARK    1  A    between atoms: C1_2  and  C2_3 
ROOT
ATOM      1  C2  UNL d   1      -0.747  -0.148   2.511  0.00  0.00    -0.076 A 
ATOM      2  C3  UNL d   1      -2.144  -0.088   2.662  0.00  0.00     0.004 A 
ATOM      3  C4  UNL d   1      -2.988  -0.143   1.554  0.00  0.00    -0.003 A 
ATOM      4  C5  UNL d   1      -2.449  -0.260   0.277  0.00  0.00     0.000 A 
ATOM      5  C6  UNL d   1      -1.067  -0.339   0.111  0.00  0.00     0.000 A 
ATOM      6  C7  UNL d   1      -0.203  -0.301   1.218  0.00  0.00    -0.073 A 
ATOM      7  C8  UNL d   1       1.280  -0.383   0.980  0.00  0.00     0.078 C 
ENDROOT
BRANCH   1   8
ATOM      8  C1  UNL d   1       0.119  -0.056   3.747  0.00  0.00     0.053 C 
ATOM      9  C   UNL d   1       0.020  -1.296   4.622  0.00  0.00     0.018 C 
ENDBRANCH   1   8
TORSDOF 1
ENDMDL
