MODEL 1
REMARK minimizedAffinity -3.22194195
REMARK minimizedRMSD -1
REMARK  1 active torsions:
REMARK  status: ('A' for Active; 'I' for Inactive)
REMARK    1  A    between atoms: C1_2  and  C2_3 
ROOT
ATOM      1  C2  UNL d   1       0.268   0.323  -0.179  0.00  0.00    -0.077 A 
ATOM      2  C3  UNL d   1      -0.211   1.628  -0.356  0.00  0.00     0.002 A 
ATOM      3  C4  UNL d   1      -0.367   2.478   0.741  0.00  0.00     0.002 A 
ATOM      4  C5  UNL d   1      -0.041   2.033   2.021  0.00  0.00    -0.004 A 
ATOM      5  C6  UNL d   1       0.435   0.736   2.207  0.00  0.00     0.002 A 
ATOM      6  C7  UNL d   1       0.590  -0.115   1.112  0.00  0.00     0.002 A 
ENDROOT
BRANCH   1   7
ATOM      7  C1  UNL d   1       0.483  -0.579  -1.367  0.00  0.00     0.055 C 
ATOM      8  C   UNL d   1       0.070  -2.010  -1.057  0.00  0.00     0.019 C 
ENDBRANCH   1   7
TORSDOF 1
ENDMDL
