MODEL 1
REMARK minimizedAffinity -5.39005661
REMARK minimizedRMSD -1
REMARK  1 active torsions:
REMARK  status: ('A' for Active; 'I' for Inactive)
REMARK    1  A    between atoms: C1_2  and  C2_3 
ROOT
ATOM      1  C2  UNL d   1       0.090   0.753   0.856  0.00  0.00    -0.077 A 
ATOM      2  C3  UNL d   1      -0.731   1.595   0.093  0.00  0.00     0.002 A 
ATOM      3  C4  UNL d   1      -0.859   2.946   0.424  0.00  0.00     0.002 A 
ATOM      4  C5  UNL d   1      -0.167   3.466   1.515  0.00  0.00    -0.004 A 
ATOM      5  C6  UNL d   1       0.650   2.636   2.282  0.00  0.00     0.002 A 
ATOM      6  C7  UNL d   1       0.779   1.286   1.953  0.00  0.00     0.002 A 
ENDROOT
BRANCH   1   7
ATOM      7  C1  UNL d   1       0.269  -0.693   0.472  0.00  0.00     0.055 C 
ATOM      8  C   UNL d   1       0.895  -0.825  -0.909  0.00  0.00     0.019 C 
ENDBRANCH   1   7
TORSDOF 1
ENDMDL
