MODEL 1
REMARK minimizedAffinity -6.12351799
REMARK minimizedRMSD -1
REMARK  1 active torsions:
REMARK  status: ('A' for Active; 'I' for Inactive)
REMARK    1  A    between atoms: C1_2  and  C2_3 
ROOT
ATOM      1  C2  UNL d   1      -0.132   0.230   0.865  0.00  0.00    -0.077 A 
ATOM      2  C3  UNL d   1      -1.308   0.744   0.301  0.00  0.00     0.002 A 
ATOM      3  C4  UNL d   1      -1.742   2.031   0.623  0.00  0.00     0.002 A 
ATOM      4  C5  UNL d   1      -1.003   2.817   1.506  0.00  0.00    -0.004 A 
ATOM      5  C6  UNL d   1       0.167   2.314   2.073  0.00  0.00     0.002 A 
ATOM      6  C7  UNL d   1       0.601   1.027   1.754  0.00  0.00     0.002 A 
ENDROOT
BRANCH   1   7
ATOM      7  C1  UNL d   1       0.364  -1.140   0.481  0.00  0.00     0.055 C 
ATOM      8  C   UNL d   1       0.216  -1.383  -1.014  0.00  0.00     0.019 C 
ENDBRANCH   1   7
TORSDOF 1
ENDMDL
