MODEL 1
REMARK minimizedAffinity -4.96848488
REMARK minimizedRMSD -1
REMARK  1 active torsions:
REMARK  status: ('A' for Active; 'I' for Inactive)
REMARK    1  A    between atoms: C1_2  and  C2_3 
ROOT
ATOM      1  C2  UNL d   1       0.344   0.795   0.007  0.00  0.00    -0.077 A 
ATOM      2  C3  UNL d   1       0.859   1.004   1.293  0.00  0.00     0.002 A 
ATOM      3  C4  UNL d   1       0.231   1.892   2.170  0.00  0.00     0.002 A 
ATOM      4  C5  UNL d   1      -0.917   2.573   1.770  0.00  0.00    -0.004 A 
ATOM      5  C6  UNL d   1      -1.436   2.373   0.491  0.00  0.00     0.002 A 
ATOM      6  C7  UNL d   1      -0.809   1.487  -0.386  0.00  0.00     0.002 A 
ENDROOT
BRANCH   1   7
ATOM      7  C1  UNL d   1       0.991  -0.199  -0.922  0.00  0.00     0.055 C 
ATOM      8  C   UNL d   1       0.150  -1.460  -1.057  0.00  0.00     0.019 C 
ENDBRANCH   1   7
TORSDOF 1
ENDMDL
