MODEL 1
REMARK minimizedAffinity 8.8566103
REMARK minimizedRMSD -1
REMARK  1 active torsions:
REMARK  status: ('A' for Active; 'I' for Inactive)
REMARK    1  A    between atoms: N_2  and  C1_3 
ROOT
ATOM      1  C1  UNL d   1       0.376   1.114   4.647  0.00  0.00     0.143 A 
ATOM      2  C2  UNL d   1      -0.374   0.865   3.492  0.00  0.00    -0.057 A 
ATOM      3  C3  UNL d   1       0.092  -0.002   2.496  0.00  0.00     0.033 A 
ATOM      4  C4  UNL d   1       1.335  -0.614   2.625  0.00  0.00    -0.042 A 
ATOM      5  C5  UNL d   1       2.109  -0.361   3.752  0.00  0.00     0.033 A 
ATOM      6  C6  UNL d   1       1.634   0.501   4.746  0.00  0.00    -0.057 A 
ENDROOT
BRANCH   1   7
ATOM      7  N   UNL d   1       0.011   2.042   5.626  0.00  0.00    -0.732 N 
ATOM      8  C   UNL d   1       0.910   3.112   6.000  0.00  0.00     0.284 C 
ATOM      9  H3  UNL d   1      -0.963   2.326   5.548  0.00  0.00     0.395 HD
ENDBRANCH   1   7
TORSDOF 1
ENDMDL
