MODEL 1
REMARK minimizedAffinity 16.4659672
REMARK minimizedRMSD -1
REMARK  1 active torsions:
REMARK  status: ('A' for Active; 'I' for Inactive)
REMARK    1  A    between atoms: N_2  and  C1_3 
ROOT
ATOM      1  C1  UNL d   1       2.448   1.244   4.677  0.00  0.00     0.143 A 
ATOM      2  C2  UNL d   1       1.211   1.418   5.307  0.00  0.00    -0.057 A 
ATOM      3  C3  UNL d   1       0.042   0.856   4.779  0.00  0.00     0.033 A 
ATOM      4  C4  UNL d   1       0.086   0.131   3.593  0.00  0.00    -0.042 A 
ATOM      5  C5  UNL d   1       1.301  -0.034   2.937  0.00  0.00     0.033 A 
ATOM      6  C6  UNL d   1       2.466   0.525   3.472  0.00  0.00    -0.057 A 
ENDROOT
BRANCH   1   7
ATOM      7  N   UNL d   1       3.629   1.860   5.099  0.00  0.00    -0.732 N 
ATOM      8  C   UNL d   1       4.881   1.594   4.424  0.00  0.00     0.284 C 
ATOM      9  H3  UNL d   1       3.490   2.837   5.348  0.00  0.00     0.395 HD
ENDBRANCH   1   7
TORSDOF 1
ENDMDL
