MODEL 1
REMARK minimizedAffinity 6.34256983
REMARK minimizedRMSD -1
REMARK  1 active torsions:
REMARK  status: ('A' for Active; 'I' for Inactive)
REMARK    1  A    between atoms: N_2  and  C1_3 
ROOT
ATOM      1  C1  UNL d   1      -1.314  -0.698   2.970  0.00  0.00     0.143 A 
ATOM      2  C2  UNL d   1      -0.697  -1.833   3.505  0.00  0.00    -0.057 A 
ATOM      3  C3  UNL d   1       0.683  -1.867   3.740  0.00  0.00     0.033 A 
ATOM      4  C4  UNL d   1       1.477  -0.772   3.416  0.00  0.00    -0.042 A 
ATOM      5  C5  UNL d   1       0.888   0.359   2.861  0.00  0.00     0.033 A 
ATOM      6  C6  UNL d   1      -0.491   0.389   2.634  0.00  0.00    -0.057 A 
ENDROOT
BRANCH   1   7
ATOM      7  N   UNL d   1      -2.666  -0.638   2.622  0.00  0.00    -0.732 N 
ATOM      8  C   UNL d   1      -3.579  -1.683   3.032  0.00  0.00     0.284 C 
ATOM      9  H3  UNL d   1      -3.047   0.302   2.701  0.00  0.00     0.395 HD
ENDBRANCH   1   7
TORSDOF 1
ENDMDL
