MODEL 1
REMARK minimizedAffinity 5.85434961
REMARK minimizedRMSD -1
REMARK  1 active torsions:
REMARK  status: ('A' for Active; 'I' for Inactive)
REMARK    1  A    between atoms: N_2  and  C1_3 
ROOT
ATOM      1  C1  UNL d   1       1.844   0.029   3.696  0.00  0.00     0.143 A 
ATOM      2  C2  UNL d   1       0.781   0.567   2.962  0.00  0.00    -0.057 A 
ATOM      3  C3  UNL d   1      -0.316  -0.219   2.589  0.00  0.00     0.033 A 
ATOM      4  C4  UNL d   1      -0.356  -1.569   2.920  0.00  0.00    -0.042 A 
ATOM      5  C5  UNL d   1       0.701  -2.132   3.627  0.00  0.00     0.033 A 
ATOM      6  C6  UNL d   1       1.790  -1.340   4.002  0.00  0.00    -0.057 A 
ENDROOT
BRANCH   1   7
ATOM      7  N   UNL d   1       3.008   0.734   4.011  0.00  0.00    -0.732 N 
ATOM      8  C   UNL d   1       4.286   0.325   3.471  0.00  0.00     0.284 C 
ATOM      9  H3  UNL d   1       2.862   1.741   4.017  0.00  0.00     0.395 HD
ENDBRANCH   1   7
TORSDOF 1
ENDMDL
