MODEL 1
REMARK minimizedAffinity 2.77827048
REMARK minimizedRMSD -1
REMARK  1 active torsions:
REMARK  status: ('A' for Active; 'I' for Inactive)
REMARK    1  A    between atoms: N_2  and  C1_3 
ROOT
ATOM      1  C1  UNL d   1       0.666  -2.018   3.587  0.00  0.00     0.143 A 
ATOM      2  C2  UNL d   1      -0.347  -1.807   2.644  0.00  0.00    -0.057 A 
ATOM      3  C3  UNL d   1      -0.684  -0.517   2.217  0.00  0.00     0.033 A 
ATOM      4  C4  UNL d   1      -0.032   0.591   2.749  0.00  0.00    -0.042 A 
ATOM      5  C5  UNL d   1       0.960   0.406   3.705  0.00  0.00     0.033 A 
ATOM      6  C6  UNL d   1       1.297  -0.885   4.122  0.00  0.00    -0.057 A 
ENDROOT
BRANCH   1   7
ATOM      7  N   UNL d   1       0.980  -3.269   4.124  0.00  0.00    -0.732 N 
ATOM      8  C   UNL d   1       1.581  -3.377   5.436  0.00  0.00     0.284 C 
ATOM      9  H3  UNL d   1       0.260  -3.963   3.938  0.00  0.00     0.395 HD
ENDBRANCH   1   7
TORSDOF 1
ENDMDL
