MODEL 1
REMARK minimizedAffinity 5.76136065
REMARK minimizedRMSD -1
REMARK  1 active torsions:
REMARK  status: ('A' for Active; 'I' for Inactive)
REMARK    1  A    between atoms: N_2  and  C1_3 
ROOT
ATOM      1  C1  UNL d   1       0.333   0.818   4.055  0.00  0.00     0.143 A 
ATOM      2  C2  UNL d   1       1.240  -0.041   4.686  0.00  0.00    -0.057 A 
ATOM      3  C3  UNL d   1       1.508  -1.316   4.174  0.00  0.00     0.033 A 
ATOM      4  C4  UNL d   1       0.850  -1.768   3.035  0.00  0.00    -0.042 A 
ATOM      5  C5  UNL d   1      -0.074  -0.941   2.406  0.00  0.00     0.033 A 
ATOM      6  C6  UNL d   1      -0.332   0.334   2.918  0.00  0.00    -0.057 A 
ENDROOT
BRANCH   1   7
ATOM      7  N   UNL d   1      -0.050   2.058   4.570  0.00  0.00    -0.732 N 
ATOM      8  C   UNL d   1      -0.122   2.273   6.000  0.00  0.00     0.284 C 
ATOM      9  H3  UNL d   1       0.355   2.835   4.053  0.00  0.00     0.395 HD
ENDBRANCH   1   7
TORSDOF 1
ENDMDL
