MODEL 1
REMARK minimizedAffinity -0.044053264
REMARK minimizedRMSD -1
REMARK  1 active torsions:
REMARK  status: ('A' for Active; 'I' for Inactive)
REMARK    1  A    between atoms: C3_4  and  O_7 
ROOT
ATOM      1  C   UNL d   1      -5.295   5.428  -5.958  0.00  0.00    -0.033 A 
ATOM      2  C1  UNL d   1      -6.000   4.238  -5.769  0.00  0.00     0.039 A 
ATOM      3  C2  UNL d   1      -5.999   3.615  -4.519  0.00  0.00    -0.080 A 
ATOM      4  C3  UNL d   1      -5.291   4.192  -3.468  0.00  0.00     0.150 A 
ATOM      5  C4  UNL d   1      -4.590   5.380  -3.649  0.00  0.00    -0.007 A 
ATOM      6  C5  UNL d   1      -4.591   6.000  -4.897  0.00  0.00     0.039 A 
ENDROOT
BRANCH   4   7
ATOM      7  O   UNL d   1      -5.257   3.618  -2.232  0.00  0.00    -0.526 OA
ATOM      8  H5  UNL d   1      -5.762   2.788  -2.264  0.00  0.00     0.418 HD
ENDBRANCH   4   7
TORSDOF 1
ENDMDL
