MODEL 1
REMARK minimizedAffinity 3.34534121
REMARK minimizedRMSD -1
REMARK  1 active torsions:
REMARK  status: ('A' for Active; 'I' for Inactive)
REMARK    1  A    between atoms: C3_4  and  O_7 
ROOT
ATOM      1  C   UNL d   1      -0.001   1.592   1.492  0.00  0.00    -0.033 A 
ATOM      2  C1  UNL d   1       0.422   2.921   1.560  0.00  0.00     0.039 A 
ATOM      3  C2  UNL d   1       0.312   3.748   0.440  0.00  0.00    -0.080 A 
ATOM      4  C3  UNL d   1      -0.224   3.235  -0.738  0.00  0.00     0.150 A 
ATOM      5  C4  UNL d   1      -0.650   1.913  -0.811  0.00  0.00    -0.007 A 
ATOM      6  C5  UNL d   1      -0.538   1.089   0.308  0.00  0.00     0.039 A 
ENDROOT
BRANCH   4   7
ATOM      7  O   UNL d   1      -0.347   4.003  -1.858  0.00  0.00    -0.526 OA
ATOM      8  H5  UNL d   1       0.015   4.884  -1.668  0.00  0.00     0.418 HD
ENDBRANCH   4   7
TORSDOF 1
ENDMDL
