MODEL 1
REMARK minimizedAffinity 3.69807434
REMARK minimizedRMSD -1
REMARK  1 active torsions:
REMARK  status: ('A' for Active; 'I' for Inactive)
REMARK    1  A    between atoms: C3_4  and  O_7 
ROOT
ATOM      1  C   UNL d   1      -0.102   2.343   1.211  0.00  0.00    -0.033 A 
ATOM      2  C1  UNL d   1      -1.200   2.032   2.015  0.00  0.00     0.039 A 
ATOM      3  C2  UNL d   1      -1.072   1.098   3.044  0.00  0.00    -0.080 A 
ATOM      4  C3  UNL d   1       0.159   0.484   3.260  0.00  0.00     0.150 A 
ATOM      5  C4  UNL d   1       1.258   0.792   2.465  0.00  0.00    -0.007 A 
ATOM      6  C5  UNL d   1       1.128   1.725   1.437  0.00  0.00     0.039 A 
ENDROOT
BRANCH   4   7
ATOM      7  O   UNL d   1       0.332  -0.438   4.250  0.00  0.00    -0.526 OA
ATOM      8  H5  UNL d   1      -0.520  -0.571   4.698  0.00  0.00     0.418 HD
ENDBRANCH   4   7
TORSDOF 1
ENDMDL
