MODEL 1
REMARK minimizedAffinity 3.56039262
REMARK minimizedRMSD -1
REMARK  1 active torsions:
REMARK  status: ('A' for Active; 'I' for Inactive)
REMARK    1  A    between atoms: C3_4  and  O_7 
ROOT
ATOM      1  C   UNL d   1      -0.344   1.925   2.233  0.00  0.00    -0.033 A 
ATOM      2  C1  UNL d   1      -0.955   3.001   1.587  0.00  0.00     0.039 A 
ATOM      3  C2  UNL d   1      -1.076   3.005   0.196  0.00  0.00    -0.080 A 
ATOM      4  C3  UNL d   1      -0.582   1.929  -0.536  0.00  0.00     0.150 A 
ATOM      5  C4  UNL d   1       0.024   0.852   0.102  0.00  0.00    -0.007 A 
ATOM      6  C5  UNL d   1       0.144   0.849   1.491  0.00  0.00     0.039 A 
ENDROOT
BRANCH   4   7
ATOM      7  O   UNL d   1      -0.672   1.891  -1.896  0.00  0.00    -0.526 OA
ATOM      8  H5  UNL d   1      -1.089   2.714  -2.200  0.00  0.00     0.418 HD
ENDBRANCH   4   7
TORSDOF 1
ENDMDL
