MODEL 1
REMARK minimizedAffinity 3.20617318
REMARK minimizedRMSD -1
REMARK  1 active torsions:
REMARK  status: ('A' for Active; 'I' for Inactive)
REMARK    1  A    between atoms: C3_4  and  O_7 
ROOT
ATOM      1  C   UNL d   1       1.198  -1.012   0.013  0.00  0.00    -0.033 A 
ATOM      2  C1  UNL d   1       1.635  -1.248   1.318  0.00  0.00     0.039 A 
ATOM      3  C2  UNL d   1       1.176  -0.447   2.366  0.00  0.00    -0.080 A 
ATOM      4  C3  UNL d   1       0.282   0.585   2.096  0.00  0.00     0.150 A 
ATOM      5  C4  UNL d   1      -0.161   0.824   0.799  0.00  0.00    -0.007 A 
ATOM      6  C5  UNL d   1       0.299   0.023  -0.246  0.00  0.00     0.039 A 
ENDROOT
BRANCH   4   7
ATOM      7  O   UNL d   1      -0.190   1.396   3.085  0.00  0.00    -0.526 OA
ATOM      8  H5  UNL d   1       0.224   1.132   3.923  0.00  0.00     0.418 HD
ENDBRANCH   4   7
TORSDOF 1
ENDMDL
