MODEL 1
REMARK minimizedAffinity 0.0834233239
REMARK minimizedRMSD -1
REMARK  1 active torsions:
REMARK  status: ('A' for Active; 'I' for Inactive)
REMARK    1  A    between atoms: C3_4  and  O_7 
ROOT
ATOM      1  C   UNL d   1      -5.995  -3.308   4.463  0.00  0.00    -0.033 A 
ATOM      2  C1  UNL d   1      -5.721  -2.555   5.606  0.00  0.00     0.039 A 
ATOM      3  C2  UNL d   1      -5.443  -1.191   5.495  0.00  0.00    -0.080 A 
ATOM      4  C3  UNL d   1      -5.443  -0.594   4.238  0.00  0.00     0.150 A 
ATOM      5  C4  UNL d   1      -5.720  -1.337   3.095  0.00  0.00    -0.007 A 
ATOM      6  C5  UNL d   1      -5.996  -2.699   3.208  0.00  0.00     0.039 A 
ENDROOT
BRANCH   4   7
ATOM      7  O   UNL d   1      -5.173   0.733   4.080  0.00  0.00    -0.526 OA
ATOM      8  H5  UNL d   1      -4.973   1.113   4.952  0.00  0.00     0.418 HD
ENDBRANCH   4   7
TORSDOF 1
ENDMDL
