MODEL 1
REMARK minimizedAffinity -2.58768249
REMARK minimizedRMSD -1
REMARK  1 active torsions:
REMARK  status: ('A' for Active; 'I' for Inactive)
REMARK    1  A    between atoms: C3_4  and  O_7 
ROOT
ATOM      1  C   UNL d   1      -6.000  -2.219   4.810  0.00  0.00    -0.033 A 
ATOM      2  C1  UNL d   1      -5.907  -1.411   5.946  0.00  0.00     0.039 A 
ATOM      3  C2  UNL d   1      -5.791  -0.026   5.811  0.00  0.00    -0.080 A 
ATOM      4  C3  UNL d   1      -5.771   0.538   4.539  0.00  0.00     0.150 A 
ATOM      5  C4  UNL d   1      -5.867  -0.261   3.404  0.00  0.00    -0.007 A 
ATOM      6  C5  UNL d   1      -5.981  -1.644   3.540  0.00  0.00     0.039 A 
ENDROOT
BRANCH   4   7
ATOM      7  O   UNL d   1      -5.655   1.884   4.358  0.00  0.00    -0.526 OA
ATOM      8  H5  UNL d   1      -5.569   2.305   5.229  0.00  0.00     0.418 HD
ENDBRANCH   4   7
TORSDOF 1
ENDMDL
