MODEL 1
REMARK minimizedAffinity -1.65612423
REMARK minimizedRMSD -1
REMARK  1 active torsions:
REMARK  status: ('A' for Active; 'I' for Inactive)
REMARK    1  A    between atoms: C3_4  and  O_7 
ROOT
ATOM      1  C   UNL d   1       0.076   1.774   0.488  0.00  0.00    -0.033 A 
ATOM      2  C1  UNL d   1       0.494   0.527   0.021  0.00  0.00     0.039 A 
ATOM      3  C2  UNL d   1       1.116  -0.373   0.889  0.00  0.00    -0.080 A 
ATOM      4  C3  UNL d   1       1.313  -0.014   2.219  0.00  0.00     0.150 A 
ATOM      5  C4  UNL d   1       0.896   1.225   2.693  0.00  0.00    -0.007 A 
ATOM      6  C5  UNL d   1       0.276   2.123   1.824  0.00  0.00     0.039 A 
ENDROOT
BRANCH   4   7
ATOM      7  O   UNL d   1       1.919  -0.857   3.103  0.00  0.00    -0.526 OA
ATOM      8  H5  UNL d   1       2.179  -1.665   2.628  0.00  0.00     0.418 HD
ENDBRANCH   4   7
TORSDOF 1
ENDMDL
