MODEL 1
REMARK minimizedAffinity -4.62706852
REMARK minimizedRMSD -1
REMARK  0 active torsions:
REMARK  status: ('A' for Active; 'I' for Inactive)
ROOT
ATOM      1  C2' OXE d   1       0.401   1.504  -0.034  0.00  0.00     0.078 C 
ATOM      2  C1' OXE d   1      -0.369  -1.021   0.920  0.00  0.00     0.078 C 
ATOM      3  C1  OXE d   1       0.556  -0.971  -0.270  0.00  0.00    -0.078 A 
ATOM      4  C2  OXE d   1       0.890   0.269  -0.759  0.00  0.00    -0.078 A 
ATOM      5  C3  OXE d   1       1.784   0.373  -1.821  0.00  0.00     0.003 A 
ATOM      6  C4  OXE d   1       2.224  -0.774  -2.492  0.00  0.00    -0.002 A 
ATOM      7  C5  OXE d   1       1.864  -2.046  -2.035  0.00  0.00    -0.002 A 
ATOM      8  C6  OXE d   1       1.067  -2.162  -0.902  0.00  0.00     0.003 A 
ENDROOT
TORSDOF 0
ENDMDL
