MODEL 1
REMARK minimizedAffinity -4.92043114
REMARK minimizedRMSD -1
REMARK  0 active torsions:
REMARK  status: ('A' for Active; 'I' for Inactive)
ROOT
ATOM      1  C2' OXE d   1       1.525  -0.217  -2.764  0.00  0.00     0.078 C 
ATOM      2  C1' OXE d   1       0.381  -2.396  -1.414  0.00  0.00     0.078 C 
ATOM      3  C1  OXE d   1       0.430  -1.071  -0.696  0.00  0.00    -0.078 A 
ATOM      4  C2  OXE d   1       1.034  -0.021  -1.346  0.00  0.00    -0.078 A 
ATOM      5  C3  OXE d   1       1.058   1.237  -0.751  0.00  0.00     0.003 A 
ATOM      6  C4  OXE d   1       0.611   1.407   0.565  0.00  0.00    -0.002 A 
ATOM      7  C5  OXE d   1       0.028   0.342   1.260  0.00  0.00    -0.002 A 
ATOM      8  C6  OXE d   1      -0.108  -0.890   0.630  0.00  0.00     0.003 A 
ENDROOT
TORSDOF 0
ENDMDL
