MODEL 1
REMARK minimizedAffinity -4.88319302
REMARK minimizedRMSD -1
REMARK  0 active torsions:
REMARK  status: ('A' for Active; 'I' for Inactive)
ROOT
ATOM      1  C2' OXE d   1       0.225  -2.273  -1.100  0.00  0.00     0.078 C 
ATOM      2  C1' OXE d   1      -0.439  -0.333   0.817  0.00  0.00     0.078 C 
ATOM      3  C1  OXE d   1       0.299   0.121  -0.417  0.00  0.00    -0.078 A 
ATOM      4  C2  OXE d   1       0.661  -0.842  -1.328  0.00  0.00    -0.078 A 
ATOM      5  C3  OXE d   1       1.296  -0.469  -2.509  0.00  0.00     0.003 A 
ATOM      6  C4  OXE d   1       1.704   0.855  -2.707  0.00  0.00    -0.002 A 
ATOM      7  C5  OXE d   1       1.381   1.845  -1.774  0.00  0.00    -0.002 A 
ATOM      8  C6  OXE d   1       0.643   1.503  -0.646  0.00  0.00     0.003 A 
ENDROOT
TORSDOF 0
ENDMDL
