MODEL 1
REMARK minimizedAffinity -5.30619001
REMARK minimizedRMSD -1
REMARK  0 active torsions:
REMARK  status: ('A' for Active; 'I' for Inactive)
ROOT
ATOM      1  C2' OXE d   1       0.732   1.618  -0.077  0.00  0.00     0.078 C 
ATOM      2  C1' OXE d   1      -0.901  -0.645  -0.383  0.00  0.00     0.078 C 
ATOM      3  C1  OXE d   1       0.447  -0.654  -1.059  0.00  0.00    -0.078 A 
ATOM      4  C2  OXE d   1       1.220   0.477  -0.943  0.00  0.00    -0.078 A 
ATOM      5  C3  OXE d   1       2.495   0.501  -1.502  0.00  0.00     0.003 A 
ATOM      6  C4  OXE d   1       2.934  -0.555  -2.310  0.00  0.00    -0.002 A 
ATOM      7  C5  OXE d   1       2.146  -1.699  -2.474  0.00  0.00    -0.002 A 
ATOM      8  C6  OXE d   1       0.921  -1.782  -1.822  0.00  0.00     0.003 A 
ENDROOT
TORSDOF 0
ENDMDL
