MODEL 1
REMARK minimizedAffinity -4.8887701
REMARK minimizedRMSD -1
REMARK  0 active torsions:
REMARK  status: ('A' for Active; 'I' for Inactive)
ROOT
ATOM      1  C2' OXE d   1       0.799   1.685  -0.805  0.00  0.00     0.078 C 
ATOM      2  C1' OXE d   1      -0.514  -0.259   0.737  0.00  0.00     0.078 C 
ATOM      3  C1  OXE d   1       0.405  -0.734  -0.361  0.00  0.00    -0.078 A 
ATOM      4  C2  OXE d   1       1.007   0.224  -1.140  0.00  0.00    -0.078 A 
ATOM      5  C3  OXE d   1       1.907  -0.159  -2.131  0.00  0.00     0.003 A 
ATOM      6  C4  OXE d   1       2.086  -1.512  -2.441  0.00  0.00    -0.002 A 
ATOM      7  C5  OXE d   1       1.452  -2.504  -1.686  0.00  0.00    -0.002 A 
ATOM      8  C6  OXE d   1       0.643  -2.133  -0.617  0.00  0.00     0.003 A 
ENDROOT
TORSDOF 0
ENDMDL
