MODEL 1
REMARK minimizedAffinity -3.45988059
REMARK minimizedRMSD -1
REMARK  0 active torsions:
REMARK  status: ('A' for Active; 'I' for Inactive)
ROOT
ATOM      1  C2' OXE d   1       0.152  -2.444  -1.344  0.00  0.00     0.078 C 
ATOM      2  C1' OXE d   1       1.308  -0.238  -2.639  0.00  0.00     0.078 C 
ATOM      3  C1  OXE d   1       0.852  -0.056  -1.213  0.00  0.00    -0.078 A 
ATOM      4  C2  OXE d   1       0.245  -1.127  -0.603  0.00  0.00    -0.078 A 
ATOM      5  C3  OXE d   1      -0.146  -1.030   0.730  0.00  0.00     0.003 A 
ATOM      6  C4  OXE d   1      -0.066   0.194   1.405  0.00  0.00    -0.002 A 
ATOM      7  C5  OXE d   1       0.513   1.308   0.788  0.00  0.00    -0.002 A 
ATOM      8  C6  OXE d   1       1.014   1.188  -0.503  0.00  0.00     0.003 A 
ENDROOT
TORSDOF 0
ENDMDL
