MODEL 1
REMARK minimizedAffinity -4.6160779
REMARK minimizedRMSD -1
REMARK  0 active torsions:
REMARK  status: ('A' for Active; 'I' for Inactive)
ROOT
ATOM      1  C2' OXE d   1       2.298   0.736  -1.542  0.00  0.00     0.078 C 
ATOM      2  C1' OXE d   1      -0.085   0.826  -3.024  0.00  0.00     0.078 C 
ATOM      3  C1  OXE d   1      -0.188   0.574  -1.540  0.00  0.00    -0.078 A 
ATOM      4  C2  OXE d   1       0.985   0.485  -0.831  0.00  0.00    -0.078 A 
ATOM      5  C3  OXE d   1       0.944   0.309   0.549  0.00  0.00     0.003 A 
ATOM      6  C4  OXE d   1      -0.273   0.068   1.198  0.00  0.00    -0.002 A 
ATOM      7  C5  OXE d   1      -1.477   0.115   0.487  0.00  0.00    -0.002 A 
ATOM      8  C6  OXE d   1      -1.455   0.408  -0.872  0.00  0.00     0.003 A 
ENDROOT
TORSDOF 0
ENDMDL
