MODEL 1
REMARK minimizedAffinity -3.89007711
REMARK minimizedRMSD -1
REMARK  0 active torsions:
REMARK  status: ('A' for Active; 'I' for Inactive)
ROOT
ATOM      1  C2' OXE d   1       1.364  -0.216  -3.273  0.00  0.00     0.078 C 
ATOM      2  C1' OXE d   1       2.822   1.150  -1.301  0.00  0.00     0.078 C 
ATOM      3  C1  OXE d   1       1.423   0.702  -0.958  0.00  0.00    -0.078 A 
ATOM      4  C2  OXE d   1       0.700   0.076  -1.945  0.00  0.00    -0.078 A 
ATOM      5  C3  OXE d   1      -0.575  -0.406  -1.664  0.00  0.00     0.003 A 
ATOM      6  C4  OXE d   1      -1.186  -0.124  -0.436  0.00  0.00    -0.002 A 
ATOM      7  C5  OXE d   1      -0.482   0.547   0.569  0.00  0.00    -0.002 A 
ATOM      8  C6  OXE d   1       0.836   0.929   0.339  0.00  0.00     0.003 A 
ENDROOT
TORSDOF 0
ENDMDL
