MODEL 1
REMARK minimizedAffinity -4.25107479
REMARK minimizedRMSD -1
REMARK  0 active torsions:
REMARK  status: ('A' for Active; 'I' for Inactive)
ROOT
ATOM      1  C2' OXE d   1       1.037   2.220   0.611  0.00  0.00     0.078 C 
ATOM      2  C1' OXE d   1      -0.959   0.266   0.890  0.00  0.00     0.078 C 
ATOM      3  C1  OXE d   1      -0.150   0.268  -0.383  0.00  0.00    -0.078 A 
ATOM      4  C2  OXE d   1       0.793   1.257  -0.531  0.00  0.00    -0.078 A 
ATOM      5  C3  OXE d   1       1.604   1.272  -1.662  0.00  0.00     0.003 A 
ATOM      6  C4  OXE d   1       1.365   0.384  -2.718  0.00  0.00    -0.002 A 
ATOM      7  C5  OXE d   1       0.383  -0.606  -2.605  0.00  0.00    -0.002 A 
ATOM      8  C6  OXE d   1      -0.353  -0.704  -1.429  0.00  0.00     0.003 A 
ENDROOT
TORSDOF 0
ENDMDL
