MODEL 1
REMARK minimizedAffinity -2.63398361
REMARK minimizedRMSD -1
REMARK  0 active torsions:
REMARK  status: ('A' for Active; 'I' for Inactive)
ROOT
ATOM      1  C2' OXE d   1       1.502   0.686  -2.436  0.00  0.00     0.078 C 
ATOM      2  C1' OXE d   1       0.844   2.704  -0.599  0.00  0.00     0.078 C 
ATOM      3  C1  OXE d   1       0.443   1.289  -0.263  0.00  0.00    -0.078 A 
ATOM      4  C2  OXE d   1       0.728   0.314  -1.189  0.00  0.00    -0.078 A 
ATOM      5  C3  OXE d   1       0.429  -1.015  -0.905  0.00  0.00     0.003 A 
ATOM      6  C4  OXE d   1      -0.296  -1.349   0.245  0.00  0.00    -0.002 A 
ATOM      7  C5  OXE d   1      -0.630  -0.366   1.183  0.00  0.00    -0.002 A 
ATOM      8  C6  OXE d   1      -0.232   0.948   0.965  0.00  0.00     0.003 A 
ENDROOT
TORSDOF 0
ENDMDL
