MODEL 1
REMARK minimizedAffinity -1.46252537
REMARK minimizedRMSD -1
REMARK  0 active torsions:
REMARK  status: ('A' for Active; 'I' for Inactive)
ROOT
ATOM      1  C2' OXE d   1       0.689   2.255   0.894  0.00  0.00     0.078 C 
ATOM      2  C1' OXE d   1      -1.228   0.223   1.167  0.00  0.00     0.078 C 
ATOM      3  C1  OXE d   1      -0.234   0.106   0.038  0.00  0.00    -0.078 A 
ATOM      4  C2  OXE d   1       0.671   1.128  -0.116  0.00  0.00    -0.078 A 
ATOM      5  C3  OXE d   1       1.644   1.043  -1.107  0.00  0.00     0.003 A 
ATOM      6  C4  OXE d   1       1.614   0.003  -2.043  0.00  0.00    -0.002 A 
ATOM      7  C5  OXE d   1       0.676  -1.028  -1.928  0.00  0.00    -0.002 A 
ATOM      8  C6  OXE d   1      -0.226  -1.014  -0.870  0.00  0.00     0.003 A 
ENDROOT
TORSDOF 0
ENDMDL
