MODEL 1
REMARK minimizedAffinity -4.68640947
REMARK minimizedRMSD -1
REMARK  0 active torsions:
REMARK  status: ('A' for Active; 'I' for Inactive)
ROOT
ATOM      1  C2' OXE d   1       1.602  -0.226  -2.970  0.00  0.00     0.078 C 
ATOM      2  C1' OXE d   1       0.353  -2.334  -1.600  0.00  0.00     0.078 C 
ATOM      3  C1  OXE d   1       0.390  -0.983  -0.930  0.00  0.00    -0.078 A 
ATOM      4  C2  OXE d   1       1.044   0.031  -1.586  0.00  0.00    -0.078 A 
ATOM      5  C3  OXE d   1       1.060   1.310  -1.038  0.00  0.00     0.003 A 
ATOM      6  C4  OXE d   1       0.550   1.537   0.247  0.00  0.00    -0.002 A 
ATOM      7  C5  OXE d   1      -0.085   0.508   0.950  0.00  0.00    -0.002 A 
ATOM      8  C6  OXE d   1      -0.211  -0.745   0.359  0.00  0.00     0.003 A 
ENDROOT
TORSDOF 0
ENDMDL
