MODEL 1
REMARK minimizedAffinity -1.22460985
REMARK minimizedRMSD -1
REMARK  0 active torsions:
REMARK  status: ('A' for Active; 'I' for Inactive)
ROOT
ATOM      1  C2' OXE d   1       0.929   2.611  -0.033  0.00  0.00     0.078 C 
ATOM      2  C1' OXE d   1       1.765   0.656  -1.866  0.00  0.00     0.078 C 
ATOM      3  C1  OXE d   1       0.746   0.257  -0.829  0.00  0.00    -0.078 A 
ATOM      4  C2  OXE d   1       0.377   1.207   0.093  0.00  0.00    -0.078 A 
ATOM      5  C3  OXE d   1      -0.600   0.908   1.039  0.00  0.00     0.003 A 
ATOM      6  C4  OXE d   1      -1.098  -0.395   1.155  0.00  0.00    -0.002 A 
ATOM      7  C5  OXE d   1      -0.706  -1.388   0.251  0.00  0.00    -0.002 A 
ATOM      8  C6  OXE d   1       0.181  -1.068  -0.771  0.00  0.00     0.003 A 
ENDROOT
TORSDOF 0
ENDMDL
