MODEL 1
REMARK minimizedAffinity -4.77412748
REMARK minimizedRMSD -1
REMARK  0 active torsions:
REMARK  status: ('A' for Active; 'I' for Inactive)
ROOT
ATOM      1  C2' OXE d   1       1.294   1.781   0.598  0.00  0.00     0.078 C 
ATOM      2  C1' OXE d   1      -0.596  -0.270   0.918  0.00  0.00     0.078 C 
ATOM      3  C1  OXE d   1       0.118  -0.171  -0.407  0.00  0.00    -0.078 A 
ATOM      4  C2  OXE d   1       1.007   0.864  -0.571  0.00  0.00    -0.078 A 
ATOM      5  C3  OXE d   1       1.732   0.968  -1.754  0.00  0.00     0.003 A 
ATOM      6  C4  OXE d   1       1.453   0.122  -2.834  0.00  0.00    -0.002 A 
ATOM      7  C5  OXE d   1       0.522  -0.914  -2.702  0.00  0.00    -0.002 A 
ATOM      8  C6  OXE d   1      -0.121  -1.100  -1.484  0.00  0.00     0.003 A 
ENDROOT
TORSDOF 0
ENDMDL
