MODEL 1
REMARK minimizedAffinity -1.55553472
REMARK minimizedRMSD -1
REMARK  0 active torsions:
REMARK  status: ('A' for Active; 'I' for Inactive)
ROOT
ATOM      1  C2' OXE d   1      -0.216  -1.515  -0.111  0.00  0.00     0.078 C 
ATOM      2  C1' OXE d   1       0.142   0.769   1.481  0.00  0.00     0.078 C 
ATOM      3  C1  OXE d   1      -1.244   0.180   1.397  0.00  0.00    -0.078 A 
ATOM      4  C2  OXE d   1      -1.419  -0.910   0.579  0.00  0.00    -0.078 A 
ATOM      5  C3  OXE d   1      -2.666  -1.525   0.508  0.00  0.00     0.003 A 
ATOM      6  C4  OXE d   1      -3.776  -0.952   1.141  0.00  0.00    -0.002 A 
ATOM      7  C5  OXE d   1      -3.627   0.181   1.947  0.00  0.00    -0.002 A 
ATOM      8  C6  OXE d   1      -2.362   0.733   2.120  0.00  0.00     0.003 A 
ENDROOT
TORSDOF 0
ENDMDL
