MODEL 1
REMARK minimizedAffinity -4.7228775
REMARK minimizedRMSD -1
REMARK  0 active torsions:
REMARK  status: ('A' for Active; 'I' for Inactive)
ROOT
ATOM      1  C2' OXE d   1      -0.378  -0.644   0.538  0.00  0.00     0.078 C 
ATOM      2  C1' OXE d   1       0.659   1.832  -0.281  0.00  0.00     0.078 C 
ATOM      3  C1  OXE d   1       1.086   0.603  -1.045  0.00  0.00    -0.078 A 
ATOM      4  C2  OXE d   1       0.610  -0.609  -0.608  0.00  0.00    -0.078 A 
ATOM      5  C3  OXE d   1       0.929  -1.768  -1.310  0.00  0.00     0.003 A 
ATOM      6  C4  OXE d   1       1.851  -1.728  -2.362  0.00  0.00    -0.002 A 
ATOM      7  C5  OXE d   1       2.379  -0.508  -2.798  0.00  0.00    -0.002 A 
ATOM      8  C6  OXE d   1       1.974   0.669  -2.179  0.00  0.00     0.003 A 
ENDROOT
TORSDOF 0
ENDMDL
