MODEL 1
REMARK minimizedAffinity -2.66355968
REMARK minimizedRMSD -1
REMARK  0 active torsions:
REMARK  status: ('A' for Active; 'I' for Inactive)
ROOT
ATOM      1  C2' OXE d   1      -0.557   2.126  -1.123  0.00  0.00     0.078 C 
ATOM      2  C1' OXE d   1       1.014   0.244  -2.491  0.00  0.00     0.078 C 
ATOM      3  C1  OXE d   1       0.445  -0.154  -1.152  0.00  0.00    -0.078 A 
ATOM      4  C2  OXE d   1      -0.283   0.789  -0.468  0.00  0.00    -0.078 A 
ATOM      5  C3  OXE d   1      -0.876   0.455   0.746  0.00  0.00     0.003 A 
ATOM      6  C4  OXE d   1      -0.609  -0.780   1.349  0.00  0.00    -0.002 A 
ATOM      7  C5  OXE d   1       0.163  -1.740   0.689  0.00  0.00    -0.002 A 
ATOM      8  C6  OXE d   1       0.661  -1.460  -0.579  0.00  0.00     0.003 A 
ENDROOT
TORSDOF 0
ENDMDL
