MODEL 1
REMARK minimizedAffinity -4.73211956
REMARK minimizedRMSD -1
REMARK  0 active torsions:
REMARK  status: ('A' for Active; 'I' for Inactive)
ROOT
ATOM      1  C2' OXE d   1       1.110   2.197   0.577  0.00  0.00     0.078 C 
ATOM      2  C1' OXE d   1      -0.368  -0.080   1.293  0.00  0.00     0.078 C 
ATOM      3  C1  OXE d   1       0.148   0.008  -0.121  0.00  0.00    -0.078 A 
ATOM      4  C2  OXE d   1       0.830   1.147  -0.476  0.00  0.00    -0.078 A 
ATOM      5  C3  OXE d   1       1.374   1.255  -1.753  0.00  0.00     0.003 A 
ATOM      6  C4  OXE d   1       1.102   0.284  -2.724  0.00  0.00    -0.002 A 
ATOM      7  C5  OXE d   1       0.375  -0.865  -2.395  0.00  0.00    -0.002 A 
ATOM      8  C6  OXE d   1      -0.072  -1.038  -1.089  0.00  0.00     0.003 A 
ENDROOT
TORSDOF 0
ENDMDL
