MODEL 1
REMARK minimizedAffinity -5.76050186
REMARK minimizedRMSD -1
REMARK  0 active torsions:
REMARK  status: ('A' for Active; 'I' for Inactive)
ROOT
ATOM      1  C   UNL d   1      -1.369   2.806  -0.898  0.00  0.00     0.078 C 
ATOM      2  C1  UNL d   1      -0.800   1.798   0.054  0.00  0.00    -0.077 A 
ATOM      3  C2  UNL d   1      -0.174   0.636  -0.414  0.00  0.00    -0.001 A 
ATOM      4  C3  UNL d   1       0.343  -0.299   0.484  0.00  0.00     0.003 A 
ATOM      5  C4  UNL d   1       0.238  -0.082   1.857  0.00  0.00    -0.005 A 
ATOM      6  C5  UNL d   1      -0.385   1.070   2.332  0.00  0.00     0.003 A 
ATOM      7  C6  UNL d   1      -0.902   2.006   1.435  0.00  0.00    -0.001 A 
ENDROOT
TORSDOF 0
ENDMDL
