MODEL 1
REMARK minimizedAffinity -1.03085315
REMARK minimizedRMSD -1
REMARK  0 active torsions:
REMARK  status: ('A' for Active; 'I' for Inactive)
ROOT
ATOM      1  C   UNL d   1       0.570  -1.685  -0.755  0.00  0.00     0.078 C 
ATOM      2  C1  UNL d   1       0.309  -0.345  -0.134  0.00  0.00    -0.077 A 
ATOM      3  C2  UNL d   1       0.486  -0.140   1.240  0.00  0.00    -0.001 A 
ATOM      4  C3  UNL d   1       0.230   1.110   1.806  0.00  0.00     0.003 A 
ATOM      5  C4  UNL d   1      -0.205   2.164   1.006  0.00  0.00    -0.005 A 
ATOM      6  C5  UNL d   1      -0.386   1.970  -0.362  0.00  0.00     0.003 A 
ATOM      7  C6  UNL d   1      -0.130   0.720  -0.930  0.00  0.00    -0.001 A 
ENDROOT
TORSDOF 0
ENDMDL
