MODEL 1
REMARK minimizedAffinity -2.99136829
REMARK minimizedRMSD -1
REMARK  0 active torsions:
REMARK  status: ('A' for Active; 'I' for Inactive)
ROOT
ATOM      1  C   UNL d   1      -1.083   2.986   1.580  0.00  0.00     0.078 C 
ATOM      2  C1  UNL d   1      -0.594   1.631   1.164  0.00  0.00    -0.077 A 
ATOM      3  C2  UNL d   1       0.114   0.815   2.055  0.00  0.00    -0.001 A 
ATOM      4  C3  UNL d   1       0.571  -0.441   1.651  0.00  0.00     0.003 A 
ATOM      5  C4  UNL d   1       0.327  -0.890   0.355  0.00  0.00    -0.005 A 
ATOM      6  C5  UNL d   1      -0.375  -0.084  -0.539  0.00  0.00     0.003 A 
ATOM      7  C6  UNL d   1      -0.833   1.171  -0.137  0.00  0.00    -0.001 A 
ENDROOT
TORSDOF 0
ENDMDL
