MODEL 1
REMARK minimizedAffinity -5.29991674
REMARK minimizedRMSD -1
REMARK  0 active torsions:
REMARK  status: ('A' for Active; 'I' for Inactive)
ROOT
ATOM      1  C   UNL d   1       0.515  -0.933  -0.553  0.00  0.00     0.078 C 
ATOM      2  C1  UNL d   1      -0.071   0.370  -0.095  0.00  0.00    -0.077 A 
ATOM      3  C2  UNL d   1      -0.499   1.332  -1.018  0.00  0.00    -0.001 A 
ATOM      4  C3  UNL d   1      -1.034   2.544  -0.577  0.00  0.00     0.003 A 
ATOM      5  C4  UNL d   1      -1.144   2.805   0.787  0.00  0.00    -0.005 A 
ATOM      6  C5  UNL d   1      -0.718   1.855   1.713  0.00  0.00     0.003 A 
ATOM      7  C6  UNL d   1      -0.184   0.642   1.274  0.00  0.00    -0.001 A 
ENDROOT
TORSDOF 0
ENDMDL
