MODEL 1
REMARK minimizedAffinity -5.26539612
REMARK minimizedRMSD -1
REMARK  0 active torsions:
REMARK  status: ('A' for Active; 'I' for Inactive)
ROOT
ATOM      1  C   UNL d   1       0.240  -1.049  -0.464  0.00  0.00     0.078 C 
ATOM      2  C1  UNL d   1      -0.225   0.306  -0.021  0.00  0.00    -0.077 A 
ATOM      3  C2  UNL d   1      -0.573   1.290  -0.954  0.00  0.00    -0.001 A 
ATOM      4  C3  UNL d   1      -0.995   2.550  -0.527  0.00  0.00     0.003 A 
ATOM      5  C4  UNL d   1      -1.072   2.838   0.834  0.00  0.00    -0.005 A 
ATOM      6  C5  UNL d   1      -0.725   1.866   1.770  0.00  0.00     0.003 A 
ATOM      7  C6  UNL d   1      -0.303   0.605   1.345  0.00  0.00    -0.001 A 
ENDROOT
TORSDOF 0
ENDMDL
