MODEL 1
REMARK minimizedAffinity -5.73024511
REMARK minimizedRMSD -1
REMARK  0 active torsions:
REMARK  status: ('A' for Active; 'I' for Inactive)
ROOT
ATOM      1  C   UNL d   1       0.225   0.279   1.460  0.00  0.00     0.078 C 
ATOM      2  C1  UNL d   1      -0.143   1.454   0.604  0.00  0.00    -0.077 A 
ATOM      3  C2  UNL d   1       0.150   1.469  -0.765  0.00  0.00    -0.001 A 
ATOM      4  C3  UNL d   1      -0.191   2.573  -1.548  0.00  0.00     0.003 A 
ATOM      5  C4  UNL d   1      -0.825   3.671  -0.970  0.00  0.00    -0.005 A 
ATOM      6  C5  UNL d   1      -1.118   3.667   0.392  0.00  0.00     0.003 A 
ATOM      7  C6  UNL d   1      -0.779   2.563   1.176  0.00  0.00    -0.001 A 
ENDROOT
TORSDOF 0
ENDMDL
