MODEL 1
REMARK minimizedAffinity -5.7222681
REMARK minimizedRMSD -1
REMARK  0 active torsions:
REMARK  status: ('A' for Active; 'I' for Inactive)
ROOT
ATOM      1  C   UNL d   1       0.605  -0.401  -0.688  0.00  0.00     0.078 C 
ATOM      2  C1  UNL d   1      -0.091   0.829  -0.187  0.00  0.00    -0.077 A 
ATOM      3  C2  UNL d   1      -0.468   1.852  -1.065  0.00  0.00    -0.001 A 
ATOM      4  C3  UNL d   1      -1.108   2.996  -0.583  0.00  0.00     0.003 A 
ATOM      5  C4  UNL d   1      -1.374   3.127   0.779  0.00  0.00    -0.005 A 
ATOM      6  C5  UNL d   1      -1.001   2.114   1.660  0.00  0.00     0.003 A 
ATOM      7  C6  UNL d   1      -0.361   0.970   1.180  0.00  0.00    -0.001 A 
ENDROOT
TORSDOF 0
ENDMDL
