MODEL 1
REMARK minimizedAffinity -2.75662971
REMARK minimizedRMSD -1
REMARK  0 active torsions:
REMARK  status: ('A' for Active; 'I' for Inactive)
ROOT
ATOM      1  C   UNL d   1      -2.921   1.638  -0.178  0.00  0.00     0.078 C 
ATOM      2  C1  UNL d   1      -1.638   1.869   0.562  0.00  0.00    -0.077 A 
ATOM      3  C2  UNL d   1      -1.307   1.106   1.688  0.00  0.00    -0.001 A 
ATOM      4  C3  UNL d   1      -0.113   1.339   2.373  0.00  0.00     0.003 A 
ATOM      5  C4  UNL d   1       0.759   2.335   1.940  0.00  0.00    -0.005 A 
ATOM      6  C5  UNL d   1       0.438   3.101   0.821  0.00  0.00     0.003 A 
ATOM      7  C6  UNL d   1      -0.756   2.870   0.135  0.00  0.00    -0.001 A 
ENDROOT
TORSDOF 0
ENDMDL
