MODEL 1
REMARK minimizedAffinity 9.09419537
REMARK minimizedRMSD -1
REMARK  0 active torsions:
REMARK  status: ('A' for Active; 'I' for Inactive)
ROOT
ATOM      1  C   UNL d   1      -2.643  -1.807   1.260  0.00  0.00     0.124 A 
ATOM      2  C1  UNL d   1      -1.995  -2.478   0.233  0.00  0.00     0.062 A 
ATOM      3  C2  UNL d   1      -1.611  -1.794  -0.918  0.00  0.00     0.162 A 
ATOM      4  C3  UNL d   1      -1.875  -0.431  -1.047  0.00  0.00    -0.034 A 
ATOM      5  C4  UNL d   1      -2.529   0.237  -0.010  0.00  0.00     0.162 A 
ATOM      6  C5  UNL d   1      -2.910  -0.451   1.138  0.00  0.00     0.062 A 
ATOM      7  F   UNL d   1      -3.537   0.199   2.129  0.00  0.00    -0.097 F 
ATOM      8  F1  UNL d   1      -2.798   1.548  -0.101  0.00  0.00    -0.096 F 
ATOM      9  I   UNL d   1      -1.304   0.595  -2.765  0.00  0.00    -0.060 I 
ATOM     10  F2  UNL d   1      -0.986  -2.468  -1.894  0.00  0.00    -0.096 F 
ATOM     11  F3  UNL d   1      -1.737  -3.789   0.348  0.00  0.00    -0.097 F 
ATOM     12  F4  UNL d   1      -3.012  -2.468   2.365  0.00  0.00    -0.092 F 
ENDROOT
TORSDOF 0
ENDMDL
