MODEL 1
REMARK minimizedAffinity 9.1214838
REMARK minimizedRMSD -1
REMARK  0 active torsions:
REMARK  status: ('A' for Active; 'I' for Inactive)
ROOT
ATOM      1  C   UNL d   1      -4.566   4.292   1.531  0.00  0.00     0.124 A 
ATOM      2  C1  UNL d   1      -5.291   4.887   2.554  0.00  0.00     0.062 A 
ATOM      3  C2  UNL d   1      -5.286   4.332   3.830  0.00  0.00     0.162 A 
ATOM      4  C3  UNL d   1      -4.552   3.174   4.091  0.00  0.00    -0.034 A 
ATOM      5  C4  UNL d   1      -3.826   2.581   3.057  0.00  0.00     0.162 A 
ATOM      6  C5  UNL d   1      -3.834   3.140   1.783  0.00  0.00     0.062 A 
ATOM      7  F   UNL d   1      -3.133   2.563   0.796  0.00  0.00    -0.097 F 
ATOM      8  F1  UNL d   1      -3.110   1.468   3.273  0.00  0.00    -0.096 F 
ATOM      9  I   UNL d   1      -4.542   2.341   5.998  0.00  0.00    -0.060 I 
ATOM     10  F2  UNL d   1      -5.996   4.928   4.799  0.00  0.00    -0.096 F 
ATOM     11  F3  UNL d   1      -5.999   5.999   2.312  0.00  0.00    -0.097 F 
ATOM     12  F4  UNL d   1      -4.573   4.828   0.303  0.00  0.00    -0.092 F 
ENDROOT
TORSDOF 0
ENDMDL
