MODEL 1
REMARK minimizedAffinity 10.7145519
REMARK minimizedRMSD -1
REMARK  0 active torsions:
REMARK  status: ('A' for Active; 'I' for Inactive)
ROOT
ATOM      1  C   UNL d   1      -5.329   4.394   2.322  0.00  0.00     0.124 A 
ATOM      2  C1  UNL d   1      -5.476   4.797   3.642  0.00  0.00     0.062 A 
ATOM      3  C2  UNL d   1      -5.082   3.955   4.679  0.00  0.00     0.162 A 
ATOM      4  C3  UNL d   1      -4.537   2.702   4.399  0.00  0.00    -0.034 A 
ATOM      5  C4  UNL d   1      -4.393   2.304   3.069  0.00  0.00     0.162 A 
ATOM      6  C5  UNL d   1      -4.788   3.149   2.037  0.00  0.00     0.062 A 
ATOM      7  F   UNL d   1      -4.645   2.758   0.762  0.00  0.00    -0.097 F 
ATOM      8  F1  UNL d   1      -3.872   1.106   2.764  0.00  0.00    -0.096 F 
ATOM      9  I   UNL d   1      -3.947   1.441   5.946  0.00  0.00    -0.060 I 
ATOM     10  F2  UNL d   1      -5.236   4.370   5.945  0.00  0.00    -0.096 F 
ATOM     11  F3  UNL d   1      -5.999   6.000   3.921  0.00  0.00    -0.097 F 
ATOM     12  F4  UNL d   1      -5.709   5.206   1.327  0.00  0.00    -0.092 F 
ENDROOT
TORSDOF 0
ENDMDL
