MODEL 1
REMARK minimizedAffinity 5.78123713
REMARK minimizedRMSD -1
REMARK  0 active torsions:
REMARK  status: ('A' for Active; 'I' for Inactive)
ROOT
ATOM      1  C   UNL d   1      -3.417  -0.260   2.157  0.00  0.00     0.124 A 
ATOM      2  C1  UNL d   1      -2.756   0.490   3.119  0.00  0.00     0.062 A 
ATOM      3  C2  UNL d   1      -3.183   1.781   3.416  0.00  0.00     0.162 A 
ATOM      4  C3  UNL d   1      -4.278   2.330   2.750  0.00  0.00    -0.034 A 
ATOM      5  C4  UNL d   1      -4.938   1.570   1.783  0.00  0.00     0.162 A 
ATOM      6  C5  UNL d   1      -4.507   0.280   1.490  0.00  0.00     0.062 A 
ATOM      7  F   UNL d   1      -5.148  -0.443   0.560  0.00  0.00    -0.097 F 
ATOM      8  F1  UNL d   1      -5.995   2.067   1.123  0.00  0.00    -0.096 F 
ATOM      9  I   UNL d   1      -4.920   4.261   3.190  0.00  0.00    -0.060 I 
ATOM     10  F2  UNL d   1      -2.525   2.483   4.350  0.00  0.00    -0.096 F 
ATOM     11  F3  UNL d   1      -1.702  -0.030   3.765  0.00  0.00    -0.097 F 
ATOM     12  F4  UNL d   1      -3.004  -1.502   1.873  0.00  0.00    -0.092 F 
ENDROOT
TORSDOF 0
ENDMDL
