MODEL 1
REMARK minimizedAffinity 9.3815918
REMARK minimizedRMSD -1
REMARK  0 active torsions:
REMARK  status: ('A' for Active; 'I' for Inactive)
ROOT
ATOM      1  C   UNL d   1      -5.370   4.603   2.403  0.00  0.00     0.124 A 
ATOM      2  C1  UNL d   1      -4.843   3.402   1.949  0.00  0.00     0.062 A 
ATOM      3  C2  UNL d   1      -4.433   2.430   2.857  0.00  0.00     0.162 A 
ATOM      4  C3  UNL d   1      -4.550   2.654   4.228  0.00  0.00    -0.034 A 
ATOM      5  C4  UNL d   1      -5.079   3.866   4.677  0.00  0.00     0.162 A 
ATOM      6  C5  UNL d   1      -5.487   4.834   3.766  0.00  0.00     0.062 A 
ATOM      7  F   UNL d   1      -5.996   5.994   4.206  0.00  0.00    -0.097 F 
ATOM      8  F1  UNL d   1      -5.205   4.114   5.989  0.00  0.00    -0.096 F 
ATOM      9  I   UNL d   1      -3.938   1.203   5.589  0.00  0.00    -0.060 I 
ATOM     10  F2  UNL d   1      -3.928   1.278   2.390  0.00  0.00    -0.096 F 
ATOM     11  F3  UNL d   1      -4.727   3.177   0.632  0.00  0.00    -0.097 F 
ATOM     12  F4  UNL d   1      -5.762   5.538   1.527  0.00  0.00    -0.092 F 
ENDROOT
TORSDOF 0
ENDMDL
