MODEL 1
REMARK minimizedAffinity 17.3601952
REMARK minimizedRMSD -1
REMARK  0 active torsions:
REMARK  status: ('A' for Active; 'I' for Inactive)
ROOT
ATOM      1  C   UNL d   1       2.101   0.128   4.809  0.00  0.00     0.124 A 
ATOM      2  C1  UNL d   1       2.321   1.496   4.726  0.00  0.00     0.062 A 
ATOM      3  C2  UNL d   1       2.554   2.094   3.490  0.00  0.00     0.162 A 
ATOM      4  C3  UNL d   1       2.566   1.324   2.327  0.00  0.00    -0.034 A 
ATOM      5  C4  UNL d   1       2.344  -0.051   2.419  0.00  0.00     0.162 A 
ATOM      6  C5  UNL d   1       2.113  -0.644   3.656  0.00  0.00     0.062 A 
ATOM      7  F   UNL d   1       1.900  -1.966   3.735  0.00  0.00    -0.097 F 
ATOM      8  F1  UNL d   1       2.349  -0.821   1.321  0.00  0.00    -0.096 F 
ATOM      9  I   UNL d   1       2.913   2.214   0.478  0.00  0.00    -0.060 I 
ATOM     10  F2  UNL d   1       2.763   3.418   3.440  0.00  0.00    -0.096 F 
ATOM     11  F3  UNL d   1       2.311   2.245   5.838  0.00  0.00    -0.097 F 
ATOM     12  F4  UNL d   1       1.879  -0.444   5.999  0.00  0.00    -0.092 F 
ENDROOT
TORSDOF 0
ENDMDL
