MODEL 1
REMARK minimizedAffinity 14.2879639
REMARK minimizedRMSD -1
REMARK  0 active torsions:
REMARK  status: ('A' for Active; 'I' for Inactive)
ROOT
ATOM      1  C   UNL d   1       2.217  -0.858  -2.540  0.00  0.00     0.124 A 
ATOM      2  C1  UNL d   1       2.767  -0.672  -3.801  0.00  0.00     0.062 A 
ATOM      3  C2  UNL d   1       2.042  -0.014  -4.791  0.00  0.00     0.162 A 
ATOM      4  C3  UNL d   1       0.760   0.465  -4.523  0.00  0.00    -0.034 A 
ATOM      5  C4  UNL d   1       0.213   0.274  -3.253  0.00  0.00     0.162 A 
ATOM      6  C5  UNL d   1       0.941  -0.385  -2.267  0.00  0.00     0.062 A 
ATOM      7  F   UNL d   1       0.408  -0.563  -1.050  0.00  0.00    -0.097 F 
ATOM      8  F1  UNL d   1      -1.017   0.721  -2.961  0.00  0.00    -0.096 F 
ATOM      9  I   UNL d   1      -0.327   1.450  -6.000  0.00  0.00    -0.060 I 
ATOM     10  F2  UNL d   1       2.598   0.151  -6.000  0.00  0.00    -0.096 F 
ATOM     11  F3  UNL d   1       3.999  -1.129  -4.068  0.00  0.00    -0.097 F 
ATOM     12  F4  UNL d   1       2.916  -1.492  -1.590  0.00  0.00    -0.092 F 
ENDROOT
TORSDOF 0
ENDMDL
