MODEL 1
REMARK minimizedAffinity 7.26592541
REMARK minimizedRMSD -1
REMARK  0 active torsions:
REMARK  status: ('A' for Active; 'I' for Inactive)
ROOT
ATOM      1  C   UNL d   1      -5.068   2.521   2.170  0.00  0.00     0.124 A 
ATOM      2  C1  UNL d   1      -5.411   3.833   1.876  0.00  0.00     0.062 A 
ATOM      3  C2  UNL d   1      -5.670   4.736   2.903  0.00  0.00     0.162 A 
ATOM      4  C3  UNL d   1      -5.584   4.330   4.235  0.00  0.00    -0.034 A 
ATOM      5  C4  UNL d   1      -5.239   3.008   4.523  0.00  0.00     0.162 A 
ATOM      6  C5  UNL d   1      -4.982   2.110   3.492  0.00  0.00     0.062 A 
ATOM      7  F   UNL d   1      -4.650   0.842   3.778  0.00  0.00    -0.097 F 
ATOM      8  F1  UNL d   1      -5.148   2.584   5.792  0.00  0.00    -0.096 F 
ATOM      9  I   UNL d   1      -5.970   5.677   5.774  0.00  0.00    -0.060 I 
ATOM     10  F2  UNL d   1      -6.000   5.998   2.590  0.00  0.00    -0.096 F 
ATOM     11  F3  UNL d   1      -5.496   4.233   0.599  0.00  0.00    -0.097 F 
ATOM     12  F4  UNL d   1      -4.821   1.654   1.179  0.00  0.00    -0.092 F 
ENDROOT
TORSDOF 0
ENDMDL
