MODEL 1
REMARK minimizedAffinity 12.7440853
REMARK minimizedRMSD -1
REMARK  0 active torsions:
REMARK  status: ('A' for Active; 'I' for Inactive)
ROOT
ATOM      1  C   UNL d   1      -4.188   2.881   2.349  0.00  0.00     0.124 A 
ATOM      2  C1  UNL d   1      -4.844   4.073   2.074  0.00  0.00     0.062 A 
ATOM      3  C2  UNL d   1      -5.361   4.842   3.113  0.00  0.00     0.162 A 
ATOM      4  C3  UNL d   1      -5.224   4.422   4.436  0.00  0.00    -0.034 A 
ATOM      5  C4  UNL d   1      -4.564   3.222   4.704  0.00  0.00     0.162 A 
ATOM      6  C5  UNL d   1      -4.048   2.456   3.662  0.00  0.00     0.062 A 
ATOM      7  F   UNL d   1      -3.415   1.305   3.929  0.00  0.00    -0.097 F 
ATOM      8  F1  UNL d   1      -4.414   2.788   5.964  0.00  0.00    -0.096 F 
ATOM      9  I   UNL d   1      -5.996   5.569   5.991  0.00  0.00    -0.060 I 
ATOM     10  F2  UNL d   1      -5.990   5.990   2.818  0.00  0.00    -0.096 F 
ATOM     11  F3  UNL d   1      -4.980   4.485   0.806  0.00  0.00    -0.097 F 
ATOM     12  F4  UNL d   1      -3.692   2.142   1.348  0.00  0.00    -0.092 F 
ENDROOT
TORSDOF 0
ENDMDL
