MODEL 1
REMARK minimizedAffinity 9.35436249
REMARK minimizedRMSD -1
REMARK  0 active torsions:
REMARK  status: ('A' for Active; 'I' for Inactive)
ROOT
ATOM      1  C   UNL d   1      -5.293   3.740   4.683  0.00  0.00     0.124 A 
ATOM      2  C1  UNL d   1      -4.803   2.590   4.080  0.00  0.00     0.062 A 
ATOM      3  C2  UNL d   1      -4.523   2.580   2.716  0.00  0.00     0.162 A 
ATOM      4  C3  UNL d   1      -4.731   3.724   1.947  0.00  0.00    -0.034 A 
ATOM      5  C4  UNL d   1      -5.225   4.877   2.561  0.00  0.00     0.162 A 
ATOM      6  C5  UNL d   1      -5.503   4.882   3.923  0.00  0.00     0.062 A 
ATOM      7  F   UNL d   1      -5.977   5.994   4.505  0.00  0.00    -0.097 F 
ATOM      8  F1  UNL d   1      -5.437   5.995   1.850  0.00  0.00    -0.096 F 
ATOM      9  I   UNL d   1      -4.313   3.714  -0.092  0.00  0.00    -0.060 I 
ATOM     10  F2  UNL d   1      -4.050   1.455   2.160  0.00  0.00    -0.096 F 
ATOM     11  F3  UNL d   1      -4.600   1.485   4.811  0.00  0.00    -0.097 F 
ATOM     12  F4  UNL d   1      -5.563   3.746   5.995  0.00  0.00    -0.092 F 
ENDROOT
TORSDOF 0
ENDMDL
