MODEL 1
REMARK minimizedAffinity 2.87153268
REMARK minimizedRMSD -1
REMARK  0 active torsions:
REMARK  status: ('A' for Active; 'I' for Inactive)
ROOT
ATOM      1  C   UNL d   1      -5.279   2.440   2.339  0.00  0.00     0.124 A 
ATOM      2  C1  UNL d   1      -5.242   2.158   3.698  0.00  0.00     0.062 A 
ATOM      3  C2  UNL d   1      -5.446   3.172   4.629  0.00  0.00     0.162 A 
ATOM      4  C3  UNL d   1      -5.690   4.478   4.205  0.00  0.00    -0.034 A 
ATOM      5  C4  UNL d   1      -5.725   4.755   2.837  0.00  0.00     0.162 A 
ATOM      6  C5  UNL d   1      -5.520   3.738   1.910  0.00  0.00     0.062 A 
ATOM      7  F   UNL d   1      -5.557   4.012   0.598  0.00  0.00    -0.097 F 
ATOM      8  F1  UNL d   1      -5.957   6.000   2.395  0.00  0.00    -0.096 F 
ATOM      9  I   UNL d   1      -5.995   5.997   5.595  0.00  0.00    -0.060 I 
ATOM     10  F2  UNL d   1      -5.405   2.870   5.936  0.00  0.00    -0.096 F 
ATOM     11  F3  UNL d   1      -5.009   0.905   4.115  0.00  0.00    -0.097 F 
ATOM     12  F4  UNL d   1      -5.082   1.463   1.445  0.00  0.00    -0.092 F 
ENDROOT
TORSDOF 0
ENDMDL
