MODEL 1
REMARK minimizedAffinity 11.6281414
REMARK minimizedRMSD -1
REMARK  0 active torsions:
REMARK  status: ('A' for Active; 'I' for Inactive)
ROOT
ATOM      1  C   UNL d   1       2.122   2.353   4.041  0.00  0.00     0.124 A 
ATOM      2  C1  UNL d   1       3.208   3.186   3.810  0.00  0.00     0.062 A 
ATOM      3  C2  UNL d   1       3.514   3.596   2.516  0.00  0.00     0.162 A 
ATOM      4  C3  UNL d   1       2.731   3.175   1.441  0.00  0.00    -0.034 A 
ATOM      5  C4  UNL d   1       1.640   2.337   1.680  0.00  0.00     0.162 A 
ATOM      6  C5  UNL d   1       1.339   1.930   2.976  0.00  0.00     0.062 A 
ATOM      7  F   UNL d   1       0.289   1.125   3.196  0.00  0.00    -0.097 F 
ATOM      8  F1  UNL d   1       0.867   1.913   0.670  0.00  0.00    -0.096 F 
ATOM      9  I   UNL d   1       3.185   3.785  -0.496  0.00  0.00    -0.060 I 
ATOM     10  F2  UNL d   1       4.570   4.400   2.323  0.00  0.00    -0.096 F 
ATOM     11  F3  UNL d   1       3.966   3.596   4.837  0.00  0.00    -0.097 F 
ATOM     12  F4  UNL d   1       1.830   1.960   5.287  0.00  0.00    -0.092 F 
ENDROOT
TORSDOF 0
ENDMDL
