MODEL 1
REMARK minimizedAffinity 3.7261641
REMARK minimizedRMSD -1
REMARK  0 active torsions:
REMARK  status: ('A' for Active; 'I' for Inactive)
ROOT
ATOM      1  C   UNL d   1      -5.935   2.373   2.341  0.00  0.00     0.124 A 
ATOM      2  C1  UNL d   1      -5.930   2.032   3.687  0.00  0.00     0.062 A 
ATOM      3  C2  UNL d   1      -5.918   3.026   4.661  0.00  0.00     0.162 A 
ATOM      4  C3  UNL d   1      -5.910   4.372   4.293  0.00  0.00    -0.034 A 
ATOM      5  C4  UNL d   1      -5.913   4.707   2.938  0.00  0.00     0.162 A 
ATOM      6  C5  UNL d   1      -5.926   3.710   1.969  0.00  0.00     0.062 A 
ATOM      7  F   UNL d   1      -5.930   4.042   0.669  0.00  0.00    -0.097 F 
ATOM      8  F1  UNL d   1      -5.907   5.991   2.550  0.00  0.00    -0.096 F 
ATOM      9  I   UNL d   1      -5.891   5.861   5.747  0.00  0.00    -0.060 I 
ATOM     10  F2  UNL d   1      -5.914   2.667   5.954  0.00  0.00    -0.096 F 
ATOM     11  F3  UNL d   1      -5.937   0.741   4.050  0.00  0.00    -0.097 F 
ATOM     12  F4  UNL d   1      -5.946   1.415   1.406  0.00  0.00    -0.092 F 
ENDROOT
TORSDOF 0
ENDMDL
