MODEL 1
REMARK minimizedAffinity -0.226874396
REMARK minimizedRMSD -1
REMARK  0 active torsions:
REMARK  status: ('A' for Active; 'I' for Inactive)
ROOT
ATOM      1  C   UNL d   1      -4.945   2.518   2.405  0.00  0.00     0.124 A 
ATOM      2  C1  UNL d   1      -4.874   2.247   3.764  0.00  0.00     0.062 A 
ATOM      3  C2  UNL d   1      -5.174   3.239   4.693  0.00  0.00     0.162 A 
ATOM      4  C3  UNL d   1      -5.549   4.513   4.265  0.00  0.00    -0.034 A 
ATOM      5  C4  UNL d   1      -5.618   4.778   2.896  0.00  0.00     0.162 A 
ATOM      6  C5  UNL d   1      -5.317   3.783   1.972  0.00  0.00     0.062 A 
ATOM      7  F   UNL d   1      -5.387   4.047   0.659  0.00  0.00    -0.097 F 
ATOM      8  F1  UNL d   1      -5.976   5.992   2.450  0.00  0.00    -0.096 F 
ATOM      9  I   UNL d   1      -5.999   6.000   5.650  0.00  0.00    -0.060 I 
ATOM     10  F2  UNL d   1      -5.097   2.949   6.000  0.00  0.00    -0.096 F 
ATOM     11  F3  UNL d   1      -4.514   1.026   4.185  0.00  0.00    -0.097 F 
ATOM     12  F4  UNL d   1      -4.655   1.561   1.514  0.00  0.00    -0.092 F 
ENDROOT
TORSDOF 0
ENDMDL
