MODEL 1
REMARK minimizedAffinity 2.43314552
REMARK minimizedRMSD -1
REMARK  0 active torsions:
REMARK  status: ('A' for Active; 'I' for Inactive)
ROOT
ATOM      1  C   UNL d   1      -3.649   3.224   2.307  0.00  0.00     0.124 A 
ATOM      2  C1  UNL d   1      -3.474   2.961   3.658  0.00  0.00     0.062 A 
ATOM      3  C2  UNL d   1      -4.144   3.723   4.612  0.00  0.00     0.162 A 
ATOM      4  C3  UNL d   1      -4.996   4.754   4.217  0.00  0.00    -0.034 A 
ATOM      5  C4  UNL d   1      -5.165   5.013   2.855  0.00  0.00     0.162 A 
ATOM      6  C5  UNL d   1      -4.494   4.249   1.906  0.00  0.00     0.062 A 
ATOM      7  F   UNL d   1      -4.664   4.504   0.601  0.00  0.00    -0.097 F 
ATOM      8  F1  UNL d   1      -5.977   5.997   2.441  0.00  0.00    -0.096 F 
ATOM      9  I   UNL d   1      -5.999   5.895   5.639  0.00  0.00    -0.060 I 
ATOM     10  F2  UNL d   1      -3.956   3.447   5.911  0.00  0.00    -0.096 F 
ATOM     11  F3  UNL d   1      -2.657   1.971   4.048  0.00  0.00    -0.097 F 
ATOM     12  F4  UNL d   1      -3.002   2.490   1.392  0.00  0.00    -0.092 F 
ENDROOT
TORSDOF 0
ENDMDL
