MODEL 1
REMARK minimizedAffinity 6.24107218
REMARK minimizedRMSD -1
REMARK  0 active torsions:
REMARK  status: ('A' for Active; 'I' for Inactive)
ROOT
ATOM      1  C   UNL d   1      -5.096   3.728  -0.660  0.00  0.00     0.124 A 
ATOM      2  C1  UNL d   1      -5.487   4.879   0.009  0.00  0.00     0.062 A 
ATOM      3  C2  UNL d   1      -5.616   4.873   1.395  0.00  0.00     0.162 A 
ATOM      4  C3  UNL d   1      -5.352   3.712   2.121  0.00  0.00    -0.034 A 
ATOM      5  C4  UNL d   1      -4.959   2.558   1.441  0.00  0.00     0.162 A 
ATOM      6  C5  UNL d   1      -4.832   2.569   0.056  0.00  0.00     0.062 A 
ATOM      7  F   UNL d   1      -4.454   1.456  -0.590  0.00  0.00    -0.097 F 
ATOM      8  F1  UNL d   1      -4.698   1.424   2.108  0.00  0.00    -0.096 F 
ATOM      9  I   UNL d   1      -5.543   3.698   4.194  0.00  0.00    -0.060 I 
ATOM     10  F2  UNL d   1      -5.996   5.999   2.016  0.00  0.00    -0.096 F 
ATOM     11  F3  UNL d   1      -5.743   6.000  -0.680  0.00  0.00    -0.097 F 
ATOM     12  F4  UNL d   1      -4.974   3.736  -1.994  0.00  0.00    -0.092 F 
ENDROOT
TORSDOF 0
ENDMDL
