MODEL 1
REMARK minimizedAffinity 2.03227353
REMARK minimizedRMSD -1
REMARK  0 active torsions:
REMARK  status: ('A' for Active; 'I' for Inactive)
ROOT
ATOM      1  O1  BZF d   1      -1.022  -0.037  -0.929  0.00  0.00    -0.204 OA
ATOM      2  C2  BZF d   1      -0.556  -0.500  -2.144  0.00  0.00     0.174 A 
ATOM      3  C3  BZF d   1       0.722  -0.917  -2.039  0.00  0.00    -0.012 A 
ATOM      4  C3A BZF d   1       1.048  -0.787  -0.652  0.00  0.00    -0.107 A 
ATOM      5  C4  BZF d   1       2.169  -1.057   0.078  0.00  0.00     0.055 A 
ATOM      6  C5  BZF d   1       2.186  -0.748   1.402  0.00  0.00    -0.016 A 
ATOM      7  C6  BZF d   1       1.103  -0.163   2.024  0.00  0.00     0.022 A 
ATOM      8  C7  BZF d   1      -0.033   0.120   1.342  0.00  0.00     0.029 A 
ATOM      9  C7A BZF d   1      -0.065  -0.222   0.012  0.00  0.00     0.058 A 
ENDROOT
TORSDOF 0
ENDMDL
