MODEL 1
REMARK minimizedAffinity -3.71450496
REMARK minimizedRMSD -1
REMARK  0 active torsions:
REMARK  status: ('A' for Active; 'I' for Inactive)
ROOT
ATOM      1  O1  BZF d   1      -1.755  -0.964   0.161  0.00  0.00    -0.204 OA
ATOM      2  C2  BZF d   1      -0.731  -0.957  -0.766  0.00  0.00     0.174 A 
ATOM      3  C3  BZF d   1       0.236  -0.088  -0.404  0.00  0.00    -0.012 A 
ATOM      4  C3A BZF d   1      -0.169   0.415   0.873  0.00  0.00    -0.107 A 
ATOM      5  C4  BZF d   1       0.385   1.301   1.752  0.00  0.00     0.055 A 
ATOM      6  C5  BZF d   1      -0.300   1.631   2.877  0.00  0.00    -0.016 A 
ATOM      7  C6  BZF d   1      -1.543   1.099   3.153  0.00  0.00     0.022 A 
ATOM      8  C7  BZF d   1      -2.131   0.213   2.314  0.00  0.00     0.029 A 
ATOM      9  C7A BZF d   1      -1.427  -0.148   1.192  0.00  0.00     0.058 A 
ENDROOT
TORSDOF 0
ENDMDL
