MODEL 1
REMARK minimizedAffinity -2.6994493
REMARK minimizedRMSD -1
REMARK  0 active torsions:
REMARK  status: ('A' for Active; 'I' for Inactive)
ROOT
ATOM      1  O1  BZF d   1      -2.424   0.450   2.414  0.00  0.00    -0.204 OA
ATOM      2  C2  BZF d   1      -1.551   1.377   2.948  0.00  0.00     0.174 A 
ATOM      3  C3  BZF d   1      -0.403   1.417   2.241  0.00  0.00    -0.012 A 
ATOM      4  C3A BZF d   1      -0.606   0.520   1.145  0.00  0.00    -0.107 A 
ATOM      5  C4  BZF d   1       0.169   0.142   0.085  0.00  0.00     0.055 A 
ATOM      6  C5  BZF d   1      -0.295  -0.809  -0.766  0.00  0.00    -0.016 A 
ATOM      7  C6  BZF d   1      -1.526  -1.407  -0.587  0.00  0.00     0.022 A 
ATOM      8  C7  BZF d   1      -2.332  -1.061   0.447  0.00  0.00     0.029 A 
ATOM      9  C7A BZF d   1      -1.879  -0.076   1.290  0.00  0.00     0.058 A 
ENDROOT
TORSDOF 0
ENDMDL
