MODEL 1
REMARK minimizedAffinity -3.26592374
REMARK minimizedRMSD -1
REMARK  0 active torsions:
REMARK  status: ('A' for Active; 'I' for Inactive)
ROOT
ATOM      1  O1  BZF d   1       0.064  -0.463  -0.822  0.00  0.00    -0.204 OA
ATOM      2  C2  BZF d   1       1.365  -0.896  -0.992  0.00  0.00     0.174 A 
ATOM      3  C3  BZF d   1       2.174  -0.357  -0.057  0.00  0.00    -0.012 A 
ATOM      4  C3A BZF d   1       1.310   0.391   0.804  0.00  0.00    -0.107 A 
ATOM      5  C4  BZF d   1       1.521   1.139   1.926  0.00  0.00     0.055 A 
ATOM      6  C5  BZF d   1       0.474   1.800   2.486  0.00  0.00    -0.016 A 
ATOM      7  C6  BZF d   1      -0.794   1.740   1.947  0.00  0.00     0.022 A 
ATOM      8  C7  BZF d   1      -1.054   1.007   0.837  0.00  0.00     0.029 A 
ATOM      9  C7A BZF d   1      -0.004   0.311   0.288  0.00  0.00     0.058 A 
ENDROOT
TORSDOF 0
ENDMDL
