MODEL 1
REMARK minimizedAffinity -0.527138352
REMARK minimizedRMSD -1
REMARK  0 active torsions:
REMARK  status: ('A' for Active; 'I' for Inactive)
ROOT
ATOM      1  O1  BZF d   1      -1.223   1.676   1.150  0.00  0.00    -0.204 OA
ATOM      2  C2  BZF d   1      -1.092   2.234   2.407  0.00  0.00     0.174 A 
ATOM      3  C3  BZF d   1      -0.066   1.670   3.075  0.00  0.00    -0.012 A 
ATOM      4  C3A BZF d   1       0.537   0.764   2.146  0.00  0.00    -0.107 A 
ATOM      5  C4  BZF d   1       1.610  -0.078   2.217  0.00  0.00     0.055 A 
ATOM      6  C5  BZF d   1       1.890  -0.881   1.157  0.00  0.00    -0.016 A 
ATOM      7  C6  BZF d   1       1.116  -0.872   0.015  0.00  0.00     0.022 A 
ATOM      8  C7  BZF d   1       0.045  -0.050  -0.104  0.00  0.00     0.029 A 
ATOM      9  C7A BZF d   1      -0.221   0.786   0.952  0.00  0.00     0.058 A 
ENDROOT
TORSDOF 0
ENDMDL
