MODEL 1
REMARK minimizedAffinity 2.27984023
REMARK minimizedRMSD -1
REMARK  0 active torsions:
REMARK  status: ('A' for Active; 'I' for Inactive)
ROOT
ATOM      1  O1  BZF d   1      -0.097  -1.384  -0.459  0.00  0.00    -0.204 OA
ATOM      2  C2  BZF d   1      -1.453  -1.177  -0.626  0.00  0.00     0.174 A 
ATOM      3  C3  BZF d   1      -1.864  -0.108   0.084  0.00  0.00    -0.012 A 
ATOM      4  C3A BZF d   1      -0.676   0.440   0.663  0.00  0.00    -0.107 A 
ATOM      5  C4  BZF d   1      -0.433   1.520   1.462  0.00  0.00     0.055 A 
ATOM      6  C5  BZF d   1       0.831   1.738   1.912  0.00  0.00    -0.016 A 
ATOM      7  C6  BZF d   1       1.873   0.894   1.587  0.00  0.00     0.022 A 
ATOM      8  C7  BZF d   1       1.681  -0.187   0.792  0.00  0.00     0.029 A 
ATOM      9  C7A BZF d   1       0.412  -0.391   0.309  0.00  0.00     0.058 A 
ENDROOT
TORSDOF 0
ENDMDL
