MODEL 1
REMARK minimizedAffinity -0.393179536
REMARK minimizedRMSD -1
REMARK  0 active torsions:
REMARK  status: ('A' for Active; 'I' for Inactive)
ROOT
ATOM      1  O1  BZF d   1       0.470  -0.832  -0.947  0.00  0.00    -0.204 OA
ATOM      2  C2  BZF d   1       0.214   0.373  -0.323  0.00  0.00     0.174 A 
ATOM      3  C3  BZF d   1      -1.111   0.545  -0.139  0.00  0.00    -0.012 A 
ATOM      4  C3A BZF d   1      -1.715  -0.668  -0.600  0.00  0.00    -0.107 A 
ATOM      5  C4  BZF d   1      -3.006  -1.109  -0.662  0.00  0.00     0.055 A 
ATOM      6  C5  BZF d   1      -3.265  -2.314  -1.235  0.00  0.00    -0.016 A 
ATOM      7  C6  BZF d   1      -2.260  -3.099  -1.760  0.00  0.00     0.022 A 
ATOM      8  C7  BZF d   1      -0.964  -2.706  -1.717  0.00  0.00     0.029 A 
ATOM      9  C7A BZF d   1      -0.695  -1.504  -1.109  0.00  0.00     0.058 A 
ENDROOT
TORSDOF 0
ENDMDL
