MODEL 1
REMARK minimizedAffinity -3.37407732
REMARK minimizedRMSD -1
REMARK  0 active torsions:
REMARK  status: ('A' for Active; 'I' for Inactive)
ROOT
ATOM      1  O1  BZF d   1      -0.251   0.011   0.743  0.00  0.00    -0.204 OA
ATOM      2  C2  BZF d   1       1.108  -0.185   0.591  0.00  0.00     0.174 A 
ATOM      3  C3  BZF d   1       1.354  -1.119  -0.351  0.00  0.00    -0.012 A 
ATOM      4  C3A BZF d   1       0.071  -1.466  -0.881  0.00  0.00    -0.107 A 
ATOM      5  C4  BZF d   1      -0.339  -2.329  -1.856  0.00  0.00     0.055 A 
ATOM      6  C5  BZF d   1      -1.670  -2.487  -2.081  0.00  0.00    -0.016 A 
ATOM      7  C6  BZF d   1      -2.617  -1.803  -1.346  0.00  0.00     0.022 A 
ATOM      8  C7  BZF d   1      -2.258  -0.933  -0.372  0.00  0.00     0.029 A 
ATOM      9  C7A BZF d   1      -0.913  -0.746  -0.165  0.00  0.00     0.058 A 
ENDROOT
TORSDOF 0
ENDMDL
