MODEL 1
REMARK minimizedAffinity 3.00612259
REMARK minimizedRMSD -1
REMARK  0 active torsions:
REMARK  status: ('A' for Active; 'I' for Inactive)
ROOT
ATOM      1  O1  BZF d   1       0.555  -0.526  -5.997  0.00  0.00    -0.204 OA
ATOM      2  C2  BZF d   1      -0.734  -0.913  -5.684  0.00  0.00     0.174 A 
ATOM      3  C3  BZF d   1      -1.041  -0.572  -4.416  0.00  0.00    -0.012 A 
ATOM      4  C3A BZF d   1       0.096   0.150  -3.935  0.00  0.00    -0.107 A 
ATOM      5  C4  BZF d   1       0.388   0.760  -2.748  0.00  0.00     0.055 A 
ATOM      6  C5  BZF d   1       1.617   1.314  -2.574  0.00  0.00    -0.016 A 
ATOM      7  C6  BZF d   1       2.578   1.272  -3.563  0.00  0.00     0.022 A 
ATOM      8  C7  BZF d   1       2.334   0.683  -4.758  0.00  0.00     0.029 A 
ATOM      9  C7A BZF d   1       1.082   0.151  -4.949  0.00  0.00     0.058 A 
ENDROOT
TORSDOF 0
ENDMDL
