MODEL 1
REMARK minimizedAffinity -5.37867022
REMARK minimizedRMSD -1
REMARK  0 active torsions:
REMARK  status: ('A' for Active; 'I' for Inactive)
ROOT
ATOM      1  O1  BZF d   1      -1.250   1.145   2.258  0.00  0.00    -0.204 OA
ATOM      2  C2  BZF d   1       0.036   1.647   2.192  0.00  0.00     0.174 A 
ATOM      3  C3  BZF d   1       0.880   0.898   2.929  0.00  0.00    -0.012 A 
ATOM      4  C3A BZF d   1       0.090  -0.191   3.417  0.00  0.00    -0.107 A 
ATOM      5  C4  BZF d   1       0.368  -1.278   4.195  0.00  0.00     0.055 A 
ATOM      6  C5  BZF d   1      -0.645  -2.112   4.550  0.00  0.00    -0.016 A 
ATOM      7  C6  BZF d   1      -1.945  -1.887   4.149  0.00  0.00     0.022 A 
ATOM      8  C7  BZF d   1      -2.269  -0.825   3.373  0.00  0.00     0.029 A 
ATOM      9  C7A BZF d   1      -1.243   0.002   2.985  0.00  0.00     0.058 A 
ENDROOT
TORSDOF 0
ENDMDL
