MODEL 1
REMARK minimizedAffinity 3.18545103
REMARK minimizedRMSD -1
REMARK  0 active torsions:
REMARK  status: ('A' for Active; 'I' for Inactive)
ROOT
ATOM      1  N1  IND d   1      -4.775   2.297  -5.828  0.00  0.00    -0.196 N 
ATOM      2  C2  IND d   1      -4.588   3.548  -5.308  0.00  0.00     0.054 A 
ATOM      3  C3  IND d   1      -4.030   3.468  -4.079  0.00  0.00    -0.031 A 
ATOM      4  C4  IND d   1      -3.247   1.393  -2.771  0.00  0.00     0.051 A 
ATOM      5  C5  IND d   1      -3.241   0.028  -2.820  0.00  0.00    -0.031 A 
ATOM      6  C6  IND d   1      -3.755  -0.665  -3.897  0.00  0.00     0.015 A 
ATOM      7  C7  IND d   1      -4.285  -0.015  -4.975  0.00  0.00    -0.016 A 
ATOM      8  C8  IND d   1      -4.299   1.372  -4.925  0.00  0.00    -0.047 A 
ATOM      9  C9  IND d   1      -3.818   2.080  -3.816  0.00  0.00    -0.096 A 
ATOM     10  HN1 IND d   1      -5.131   2.119  -6.590  0.00  0.00     0.298 HD
ENDROOT
TORSDOF 0
ENDMDL
