MODEL 1
REMARK minimizedAffinity 2.5518527
REMARK minimizedRMSD -1
REMARK  0 active torsions:
REMARK  status: ('A' for Active; 'I' for Inactive)
ROOT
ATOM      1  N1  IND d   1       0.034   0.590  -1.774  0.00  0.00    -0.196 N 
ATOM      2  C2  IND d   1      -0.901   1.572  -1.607  0.00  0.00     0.054 A 
ATOM      3  C3  IND d   1      -1.039   1.872  -0.296  0.00  0.00    -0.031 A 
ATOM      4  C4  IND d   1       0.243   0.948   1.737  0.00  0.00     0.051 A 
ATOM      5  C5  IND d   1       1.169   0.006   2.089  0.00  0.00    -0.031 A 
ATOM      6  C6  IND d   1       1.778  -0.803   1.152  0.00  0.00     0.015 A 
ATOM      7  C7  IND d   1       1.491  -0.693  -0.179  0.00  0.00    -0.016 A 
ATOM      8  C8  IND d   1       0.546   0.257  -0.539  0.00  0.00    -0.047 A 
ATOM      9  C9  IND d   1      -0.107   1.052   0.411  0.00  0.00    -0.096 A 
ATOM     10  HN1 IND d   1       0.264   0.238  -2.525  0.00  0.00     0.298 HD
ENDROOT
TORSDOF 0
ENDMDL
