MODEL 1
REMARK minimizedAffinity 10.2471046
REMARK minimizedRMSD -1
REMARK  0 active torsions:
REMARK  status: ('A' for Active; 'I' for Inactive)
ROOT
ATOM      1  N1  IND d   1       0.394   0.272  -0.618  0.00  0.00    -0.196 N 
ATOM      2  C2  IND d   1      -0.691   0.952  -0.139  0.00  0.00     0.054 A 
ATOM      3  C3  IND d   1      -0.748   0.857   1.208  0.00  0.00    -0.031 A 
ATOM      4  C4  IND d   1       0.887  -0.280   2.839  0.00  0.00     0.051 A 
ATOM      5  C5  IND d   1       2.008  -1.062   2.870  0.00  0.00    -0.031 A 
ATOM      6  C6  IND d   1       2.662  -1.445   1.717  0.00  0.00     0.015 A 
ATOM      7  C7  IND d   1       2.225  -1.049   0.485  0.00  0.00    -0.016 A 
ATOM      8  C8  IND d   1       1.084  -0.260   0.449  0.00  0.00    -0.047 A 
ATOM      9  C9  IND d   1       0.391   0.096   1.613  0.00  0.00    -0.096 A 
ATOM     10  HN1 IND d   1       0.609   0.190  -1.447  0.00  0.00     0.298 HD
ENDROOT
TORSDOF 0
ENDMDL
