MODEL 1
REMARK minimizedAffinity 6.48406935
REMARK minimizedRMSD -1
REMARK  0 active torsions:
REMARK  status: ('A' for Active; 'I' for Inactive)
ROOT
ATOM      1  N1  IND d   1      -6.000   0.393   2.787  0.00  0.00    -0.196 N 
ATOM      2  C2  IND d   1      -5.994  -0.071   1.501  0.00  0.00     0.054 A 
ATOM      3  C3  IND d   1      -5.956  -1.422   1.489  0.00  0.00    -0.031 A 
ATOM      4  C4  IND d   1      -6.000  -3.078   3.459  0.00  0.00     0.051 A 
ATOM      5  C5  IND d   1      -5.968  -3.129   4.825  0.00  0.00    -0.031 A 
ATOM      6  C6  IND d   1      -5.948  -1.985   5.597  0.00  0.00     0.015 A 
ATOM      7  C7  IND d   1      -5.970  -0.742   5.029  0.00  0.00    -0.016 A 
ATOM      8  C8  IND d   1      -5.995  -0.687   3.643  0.00  0.00    -0.047 A 
ATOM      9  C9  IND d   1      -5.973  -1.844   2.854  0.00  0.00    -0.096 A 
ATOM     10  HN1 IND d   1      -6.006   1.220   3.023  0.00  0.00     0.298 HD
ENDROOT
TORSDOF 0
ENDMDL
