MODEL 1
REMARK minimizedAffinity 12.0181913
REMARK minimizedRMSD -1
REMARK  0 active torsions:
REMARK  status: ('A' for Active; 'I' for Inactive)
ROOT
ATOM      1  N1  IND d   1       0.731  -0.328  -1.351  0.00  0.00    -0.196 N 
ATOM      2  C2  IND d   1      -0.217   0.515  -1.860  0.00  0.00     0.054 A 
ATOM      3  C3  IND d   1      -0.837   1.183  -0.862  0.00  0.00    -0.031 A 
ATOM      4  C4  IND d   1      -0.387   1.124   1.672  0.00  0.00     0.051 A 
ATOM      5  C5  IND d   1       0.358   0.479   2.619  0.00  0.00    -0.031 A 
ATOM      6  C6  IND d   1       1.286  -0.486   2.284  0.00  0.00     0.015 A 
ATOM      7  C7  IND d   1       1.512  -0.835   0.983  0.00  0.00    -0.016 A 
ATOM      8  C8  IND d   1       0.753  -0.187   0.019  0.00  0.00    -0.047 A 
ATOM      9  C9  IND d   1      -0.220   0.763   0.356  0.00  0.00    -0.096 A 
ATOM     10  HN1 IND d   1       1.230  -0.858  -1.809  0.00  0.00     0.298 HD
ENDROOT
TORSDOF 0
ENDMDL
