MODEL 1
REMARK minimizedAffinity 3.03350329
REMARK minimizedRMSD -1
REMARK  0 active torsions:
REMARK  status: ('A' for Active; 'I' for Inactive)
ROOT
ATOM      1  N1  IND d   1       0.556   0.265  -1.734  0.00  0.00    -0.196 N 
ATOM      2  C2  IND d   1      -0.381   1.260  -1.758  0.00  0.00     0.054 A 
ATOM      3  C3  IND d   1      -0.738   1.601  -0.499  0.00  0.00    -0.031 A 
ATOM      4  C4  IND d   1       0.163   0.729   1.749  0.00  0.00     0.051 A 
ATOM      5  C5  IND d   1       1.003  -0.208   2.283  0.00  0.00    -0.031 A 
ATOM      6  C6  IND d   1       1.753  -1.051   1.489  0.00  0.00     0.015 A 
ATOM      7  C7  IND d   1       1.701  -0.979   0.125  0.00  0.00    -0.016 A 
ATOM      8  C8  IND d   1       0.844  -0.033  -0.420  0.00  0.00    -0.047 A 
ATOM      9  C9  IND d   1       0.048   0.796   0.381  0.00  0.00    -0.096 A 
ATOM     10  HN1 IND d   1       0.907  -0.110  -2.423  0.00  0.00     0.298 HD
ENDROOT
TORSDOF 0
ENDMDL
