MODEL 1
REMARK minimizedAffinity 5.27949381
REMARK minimizedRMSD -1
REMARK  0 active torsions:
REMARK  status: ('A' for Active; 'I' for Inactive)
ROOT
ATOM      1  N1  IND d   1       0.739   0.471  -1.053  0.00  0.00    -0.196 N 
ATOM      2  C2  IND d   1      -0.267   1.394  -0.981  0.00  0.00     0.054 A 
ATOM      3  C3  IND d   1      -0.620   1.604   0.307  0.00  0.00    -0.031 A 
ATOM      4  C4  IND d   1       0.388   0.620   2.462  0.00  0.00     0.051 A 
ATOM      5  C5  IND d   1       1.303  -0.295   2.903  0.00  0.00    -0.031 A 
ATOM      6  C6  IND d   1       2.094  -1.013   2.030  0.00  0.00     0.015 A 
ATOM      7  C7  IND d   1       2.008  -0.835   0.678  0.00  0.00    -0.016 A 
ATOM      8  C8  IND d   1       1.075   0.088   0.226  0.00  0.00    -0.047 A 
ATOM      9  C9  IND d   1       0.239   0.789   1.105  0.00  0.00    -0.096 A 
ATOM     10  HN1 IND d   1       1.100   0.179  -1.777  0.00  0.00     0.298 HD
ENDROOT
TORSDOF 0
ENDMDL
