MODEL 1
REMARK minimizedAffinity 2.54319906
REMARK minimizedRMSD -1
REMARK  0 active torsions:
REMARK  status: ('A' for Active; 'I' for Inactive)
ROOT
ATOM      1  N1  IND d   1       1.766  -0.782   0.492  0.00  0.00    -0.196 N 
ATOM      2  C2  IND d   1       1.878  -0.864   1.852  0.00  0.00     0.054 A 
ATOM      3  C3  IND d   1       1.072   0.043   2.446  0.00  0.00    -0.031 A 
ATOM      4  C4  IND d   1      -0.594   1.694   1.384  0.00  0.00     0.051 A 
ATOM      5  C5  IND d   1      -1.023   2.163   0.174  0.00  0.00    -0.031 A 
ATOM      6  C6  IND d   1      -0.537   1.661  -1.016  0.00  0.00     0.015 A 
ATOM      7  C7  IND d   1       0.393   0.661  -1.040  0.00  0.00    -0.016 A 
ATOM      8  C8  IND d   1       0.836   0.187   0.186  0.00  0.00    -0.047 A 
ATOM      9  C9  IND d   1       0.377   0.721   1.397  0.00  0.00    -0.096 A 
ATOM     10  HN1 IND d   1       2.202  -1.256  -0.077  0.00  0.00     0.298 HD
ENDROOT
TORSDOF 0
ENDMDL
