MODEL 1
REMARK minimizedAffinity -0.612840056
REMARK minimizedRMSD -1
REMARK  0 active torsions:
REMARK  status: ('A' for Active; 'I' for Inactive)
ROOT
ATOM      1  N1  IND d   1      -0.272   2.549  -1.553  0.00  0.00    -0.196 N 
ATOM      2  C2  IND d   1      -0.057   3.875  -1.807  0.00  0.00     0.054 A 
ATOM      3  C3  IND d   1       0.158   4.546  -0.653  0.00  0.00    -0.031 A 
ATOM      4  C4  IND d   1       0.304   3.652   1.756  0.00  0.00     0.051 A 
ATOM      5  C5  IND d   1       0.141   2.514   2.495  0.00  0.00    -0.031 A 
ATOM      6  C6  IND d   1      -0.172   1.304   1.909  0.00  0.00     0.015 A 
ATOM      7  C7  IND d   1      -0.323   1.185   0.557  0.00  0.00    -0.016 A 
ATOM      8  C8  IND d   1      -0.165   2.340  -0.195  0.00  0.00    -0.047 A 
ATOM      9  C9  IND d   1       0.111   3.579   0.397  0.00  0.00    -0.096 A 
ATOM     10  HN1 IND d   1      -0.445   1.947  -2.142  0.00  0.00     0.298 HD
ENDROOT
TORSDOF 0
ENDMDL
