MODEL 1
REMARK minimizedAffinity -2.72105265
REMARK minimizedRMSD -1
REMARK  0 active torsions:
REMARK  status: ('A' for Active; 'I' for Inactive)
ROOT
ATOM      1  N1  IND d   1      -0.236   2.290  -0.734  0.00  0.00    -0.196 N 
ATOM      2  C2  IND d   1      -0.291   1.550  -1.883  0.00  0.00     0.054 A 
ATOM      3  C3  IND d   1       0.132   0.287  -1.649  0.00  0.00    -0.031 A 
ATOM      4  C4  IND d   1       0.864  -0.810   0.561  0.00  0.00     0.051 A 
ATOM      5  C5  IND d   1       1.113  -0.526   1.875  0.00  0.00    -0.031 A 
ATOM      6  C6  IND d   1       0.919   0.737   2.396  0.00  0.00     0.015 A 
ATOM      7  C7  IND d   1       0.456   1.764   1.623  0.00  0.00    -0.016 A 
ATOM      8  C8  IND d   1       0.208   1.480   0.288  0.00  0.00    -0.047 A 
ATOM      9  C9  IND d   1       0.443   0.211  -0.257  0.00  0.00    -0.096 A 
ATOM     10  HN1 IND d   1      -0.444   3.121  -0.663  0.00  0.00     0.298 HD
ENDROOT
TORSDOF 0
ENDMDL
