MODEL 1
REMARK minimizedAffinity 7.9136548
REMARK minimizedRMSD -1
REMARK  0 active torsions:
REMARK  status: ('A' for Active; 'I' for Inactive)
ROOT
ATOM      1  N1  IND d   1      -5.893  -1.223   4.242  0.00  0.00    -0.196 N 
ATOM      2  C2  IND d   1      -5.918  -2.585   4.358  0.00  0.00     0.054 A 
ATOM      3  C3  IND d   1      -5.991  -3.159   3.136  0.00  0.00    -0.031 A 
ATOM      4  C4  IND d   1      -5.976  -2.061   0.809  0.00  0.00     0.051 A 
ATOM      5  C5  IND d   1      -6.000  -0.840   0.193  0.00  0.00    -0.031 A 
ATOM      6  C6  IND d   1      -5.986   0.338   0.910  0.00  0.00     0.015 A 
ATOM      7  C7  IND d   1      -5.937   0.341   2.276  0.00  0.00    -0.016 A 
ATOM      8  C8  IND d   1      -5.919  -0.896   2.904  0.00  0.00    -0.047 A 
ATOM      9  C9  IND d   1      -5.976  -2.096   2.183  0.00  0.00    -0.096 A 
ATOM     10  HN1 IND d   1      -5.865  -0.664   4.895  0.00  0.00     0.298 HD
ENDROOT
TORSDOF 0
ENDMDL
