MODEL 1
REMARK minimizedAffinity 4.85332251
REMARK minimizedRMSD -1
REMARK  0 active torsions:
REMARK  status: ('A' for Active; 'I' for Inactive)
ROOT
ATOM      1  N1  IND d   1       1.091  -0.203  -1.776  0.00  0.00    -0.196 N 
ATOM      2  C2  IND d   1       1.740  -1.312  -1.309  0.00  0.00     0.054 A 
ATOM      3  C3  IND d   1       1.686  -1.355   0.041  0.00  0.00    -0.031 A 
ATOM      4  C4  IND d   1       0.500   0.236   1.682  0.00  0.00     0.051 A 
ATOM      5  C5  IND d   1      -0.194   1.412   1.730  0.00  0.00    -0.031 A 
ATOM      6  C6  IND d   1      -0.504   2.123   0.589  0.00  0.00     0.015 A 
ATOM      7  C7  IND d   1      -0.139   1.676  -0.650  0.00  0.00    -0.016 A 
ATOM      8  C8  IND d   1       0.572   0.486  -0.702  0.00  0.00    -0.047 A 
ATOM      9  C9  IND d   1       0.926  -0.218   0.456  0.00  0.00    -0.096 A 
ATOM     10  HN1 IND d   1       1.020   0.026  -2.602  0.00  0.00     0.298 HD
ENDROOT
TORSDOF 0
ENDMDL
