MODEL 1
REMARK minimizedAffinity 9.42362499
REMARK minimizedRMSD -1
REMARK  0 active torsions:
REMARK  status: ('A' for Active; 'I' for Inactive)
ROOT
ATOM      1  N1  IND d   1       0.045   0.575  -1.114  0.00  0.00    -0.196 N 
ATOM      2  C2  IND d   1      -0.687   1.709  -1.330  0.00  0.00     0.054 A 
ATOM      3  C3  IND d   1      -0.760   2.444  -0.198  0.00  0.00    -0.031 A 
ATOM      4  C4  IND d   1       0.332   2.028   2.096  0.00  0.00     0.051 A 
ATOM      5  C5  IND d   1       1.064   1.105   2.789  0.00  0.00    -0.031 A 
ATOM      6  C6  IND d   1       1.506  -0.064   2.204  0.00  0.00     0.015 A 
ATOM      7  C7  IND d   1       1.239  -0.350   0.894  0.00  0.00    -0.016 A 
ATOM      8  C8  IND d   1       0.490   0.581   0.190  0.00  0.00    -0.047 A 
ATOM      9  C9  IND d   1       0.003   1.750   0.790  0.00  0.00    -0.096 A 
ATOM     10  HN1 IND d   1       0.201  -0.040  -1.695  0.00  0.00     0.298 HD
ENDROOT
TORSDOF 0
ENDMDL
