MODEL 1
REMARK minimizedAffinity 14.6745701
REMARK minimizedRMSD -1
REMARK  0 active torsions:
REMARK  status: ('A' for Active; 'I' for Inactive)
ROOT
ATOM      1  N1  IND d   1      -5.998  -2.063   1.918  0.00  0.00    -0.196 N 
ATOM      2  C2  IND d   1      -5.994  -0.895   1.207  0.00  0.00     0.054 A 
ATOM      3  C3  IND d   1      -5.998   0.166   2.045  0.00  0.00    -0.031 A 
ATOM      4  C4  IND d   1      -5.909   0.218   4.617  0.00  0.00     0.051 A 
ATOM      5  C5  IND d   1      -5.937  -0.598   5.713  0.00  0.00    -0.031 A 
ATOM      6  C6  IND d   1      -5.986  -1.973   5.597  0.00  0.00     0.015 A 
ATOM      7  C7  IND d   1      -5.996  -2.585   4.376  0.00  0.00    -0.016 A 
ATOM      8  C8  IND d   1      -5.974  -1.758   3.261  0.00  0.00    -0.047 A 
ATOM      9  C9  IND d   1      -5.968  -0.362   3.372  0.00  0.00    -0.096 A 
ATOM     10  HN1 IND d   1      -6.013  -2.854   1.582  0.00  0.00     0.298 HD
ENDROOT
TORSDOF 0
ENDMDL
