MODEL 1
REMARK minimizedAffinity 10.7858477
REMARK minimizedRMSD -1
REMARK  1 active torsions:
REMARK  status: ('A' for Active; 'I' for Inactive)
REMARK    1  A    between atoms: C1_2  and  C2_3 
ROOT
ATOM      1  C2  UNL d   1      -0.788  -1.671   2.579  0.00  0.00    -0.076 A 
ATOM      2  C3  UNL d   1      -0.660  -3.008   2.992  0.00  0.00     0.004 A 
ATOM      3  C4  UNL d   1       0.498  -3.456   3.625  0.00  0.00    -0.003 A 
ATOM      4  C5  UNL d   1       1.547  -2.573   3.857  0.00  0.00     0.000 A 
ATOM      5  C6  UNL d   1       1.430  -1.239   3.470  0.00  0.00     0.000 A 
ATOM      6  C7  UNL d   1       0.263  -0.767   2.845  0.00  0.00    -0.073 A 
ATOM      7  C8  UNL d   1       0.194   0.681   2.444  0.00  0.00     0.078 C 
ENDROOT
BRANCH   1   8
ATOM      8  C1  UNL d   1      -2.056  -1.249   1.873  0.00  0.00     0.053 C 
ATOM      9  C   UNL d   1      -3.232  -2.160   2.192  0.00  0.00     0.018 C 
ENDBRANCH   1   8
TORSDOF 1
ENDMDL
