MODEL 1
REMARK minimizedAffinity 11.0894051
REMARK minimizedRMSD -1
REMARK  1 active torsions:
REMARK  status: ('A' for Active; 'I' for Inactive)
REMARK    1  A    between atoms: C1_2  and  C2_3 
ROOT
ATOM      1  C2  UNL d   1       1.682  -0.399   3.325  0.00  0.00    -0.076 A 
ATOM      2  C3  UNL d   1       1.039   0.599   2.573  0.00  0.00     0.004 A 
ATOM      3  C4  UNL d   1      -0.238   0.394   2.053  0.00  0.00    -0.003 A 
ATOM      4  C5  UNL d   1      -0.893  -0.811   2.279  0.00  0.00     0.000 A 
ATOM      5  C6  UNL d   1      -0.278  -1.806   3.038  0.00  0.00     0.000 A 
ATOM      6  C7  UNL d   1       1.003  -1.610   3.583  0.00  0.00    -0.073 A 
ATOM      7  C8  UNL d   1       1.623  -2.718   4.389  0.00  0.00     0.078 C 
ENDROOT
BRANCH   1   8
ATOM      8  C1  UNL d   1       3.078  -0.131   3.840  0.00  0.00     0.053 C 
ATOM      9  C   UNL d   1       3.722   1.077   3.177  0.00  0.00     0.018 C 
ENDBRANCH   1   8
TORSDOF 1
ENDMDL
