MODEL 1
REMARK minimizedAffinity 14.5462351
REMARK minimizedRMSD -1
REMARK  1 active torsions:
REMARK  status: ('A' for Active; 'I' for Inactive)
REMARK    1  A    between atoms: C1_2  and  C2_3 
ROOT
ATOM      1  C2  UNL d   1      -1.301  -0.601   2.502  0.00  0.00    -0.076 A 
ATOM      2  C3  UNL d   1      -0.506  -1.753   2.363  0.00  0.00     0.004 A 
ATOM      3  C4  UNL d   1       0.882  -1.683   2.463  0.00  0.00    -0.003 A 
ATOM      4  C5  UNL d   1       1.499  -0.460   2.705  0.00  0.00     0.000 A 
ATOM      5  C6  UNL d   1       0.725   0.689   2.863  0.00  0.00     0.000 A 
ATOM      6  C7  UNL d   1      -0.677   0.633   2.781  0.00  0.00    -0.073 A 
ATOM      7  C8  UNL d   1      -1.461   1.905   2.954  0.00  0.00     0.078 C 
ENDROOT
BRANCH   1   8
ATOM      8  C1  UNL d   1      -2.800  -0.734   2.356  0.00  0.00     0.053 C 
ATOM      9  C   UNL d   1      -3.244  -2.179   2.187  0.00  0.00     0.018 C 
ENDBRANCH   1   8
TORSDOF 1
ENDMDL
