MODEL 1
REMARK minimizedAffinity 17.9214478
REMARK minimizedRMSD -1
REMARK  1 active torsions:
REMARK  status: ('A' for Active; 'I' for Inactive)
REMARK    1  A    between atoms: C1_2  and  C2_3 
ROOT
ATOM      1  C2  UNL d   1      -1.058  -1.550   2.940  0.00  0.00    -0.076 A 
ATOM      2  C3  UNL d   1      -1.120  -0.310   2.280  0.00  0.00     0.004 A 
ATOM      3  C4  UNL d   1      -0.011   0.532   2.229  0.00  0.00    -0.003 A 
ATOM      4  C5  UNL d   1       1.179   0.149   2.838  0.00  0.00     0.000 A 
ATOM      5  C6  UNL d   1       1.264  -1.085   3.482  0.00  0.00     0.000 A 
ATOM      6  C7  UNL d   1       0.160  -1.954   3.528  0.00  0.00    -0.073 A 
ATOM      7  C8  UNL d   1       0.306  -3.270   4.241  0.00  0.00     0.078 C 
ENDROOT
BRANCH   1   8
ATOM      8  C1  UNL d   1      -2.301  -2.409   2.985  0.00  0.00     0.053 C 
ATOM      9  C   UNL d   1      -3.482  -1.763   2.278  0.00  0.00     0.018 C 
ENDBRANCH   1   8
TORSDOF 1
ENDMDL
