MODEL 1
REMARK minimizedAffinity 14.1453333
REMARK minimizedRMSD -1
REMARK  1 active torsions:
REMARK  status: ('A' for Active; 'I' for Inactive)
REMARK    1  A    between atoms: C1_2  and  C2_3 
ROOT
ATOM      1  C2  UNL d   1       3.122  -0.357  -4.942  0.00  0.00    -0.076 A 
ATOM      2  C3  UNL d   1       2.305   0.722  -4.560  0.00  0.00     0.004 A 
ATOM      3  C4  UNL d   1       1.059   0.506  -3.974  0.00  0.00    -0.003 A 
ATOM      4  C5  UNL d   1       0.610  -0.793  -3.759  0.00  0.00     0.000 A 
ATOM      5  C6  UNL d   1       1.415  -1.874  -4.115  0.00  0.00     0.000 A 
ATOM      6  C7  UNL d   1       2.680  -1.674  -4.692  0.00  0.00    -0.073 A 
ATOM      7  C8  UNL d   1       3.504  -2.877  -5.062  0.00  0.00     0.078 C 
ENDROOT
BRANCH   1   8
ATOM      8  C1  UNL d   1       4.451  -0.061  -5.598  0.00  0.00     0.053 C 
ATOM      9  C   UNL d   1       4.695   1.429  -5.777  0.00  0.00     0.018 C 
ENDBRANCH   1   8
TORSDOF 1
ENDMDL
