MODEL 1
REMARK minimizedAffinity 5.33476305
REMARK minimizedRMSD -1
REMARK  0 active torsions:
REMARK  status: ('A' for Active; 'I' for Inactive)
ROOT
ATOM      1  C   UNL d   1      -4.398   0.747  -4.305  0.00  0.00     0.023 A 
ATOM      2  C1  UNL d   1      -4.333  -0.094  -3.193  0.00  0.00     0.003 A 
ATOM      3  C2  UNL d   1      -3.104  -0.607  -2.776  0.00  0.00     0.048 A 
ATOM      4  C3  UNL d   1      -1.943  -0.276  -3.474  0.00  0.00     0.023 A 
ATOM      5  C4  UNL d   1      -2.003   0.565  -4.586  0.00  0.00     0.048 A 
ATOM      6  C5  UNL d   1      -3.235   1.076  -5.000  0.00  0.00     0.003 A 
ATOM      7  I   UNL d   1      -0.112  -1.038  -2.854  0.00  0.00    -0.146 I 
ENDROOT
TORSDOF 0
ENDMDL
