MODEL 1
REMARK minimizedAffinity 1.85920358
REMARK minimizedRMSD -1
REMARK  0 active torsions:
REMARK  status: ('A' for Active; 'I' for Inactive)
ROOT
ATOM      1  C   UNL d   1       3.233  -1.203   0.682  0.00  0.00     0.023 A 
ATOM      2  C1  UNL d   1       2.247  -1.035  -0.289  0.00  0.00     0.003 A 
ATOM      3  C2  UNL d   1       1.264  -2.012  -0.463  0.00  0.00     0.048 A 
ATOM      4  C3  UNL d   1       1.273  -3.153   0.338  0.00  0.00     0.023 A 
ATOM      5  C4  UNL d   1       2.258  -3.324   1.312  0.00  0.00     0.048 A 
ATOM      6  C5  UNL d   1       3.239  -2.345   1.482  0.00  0.00     0.003 A 
ATOM      7  I   UNL d   1      -0.189  -4.607   0.081  0.00  0.00    -0.146 I 
ENDROOT
TORSDOF 0
ENDMDL
