MODEL 1
REMARK minimizedAffinity 8.28167248
REMARK minimizedRMSD -1
REMARK  0 active torsions:
REMARK  status: ('A' for Active; 'I' for Inactive)
ROOT
ATOM      1  C   UNL d   1       0.152  -3.830   5.541  0.00  0.00     0.023 A 
ATOM      2  C1  UNL d   1      -0.557  -3.173   4.536  0.00  0.00     0.003 A 
ATOM      3  C2  UNL d   1       0.119  -2.649   3.432  0.00  0.00     0.048 A 
ATOM      4  C3  UNL d   1       1.503  -2.787   3.338  0.00  0.00     0.023 A 
ATOM      5  C4  UNL d   1       2.216  -3.445   4.341  0.00  0.00     0.048 A 
ATOM      6  C5  UNL d   1       1.537  -3.967   5.444  0.00  0.00     0.003 A 
ATOM      7  I   UNL d   1       2.511  -2.008   1.696  0.00  0.00    -0.146 I 
ENDROOT
TORSDOF 0
ENDMDL
