MODEL 1
REMARK minimizedAffinity 8.26498413
REMARK minimizedRMSD -1
REMARK  0 active torsions:
REMARK  status: ('A' for Active; 'I' for Inactive)
ROOT
ATOM      1  C   UNL d   1       3.390  -2.268   0.368  0.00  0.00     0.023 A 
ATOM      2  C1  UNL d   1       3.647  -1.476   1.487  0.00  0.00     0.003 A 
ATOM      3  C2  UNL d   1       2.953  -0.278   1.670  0.00  0.00     0.048 A 
ATOM      4  C3  UNL d   1       2.003   0.121   0.732  0.00  0.00     0.023 A 
ATOM      5  C4  UNL d   1       1.742  -0.669  -0.389  0.00  0.00     0.048 A 
ATOM      6  C5  UNL d   1       2.439  -1.865  -0.569  0.00  0.00     0.003 A 
ATOM      7  I   UNL d   1       0.968   1.903   1.002  0.00  0.00    -0.146 I 
ENDROOT
TORSDOF 0
ENDMDL
