MODEL 1
REMARK minimizedAffinity 7.54097557
REMARK minimizedRMSD -1
REMARK  0 active torsions:
REMARK  status: ('A' for Active; 'I' for Inactive)
ROOT
ATOM      1  C   UNL d   1      -0.774   3.322   2.079  0.00  0.00     0.023 A 
ATOM      2  C1  UNL d   1      -0.903   1.991   2.477  0.00  0.00     0.003 A 
ATOM      3  C2  UNL d   1      -0.079   1.011   1.919  0.00  0.00     0.048 A 
ATOM      4  C3  UNL d   1       0.873   1.369   0.965  0.00  0.00     0.023 A 
ATOM      5  C4  UNL d   1       1.006   2.700   0.565  0.00  0.00     0.048 A 
ATOM      6  C5  UNL d   1       0.179   3.676   1.124  0.00  0.00     0.003 A 
ATOM      7  I   UNL d   1       2.101  -0.087   0.134  0.00  0.00    -0.146 I 
ENDROOT
TORSDOF 0
ENDMDL
