MODEL 1
REMARK minimizedAffinity 5.95582485
REMARK minimizedRMSD -1
REMARK  0 active torsions:
REMARK  status: ('A' for Active; 'I' for Inactive)
ROOT
ATOM      1  C   UNL d   1       1.876  -2.472  -0.910  0.00  0.00     0.023 A 
ATOM      2  C1  UNL d   1       2.315  -2.094   0.359  0.00  0.00     0.003 A 
ATOM      3  C2  UNL d   1       2.349  -0.744   0.714  0.00  0.00     0.048 A 
ATOM      4  C3  UNL d   1       1.942   0.223  -0.205  0.00  0.00     0.023 A 
ATOM      5  C4  UNL d   1       1.502  -0.150  -1.475  0.00  0.00     0.048 A 
ATOM      6  C5  UNL d   1       1.470  -1.501  -1.826  0.00  0.00     0.003 A 
ATOM      7  I   UNL d   1       1.992   2.233   0.321  0.00  0.00    -0.146 I 
ENDROOT
TORSDOF 0
ENDMDL
