MODEL 1
REMARK minimizedAffinity 8.73918533
REMARK minimizedRMSD -1
REMARK  0 active torsions:
REMARK  status: ('A' for Active; 'I' for Inactive)
ROOT
ATOM      1  C   UNL d   1       0.111   3.228   4.161  0.00  0.00     0.077 C 
ATOM      2  C1  UNL d   1       1.038   4.116   3.384  0.00  0.00    -0.074 A 
ATOM      3  C2  UNL d   1       0.555   4.939   2.361  0.00  0.00    -0.005 A 
ATOM      4  C3  UNL d   1       1.428   5.766   1.654  0.00  0.00     0.006 A 
ATOM      5  C4  UNL d   1       2.789   5.778   1.961  0.00  0.00    -0.005 A 
ATOM      6  C5  UNL d   1       3.289   4.962   2.981  0.00  0.00    -0.074 A 
ATOM      7  C6  UNL d   1       4.748   4.970   3.330  0.00  0.00     0.077 C 
ATOM      8  C7  UNL d   1       2.405   4.139   3.692  0.00  0.00    -0.001 A 
ENDROOT
TORSDOF 0
ENDMDL
