MODEL 1
REMARK minimizedAffinity 6.14983797
REMARK minimizedRMSD -1
REMARK  0 active torsions:
REMARK  status: ('A' for Active; 'I' for Inactive)
ROOT
ATOM      1  C   UNL d   1       5.986   2.112  -1.366  0.00  0.00     0.077 C 
ATOM      2  C1  UNL d   1       4.829   1.220  -1.024  0.00  0.00    -0.074 A 
ATOM      3  C2  UNL d   1       3.962   0.755  -2.017  0.00  0.00    -0.005 A 
ATOM      4  C3  UNL d   1       2.896  -0.081  -1.685  0.00  0.00     0.006 A 
ATOM      5  C4  UNL d   1       2.687  -0.460  -0.358  0.00  0.00    -0.005 A 
ATOM      6  C5  UNL d   1       3.545  -0.006   0.648  0.00  0.00    -0.074 A 
ATOM      7  C6  UNL d   1       3.341  -0.411   2.078  0.00  0.00     0.077 C 
ATOM      8  C7  UNL d   1       4.618   0.829   0.305  0.00  0.00    -0.001 A 
ENDROOT
TORSDOF 0
ENDMDL
