MODEL 1
REMARK minimizedAffinity -0.217989698
REMARK minimizedRMSD -1
REMARK  0 active torsions:
REMARK  status: ('A' for Active; 'I' for Inactive)
ROOT
ATOM      1  C   UNL d   1       4.126   0.844   1.005  0.00  0.00     0.077 C 
ATOM      2  C1  UNL d   1       4.165   0.760  -0.492  0.00  0.00    -0.074 A 
ATOM      3  C2  UNL d   1       3.342  -0.134  -1.184  0.00  0.00    -0.005 A 
ATOM      4  C3  UNL d   1       3.383  -0.194  -2.577  0.00  0.00     0.006 A 
ATOM      5  C4  UNL d   1       4.245   0.638  -3.291  0.00  0.00    -0.005 A 
ATOM      6  C5  UNL d   1       5.075   1.540  -2.617  0.00  0.00    -0.074 A 
ATOM      7  C6  UNL d   1       6.000   2.449  -3.370  0.00  0.00     0.077 C 
ATOM      8  C7  UNL d   1       5.023   1.599  -1.218  0.00  0.00    -0.001 A 
ENDROOT
TORSDOF 0
ENDMDL
