MODEL 1
REMARK minimizedAffinity 5.35682678
REMARK minimizedRMSD -1
REMARK  0 active torsions:
REMARK  status: ('A' for Active; 'I' for Inactive)
ROOT
ATOM      1  C   UNL d   1      -0.225   4.462   0.872  0.00  0.00     0.077 C 
ATOM      2  C1  UNL d   1      -0.052   3.121   0.224  0.00  0.00    -0.074 A 
ATOM      3  C2  UNL d   1      -1.085   2.545  -0.523  0.00  0.00    -0.005 A 
ATOM      4  C3  UNL d   1      -0.906   1.301  -1.128  0.00  0.00     0.006 A 
ATOM      5  C4  UNL d   1       0.305   0.622  -0.993  0.00  0.00    -0.005 A 
ATOM      6  C5  UNL d   1       1.350   1.182  -0.250  0.00  0.00    -0.074 A 
ATOM      7  C6  UNL d   1       2.661   0.469  -0.103  0.00  0.00     0.077 C 
ATOM      8  C7  UNL d   1       1.165   2.436   0.349  0.00  0.00    -0.001 A 
ENDROOT
TORSDOF 0
ENDMDL
