MODEL 1
REMARK minimizedAffinity 0.653787434
REMARK minimizedRMSD -1
REMARK  0 active torsions:
REMARK  status: ('A' for Active; 'I' for Inactive)
ROOT
ATOM      1  C   UNL d   1       3.397   1.318   1.509  0.00  0.00     0.077 C 
ATOM      2  C1  UNL d   1       3.457   1.201   0.015  0.00  0.00    -0.074 A 
ATOM      3  C2  UNL d   1       2.577   0.363  -0.677  0.00  0.00    -0.005 A 
ATOM      4  C3  UNL d   1       2.639   0.272  -2.067  0.00  0.00     0.006 A 
ATOM      5  C4  UNL d   1       3.580   1.017  -2.779  0.00  0.00    -0.005 A 
ATOM      6  C5  UNL d   1       4.468   1.861  -2.104  0.00  0.00    -0.074 A 
ATOM      7  C6  UNL d   1       5.479   2.676  -2.855  0.00  0.00     0.077 C 
ATOM      8  C7  UNL d   1       4.395   1.953  -0.708  0.00  0.00    -0.001 A 
ENDROOT
TORSDOF 0
ENDMDL
