MODEL 1
REMARK minimizedAffinity -3.11161971
REMARK minimizedRMSD -1
REMARK  0 active torsions:
REMARK  status: ('A' for Active; 'I' for Inactive)
ROOT
ATOM      1  C   UNL d   1      -2.492   0.011  -2.478  0.00  0.00     0.077 C 
ATOM      2  C1  UNL d   1      -3.624   0.416  -3.375  0.00  0.00    -0.074 A 
ATOM      3  C2  UNL d   1      -4.841  -0.273  -3.353  0.00  0.00    -0.005 A 
ATOM      4  C3  UNL d   1      -5.888   0.121  -4.186  0.00  0.00     0.006 A 
ATOM      5  C4  UNL d   1      -5.728   1.206  -5.049  0.00  0.00    -0.005 A 
ATOM      6  C5  UNL d   1      -4.519   1.907  -5.085  0.00  0.00    -0.074 A 
ATOM      7  C6  UNL d   1      -4.334   3.082  -6.000  0.00  0.00     0.077 C 
ATOM      8  C7  UNL d   1      -3.474   1.509  -4.239  0.00  0.00    -0.001 A 
ENDROOT
TORSDOF 0
ENDMDL
