MODEL 1
REMARK minimizedAffinity 3.96155405
REMARK minimizedRMSD -1
REMARK  0 active torsions:
REMARK  status: ('A' for Active; 'I' for Inactive)
ROOT
ATOM      1  C   UNL d   1       2.511   0.714  -0.225  0.00  0.00     0.077 C 
ATOM      2  C1  UNL d   1       2.665   0.167  -1.613  0.00  0.00    -0.074 A 
ATOM      3  C2  UNL d   1       3.507   0.789  -2.541  0.00  0.00    -0.005 A 
ATOM      4  C3  UNL d   1       3.647   0.263  -3.826  0.00  0.00     0.006 A 
ATOM      5  C4  UNL d   1       2.948  -0.887  -4.194  0.00  0.00    -0.005 A 
ATOM      6  C5  UNL d   1       2.103  -1.523  -3.279  0.00  0.00    -0.074 A 
ATOM      7  C6  UNL d   1       1.352  -2.765  -3.656  0.00  0.00     0.077 C 
ATOM      8  C7  UNL d   1       1.973  -0.992  -1.988  0.00  0.00    -0.001 A 
ENDROOT
TORSDOF 0
ENDMDL
