MODEL 1
REMARK minimizedAffinity 5.04298496
REMARK minimizedRMSD -1
REMARK  0 active torsions:
REMARK  status: ('A' for Active; 'I' for Inactive)
ROOT
ATOM      1  C   UNL d   1       5.982   2.660  -2.999  0.00  0.00     0.077 C 
ATOM      2  C1  UNL d   1       4.841   1.816  -2.513  0.00  0.00    -0.074 A 
ATOM      3  C2  UNL d   1       4.097   1.034  -3.402  0.00  0.00    -0.005 A 
ATOM      4  C3  UNL d   1       3.044   0.247  -2.934  0.00  0.00     0.006 A 
ATOM      5  C4  UNL d   1       2.726   0.234  -1.576  0.00  0.00    -0.005 A 
ATOM      6  C5  UNL d   1       3.459   1.010  -0.672  0.00  0.00    -0.074 A 
ATOM      7  C6  UNL d   1       3.136   1.001   0.792  0.00  0.00     0.077 C 
ATOM      8  C7  UNL d   1       4.520   1.793  -1.149  0.00  0.00    -0.001 A 
ENDROOT
TORSDOF 0
ENDMDL
