MODEL 1
REMARK minimizedAffinity 8.9509306
REMARK minimizedRMSD -1
REMARK  2 active torsions:
REMARK  status: ('A' for Active; 'I' for Inactive)
REMARK    1  A    between atoms: C1_2  and  C2_3 
REMARK    2  A    between atoms: C2_3  and  C3_4 
ROOT
ATOM      1  C3  UNL d   1       2.113  -1.011  -4.827  0.00  0.00    -0.075 A 
ATOM      2  C4  UNL d   1       1.401  -1.850  -3.958  0.00  0.00     0.002 A 
ATOM      3  C5  UNL d   1       0.027  -2.032  -4.117  0.00  0.00     0.002 A 
ATOM      4  C6  UNL d   1      -0.653  -1.372  -5.138  0.00  0.00    -0.004 A 
ATOM      5  C7  UNL d   1       0.041  -0.523  -5.997  0.00  0.00     0.002 A 
ATOM      6  C8  UNL d   1       1.417  -0.342  -5.843  0.00  0.00     0.002 A 
ENDROOT
BRANCH   1   7
ATOM      7  C2  UNL d   1       3.605  -0.832  -4.679  0.00  0.00     0.056 C 
BRANCH   7   8
ATOM      8  C1  UNL d   1       4.335  -0.564  -5.999  0.00  0.00     0.007 C 
ATOM      9  C   UNL d   1       5.775  -1.059  -6.000  0.00  0.00     0.009 C 
ENDBRANCH   7   8
ENDBRANCH   1   7
TORSDOF 2
ENDMDL
