MODEL 1
REMARK minimizedAffinity 4.75791311
REMARK minimizedRMSD -1
REMARK  2 active torsions:
REMARK  status: ('A' for Active; 'I' for Inactive)
REMARK    1  A    between atoms: C1_2  and  C2_3 
REMARK    2  A    between atoms: C2_3  and  C3_4 
ROOT
ATOM      1  C3  UNL d   1       1.980  -0.607  -5.311  0.00  0.00    -0.075 A 
ATOM      2  C4  UNL d   1       2.066  -1.134  -4.015  0.00  0.00     0.002 A 
ATOM      3  C5  UNL d   1       0.941  -1.681  -3.396  0.00  0.00     0.002 A 
ATOM      4  C6  UNL d   1      -0.283  -1.699  -4.060  0.00  0.00    -0.004 A 
ATOM      5  C7  UNL d   1      -0.384  -1.163  -5.342  0.00  0.00     0.002 A 
ATOM      6  C8  UNL d   1       0.741  -0.619  -5.965  0.00  0.00     0.002 A 
ENDROOT
BRANCH   1   7
ATOM      7  C2  UNL d   1       3.200  -0.041  -5.998  0.00  0.00     0.056 C 
BRANCH   7   8
ATOM      8  C1  UNL d   1       4.458  -0.901  -5.844  0.00  0.00     0.007 C 
ATOM      9  C   UNL d   1       5.750  -0.110  -5.999  0.00  0.00     0.009 C 
ENDBRANCH   7   8
ENDBRANCH   1   7
TORSDOF 2
ENDMDL
