MODEL 1
REMARK minimizedAffinity 8.44803619
REMARK minimizedRMSD -1
REMARK  2 active torsions:
REMARK  status: ('A' for Active; 'I' for Inactive)
REMARK    1  A    between atoms: C1_2  and  C2_3 
REMARK    2  A    between atoms: C2_3  and  C3_4 
ROOT
ATOM      1  C3  UNL d   1       0.594  -1.240   3.350  0.00  0.00    -0.075 A 
ATOM      2  C4  UNL d   1       1.723  -1.878   2.816  0.00  0.00     0.002 A 
ATOM      3  C5  UNL d   1       2.889  -2.004   3.573  0.00  0.00     0.002 A 
ATOM      4  C6  UNL d   1       2.944  -1.487   4.865  0.00  0.00    -0.004 A 
ATOM      5  C7  UNL d   1       1.833  -0.837   5.399  0.00  0.00     0.002 A 
ATOM      6  C8  UNL d   1       0.664  -0.713   4.646  0.00  0.00     0.002 A 
ENDROOT
BRANCH   1   7
ATOM      7  C2  UNL d   1      -0.680  -1.126   2.547  0.00  0.00     0.056 C 
BRANCH   7   8
ATOM      8  C1  UNL d   1      -1.477  -2.432   2.454  0.00  0.00     0.007 C 
ATOM      9  C   UNL d   1      -2.826  -2.264   1.766  0.00  0.00     0.009 C 
ENDBRANCH   7   8
ENDBRANCH   1   7
TORSDOF 2
ENDMDL
