MODEL 1
REMARK minimizedAffinity 0.471097946
REMARK minimizedRMSD -1
REMARK  0 active torsions:
REMARK  status: ('A' for Active; 'I' for Inactive)
ROOT
ATOM      1  C   UNL d   1      -1.882   0.207   0.698  0.00  0.00     0.023 A 
ATOM      2  C1  UNL d   1      -2.257   0.241   2.041  0.00  0.00     0.003 A 
ATOM      3  C2  UNL d   1      -1.378  -0.216   3.025  0.00  0.00     0.048 A 
ATOM      4  C3  UNL d   1      -0.124  -0.705   2.659  0.00  0.00     0.023 A 
ATOM      5  C4  UNL d   1       0.256  -0.740   1.316  0.00  0.00     0.048 A 
ATOM      6  C5  UNL d   1      -0.627  -0.283   0.336  0.00  0.00     0.003 A 
ATOM      7  I   UNL d   1       1.186  -1.386   4.121  0.00  0.00    -0.146 I 
ENDROOT
TORSDOF 0
ENDMDL
