MODEL 1
REMARK minimizedAffinity -0.234935164
REMARK minimizedRMSD -1
REMARK  0 active torsions:
REMARK  status: ('A' for Active; 'I' for Inactive)
ROOT
ATOM      1  C   UNL d   1      -3.662  -0.688   2.167  0.00  0.00     0.023 A 
ATOM      2  C1  UNL d   1      -2.597   0.171   1.892  0.00  0.00     0.003 A 
ATOM      3  C2  UNL d   1      -1.362  -0.026   2.512  0.00  0.00     0.048 A 
ATOM      4  C3  UNL d   1      -1.198  -1.085   3.405  0.00  0.00     0.023 A 
ATOM      5  C4  UNL d   1      -2.260  -1.947   3.682  0.00  0.00     0.048 A 
ATOM      6  C5  UNL d   1      -3.494  -1.745   3.061  0.00  0.00     0.003 A 
ATOM      7  I   UNL d   1       0.641  -1.381   4.329  0.00  0.00    -0.146 I 
ENDROOT
TORSDOF 0
ENDMDL
