MODEL 1
REMARK minimizedAffinity -0.269597352
REMARK minimizedRMSD -1
REMARK  0 active torsions:
REMARK  status: ('A' for Active; 'I' for Inactive)
ROOT
ATOM      1  C   UNL d   1      -1.634  -0.117   0.874  0.00  0.00     0.023 A 
ATOM      2  C1  UNL d   1      -2.105  -0.275   2.177  0.00  0.00     0.003 A 
ATOM      3  C2  UNL d   1      -1.239  -0.699   3.187  0.00  0.00     0.048 A 
ATOM      4  C3  UNL d   1       0.097  -0.963   2.887  0.00  0.00     0.023 A 
ATOM      5  C4  UNL d   1       0.573  -0.806   1.584  0.00  0.00     0.048 A 
ATOM      6  C5  UNL d   1      -0.297  -0.382   0.577  0.00  0.00     0.003 A 
ATOM      7  I   UNL d   1       1.388  -1.594   4.388  0.00  0.00    -0.146 I 
ENDROOT
TORSDOF 0
ENDMDL
