MODEL 1
REMARK minimizedAffinity 3.08262253
REMARK minimizedRMSD -1
REMARK  0 active torsions:
REMARK  status: ('A' for Active; 'I' for Inactive)
ROOT
ATOM      1  C   UNL d   1      -3.058  -0.835   0.456  0.00  0.00     0.023 A 
ATOM      2  C1  UNL d   1      -2.299  -1.370  -0.584  0.00  0.00     0.003 A 
ATOM      3  C2  UNL d   1      -0.911  -1.211  -0.591  0.00  0.00     0.048 A 
ATOM      4  C3  UNL d   1      -0.290  -0.517   0.447  0.00  0.00     0.023 A 
ATOM      5  C4  UNL d   1      -1.046   0.019   1.491  0.00  0.00     0.048 A 
ATOM      6  C5  UNL d   1      -2.433  -0.142   1.492  0.00  0.00     0.003 A 
ATOM      7  I   UNL d   1       1.775  -0.279   0.440  0.00  0.00    -0.146 I 
ENDROOT
TORSDOF 0
ENDMDL
