MODEL 1
REMARK minimizedAffinity 1.02765954
REMARK minimizedRMSD -1
REMARK  0 active torsions:
REMARK  status: ('A' for Active; 'I' for Inactive)
ROOT
ATOM      1  C   UNL d   1      -2.320   0.209   0.037  0.00  0.00     0.023 A 
ATOM      2  C1  UNL d   1      -1.052  -0.251  -0.317  0.00  0.00     0.003 A 
ATOM      3  C2  UNL d   1      -0.140  -0.621   0.675  0.00  0.00     0.048 A 
ATOM      4  C3  UNL d   1      -0.505  -0.529   2.018  0.00  0.00     0.023 A 
ATOM      5  C4  UNL d   1      -1.774  -0.071   2.376  0.00  0.00     0.048 A 
ATOM      6  C5  UNL d   1      -2.681   0.299   1.381  0.00  0.00     0.003 A 
ATOM      7  I   UNL d   1       0.849  -1.080   3.495  0.00  0.00    -0.146 I 
ENDROOT
TORSDOF 0
ENDMDL
