MODEL 1
REMARK minimizedAffinity -0.219511166
REMARK minimizedRMSD -1
REMARK  0 active torsions:
REMARK  status: ('A' for Active; 'I' for Inactive)
ROOT
ATOM      1  C   UNL d   1      -2.741   0.125   1.232  0.00  0.00     0.023 A 
ATOM      2  C1  UNL d   1      -1.771   0.675   2.069  0.00  0.00     0.003 A 
ATOM      3  C2  UNL d   1      -0.416   0.511   1.774  0.00  0.00     0.048 A 
ATOM      4  C3  UNL d   1      -0.038  -0.204   0.638  0.00  0.00     0.023 A 
ATOM      5  C4  UNL d   1      -1.006  -0.756  -0.204  0.00  0.00     0.048 A 
ATOM      6  C5  UNL d   1      -2.359  -0.590   0.096  0.00  0.00     0.003 A 
ATOM      7  I   UNL d   1       1.977  -0.450   0.195  0.00  0.00    -0.146 I 
ENDROOT
TORSDOF 0
ENDMDL
