MODEL 1
REMARK minimizedAffinity 2.87071323
REMARK minimizedRMSD -1
REMARK  0 active torsions:
REMARK  status: ('A' for Active; 'I' for Inactive)
ROOT
ATOM      1  C   UNL d   1      -3.222   0.255   0.673  0.00  0.00     0.023 A 
ATOM      2  C1  UNL d   1      -2.499  -0.000  -0.492  0.00  0.00     0.003 A 
ATOM      3  C2  UNL d   1      -1.108  -0.115  -0.442  0.00  0.00     0.048 A 
ATOM      4  C3  UNL d   1      -0.447   0.025   0.777  0.00  0.00     0.023 A 
ATOM      5  C4  UNL d   1      -1.166   0.280   1.946  0.00  0.00     0.048 A 
ATOM      6  C5  UNL d   1      -2.556   0.395   1.891  0.00  0.00     0.003 A 
ATOM      7  I   UNL d   1       1.623  -0.146   0.855  0.00  0.00    -0.146 I 
ENDROOT
TORSDOF 0
ENDMDL
