MODEL 1
REMARK minimizedAffinity 5.26371431
REMARK minimizedRMSD -1
REMARK  0 active torsions:
REMARK  status: ('A' for Active; 'I' for Inactive)
ROOT
ATOM      1  C   UNL d   1      -1.593  -0.000   0.676  0.00  0.00     0.023 A 
ATOM      2  C1  UNL d   1      -2.110   0.029   1.971  0.00  0.00     0.003 A 
ATOM      3  C2  UNL d   1      -1.322  -0.383   3.048  0.00  0.00     0.048 A 
ATOM      4  C3  UNL d   1      -0.018  -0.822   2.822  0.00  0.00     0.023 A 
ATOM      5  C4  UNL d   1       0.504  -0.852   1.528  0.00  0.00     0.048 A 
ATOM      6  C5  UNL d   1      -0.288  -0.440   0.454  0.00  0.00     0.003 A 
ATOM      7  I   UNL d   1       1.157  -1.435   4.423  0.00  0.00    -0.146 I 
ENDROOT
TORSDOF 0
ENDMDL
