MODEL 1
REMARK minimizedAffinity 2.0181663
REMARK minimizedRMSD -1
REMARK  0 active torsions:
REMARK  status: ('A' for Active; 'I' for Inactive)
ROOT
ATOM      1  C   UNL d   1      -1.828  -0.087   0.087  0.00  0.00     0.023 A 
ATOM      2  C1  UNL d   1      -2.492  -0.048   1.313  0.00  0.00     0.003 A 
ATOM      3  C2  UNL d   1      -1.816  -0.390   2.486  0.00  0.00     0.048 A 
ATOM      4  C3  UNL d   1      -0.476  -0.770   2.426  0.00  0.00     0.023 A 
ATOM      5  C4  UNL d   1       0.193  -0.811   1.201  0.00  0.00     0.048 A 
ATOM      6  C5  UNL d   1      -0.487  -0.468   0.031  0.00  0.00     0.003 A 
ATOM      7  I   UNL d   1       0.533  -1.280   4.170  0.00  0.00    -0.146 I 
ENDROOT
TORSDOF 0
ENDMDL
