MODEL 1
REMARK minimizedAffinity -1.1526227
REMARK minimizedRMSD -1
REMARK  0 active torsions:
REMARK  status: ('A' for Active; 'I' for Inactive)
ROOT
ATOM      1  C   UNL d   1      -3.261  -0.269   0.280  0.00  0.00     0.023 A 
ATOM      2  C1  UNL d   1      -2.537  -0.734  -0.818  0.00  0.00     0.003 A 
ATOM      3  C2  UNL d   1      -1.142  -0.790  -0.764  0.00  0.00     0.048 A 
ATOM      4  C3  UNL d   1      -0.479  -0.380   0.392  0.00  0.00     0.023 A 
ATOM      5  C4  UNL d   1      -1.199   0.085   1.494  0.00  0.00     0.048 A 
ATOM      6  C5  UNL d   1      -2.593   0.140   1.434  0.00  0.00     0.003 A 
ATOM      7  I   UNL d   1       1.596  -0.462   0.476  0.00  0.00    -0.146 I 
ENDROOT
TORSDOF 0
ENDMDL
