MODEL 1
REMARK minimizedAffinity -4.35136986
REMARK minimizedRMSD -1
REMARK  0 active torsions:
REMARK  status: ('A' for Active; 'I' for Inactive)
ROOT
ATOM      1  O1  BZF d   1       1.872  -0.902  -0.387  0.00  0.00    -0.204 OA
ATOM      2  C2  BZF d   1       1.235  -0.867  -1.612  0.00  0.00     0.174 A 
ATOM      3  C3  BZF d   1      -0.017  -0.382  -1.486  0.00  0.00    -0.012 A 
ATOM      4  C3A BZF d   1      -0.141  -0.010  -0.110  0.00  0.00    -0.107 A 
ATOM      5  C4  BZF d   1      -1.148   0.547   0.625  0.00  0.00     0.055 A 
ATOM      6  C5  BZF d   1      -0.974   0.714   1.963  0.00  0.00    -0.016 A 
ATOM      7  C6  BZF d   1       0.190   0.332   2.597  0.00  0.00     0.022 A 
ATOM      8  C7  BZF d   1       1.219  -0.220   1.909  0.00  0.00     0.029 A 
ATOM      9  C7A BZF d   1       1.059  -0.360   0.552  0.00  0.00     0.058 A 
ENDROOT
TORSDOF 0
ENDMDL
