MODEL 1
REMARK minimizedAffinity -4.03983736
REMARK minimizedRMSD -1
REMARK  0 active torsions:
REMARK  status: ('A' for Active; 'I' for Inactive)
ROOT
ATOM      1  O1  BZF d   1       1.049  -0.334  -1.228  0.00  0.00    -0.204 OA
ATOM      2  C2  BZF d   1      -0.084   0.013  -1.938  0.00  0.00     0.174 A 
ATOM      3  C3  BZF d   1      -1.152   0.105  -1.119  0.00  0.00    -0.012 A 
ATOM      4  C3A BZF d   1      -0.636  -0.113   0.198  0.00  0.00    -0.107 A 
ATOM      5  C4  BZF d   1      -1.206  -0.130   1.439  0.00  0.00     0.055 A 
ATOM      6  C5  BZF d   1      -0.438  -0.446   2.514  0.00  0.00    -0.016 A 
ATOM      7  C6  BZF d   1       0.901  -0.755   2.385  0.00  0.00     0.022 A 
ATOM      8  C7  BZF d   1       1.512  -0.746   1.175  0.00  0.00     0.029 A 
ATOM      9  C7A BZF d   1       0.746  -0.395   0.091  0.00  0.00     0.058 A 
ENDROOT
TORSDOF 0
ENDMDL
