MODEL 1
REMARK minimizedAffinity -5.19877243
REMARK minimizedRMSD -1
REMARK  0 active torsions:
REMARK  status: ('A' for Active; 'I' for Inactive)
ROOT
ATOM      1  O1  BZF d   1       0.400  -0.307  -1.159  0.00  0.00    -0.204 OA
ATOM      2  C2  BZF d   1      -0.831   0.281  -0.943  0.00  0.00     0.174 A 
ATOM      3  C3  BZF d   1      -1.237   0.089   0.329  0.00  0.00    -0.012 A 
ATOM      4  C3A BZF d   1      -0.151  -0.586   0.972  0.00  0.00    -0.107 A 
ATOM      5  C4  BZF d   1       0.053  -1.034   2.246  0.00  0.00     0.055 A 
ATOM      6  C5  BZF d   1       1.192  -1.719   2.530  0.00  0.00    -0.016 A 
ATOM      7  C6  BZF d   1       2.144  -1.976   1.566  0.00  0.00     0.022 A 
ATOM      8  C7  BZF d   1       1.989  -1.547   0.290  0.00  0.00     0.029 A 
ATOM      9  C7A BZF d   1       0.854  -0.827   0.007  0.00  0.00     0.058 A 
ENDROOT
TORSDOF 0
ENDMDL
