MODEL 1
REMARK minimizedAffinity 1.83447564
REMARK minimizedRMSD -1
REMARK  0 active torsions:
REMARK  status: ('A' for Active; 'I' for Inactive)
ROOT
ATOM      1  O1  BZF d   1      -0.179  -1.409   2.436  0.00  0.00    -0.204 OA
ATOM      2  C2  BZF d   1       1.157  -1.293   2.769  0.00  0.00     0.174 A 
ATOM      3  C3  BZF d   1       1.838  -0.652   1.798  0.00  0.00    -0.012 A 
ATOM      4  C3A BZF d   1       0.850  -0.267   0.837  0.00  0.00    -0.107 A 
ATOM      5  C4  BZF d   1       0.906   0.415  -0.345  0.00  0.00     0.055 A 
ATOM      6  C5  BZF d   1      -0.229   0.560  -1.078  0.00  0.00    -0.016 A 
ATOM      7  C6  BZF d   1      -1.434   0.033  -0.662  0.00  0.00     0.022 A 
ATOM      8  C7  BZF d   1      -1.540  -0.647   0.506  0.00  0.00     0.029 A 
ATOM      9  C7A BZF d   1      -0.402  -0.767   1.265  0.00  0.00     0.058 A 
ENDROOT
TORSDOF 0
ENDMDL
