MODEL 1
REMARK minimizedAffinity -5.7690382
REMARK minimizedRMSD -1
REMARK  0 active torsions:
REMARK  status: ('A' for Active; 'I' for Inactive)
ROOT
ATOM      1  O1  BZF d   1       0.498  -0.887  -0.901  0.00  0.00    -0.204 OA
ATOM      2  C2  BZF d   1      -0.717  -0.284  -0.637  0.00  0.00     0.174 A 
ATOM      3  C3  BZF d   1      -0.958  -0.256   0.690  0.00  0.00    -0.012 A 
ATOM      4  C3A BZF d   1       0.218  -0.799   1.298  0.00  0.00    -0.107 A 
ATOM      5  C4  BZF d   1       0.590  -1.017   2.593  0.00  0.00     0.055 A 
ATOM      6  C5  BZF d   1       1.776  -1.630   2.846  0.00  0.00    -0.016 A 
ATOM      7  C6  BZF d   1       2.612  -2.041   1.828  0.00  0.00     0.022 A 
ATOM      8  C7  BZF d   1       2.289  -1.841   0.527  0.00  0.00     0.029 A 
ATOM      9  C7A BZF d   1       1.106  -1.193   0.270  0.00  0.00     0.058 A 
ENDROOT
TORSDOF 0
ENDMDL
