MODEL 1
REMARK minimizedAffinity -0.797384977
REMARK minimizedRMSD -1
REMARK  0 active torsions:
REMARK  status: ('A' for Active; 'I' for Inactive)
ROOT
ATOM      1  O1  BZF d   1      -3.260   3.406  -4.305  0.00  0.00    -0.204 OA
ATOM      2  C2  BZF d   1      -4.236   2.677  -3.654  0.00  0.00     0.174 A 
ATOM      3  C3  BZF d   1      -3.712   1.995  -2.616  0.00  0.00    -0.012 A 
ATOM      4  C3A BZF d   1      -2.338   2.391  -2.561  0.00  0.00    -0.107 A 
ATOM      5  C4  BZF d   1      -1.300   2.068  -1.734  0.00  0.00     0.055 A 
ATOM      6  C5  BZF d   1      -0.066   2.573  -1.995  0.00  0.00    -0.016 A 
ATOM      7  C6  BZF d   1       0.167   3.399  -3.076  0.00  0.00     0.022 A 
ATOM      8  C7  BZF d   1      -0.832   3.751  -3.921  0.00  0.00     0.029 A 
ATOM      9  C7A BZF d   1      -2.088   3.269  -3.640  0.00  0.00     0.058 A 
ENDROOT
TORSDOF 0
ENDMDL
