MODEL 1
REMARK minimizedAffinity -2.57818413
REMARK minimizedRMSD -1
REMARK  0 active torsions:
REMARK  status: ('A' for Active; 'I' for Inactive)
ROOT
ATOM      1  O1  BZF d   1       0.679   1.009  -1.938  0.00  0.00    -0.204 OA
ATOM      2  C2  BZF d   1      -0.451   1.652  -2.406  0.00  0.00     0.174 A 
ATOM      3  C3  BZF d   1      -1.507   1.406  -1.604  0.00  0.00    -0.012 A 
ATOM      4  C3A BZF d   1      -0.985   0.631  -0.520  0.00  0.00    -0.107 A 
ATOM      5  C4  BZF d   1      -1.543   0.094   0.605  0.00  0.00     0.055 A 
ATOM      6  C5  BZF d   1      -0.773  -0.670   1.423  0.00  0.00    -0.016 A 
ATOM      7  C6  BZF d   1       0.554  -0.922   1.145  0.00  0.00     0.022 A 
ATOM      8  C7  BZF d   1       1.153  -0.407   0.044  0.00  0.00     0.029 A 
ATOM      9  C7A BZF d   1       0.387   0.393  -0.768  0.00  0.00     0.058 A 
ENDROOT
TORSDOF 0
ENDMDL
