MODEL 1
REMARK minimizedAffinity -1.59574246
REMARK minimizedRMSD -1
REMARK  0 active torsions:
REMARK  status: ('A' for Active; 'I' for Inactive)
ROOT
ATOM      1  O1  BZF d   1       1.030  -0.603  -0.857  0.00  0.00    -0.204 OA
ATOM      2  C2  BZF d   1       0.004  -0.180  -1.679  0.00  0.00     0.174 A 
ATOM      3  C3  BZF d   1      -1.127   0.017  -0.971  0.00  0.00    -0.012 A 
ATOM      4  C3A BZF d   1      -0.762  -0.214   0.393  0.00  0.00    -0.107 A 
ATOM      5  C4  BZF d   1      -1.449  -0.157   1.571  0.00  0.00     0.055 A 
ATOM      6  C5  BZF d   1      -0.818  -0.512   2.722  0.00  0.00    -0.016 A 
ATOM      7  C6  BZF d   1       0.496  -0.932   2.730  0.00  0.00     0.022 A 
ATOM      8  C7  BZF d   1       1.220  -1.000   1.586  0.00  0.00     0.029 A 
ATOM      9  C7A BZF d   1       0.595  -0.611   0.426  0.00  0.00     0.058 A 
ENDROOT
TORSDOF 0
ENDMDL
