MODEL 1
REMARK minimizedAffinity 2.41535401
REMARK minimizedRMSD -1
REMARK  2 active torsions:
REMARK  status: ('A' for Active; 'I' for Inactive)
REMARK    1  A    between atoms: C2'_3  and  C1'_4 
REMARK    2  A    between atoms: C1'_4  and  C1_5 
ROOT
ATOM      1  C1  I4B d   1      -0.286   3.674  -5.999  0.00  0.00    -0.075 A 
ATOM      2  C2  I4B d   1       0.158   4.972  -5.999  0.00  0.00     0.003 A 
ATOM      3  C3  I4B d   1       1.547   5.250  -5.988  0.00  0.00     0.002 A 
ATOM      4  C4  I4B d   1       2.448   4.208  -5.928  0.00  0.00    -0.004 A 
ATOM      5  C5  I4B d   1       1.996   2.891  -5.951  0.00  0.00     0.002 A 
ATOM      6  C6  I4B d   1       0.621   2.622  -6.000  0.00  0.00     0.003 A 
ENDROOT
BRANCH   1   7
ATOM      7  C1' I4B d   1      -1.760   3.416  -5.977  0.00  0.00     0.060 C 
BRANCH   7   8
ATOM      8  C2' I4B d   1      -2.407   4.484  -5.118  0.00  0.00    -0.013 C 
ATOM      9  C4' I4B d   1      -2.988   5.586  -5.965  0.00  0.00     0.013 C 
ATOM     10  C3' I4B d   1      -3.466   3.828  -4.283  0.00  0.00     0.013 C 
ENDBRANCH   7   8
ENDBRANCH   1   7
TORSDOF 2
ENDMDL
