MODEL 1
REMARK minimizedAffinity 7.43364906
REMARK minimizedRMSD -1
REMARK  2 active torsions:
REMARK  status: ('A' for Active; 'I' for Inactive)
REMARK    1  A    between atoms: C2'_3  and  C1'_4 
REMARK    2  A    between atoms: C1'_4  and  C1_5 
ROOT
ATOM      1  C1  I4B d   1      -1.118   0.001  -0.562  0.00  0.00    -0.075 A 
ATOM      2  C2  I4B d   1      -0.307   0.848  -1.274  0.00  0.00     0.003 A 
ATOM      3  C3  I4B d   1       0.547   1.753  -0.598  0.00  0.00     0.002 A 
ATOM      4  C4  I4B d   1       0.522   1.810   0.780  0.00  0.00    -0.004 A 
ATOM      5  C5  I4B d   1      -0.285   0.934   1.501  0.00  0.00     0.002 A 
ATOM      6  C6  I4B d   1      -1.101   0.015   0.826  0.00  0.00     0.003 A 
ENDROOT
BRANCH   1   7
ATOM      7  C1' I4B d   1      -2.032  -0.919  -1.309  0.00  0.00     0.060 C 
BRANCH   7   8
ATOM      8  C2' I4B d   1      -1.591  -2.342  -1.032  0.00  0.00    -0.013 C 
ATOM      9  C4' I4B d   1      -2.701  -3.144  -0.406  0.00  0.00     0.013 C 
ATOM     10  C3' I4B d   1      -1.149  -2.950  -2.329  0.00  0.00     0.013 C 
ENDBRANCH   7   8
ENDBRANCH   1   7
TORSDOF 2
ENDMDL
