MODEL 1
REMARK minimizedAffinity 4.09908342
REMARK minimizedRMSD -1
REMARK  2 active torsions:
REMARK  status: ('A' for Active; 'I' for Inactive)
REMARK    1  A    between atoms: C2'_3  and  C1'_4 
REMARK    2  A    between atoms: C1'_4  and  C1_5 
ROOT
ATOM      1  C1  I4B d   1       0.981   3.837  -5.869  0.00  0.00    -0.075 A 
ATOM      2  C2  I4B d   1       0.519   5.129  -5.857  0.00  0.00     0.003 A 
ATOM      3  C3  I4B d   1      -0.870   5.389  -5.765  0.00  0.00     0.002 A 
ATOM      4  C4  I4B d   1      -1.759   4.333  -5.739  0.00  0.00    -0.004 A 
ATOM      5  C5  I4B d   1      -1.287   3.024  -5.728  0.00  0.00     0.002 A 
ATOM      6  C6  I4B d   1       0.092   2.774  -5.781  0.00  0.00     0.003 A 
ENDROOT
BRANCH   1   7
ATOM      7  C1' I4B d   1       2.452   3.599  -6.000  0.00  0.00     0.060 C 
BRANCH   7   8
ATOM      8  C2' I4B d   1       3.172   4.700  -5.248  0.00  0.00    -0.013 C 
ATOM      9  C4' I4B d   1       4.636   4.387  -5.093  0.00  0.00     0.013 C 
ATOM     10  C3' I4B d   1       2.968   5.982  -5.999  0.00  0.00     0.013 C 
ENDBRANCH   7   8
ENDBRANCH   1   7
TORSDOF 2
ENDMDL
