MODEL 1
REMARK minimizedAffinity -0.904868841
REMARK minimizedRMSD -1
REMARK  2 active torsions:
REMARK  status: ('A' for Active; 'I' for Inactive)
REMARK    1  A    between atoms: C2'_3  and  C1'_4 
REMARK    2  A    between atoms: C1'_4  and  C1_5 
ROOT
ATOM      1  C1  I4B d   1       0.297   3.669  -5.947  0.00  0.00    -0.075 A 
ATOM      2  C2  I4B d   1       1.407   2.865  -5.885  0.00  0.00     0.003 A 
ATOM      3  C3  I4B d   1       2.702   3.438  -5.866  0.00  0.00     0.002 A 
ATOM      4  C4  I4B d   1       2.841   4.807  -5.960  0.00  0.00    -0.004 A 
ATOM      5  C5  I4B d   1       1.713   5.622  -5.999  0.00  0.00     0.002 A 
ATOM      6  C6  I4B d   1       0.432   5.051  -5.980  0.00  0.00     0.003 A 
ENDROOT
BRANCH   1   7
ATOM      7  C1' I4B d   1      -1.054   3.029  -5.999  0.00  0.00     0.060 C 
BRANCH   7   8
ATOM      8  C2' I4B d   1      -2.033   3.947  -5.295  0.00  0.00    -0.013 C 
ATOM      9  C4' I4B d   1      -2.139   5.274  -5.999  0.00  0.00     0.013 C 
ATOM     10  C3' I4B d   1      -3.362   3.254  -5.242  0.00  0.00     0.013 C 
ENDBRANCH   7   8
ENDBRANCH   1   7
TORSDOF 2
ENDMDL
