MODEL 1
REMARK minimizedAffinity 4.66506481
REMARK minimizedRMSD -1
REMARK  2 active torsions:
REMARK  status: ('A' for Active; 'I' for Inactive)
REMARK    1  A    between atoms: C2'_3  and  C1'_4 
REMARK    2  A    between atoms: C1'_4  and  C1_5 
ROOT
ATOM      1  C1  I4B d   1       0.117  -0.114  -0.412  0.00  0.00    -0.075 A 
ATOM      2  C2  I4B d   1      -0.281   0.264   0.845  0.00  0.00     0.003 A 
ATOM      3  C3  I4B d   1      -0.188   1.620   1.245  0.00  0.00     0.002 A 
ATOM      4  C4  I4B d   1       0.354   2.548   0.379  0.00  0.00    -0.004 A 
ATOM      5  C5  I4B d   1       0.736   2.166  -0.904  0.00  0.00     0.002 A 
ATOM      6  C6  I4B d   1       0.605   0.829  -1.307  0.00  0.00     0.003 A 
ENDROOT
BRANCH   1   7
ATOM      7  C1' I4B d   1       0.035  -1.560  -0.790  0.00  0.00     0.060 C 
BRANCH   7   8
ATOM      8  C2' I4B d   1       1.333  -1.938  -1.473  0.00  0.00    -0.013 C 
ATOM      9  C4' I4B d   1       2.423  -2.201  -0.467  0.00  0.00     0.013 C 
ATOM     10  C3' I4B d   1       1.075  -3.148  -2.321  0.00  0.00     0.013 C 
ENDBRANCH   7   8
ENDBRANCH   1   7
TORSDOF 2
ENDMDL
