MODEL 1
REMARK minimizedAffinity 1.30278623
REMARK minimizedRMSD -1
REMARK  2 active torsions:
REMARK  status: ('A' for Active; 'I' for Inactive)
REMARK    1  A    between atoms: C2'_3  and  C1'_4 
REMARK    2  A    between atoms: C1'_4  and  C1_5 
ROOT
ATOM      1  C1  I4B d   1      -0.263   4.555  -5.901  0.00  0.00    -0.075 A 
ATOM      2  C2  I4B d   1      -1.397   5.328  -5.902  0.00  0.00     0.003 A 
ATOM      3  C3  I4B d   1      -2.675   4.719  -5.884  0.00  0.00     0.002 A 
ATOM      4  C4  I4B d   1      -2.772   3.342  -5.914  0.00  0.00    -0.004 A 
ATOM      5  C5  I4B d   1      -1.621   2.560  -5.890  0.00  0.00     0.002 A 
ATOM      6  C6  I4B d   1      -0.358   3.170  -5.870  0.00  0.00     0.003 A 
ENDROOT
BRANCH   1   7
ATOM      7  C1' I4B d   1       1.070   5.232  -5.954  0.00  0.00     0.060 C 
BRANCH   7   8
ATOM      8  C2' I4B d   1       2.117   4.237  -5.495  0.00  0.00    -0.013 C 
ATOM      9  C4' I4B d   1       1.807   2.850  -5.994  0.00  0.00     0.013 C 
ATOM     10  C3' I4B d   1       3.451   4.706  -5.994  0.00  0.00     0.013 C 
ENDBRANCH   7   8
ENDBRANCH   1   7
TORSDOF 2
ENDMDL
