MODEL 1
REMARK minimizedAffinity 0.169612527
REMARK minimizedRMSD -1
REMARK  2 active torsions:
REMARK  status: ('A' for Active; 'I' for Inactive)
REMARK    1  A    between atoms: C2'_3  and  C1'_4 
REMARK    2  A    between atoms: C1'_4  and  C1_5 
ROOT
ATOM      1  C1  I4B d   1       3.111   5.035  -5.615  0.00  0.00    -0.075 A 
ATOM      2  C2  I4B d   1       3.514   3.941  -4.890  0.00  0.00     0.003 A 
ATOM      3  C3  I4B d   1       4.876   3.783  -4.537  0.00  0.00     0.002 A 
ATOM      4  C4  I4B d   1       5.802   4.710  -4.969  0.00  0.00    -0.004 A 
ATOM      5  C5  I4B d   1       5.388   5.830  -5.685  0.00  0.00     0.002 A 
ATOM      6  C6  I4B d   1       4.032   6.000  -6.000  0.00  0.00     0.003 A 
ENDROOT
BRANCH   1   7
ATOM      7  C1' I4B d   1       1.670   5.153  -6.000  0.00  0.00     0.060 C 
BRANCH   7   8
ATOM      8  C2' I4B d   1       0.848   4.419  -4.961  0.00  0.00    -0.013 C 
ATOM      9  C4' I4B d   1      -0.299   5.266  -4.475  0.00  0.00     0.013 C 
ATOM     10  C3' I4B d   1       0.356   3.143  -5.576  0.00  0.00     0.013 C 
ENDBRANCH   7   8
ENDBRANCH   1   7
TORSDOF 2
ENDMDL
