MODEL 1
REMARK minimizedAffinity 1.89156759
REMARK minimizedRMSD -1
REMARK  2 active torsions:
REMARK  status: ('A' for Active; 'I' for Inactive)
REMARK    1  A    between atoms: C2'_3  and  C1'_4 
REMARK    2  A    between atoms: C1'_4  and  C1_5 
ROOT
ATOM      1  C1  I4B d   1      -0.502   3.981  -5.909  0.00  0.00    -0.075 A 
ATOM      2  C2  I4B d   1      -0.599   5.349  -5.849  0.00  0.00     0.003 A 
ATOM      3  C3  I4B d   1      -1.869   5.971  -5.794  0.00  0.00     0.002 A 
ATOM      4  C4  I4B d   1      -3.009   5.196  -5.854  0.00  0.00    -0.004 A 
ATOM      5  C5  I4B d   1      -2.909   3.808  -5.892  0.00  0.00     0.002 A 
ATOM      6  C6  I4B d   1      -1.647   3.196  -5.908  0.00  0.00     0.003 A 
ENDROOT
BRANCH   1   7
ATOM      7  C1' I4B d   1       0.855   3.358  -5.999  0.00  0.00     0.060 C 
BRANCH   7   8
ATOM      8  C2' I4B d   1       1.855   4.328  -5.403  0.00  0.00    -0.013 C 
ATOM      9  C4' I4B d   1       3.269   3.881  -5.661  0.00  0.00     0.013 C 
ATOM     10  C3' I4B d   1       1.597   5.681  -5.998  0.00  0.00     0.013 C 
ENDBRANCH   7   8
ENDBRANCH   1   7
TORSDOF 2
ENDMDL
