MODEL 1
REMARK minimizedAffinity 2.33457136
REMARK minimizedRMSD -1
REMARK  2 active torsions:
REMARK  status: ('A' for Active; 'I' for Inactive)
REMARK    1  A    between atoms: C2'_3  and  C1'_4 
REMARK    2  A    between atoms: C1'_4  and  C1_5 
ROOT
ATOM      1  C1  I4B d   1      -0.396   4.386  -5.844  0.00  0.00    -0.075 A 
ATOM      2  C2  I4B d   1      -1.283   5.433  -5.854  0.00  0.00     0.003 A 
ATOM      3  C3  I4B d   1      -2.676   5.188  -5.906  0.00  0.00     0.002 A 
ATOM      4  C4  I4B d   1      -3.134   3.889  -5.998  0.00  0.00    -0.004 A 
ATOM      5  C5  I4B d   1      -2.235   2.827  -5.964  0.00  0.00     0.002 A 
ATOM      6  C6  I4B d   1      -0.858   3.076  -5.875  0.00  0.00     0.003 A 
ENDROOT
BRANCH   1   7
ATOM      7  C1' I4B d   1       1.070   4.682  -5.822  0.00  0.00     0.060 C 
BRANCH   7   8
ATOM      8  C2' I4B d   1       1.814   3.374  -5.997  0.00  0.00    -0.013 C 
ATOM      9  C4' I4B d   1       3.304   3.589  -5.990  0.00  0.00     0.013 C 
ATOM     10  C3' I4B d   1       1.394   2.452  -4.892  0.00  0.00     0.013 C 
ENDBRANCH   7   8
ENDBRANCH   1   7
TORSDOF 2
ENDMDL
