MODEL 1
REMARK minimizedAffinity -1.65427232
REMARK minimizedRMSD -1
REMARK  2 active torsions:
REMARK  status: ('A' for Active; 'I' for Inactive)
REMARK    1  A    between atoms: C2'_3  and  C1'_4 
REMARK    2  A    between atoms: C1'_4  and  C1_5 
ROOT
ATOM      1  C1  I4B d   1      -2.465   4.381  -5.927  0.00  0.00    -0.075 A 
ATOM      2  C2  I4B d   1      -1.782   3.194  -5.834  0.00  0.00     0.003 A 
ATOM      3  C3  I4B d   1      -0.367   3.185  -5.808  0.00  0.00     0.002 A 
ATOM      4  C4  I4B d   1       0.322   4.375  -5.926  0.00  0.00    -0.004 A 
ATOM      5  C5  I4B d   1      -0.371   5.580  -5.997  0.00  0.00     0.002 A 
ATOM      6  C6  I4B d   1      -1.773   5.584  -5.985  0.00  0.00     0.003 A 
ENDROOT
BRANCH   1   7
ATOM      7  C1' I4B d   1      -3.959   4.351  -5.986  0.00  0.00     0.060 C 
BRANCH   7   8
ATOM      8  C2' I4B d   1      -4.476   5.643  -5.386  0.00  0.00    -0.013 C 
ATOM      9  C4' I4B d   1      -5.831   5.997  -5.940  0.00  0.00     0.013 C 
ATOM     10  C3' I4B d   1      -4.527   5.474  -3.897  0.00  0.00     0.013 C 
ENDBRANCH   7   8
ENDBRANCH   1   7
TORSDOF 2
ENDMDL
