MODEL 1
REMARK minimizedAffinity -2.95524859
REMARK minimizedRMSD -1
REMARK  2 active torsions:
REMARK  status: ('A' for Active; 'I' for Inactive)
REMARK    1  A    between atoms: C2'_3  and  C1'_4 
REMARK    2  A    between atoms: C1'_4  and  C1_5 
ROOT
ATOM      1  C1  I4B d   1       0.902   3.600  -5.908  0.00  0.00    -0.075 A 
ATOM      2  C2  I4B d   1       1.062   4.961  -6.000  0.00  0.00     0.003 A 
ATOM      3  C3  I4B d   1       2.352   5.535  -5.900  0.00  0.00     0.002 A 
ATOM      4  C4  I4B d   1       3.441   4.722  -5.660  0.00  0.00    -0.004 A 
ATOM      5  C5  I4B d   1       3.280   3.341  -5.590  0.00  0.00     0.002 A 
ATOM      6  C6  I4B d   1       2.004   2.775  -5.728  0.00  0.00     0.003 A 
ENDROOT
BRANCH   1   7
ATOM      7  C1' I4B d   1      -0.479   3.030  -5.985  0.00  0.00     0.060 C 
BRANCH   7   8
ATOM      8  C2' I4B d   1      -1.462   4.183  -5.953  0.00  0.00    -0.013 C 
ATOM      9  C4' I4B d   1      -2.854   3.703  -5.636  0.00  0.00     0.013 C 
ATOM     10  C3' I4B d   1      -0.984   5.171  -4.932  0.00  0.00     0.013 C 
ENDBRANCH   7   8
ENDBRANCH   1   7
TORSDOF 2
ENDMDL
