MODEL 1
REMARK minimizedAffinity 0.820271254
REMARK minimizedRMSD -1
REMARK  2 active torsions:
REMARK  status: ('A' for Active; 'I' for Inactive)
REMARK    1  A    between atoms: C2'_3  and  C1'_4 
REMARK    2  A    between atoms: C1'_4  and  C1_5 
ROOT
ATOM      1  C1  I4B d   1      -1.129   3.463  -5.982  0.00  0.00    -0.075 A 
ATOM      2  C2  I4B d   1      -2.388   2.917  -5.988  0.00  0.00     0.003 A 
ATOM      3  C3  I4B d   1      -3.529   3.756  -5.998  0.00  0.00     0.002 A 
ATOM      4  C4  I4B d   1      -3.365   5.126  -5.952  0.00  0.00    -0.004 A 
ATOM      5  C5  I4B d   1      -2.088   5.678  -5.969  0.00  0.00     0.002 A 
ATOM      6  C6  I4B d   1      -0.962   4.842  -5.997  0.00  0.00     0.003 A 
ENDROOT
BRANCH   1   7
ATOM      7  C1' I4B d   1       0.053   2.548  -5.938  0.00  0.00     0.060 C 
BRANCH   7   8
ATOM      8  C2' I4B d   1       1.248   3.351  -5.466  0.00  0.00    -0.013 C 
ATOM      9  C4' I4B d   1       2.535   2.777  -5.999  0.00  0.00     0.013 C 
ATOM     10  C3' I4B d   1       1.060   4.769  -5.916  0.00  0.00     0.013 C 
ENDBRANCH   7   8
ENDBRANCH   1   7
TORSDOF 2
ENDMDL
