MODEL 1
REMARK minimizedAffinity -0.00192600256
REMARK minimizedRMSD -1
REMARK  2 active torsions:
REMARK  status: ('A' for Active; 'I' for Inactive)
REMARK    1  A    between atoms: C2'_3  and  C1'_4 
REMARK    2  A    between atoms: C1'_4  and  C1_5 
ROOT
ATOM      1  C1  I4B d   1       0.319   4.148  -5.948  0.00  0.00    -0.075 A 
ATOM      2  C2  I4B d   1       1.668   4.405  -5.955  0.00  0.00     0.003 A 
ATOM      3  C3  I4B d   1       2.597   3.338  -5.998  0.00  0.00     0.002 A 
ATOM      4  C4  I4B d   1       2.138   2.036  -5.983  0.00  0.00    -0.004 A 
ATOM      5  C5  I4B d   1       0.770   1.778  -5.999  0.00  0.00     0.002 A 
ATOM      6  C6  I4B d   1      -0.145   2.840  -5.994  0.00  0.00     0.003 A 
ENDROOT
BRANCH   1   7
ATOM      7  C1' I4B d   1      -0.634   5.299  -5.868  0.00  0.00     0.060 C 
BRANCH   7   8
ATOM      8  C2' I4B d   1      -2.041   4.747  -5.973  0.00  0.00    -0.013 C 
ATOM      9  C4' I4B d   1      -2.246   3.592  -5.028  0.00  0.00     0.013 C 
ATOM     10  C3' I4B d   1      -2.998   5.863  -5.679  0.00  0.00     0.013 C 
ENDBRANCH   7   8
ENDBRANCH   1   7
TORSDOF 2
ENDMDL
