MODEL 1
REMARK minimizedAffinity 3.61027074
REMARK minimizedRMSD -1
REMARK  2 active torsions:
REMARK  status: ('A' for Active; 'I' for Inactive)
REMARK    1  A    between atoms: C2'_3  and  C1'_4 
REMARK    2  A    between atoms: C1'_4  and  C1_5 
ROOT
ATOM      1  C1  I4B d   1       2.641   4.279  -5.982  0.00  0.00    -0.075 A 
ATOM      2  C2  I4B d   1       2.676   2.907  -5.999  0.00  0.00     0.003 A 
ATOM      3  C3  I4B d   1       1.472   2.163  -5.951  0.00  0.00     0.002 A 
ATOM      4  C4  I4B d   1       0.267   2.827  -5.837  0.00  0.00    -0.004 A 
ATOM      5  C5  I4B d   1       0.233   4.218  -5.842  0.00  0.00     0.002 A 
ATOM      6  C6  I4B d   1       1.426   4.950  -5.928  0.00  0.00     0.003 A 
ENDROOT
BRANCH   1   7
ATOM      7  C1' I4B d   1       3.933   5.033  -6.000  0.00  0.00     0.060 C 
BRANCH   7   8
ATOM      8  C2' I4B d   1       4.930   4.272  -5.150  0.00  0.00    -0.013 C 
ATOM      9  C4' I4B d   1       5.998   3.635  -6.000  0.00  0.00     0.013 C 
ATOM     10  C3' I4B d   1       5.525   5.231  -4.162  0.00  0.00     0.013 C 
ENDBRANCH   7   8
ENDBRANCH   1   7
TORSDOF 2
ENDMDL
