MODEL 1
REMARK minimizedAffinity -4.02027702
REMARK minimizedRMSD -1
REMARK  0 active torsions:
REMARK  status: ('A' for Active; 'I' for Inactive)
ROOT
ATOM      1  C   UNL d   1      -0.740  -0.450   1.019  0.00  0.00     0.078 C 
ATOM      2  C1  UNL d   1      -0.765  -1.356  -0.175  0.00  0.00    -0.077 A 
ATOM      3  C2  UNL d   1      -0.225  -0.950  -1.401  0.00  0.00    -0.001 A 
ATOM      4  C3  UNL d   1      -0.265  -1.800  -2.507  0.00  0.00     0.003 A 
ATOM      5  C4  UNL d   1      -0.844  -3.063  -2.398  0.00  0.00    -0.005 A 
ATOM      6  C5  UNL d   1      -1.386  -3.476  -1.183  0.00  0.00     0.003 A 
ATOM      7  C6  UNL d   1      -1.348  -2.626  -0.076  0.00  0.00    -0.001 A 
ENDROOT
TORSDOF 0
ENDMDL
