MODEL 1
REMARK minimizedAffinity -5.91599035
REMARK minimizedRMSD -1
REMARK  0 active torsions:
REMARK  status: ('A' for Active; 'I' for Inactive)
ROOT
ATOM      1  C   UNL d   1       0.198   0.920  -0.401  0.00  0.00     0.078 C 
ATOM      2  C1  UNL d   1      -0.140  -0.533  -0.544  0.00  0.00    -0.077 A 
ATOM      3  C2  UNL d   1       0.010  -1.192  -1.770  0.00  0.00    -0.001 A 
ATOM      4  C3  UNL d   1      -0.318  -2.544  -1.890  0.00  0.00     0.003 A 
ATOM      5  C4  UNL d   1      -0.800  -3.247  -0.788  0.00  0.00    -0.005 A 
ATOM      6  C5  UNL d   1      -0.955  -2.600   0.435  0.00  0.00     0.003 A 
ATOM      7  C6  UNL d   1      -0.627  -1.249   0.558  0.00  0.00    -0.001 A 
ENDROOT
TORSDOF 0
ENDMDL
