MODEL 1
REMARK minimizedAffinity -2.57337713
REMARK minimizedRMSD -1
REMARK  0 active torsions:
REMARK  status: ('A' for Active; 'I' for Inactive)
ROOT
ATOM      1  C   UNL d   1       0.931   2.720   0.195  0.00  0.00     0.078 C 
ATOM      2  C1  UNL d   1       0.300   1.418   0.590  0.00  0.00    -0.077 A 
ATOM      3  C2  UNL d   1       0.050   0.421  -0.360  0.00  0.00    -0.001 A 
ATOM      4  C3  UNL d   1      -0.547  -0.783   0.020  0.00  0.00     0.003 A 
ATOM      5  C4  UNL d   1      -0.899  -0.999   1.351  0.00  0.00    -0.005 A 
ATOM      6  C5  UNL d   1      -0.656  -0.012   2.303  0.00  0.00     0.003 A 
ATOM      7  C6  UNL d   1      -0.059   1.192   1.924  0.00  0.00    -0.001 A 
ENDROOT
TORSDOF 0
ENDMDL
