MODEL 1
REMARK minimizedAffinity -2.41810441
REMARK minimizedRMSD -1
REMARK  0 active torsions:
REMARK  status: ('A' for Active; 'I' for Inactive)
ROOT
ATOM      1  C   UNL d   1       0.435  -1.588  -2.411  0.00  0.00     0.078 C 
ATOM      2  C1  UNL d   1      -0.042  -1.110  -1.072  0.00  0.00    -0.077 A 
ATOM      3  C2  UNL d   1      -0.506  -2.013  -0.107  0.00  0.00    -0.001 A 
ATOM      4  C3  UNL d   1      -0.956  -1.553   1.131  0.00  0.00     0.003 A 
ATOM      5  C4  UNL d   1      -0.948  -0.189   1.416  0.00  0.00    -0.005 A 
ATOM      6  C5  UNL d   1      -0.491   0.717   0.462  0.00  0.00     0.003 A 
ATOM      7  C6  UNL d   1      -0.040   0.259  -0.777  0.00  0.00    -0.001 A 
ENDROOT
TORSDOF 0
ENDMDL
