MODEL 1
REMARK minimizedAffinity -4.15389824
REMARK minimizedRMSD -1
REMARK  0 active torsions:
REMARK  status: ('A' for Active; 'I' for Inactive)
ROOT
ATOM      1  C   UNL d   1      -0.433  -2.789   0.807  0.00  0.00     0.078 C 
ATOM      2  C1  UNL d   1      -0.281  -1.324   0.524  0.00  0.00    -0.077 A 
ATOM      3  C2  UNL d   1      -0.857  -0.364   1.365  0.00  0.00    -0.001 A 
ATOM      4  C3  UNL d   1      -0.716   0.996   1.084  0.00  0.00     0.003 A 
ATOM      5  C4  UNL d   1      -0.001   1.408  -0.039  0.00  0.00    -0.005 A 
ATOM      6  C5  UNL d   1       0.574   0.460  -0.883  0.00  0.00     0.003 A 
ATOM      7  C6  UNL d   1       0.434  -0.901  -0.603  0.00  0.00    -0.001 A 
ENDROOT
TORSDOF 0
ENDMDL
