MODEL 1
REMARK minimizedAffinity -3.68736744
REMARK minimizedRMSD -1
REMARK  0 active torsions:
REMARK  status: ('A' for Active; 'I' for Inactive)
ROOT
ATOM      1  C   UNL d   1      -0.403  -3.020  -2.392  0.00  0.00     0.078 C 
ATOM      2  C1  UNL d   1      -0.470  -2.012  -1.284  0.00  0.00    -0.077 A 
ATOM      3  C2  UNL d   1      -0.872  -2.383   0.005  0.00  0.00    -0.001 A 
ATOM      4  C3  UNL d   1      -0.939  -1.433   1.025  0.00  0.00     0.003 A 
ATOM      5  C4  UNL d   1      -0.606  -0.105   0.767  0.00  0.00    -0.005 A 
ATOM      6  C5  UNL d   1      -0.206   0.274  -0.513  0.00  0.00     0.003 A 
ATOM      7  C6  UNL d   1      -0.139  -0.675  -1.534  0.00  0.00    -0.001 A 
ENDROOT
TORSDOF 0
ENDMDL
