MODEL 1
REMARK minimizedAffinity -2.75066972
REMARK minimizedRMSD -1
REMARK  0 active torsions:
REMARK  status: ('A' for Active; 'I' for Inactive)
ROOT
ATOM      1  C   UNL d   1       0.487   1.365   0.436  0.00  0.00     0.078 C 
ATOM      2  C1  UNL d   1       0.129  -0.086   0.312  0.00  0.00    -0.077 A 
ATOM      3  C2  UNL d   1      -0.485  -0.770   1.368  0.00  0.00    -0.001 A 
ATOM      4  C3  UNL d   1      -0.803  -2.123   1.242  0.00  0.00     0.003 A 
ATOM      5  C4  UNL d   1      -0.511  -2.804   0.061  0.00  0.00    -0.005 A 
ATOM      6  C5  UNL d   1       0.102  -2.132  -0.994  0.00  0.00     0.003 A 
ATOM      7  C6  UNL d   1       0.421  -0.779  -0.870  0.00  0.00    -0.001 A 
ENDROOT
TORSDOF 0
ENDMDL
