MODEL 1
REMARK minimizedAffinity -4.18884611
REMARK minimizedRMSD -1
REMARK  0 active torsions:
REMARK  status: ('A' for Active; 'I' for Inactive)
ROOT
ATOM      1  C   UNL d   1       0.178  -2.287  -2.683  0.00  0.00     0.078 C 
ATOM      2  C1  UNL d   1      -0.163  -1.826  -1.298  0.00  0.00    -0.077 A 
ATOM      3  C2  UNL d   1      -0.739  -2.700  -0.368  0.00  0.00    -0.001 A 
ATOM      4  C3  UNL d   1      -1.060  -2.255   0.915  0.00  0.00     0.003 A 
ATOM      5  C4  UNL d   1      -0.811  -0.933   1.280  0.00  0.00    -0.005 A 
ATOM      6  C5  UNL d   1      -0.241  -0.055   0.361  0.00  0.00     0.003 A 
ATOM      7  C6  UNL d   1       0.081  -0.498  -0.923  0.00  0.00    -0.001 A 
ENDROOT
TORSDOF 0
ENDMDL
