MODEL 1
REMARK minimizedAffinity -3.60108852
REMARK minimizedRMSD -1
REMARK  0 active torsions:
REMARK  status: ('A' for Active; 'I' for Inactive)
ROOT
ATOM      1  C   UNL d   1      -0.129  -2.543  -2.649  0.00  0.00     0.078 C 
ATOM      2  C1  UNL d   1      -0.252  -1.851  -1.325  0.00  0.00    -0.077 A 
ATOM      3  C2  UNL d   1      -0.860  -2.485  -0.234  0.00  0.00    -0.001 A 
ATOM      4  C3  UNL d   1      -0.977  -1.825   0.991  0.00  0.00     0.003 A 
ATOM      5  C4  UNL d   1      -0.489  -0.528   1.136  0.00  0.00    -0.005 A 
ATOM      6  C5  UNL d   1       0.116   0.112   0.056  0.00  0.00     0.003 A 
ATOM      7  C6  UNL d   1       0.233  -0.546  -1.170  0.00  0.00    -0.001 A 
ENDROOT
TORSDOF 0
ENDMDL
