MODEL 1
REMARK minimizedAffinity -2.90387678
REMARK minimizedRMSD -1
REMARK  0 active torsions:
REMARK  status: ('A' for Active; 'I' for Inactive)
ROOT
ATOM      1  C   UNL d   1      -0.004   1.535  -0.052  0.00  0.00     0.078 C 
ATOM      2  C1  UNL d   1      -0.275   0.060  -0.045  0.00  0.00    -0.077 A 
ATOM      3  C2  UNL d   1      -0.800  -0.571   1.089  0.00  0.00    -0.001 A 
ATOM      4  C3  UNL d   1      -1.038  -1.947   1.086  0.00  0.00     0.003 A 
ATOM      5  C4  UNL d   1      -0.752  -2.703  -0.049  0.00  0.00    -0.005 A 
ATOM      6  C5  UNL d   1      -0.227  -2.084  -1.182  0.00  0.00     0.003 A 
ATOM      7  C6  UNL d   1       0.012  -0.709  -1.180  0.00  0.00    -0.001 A 
ENDROOT
TORSDOF 0
ENDMDL
