MODEL 1
REMARK minimizedAffinity -4.06808996
REMARK minimizedRMSD -1
REMARK  0 active torsions:
REMARK  status: ('A' for Active; 'I' for Inactive)
ROOT
ATOM      1  C   UNL d   1      -0.317  -3.202  -1.374  0.00  0.00     0.078 C 
ATOM      2  C1  UNL d   1      -0.469  -1.944  -0.572  0.00  0.00    -0.077 A 
ATOM      3  C2  UNL d   1       0.047  -0.727  -1.035  0.00  0.00    -0.001 A 
ATOM      4  C3  UNL d   1      -0.094   0.435  -0.274  0.00  0.00     0.003 A 
ATOM      5  C4  UNL d   1      -0.749   0.391   0.955  0.00  0.00    -0.005 A 
ATOM      6  C5  UNL d   1      -1.264  -0.816   1.425  0.00  0.00     0.003 A 
ATOM      7  C6  UNL d   1      -1.124  -1.978   0.665  0.00  0.00    -0.001 A 
ENDROOT
TORSDOF 0
ENDMDL
