MODEL 1
REMARK minimizedAffinity -2.62607479
REMARK minimizedRMSD -1
REMARK  0 active torsions:
REMARK  status: ('A' for Active; 'I' for Inactive)
ROOT
ATOM      1  C   UNL d   1      -0.389  -2.728  -2.631  0.00  0.00     0.078 C 
ATOM      2  C1  UNL d   1      -0.461  -2.101  -1.270  0.00  0.00    -0.077 A 
ATOM      3  C2  UNL d   1      -1.127  -2.738  -0.217  0.00  0.00    -0.001 A 
ATOM      4  C3  UNL d   1      -1.195  -2.138   1.042  0.00  0.00     0.003 A 
ATOM      5  C4  UNL d   1      -0.598  -0.897   1.258  0.00  0.00    -0.005 A 
ATOM      6  C5  UNL d   1       0.065  -0.255   0.215  0.00  0.00     0.003 A 
ATOM      7  C6  UNL d   1       0.134  -0.853  -1.044  0.00  0.00    -0.001 A 
ENDROOT
TORSDOF 0
ENDMDL
