MODEL 1
REMARK minimizedAffinity -3.48301816
REMARK minimizedRMSD -1
REMARK  0 active torsions:
REMARK  status: ('A' for Active; 'I' for Inactive)
ROOT
ATOM      1  C   UNL d   1       0.465   0.878  -0.248  0.00  0.00     0.078 C 
ATOM      2  C1  UNL d   1       0.097  -0.531  -0.607  0.00  0.00    -0.077 A 
ATOM      3  C2  UNL d   1      -0.498  -1.382   0.332  0.00  0.00    -0.001 A 
ATOM      4  C3  UNL d   1      -0.826  -2.694  -0.012  0.00  0.00     0.003 A 
ATOM      5  C4  UNL d   1      -0.561  -3.167  -1.296  0.00  0.00    -0.005 A 
ATOM      6  C5  UNL d   1       0.032  -2.328  -2.237  0.00  0.00     0.003 A 
ATOM      7  C6  UNL d   1       0.361  -1.016  -1.894  0.00  0.00    -0.001 A 
ENDROOT
TORSDOF 0
ENDMDL
