MODEL 1
REMARK minimizedAffinity -4.07584953
REMARK minimizedRMSD -1
REMARK  0 active torsions:
REMARK  status: ('A' for Active; 'I' for Inactive)
ROOT
ATOM      1  C   UNL d   1      -0.187  -2.650  -2.675  0.00  0.00     0.078 C 
ATOM      2  C1  UNL d   1      -0.274  -2.050  -1.303  0.00  0.00    -0.077 A 
ATOM      3  C2  UNL d   1      -0.526  -2.849  -0.181  0.00  0.00    -0.001 A 
ATOM      4  C3  UNL d   1      -0.613  -2.276   1.089  0.00  0.00     0.003 A 
ATOM      5  C4  UNL d   1      -0.451  -0.902   1.248  0.00  0.00    -0.005 A 
ATOM      6  C5  UNL d   1      -0.202  -0.098   0.138  0.00  0.00     0.003 A 
ATOM      7  C6  UNL d   1      -0.114  -0.669  -1.133  0.00  0.00    -0.001 A 
ENDROOT
TORSDOF 0
ENDMDL
