MODEL 1
REMARK minimizedAffinity -1.49567676
REMARK minimizedRMSD -1
REMARK  0 active torsions:
REMARK  status: ('A' for Active; 'I' for Inactive)
ROOT
ATOM      1  C   UNL d   1      -0.400  -2.628  -2.637  0.00  0.00     0.078 C 
ATOM      2  C1  UNL d   1      -0.538  -1.809  -1.389  0.00  0.00    -0.077 A 
ATOM      3  C2  UNL d   1      -0.177  -0.456  -1.371  0.00  0.00    -0.001 A 
ATOM      4  C3  UNL d   1      -0.302   0.292  -0.199  0.00  0.00     0.003 A 
ATOM      5  C4  UNL d   1      -0.786  -0.304   0.963  0.00  0.00    -0.005 A 
ATOM      6  C5  UNL d   1      -1.146  -1.650   0.956  0.00  0.00     0.003 A 
ATOM      7  C6  UNL d   1      -1.022  -2.400  -0.215  0.00  0.00    -0.001 A 
ENDROOT
TORSDOF 0
ENDMDL
