MODEL 1
REMARK minimizedAffinity -4.1593132
REMARK minimizedRMSD -1
REMARK  0 active torsions:
REMARK  status: ('A' for Active; 'I' for Inactive)
ROOT
ATOM      1  C   UNL d   1      -0.696  -2.326  -2.180  0.00  0.00     0.078 C 
ATOM      2  C1  UNL d   1      -0.725  -1.608  -0.864  0.00  0.00    -0.077 A 
ATOM      3  C2  UNL d   1      -0.425  -0.243  -0.780  0.00  0.00    -0.001 A 
ATOM      4  C3  UNL d   1      -0.446   0.410   0.453  0.00  0.00     0.003 A 
ATOM      5  C4  UNL d   1      -0.767  -0.294   1.612  0.00  0.00    -0.005 A 
ATOM      6  C5  UNL d   1      -1.066  -1.653   1.539  0.00  0.00     0.003 A 
ATOM      7  C6  UNL d   1      -1.044  -2.308   0.306  0.00  0.00    -0.001 A 
ENDROOT
TORSDOF 0
ENDMDL
