MODEL 1
REMARK minimizedAffinity -1.94240463
REMARK minimizedRMSD -1
REMARK  0 active torsions:
REMARK  status: ('A' for Active; 'I' for Inactive)
ROOT
ATOM      1  O1  BZF d   1       5.959   4.219   4.844  0.00  0.00    -0.204 OA
ATOM      2  C2  BZF d   1       5.947   4.704   3.551  0.00  0.00     0.174 A 
ATOM      3  C3  BZF d   1       5.998   3.693   2.660  0.00  0.00    -0.012 A 
ATOM      4  C3A BZF d   1       5.952   2.497   3.444  0.00  0.00    -0.107 A 
ATOM      5  C4  BZF d   1       5.954   1.168   3.131  0.00  0.00     0.055 A 
ATOM      6  C5  BZF d   1       5.974   0.253   4.136  0.00  0.00    -0.016 A 
ATOM      7  C6  BZF d   1       5.999   0.631   5.462  0.00  0.00     0.022 A 
ATOM      8  C7  BZF d   1       5.992   1.938   5.822  0.00  0.00     0.029 A 
ATOM      9  C7A BZF d   1       5.938   2.864   4.810  0.00  0.00     0.058 A 
ENDROOT
TORSDOF 0
ENDMDL
