MODEL 1
REMARK minimizedAffinity -1.71988559
REMARK minimizedRMSD -1
REMARK  0 active torsions:
REMARK  status: ('A' for Active; 'I' for Inactive)
ROOT
ATOM      1  O1  BZF d   1       5.814   0.295   5.999  0.00  0.00    -0.204 OA
ATOM      2  C2  BZF d   1       5.895   1.261   5.015  0.00  0.00     0.174 A 
ATOM      3  C3  BZF d   1       6.000   0.694   3.796  0.00  0.00    -0.012 A 
ATOM      4  C3A BZF d   1       5.891  -0.715   4.025  0.00  0.00    -0.107 A 
ATOM      5  C4  BZF d   1       5.906  -1.804   3.202  0.00  0.00     0.055 A 
ATOM      6  C5  BZF d   1       5.851  -3.046   3.749  0.00  0.00    -0.016 A 
ATOM      7  C6  BZF d   1       5.786  -3.236   5.114  0.00  0.00     0.022 A 
ATOM      8  C7  BZF d   1       5.764  -2.186   5.971  0.00  0.00     0.029 A 
ATOM      9  C7A BZF d   1       5.786  -0.929   5.419  0.00  0.00     0.058 A 
ENDROOT
TORSDOF 0
ENDMDL
