MODEL 1
REMARK minimizedAffinity -0.97953546
REMARK minimizedRMSD -1
REMARK  0 active torsions:
REMARK  status: ('A' for Active; 'I' for Inactive)
ROOT
ATOM      1  O1  BZF d   1       5.962   0.528   5.984  0.00  0.00    -0.204 OA
ATOM      2  C2  BZF d   1       5.964  -0.822   5.692  0.00  0.00     0.174 A 
ATOM      3  C3  BZF d   1       5.923  -1.023   4.359  0.00  0.00    -0.012 A 
ATOM      4  C3A BZF d   1       5.987   0.283   3.779  0.00  0.00    -0.107 A 
ATOM      5  C4  BZF d   1       6.000   0.740   2.492  0.00  0.00     0.055 A 
ATOM      6  C5  BZF d   1       5.993   2.080   2.266  0.00  0.00    -0.016 A 
ATOM      7  C6  BZF d   1       5.968   2.990   3.302  0.00  0.00     0.022 A 
ATOM      8  C7  BZF d   1       5.960   2.586   4.596  0.00  0.00     0.029 A 
ATOM      9  C7A BZF d   1       6.000   1.232   4.827  0.00  0.00     0.058 A 
ENDROOT
TORSDOF 0
ENDMDL
