MODEL 1
REMARK minimizedAffinity -2.37185812
REMARK minimizedRMSD -1
REMARK  0 active torsions:
REMARK  status: ('A' for Active; 'I' for Inactive)
ROOT
ATOM      1  O1  BZF d   1       4.934   2.748   3.170  0.00  0.00    -0.204 OA
ATOM      2  C2  BZF d   1       5.079   3.812   4.038  0.00  0.00     0.174 A 
ATOM      3  C3  BZF d   1       5.443   3.383   5.264  0.00  0.00    -0.012 A 
ATOM      4  C3A BZF d   1       5.621   1.970   5.131  0.00  0.00    -0.107 A 
ATOM      5  C4  BZF d   1       5.995   0.985   5.999  0.00  0.00     0.055 A 
ATOM      6  C5  BZF d   1       6.000  -0.305   5.572  0.00  0.00    -0.016 A 
ATOM      7  C6  BZF d   1       5.631  -0.646   4.287  0.00  0.00     0.022 A 
ATOM      8  C7  BZF d   1       5.257   0.297   3.388  0.00  0.00     0.029 A 
ATOM      9  C7A BZF d   1       5.283   1.605   3.807  0.00  0.00     0.058 A 
ENDROOT
TORSDOF 0
ENDMDL
