MODEL 1
REMARK minimizedAffinity -1.33386958
REMARK minimizedRMSD -1
REMARK  0 active torsions:
REMARK  status: ('A' for Active; 'I' for Inactive)
ROOT
ATOM      1  O1  BZF d   1       6.000   3.805   5.041  0.00  0.00    -0.204 OA
ATOM      2  C2  BZF d   1       5.636   4.328   3.815  0.00  0.00     0.174 A 
ATOM      3  C3  BZF d   1       5.230   3.351   2.979  0.00  0.00    -0.012 A 
ATOM      4  C3A BZF d   1       5.261   2.152   3.759  0.00  0.00    -0.107 A 
ATOM      5  C4  BZF d   1       4.953   0.849   3.491  0.00  0.00     0.055 A 
ATOM      6  C5  BZF d   1       5.162  -0.091   4.450  0.00  0.00    -0.016 A 
ATOM      7  C6  BZF d   1       5.683   0.236   5.685  0.00  0.00     0.022 A 
ATOM      8  C7  BZF d   1       6.000   1.516   5.999  0.00  0.00     0.029 A 
ATOM      9  C7A BZF d   1       5.758   2.472   5.044  0.00  0.00     0.058 A 
ENDROOT
TORSDOF 0
ENDMDL
