MODEL 1
REMARK minimizedAffinity -0.216127902
REMARK minimizedRMSD -1
REMARK  0 active torsions:
REMARK  status: ('A' for Active; 'I' for Inactive)
ROOT
ATOM      1  O1  BZF d   1       5.654   2.217   2.872  0.00  0.00    -0.204 OA
ATOM      2  C2  BZF d   1       5.881   3.346   3.634  0.00  0.00     0.174 A 
ATOM      3  C3  BZF d   1       6.000   3.027   4.939  0.00  0.00    -0.012 A 
ATOM      4  C3A BZF d   1       5.928   1.599   4.985  0.00  0.00    -0.107 A 
ATOM      5  C4  BZF d   1       6.000   0.687   6.000  0.00  0.00     0.055 A 
ATOM      6  C5  BZF d   1       5.819  -0.630   5.718  0.00  0.00    -0.016 A 
ATOM      7  C6  BZF d   1       5.561  -1.069   4.436  0.00  0.00     0.022 A 
ATOM      8  C7  BZF d   1       5.486  -0.203   3.397  0.00  0.00     0.029 A 
ATOM      9  C7A BZF d   1       5.700   1.125   3.673  0.00  0.00     0.058 A 
ENDROOT
TORSDOF 0
ENDMDL
