MODEL 1
REMARK minimizedAffinity -0.397664785
REMARK minimizedRMSD -1
REMARK  0 active torsions:
REMARK  status: ('A' for Active; 'I' for Inactive)
ROOT
ATOM      1  O1  BZF d   1       5.952   0.905   5.988  0.00  0.00    -0.204 OA
ATOM      2  C2  BZF d   1       5.924  -0.341   5.393  0.00  0.00     0.174 A 
ATOM      3  C3  BZF d   1       5.872  -0.228   4.050  0.00  0.00    -0.012 A 
ATOM      4  C3A BZF d   1       5.961   1.175   3.786  0.00  0.00    -0.107 A 
ATOM      5  C4  BZF d   1       5.978   1.916   2.639  0.00  0.00     0.055 A 
ATOM      6  C5  BZF d   1       6.000   3.272   2.728  0.00  0.00    -0.016 A 
ATOM      7  C6  BZF d   1       6.000   3.919   3.946  0.00  0.00     0.022 A 
ATOM      8  C7  BZF d   1       5.989   3.227   5.112  0.00  0.00     0.029 A 
ATOM      9  C7A BZF d   1       6.000   1.856   5.025  0.00  0.00     0.058 A 
ENDROOT
TORSDOF 0
ENDMDL
