MODEL 1
REMARK minimizedAffinity 4.11693382
REMARK minimizedRMSD -1
REMARK  0 active torsions:
REMARK  status: ('A' for Active; 'I' for Inactive)
ROOT
ATOM      1  O1  BZF d   1       5.628   1.623   5.006  0.00  0.00    -0.204 OA
ATOM      2  C2  BZF d   1       5.329   2.068   3.733  0.00  0.00     0.174 A 
ATOM      3  C3  BZF d   1       5.260   1.035   2.869  0.00  0.00    -0.012 A 
ATOM      4  C3A BZF d   1       5.442  -0.137   3.669  0.00  0.00    -0.107 A 
ATOM      5  C4  BZF d   1       5.459  -1.473   3.387  0.00  0.00     0.055 A 
ATOM      6  C5  BZF d   1       5.733  -2.356   4.383  0.00  0.00    -0.016 A 
ATOM      7  C6  BZF d   1       6.000  -1.937   5.670  0.00  0.00     0.022 A 
ATOM      8  C7  BZF d   1       5.989  -0.623   6.000  0.00  0.00     0.029 A 
ATOM      9  C7A BZF d   1       5.679   0.269   5.002  0.00  0.00     0.058 A 
ENDROOT
TORSDOF 0
ENDMDL
