MODEL 1
REMARK minimizedAffinity -3.44992423
REMARK minimizedRMSD -1
REMARK  0 active torsions:
REMARK  status: ('A' for Active; 'I' for Inactive)
ROOT
ATOM      1  O1  BZF d   1       5.336   3.221   4.669  0.00  0.00    -0.204 OA
ATOM      2  C2  BZF d   1       5.643   3.616   3.381  0.00  0.00     0.174 A 
ATOM      3  C3  BZF d   1       6.000   2.556   2.628  0.00  0.00    -0.012 A 
ATOM      4  C3A BZF d   1       5.822   1.416   3.474  0.00  0.00    -0.107 A 
ATOM      5  C4  BZF d   1       5.997   0.074   3.292  0.00  0.00     0.055 A 
ATOM      6  C5  BZF d   1       5.806  -0.766   4.342  0.00  0.00    -0.016 A 
ATOM      7  C6  BZF d   1       5.445  -0.299   5.589  0.00  0.00     0.022 A 
ATOM      8  C7  BZF d   1       5.255   1.023   5.818  0.00  0.00     0.029 A 
ATOM      9  C7A BZF d   1       5.415   1.872   4.750  0.00  0.00     0.058 A 
ENDROOT
TORSDOF 0
ENDMDL
