MODEL 1
REMARK minimizedAffinity 2.51283073
REMARK minimizedRMSD -1
REMARK  0 active torsions:
REMARK  status: ('A' for Active; 'I' for Inactive)
ROOT
ATOM      1  O1  BZF d   1       5.999   3.842   4.753  0.00  0.00    -0.204 OA
ATOM      2  C2  BZF d   1       5.612   4.458   3.579  0.00  0.00     0.174 A 
ATOM      3  C3  BZF d   1       5.177   3.549   2.683  0.00  0.00    -0.012 A 
ATOM      4  C3A BZF d   1       5.213   2.295   3.370  0.00  0.00    -0.107 A 
ATOM      5  C4  BZF d   1       4.885   1.019   3.013  0.00  0.00     0.055 A 
ATOM      6  C5  BZF d   1       5.108   0.008   3.894  0.00  0.00    -0.016 A 
ATOM      7  C6  BZF d   1       5.661   0.237   5.137  0.00  0.00     0.022 A 
ATOM      8  C7  BZF d   1       5.998   1.487   5.538  0.00  0.00     0.029 A 
ATOM      9  C7A BZF d   1       5.744   2.514   4.663  0.00  0.00     0.058 A 
ENDROOT
TORSDOF 0
ENDMDL
