MODEL 1
REMARK minimizedAffinity -0.894763887
REMARK minimizedRMSD -1
REMARK  0 active torsions:
REMARK  status: ('A' for Active; 'I' for Inactive)
ROOT
ATOM      1  O1  BZF d   1       5.847   1.540   2.632  0.00  0.00    -0.204 OA
ATOM      2  C2  BZF d   1       5.974   2.793   3.198  0.00  0.00     0.174 A 
ATOM      3  C3  BZF d   1       6.000   2.710   4.543  0.00  0.00    -0.012 A 
ATOM      4  C3A BZF d   1       5.974   1.310   4.835  0.00  0.00    -0.107 A 
ATOM      5  C4  BZF d   1       5.997   0.592   5.996  0.00  0.00     0.055 A 
ATOM      6  C5  BZF d   1       5.886  -0.761   5.938  0.00  0.00    -0.016 A 
ATOM      7  C6  BZF d   1       5.745  -1.428   4.738  0.00  0.00     0.022 A 
ATOM      8  C7  BZF d   1       5.723  -0.759   3.560  0.00  0.00     0.029 A 
ATOM      9  C7A BZF d   1       5.868   0.606   3.613  0.00  0.00     0.058 A 
ENDROOT
TORSDOF 0
ENDMDL
