MODEL 1
REMARK minimizedAffinity -3.80161881
REMARK minimizedRMSD -1
REMARK  0 active torsions:
REMARK  status: ('A' for Active; 'I' for Inactive)
ROOT
ATOM      1  O1  BZF d   1       5.983  -0.689   5.996  0.00  0.00    -0.204 OA
ATOM      2  C2  BZF d   1       5.966   0.387   5.130  0.00  0.00     0.174 A 
ATOM      3  C3  BZF d   1       6.000  -0.031   3.848  0.00  0.00    -0.012 A 
ATOM      4  C3A BZF d   1       5.947  -1.459   3.916  0.00  0.00    -0.107 A 
ATOM      5  C4  BZF d   1       5.933  -2.445   2.971  0.00  0.00     0.055 A 
ATOM      6  C5  BZF d   1       5.951  -3.744   3.370  0.00  0.00    -0.016 A 
ATOM      7  C6  BZF d   1       5.989  -4.092   4.704  0.00  0.00     0.022 A 
ATOM      8  C7  BZF d   1       5.999  -3.150   5.679  0.00  0.00     0.029 A 
ATOM      9  C7A BZF d   1       5.947  -1.837   5.279  0.00  0.00     0.058 A 
ENDROOT
TORSDOF 0
ENDMDL
