MODEL 1
REMARK minimizedAffinity -1.09590673
REMARK minimizedRMSD -1
REMARK  0 active torsions:
REMARK  status: ('A' for Active; 'I' for Inactive)
ROOT
ATOM      1  O1  BZF d   1       5.827   3.126   5.330  0.00  0.00    -0.204 OA
ATOM      2  C2  BZF d   1       6.000   3.852   4.167  0.00  0.00     0.174 A 
ATOM      3  C3  BZF d   1       6.000   3.039   3.091  0.00  0.00    -0.012 A 
ATOM      4  C3A BZF d   1       5.723   1.733   3.606  0.00  0.00    -0.107 A 
ATOM      5  C4  BZF d   1       5.580   0.506   3.025  0.00  0.00     0.055 A 
ATOM      6  C5  BZF d   1       5.386  -0.581   3.817  0.00  0.00    -0.016 A 
ATOM      7  C6  BZF d   1       5.336  -0.479   5.192  0.00  0.00     0.022 A 
ATOM      8  C7  BZF d   1       5.468   0.718   5.814  0.00  0.00     0.029 A 
ATOM      9  C7A BZF d   1       5.631   1.823   5.014  0.00  0.00     0.058 A 
ENDROOT
TORSDOF 0
ENDMDL
