MODEL 1
REMARK minimizedAffinity -1.34004462
REMARK minimizedRMSD -1
REMARK  0 active torsions:
REMARK  status: ('A' for Active; 'I' for Inactive)
ROOT
ATOM      1  O1  BZF d   1       5.957  -0.629   5.993  0.00  0.00    -0.204 OA
ATOM      2  C2  BZF d   1       5.951  -1.701   5.121  0.00  0.00     0.174 A 
ATOM      3  C3  BZF d   1       5.910  -1.276   3.842  0.00  0.00    -0.012 A 
ATOM      4  C3A BZF d   1       5.981   0.151   3.917  0.00  0.00    -0.107 A 
ATOM      5  C4  BZF d   1       5.998   1.141   2.976  0.00  0.00     0.055 A 
ATOM      6  C5  BZF d   1       6.000   2.438   3.382  0.00  0.00    -0.016 A 
ATOM      7  C6  BZF d   1       5.980   2.780   4.718  0.00  0.00     0.022 A 
ATOM      8  C7  BZF d   1       5.969   1.834   5.688  0.00  0.00     0.029 A 
ATOM      9  C7A BZF d   1       6.000   0.522   5.281  0.00  0.00     0.058 A 
ENDROOT
TORSDOF 0
ENDMDL
