MODEL 1
REMARK minimizedAffinity -0.639478922
REMARK minimizedRMSD -1
REMARK  0 active torsions:
REMARK  status: ('A' for Active; 'I' for Inactive)
ROOT
ATOM      1  O1  BZF d   1       5.986   2.837   4.820  0.00  0.00    -0.204 OA
ATOM      2  C2  BZF d   1       5.966   3.670   3.718  0.00  0.00     0.174 A 
ATOM      3  C3  BZF d   1       5.990   2.953   2.576  0.00  0.00    -0.012 A 
ATOM      4  C3A BZF d   1       5.933   1.585   2.989  0.00  0.00    -0.107 A 
ATOM      5  C4  BZF d   1       5.910   0.399   2.311  0.00  0.00     0.055 A 
ATOM      6  C5  BZF d   1       5.928  -0.764   3.014  0.00  0.00    -0.016 A 
ATOM      7  C6  BZF d   1       5.974  -0.778   4.393  0.00  0.00     0.022 A 
ATOM      8  C7  BZF d   1       5.994   0.372   5.109  0.00  0.00     0.029 A 
ATOM      9  C7A BZF d   1       5.942   1.549   4.403  0.00  0.00     0.058 A 
ENDROOT
TORSDOF 0
ENDMDL
