MODEL 1
REMARK minimizedAffinity 3.76766753
REMARK minimizedRMSD -1
REMARK  0 active torsions:
REMARK  status: ('A' for Active; 'I' for Inactive)
ROOT
ATOM      1  O1  BZF d   1       5.953   2.074   5.127  0.00  0.00    -0.204 OA
ATOM      2  C2  BZF d   1       5.942   1.422   3.909  0.00  0.00     0.174 A 
ATOM      3  C3  BZF d   1       5.899   2.307   2.892  0.00  0.00    -0.012 A 
ATOM      4  C3A BZF d   1       5.975   3.594   3.511  0.00  0.00    -0.107 A 
ATOM      5  C4  BZF d   1       5.993   4.870   3.025  0.00  0.00     0.055 A 
ATOM      6  C5  BZF d   1       5.999   5.911   3.899  0.00  0.00    -0.016 A 
ATOM      7  C6  BZF d   1       5.983   5.712   5.264  0.00  0.00     0.022 A 
ATOM      8  C7  BZF d   1       5.971   4.465   5.794  0.00  0.00     0.029 A 
ATOM      9  C7A BZF d   1       5.998   3.411   4.913  0.00  0.00     0.058 A 
ENDROOT
TORSDOF 0
ENDMDL
