MODEL 1
REMARK minimizedAffinity -0.310072154
REMARK minimizedRMSD -1
REMARK  0 active torsions:
REMARK  status: ('A' for Active; 'I' for Inactive)
ROOT
ATOM      1  O1  BZF d   1       5.866  -1.294   6.000  0.00  0.00    -0.204 OA
ATOM      2  C2  BZF d   1       5.855  -2.382   5.148  0.00  0.00     0.174 A 
ATOM      3  C3  BZF d   1       5.839  -1.981   3.861  0.00  0.00    -0.012 A 
ATOM      4  C3A BZF d   1       5.934  -0.554   3.910  0.00  0.00    -0.107 A 
ATOM      5  C4  BZF d   1       5.982   0.417   2.951  0.00  0.00     0.055 A 
ATOM      6  C5  BZF d   1       6.000   1.722   3.332  0.00  0.00    -0.016 A 
ATOM      7  C6  BZF d   1       5.966   2.090   4.661  0.00  0.00     0.022 A 
ATOM      8  C7  BZF d   1       5.924   1.162   5.648  0.00  0.00     0.029 A 
ATOM      9  C7A BZF d   1       5.939  -0.157   5.267  0.00  0.00     0.058 A 
ENDROOT
TORSDOF 0
ENDMDL
