MODEL 1
REMARK minimizedAffinity 5.80856276
REMARK minimizedRMSD -1
REMARK  0 active torsions:
REMARK  status: ('A' for Active; 'I' for Inactive)
ROOT
ATOM      1  O1  BZF d   1       5.950   4.877   1.890  0.00  0.00    -0.204 OA
ATOM      2  C2  BZF d   1       5.947   5.953   2.755  0.00  0.00     0.174 A 
ATOM      3  C3  BZF d   1       5.910   5.537   4.037  0.00  0.00    -0.012 A 
ATOM      4  C3A BZF d   1       5.981   4.109   3.971  0.00  0.00    -0.107 A 
ATOM      5  C4  BZF d   1       6.000   3.125   4.918  0.00  0.00     0.055 A 
ATOM      6  C5  BZF d   1       6.000   1.826   4.520  0.00  0.00    -0.016 A 
ATOM      7  C6  BZF d   1       5.975   1.475   3.186  0.00  0.00     0.022 A 
ATOM      8  C7  BZF d   1       5.961   2.415   2.211  0.00  0.00     0.029 A 
ATOM      9  C7A BZF d   1       5.994   3.729   2.609  0.00  0.00     0.058 A 
ENDROOT
TORSDOF 0
ENDMDL
