MODEL 1
REMARK minimizedAffinity 4.03495789
REMARK minimizedRMSD -1
REMARK  0 active torsions:
REMARK  status: ('A' for Active; 'I' for Inactive)
ROOT
ATOM      1  O1  BZF d   1       5.977   1.971   2.890  0.00  0.00    -0.204 OA
ATOM      2  C2  BZF d   1       5.961   1.783   4.259  0.00  0.00     0.174 A 
ATOM      3  C3  BZF d   1       6.000   2.967   4.905  0.00  0.00    -0.012 A 
ATOM      4  C3A BZF d   1       5.949   3.959   3.875  0.00  0.00    -0.107 A 
ATOM      5  C4  BZF d   1       5.941   5.325   3.887  0.00  0.00     0.055 A 
ATOM      6  C5  BZF d   1       5.961   5.996   2.705  0.00  0.00    -0.016 A 
ATOM      7  C6  BZF d   1       5.995   5.334   1.495  0.00  0.00     0.022 A 
ATOM      8  C7  BZF d   1       6.000   3.980   1.433  0.00  0.00     0.029 A 
ATOM      9  C7A BZF d   1       5.946   3.299   2.624  0.00  0.00     0.058 A 
ENDROOT
TORSDOF 0
ENDMDL
