MODEL 1
REMARK minimizedAffinity 11.6556501
REMARK minimizedRMSD -1
REMARK  1 active torsions:
REMARK  status: ('A' for Active; 'I' for Inactive)
REMARK    1  A    between atoms: C1_2  and  C2_3 
ROOT
ATOM      1  C2  UNL d   1      -3.548  -1.355  -2.037  0.00  0.00    -0.077 A 
ATOM      2  C3  UNL d   1      -3.786  -2.442  -2.889  0.00  0.00     0.002 A 
ATOM      3  C4  UNL d   1      -4.714  -2.335  -3.927  0.00  0.00     0.002 A 
ATOM      4  C5  UNL d   1      -5.407  -1.143  -4.125  0.00  0.00    -0.004 A 
ATOM      5  C6  UNL d   1      -5.179  -0.057  -3.280  0.00  0.00     0.002 A 
ATOM      6  C7  UNL d   1      -4.253  -0.162  -2.242  0.00  0.00     0.002 A 
ENDROOT
BRANCH   1   7
ATOM      7  C1  UNL d   1      -2.512  -1.452  -0.947  0.00  0.00     0.055 C 
ATOM      8  C   UNL d   1      -1.106  -1.281  -1.503  0.00  0.00     0.019 C 
ENDBRANCH   1   7
TORSDOF 1
ENDMDL
