MODEL 1
REMARK minimizedAffinity 8.63781071
REMARK minimizedRMSD -1
REMARK  1 active torsions:
REMARK  status: ('A' for Active; 'I' for Inactive)
REMARK    1  A    between atoms: C1_2  and  C2_3 
ROOT
ATOM      1  C2  UNL d   1       1.096  -1.132   0.715  0.00  0.00    -0.077 A 
ATOM      2  C3  UNL d   1       0.201  -1.176  -0.363  0.00  0.00     0.002 A 
ATOM      3  C4  UNL d   1       0.143  -0.122  -1.276  0.00  0.00     0.002 A 
ATOM      4  C5  UNL d   1       0.979   0.982  -1.123  0.00  0.00    -0.004 A 
ATOM      5  C6  UNL d   1       1.871   1.037  -0.052  0.00  0.00     0.002 A 
ATOM      6  C7  UNL d   1       1.929  -0.016   0.863  0.00  0.00     0.002 A 
ENDROOT
BRANCH   1   7
ATOM      7  C1  UNL d   1       1.194  -2.290   1.673  0.00  0.00     0.055 C 
ATOM      8  C   UNL d   1       2.232  -2.027   2.755  0.00  0.00     0.019 C 
ENDBRANCH   1   7
TORSDOF 1
ENDMDL
