MODEL 1
REMARK minimizedAffinity 7.51677132
REMARK minimizedRMSD -1
REMARK  2 active torsions:
REMARK  status: ('A' for Active; 'I' for Inactive)
REMARK    1  A    between atoms: C1_2  and  C2_3 
REMARK    2  A    between atoms: C2_3  and  C3_4 
ROOT
ATOM      1  C3  UNL d   1      -0.300  -0.311   1.938  0.00  0.00    -0.075 A 
ATOM      2  C4  UNL d   1      -1.560   0.030   2.450  0.00  0.00     0.002 A 
ATOM      3  C5  UNL d   1      -2.616   0.333   1.591  0.00  0.00     0.002 A 
ATOM      4  C6  UNL d   1      -2.424   0.309   0.211  0.00  0.00    -0.004 A 
ATOM      5  C7  UNL d   1      -1.173  -0.012  -0.309  0.00  0.00     0.002 A 
ATOM      6  C8  UNL d   1      -0.115  -0.320   0.549  0.00  0.00     0.002 A 
ENDROOT
BRANCH   1   7
ATOM      7  C2  UNL d   1       0.839  -0.669   2.862  0.00  0.00     0.056 C 
BRANCH   7   8
ATOM      8  C1  UNL d   1       0.400  -1.377   4.148  0.00  0.00     0.007 C 
ATOM      9  C   UNL d   1       1.413  -1.253   5.278  0.00  0.00     0.009 C 
ENDBRANCH   7   8
ENDBRANCH   1   7
TORSDOF 2
ENDMDL
