MODEL 1
REMARK minimizedAffinity -2.94149542
REMARK minimizedRMSD -1
REMARK  2 active torsions:
REMARK  status: ('A' for Active; 'I' for Inactive)
REMARK    1  A    between atoms: C1_2  and  C2_3 
REMARK    2  A    between atoms: C2_3  and  C3_4 
ROOT
ATOM      1  C3  UNL d   1       1.537  -0.586  -1.568  0.00  0.00    -0.075 A 
ATOM      2  C4  UNL d   1       2.269   0.313  -2.358  0.00  0.00     0.002 A 
ATOM      3  C5  UNL d   1       1.856   0.614  -3.656  0.00  0.00     0.002 A 
ATOM      4  C6  UNL d   1       0.714   0.015  -4.183  0.00  0.00    -0.004 A 
ATOM      5  C7  UNL d   1      -0.012  -0.892  -3.413  0.00  0.00     0.002 A 
ATOM      6  C8  UNL d   1       0.397  -1.192  -2.112  0.00  0.00     0.002 A 
ENDROOT
BRANCH   1   7
ATOM      7  C2  UNL d   1       1.962  -0.894  -0.152  0.00  0.00     0.056 C 
BRANCH   7   8
ATOM      8  C1  UNL d   1       1.359   0.044   0.899  0.00  0.00     0.007 C 
ATOM      9  C   UNL d   1       2.108   1.364   1.026  0.00  0.00     0.009 C 
ENDBRANCH   7   8
ENDBRANCH   1   7
TORSDOF 2
ENDMDL
