MODEL 1
REMARK minimizedAffinity 8.26661777
REMARK minimizedRMSD -1
REMARK  2 active torsions:
REMARK  status: ('A' for Active; 'I' for Inactive)
REMARK    1  A    between atoms: C1_2  and  C2_3 
REMARK    2  A    between atoms: C2_3  and  C3_4 
ROOT
ATOM      1  C3  UNL d   1       0.359   0.001  -2.938  0.00  0.00    -0.075 A 
ATOM      2  C4  UNL d   1       1.640   0.440  -2.574  0.00  0.00     0.002 A 
ATOM      3  C5  UNL d   1       2.088   0.305  -1.259  0.00  0.00     0.002 A 
ATOM      4  C6  UNL d   1       1.259  -0.258  -0.292  0.00  0.00    -0.004 A 
ATOM      5  C7  UNL d   1      -0.022  -0.682  -0.639  0.00  0.00     0.002 A 
ATOM      6  C8  UNL d   1      -0.471  -0.553  -1.954  0.00  0.00     0.002 A 
ENDROOT
BRANCH   1   7
ATOM      7  C2  UNL d   1      -0.120   0.116  -4.365  0.00  0.00     0.056 C 
BRANCH   7   8
ATOM      8  C1  UNL d   1      -0.912  -1.100  -4.858  0.00  0.00     0.007 C 
ATOM      9  C   UNL d   1      -1.867  -0.774  -5.997  0.00  0.00     0.009 C 
ENDBRANCH   7   8
ENDBRANCH   1   7
TORSDOF 2
ENDMDL
