MODEL 1
REMARK minimizedAffinity -0.569594502
REMARK minimizedRMSD -1
REMARK  2 active torsions:
REMARK  status: ('A' for Active; 'I' for Inactive)
REMARK    1  A    between atoms: C1_2  and  C2_3 
REMARK    2  A    between atoms: C2_3  and  C3_4 
ROOT
ATOM      1  C3  UNL d   1       0.279  -1.007  -1.572  0.00  0.00    -0.075 A 
ATOM      2  C4  UNL d   1      -0.910  -0.758  -0.873  0.00  0.00     0.002 A 
ATOM      3  C5  UNL d   1      -0.877  -0.392   0.473  0.00  0.00     0.002 A 
ATOM      4  C6  UNL d   1       0.342  -0.281   1.138  0.00  0.00    -0.004 A 
ATOM      5  C7  UNL d   1       1.529  -0.542   0.457  0.00  0.00     0.002 A 
ATOM      6  C8  UNL d   1       1.499  -0.904  -0.891  0.00  0.00     0.002 A 
ENDROOT
BRANCH   1   7
ATOM      7  C2  UNL d   1       0.252  -1.374  -3.037  0.00  0.00     0.056 C 
BRANCH   7   8
ATOM      8  C1  UNL d   1       0.097  -0.175  -3.978  0.00  0.00     0.007 C 
ATOM      9  C   UNL d   1       1.319   0.733  -3.999  0.00  0.00     0.009 C 
ENDBRANCH   7   8
ENDBRANCH   1   7
TORSDOF 2
ENDMDL
