MODEL 1
REMARK minimizedAffinity 0.818814993
REMARK minimizedRMSD -1
REMARK  2 active torsions:
REMARK  status: ('A' for Active; 'I' for Inactive)
REMARK    1  A    between atoms: C1_2  and  C2_3 
REMARK    2  A    between atoms: C2_3  and  C3_4 
ROOT
ATOM      1  C3  UNL d   1       0.049   0.072   0.473  0.00  0.00    -0.075 A 
ATOM      2  C4  UNL d   1      -0.745   0.659   1.469  0.00  0.00     0.002 A 
ATOM      3  C5  UNL d   1      -2.134   0.685   1.344  0.00  0.00     0.002 A 
ATOM      4  C6  UNL d   1      -2.746   0.136   0.219  0.00  0.00    -0.004 A 
ATOM      5  C7  UNL d   1      -1.966  -0.435  -0.784  0.00  0.00     0.002 A 
ATOM      6  C8  UNL d   1      -0.576  -0.467  -0.659  0.00  0.00     0.002 A 
ENDROOT
BRANCH   1   7
ATOM      7  C2  UNL d   1       1.551   0.014   0.616  0.00  0.00     0.056 C 
BRANCH   7   8
ATOM      8  C1  UNL d   1       2.282   1.215   0.007  0.00  0.00     0.007 C 
ATOM      9  C   UNL d   1       2.403   2.394   0.963  0.00  0.00     0.009 C 
ENDBRANCH   7   8
ENDBRANCH   1   7
TORSDOF 2
ENDMDL
