MODEL 1
REMARK minimizedAffinity 3.41621518
REMARK minimizedRMSD -1
REMARK  2 active torsions:
REMARK  status: ('A' for Active; 'I' for Inactive)
REMARK    1  A    between atoms: C1_2  and  C2_3 
REMARK    2  A    between atoms: C2_3  and  C3_4 
ROOT
ATOM      1  C3  UNL d   1       4.072   3.777   0.095  0.00  0.00    -0.075 A 
ATOM      2  C4  UNL d   1       4.600   4.997   0.541  0.00  0.00     0.002 A 
ATOM      3  C5  UNL d   1       4.687   5.274   1.906  0.00  0.00     0.002 A 
ATOM      4  C6  UNL d   1       4.240   4.342   2.839  0.00  0.00    -0.004 A 
ATOM      5  C7  UNL d   1       3.698   3.133   2.407  0.00  0.00     0.002 A 
ATOM      6  C8  UNL d   1       3.613   2.851   1.042  0.00  0.00     0.002 A 
ENDROOT
BRANCH   1   7
ATOM      7  C2  UNL d   1       4.001   3.458  -1.380  0.00  0.00     0.056 C 
BRANCH   7   8
ATOM      8  C1  UNL d   1       3.702   1.987  -1.686  0.00  0.00     0.007 C 
ATOM      9  C   UNL d   1       3.792   1.653  -3.169  0.00  0.00     0.009 C 
ENDBRANCH   7   8
ENDBRANCH   1   7
TORSDOF 2
ENDMDL
