MODEL 1
REMARK minimizedAffinity -0.95838958
REMARK minimizedRMSD -1
REMARK  2 active torsions:
REMARK  status: ('A' for Active; 'I' for Inactive)
REMARK    1  A    between atoms: C1_2  and  C2_3 
REMARK    2  A    between atoms: C2_3  and  C3_4 
ROOT
ATOM      1  C3  UNL d   1      -2.483  -0.491  -0.035  0.00  0.00    -0.075 A 
ATOM      2  C4  UNL d   1      -1.273  -0.310  -0.720  0.00  0.00     0.002 A 
ATOM      3  C5  UNL d   1      -0.089  -0.077  -0.019  0.00  0.00     0.002 A 
ATOM      4  C6  UNL d   1      -0.102  -0.013   1.373  0.00  0.00    -0.004 A 
ATOM      5  C7  UNL d   1      -1.301  -0.175   2.063  0.00  0.00     0.002 A 
ATOM      6  C8  UNL d   1      -2.486  -0.412   1.364  0.00  0.00     0.002 A 
ENDROOT
BRANCH   1   7
ATOM      7  C2  UNL d   1      -3.762  -0.772  -0.787  0.00  0.00     0.056 C 
BRANCH   7   8
ATOM      8  C1  UNL d   1      -3.938  -2.240  -1.190  0.00  0.00     0.007 C 
ATOM      9  C   UNL d   1      -5.255  -2.512  -1.905  0.00  0.00     0.009 C 
ENDBRANCH   7   8
ENDBRANCH   1   7
TORSDOF 2
ENDMDL
