MODEL 1
REMARK minimizedAffinity -2.08005834
REMARK minimizedRMSD -1
REMARK  2 active torsions:
REMARK  status: ('A' for Active; 'I' for Inactive)
REMARK    1  A    between atoms: C1_2  and  C2_3 
REMARK    2  A    between atoms: C2_3  and  C3_4 
ROOT
ATOM      1  C3  UNL d   1      -0.928  -0.265   2.699  0.00  0.00    -0.075 A 
ATOM      2  C4  UNL d   1      -2.249  -0.097   2.260  0.00  0.00     0.002 A 
ATOM      3  C5  UNL d   1      -2.544  -0.066   0.896  0.00  0.00     0.002 A 
ATOM      4  C6  UNL d   1      -1.524  -0.192  -0.043  0.00  0.00    -0.004 A 
ATOM      5  C7  UNL d   1      -0.205  -0.343   0.381  0.00  0.00     0.002 A 
ATOM      6  C8  UNL d   1       0.092  -0.379   1.745  0.00  0.00     0.002 A 
ENDROOT
BRANCH   1   7
ATOM      7  C2  UNL d   1      -0.606  -0.329   4.172  0.00  0.00     0.056 C 
BRANCH   7   8
ATOM      8  C1  UNL d   1       0.429  -1.398   4.539  0.00  0.00     0.007 C 
ATOM      9  C   UNL d   1       0.925  -1.287   5.974  0.00  0.00     0.009 C 
ENDBRANCH   7   8
ENDBRANCH   1   7
TORSDOF 2
ENDMDL
