MODEL 1
REMARK minimizedAffinity 0.873604238
REMARK minimizedRMSD -1
REMARK  2 active torsions:
REMARK  status: ('A' for Active; 'I' for Inactive)
REMARK    1  A    between atoms: C1_2  and  C2_3 
REMARK    2  A    between atoms: C2_3  and  C3_4 
ROOT
ATOM      1  C3  UNL d   1      -0.694  -0.395   2.855  0.00  0.00    -0.075 A 
ATOM      2  C4  UNL d   1       0.095  -0.226   1.707  0.00  0.00     0.002 A 
ATOM      3  C5  UNL d   1      -0.500  -0.101   0.451  0.00  0.00     0.002 A 
ATOM      4  C6  UNL d   1      -1.887  -0.154   0.325  0.00  0.00    -0.004 A 
ATOM      5  C7  UNL d   1      -2.679  -0.338   1.457  0.00  0.00     0.002 A 
ATOM      6  C8  UNL d   1      -2.086  -0.459   2.715  0.00  0.00     0.002 A 
ENDROOT
BRANCH   1   7
ATOM      7  C2  UNL d   1      -0.058  -0.501   4.220  0.00  0.00     0.056 C 
BRANCH   7   8
ATOM      8  C1  UNL d   1       0.473  -1.899   4.554  0.00  0.00     0.007 C 
ATOM      9  C   UNL d   1      -0.574  -2.801   5.193  0.00  0.00     0.009 C 
ENDBRANCH   7   8
ENDBRANCH   1   7
TORSDOF 2
ENDMDL
