MODEL 1
REMARK minimizedAffinity -1.15701759
REMARK minimizedRMSD -1
REMARK  2 active torsions:
REMARK  status: ('A' for Active; 'I' for Inactive)
REMARK    1  A    between atoms: C1_2  and  C2_3 
REMARK    2  A    between atoms: C2_3  and  C3_4 
ROOT
ATOM      1  C3  UNL d   1      -0.239  -0.684   1.378  0.00  0.00    -0.075 A 
ATOM      2  C4  UNL d   1      -0.701  -0.749   0.055  0.00  0.00     0.002 A 
ATOM      3  C5  UNL d   1      -2.012  -0.386  -0.256  0.00  0.00     0.002 A 
ATOM      4  C6  UNL d   1      -2.879   0.035   0.750  0.00  0.00    -0.004 A 
ATOM      5  C7  UNL d   1      -2.435   0.088   2.070  0.00  0.00     0.002 A 
ATOM      6  C8  UNL d   1      -1.123  -0.271   2.384  0.00  0.00     0.002 A 
ENDROOT
BRANCH   1   7
ATOM      7  C2  UNL d   1       1.187  -1.047   1.717  0.00  0.00     0.056 C 
BRANCH   7   8
ATOM      8  C1  UNL d   1       2.236  -0.182   1.011  0.00  0.00     0.007 C 
ATOM      9  C   UNL d   1       2.002   1.312   1.192  0.00  0.00     0.009 C 
ENDBRANCH   7   8
ENDBRANCH   1   7
TORSDOF 2
ENDMDL
