MODEL 1
REMARK minimizedAffinity -1.30099535
REMARK minimizedRMSD -1
REMARK  2 active torsions:
REMARK  status: ('A' for Active; 'I' for Inactive)
REMARK    1  A    between atoms: C1_2  and  C2_3 
REMARK    2  A    between atoms: C2_3  and  C3_4 
ROOT
ATOM      1  C3  UNL d   1      -1.171  -0.177   2.564  0.00  0.00    -0.075 A 
ATOM      2  C4  UNL d   1      -2.362   0.346   2.041  0.00  0.00     0.002 A 
ATOM      3  C5  UNL d   1      -2.595   0.340   0.665  0.00  0.00     0.002 A 
ATOM      4  C6  UNL d   1      -1.637  -0.178  -0.204  0.00  0.00    -0.004 A 
ATOM      5  C7  UNL d   1      -0.442  -0.685   0.304  0.00  0.00     0.002 A 
ATOM      6  C8  UNL d   1      -0.209  -0.684   1.680  0.00  0.00     0.002 A 
ENDROOT
BRANCH   1   7
ATOM      7  C2  UNL d   1      -0.926  -0.201   4.054  0.00  0.00     0.056 C 
BRANCH   7   8
ATOM      8  C1  UNL d   1       0.277  -1.050   4.475  0.00  0.00     0.007 C 
ATOM      9  C   UNL d   1       0.227  -1.480   5.935  0.00  0.00     0.009 C 
ENDBRANCH   7   8
ENDBRANCH   1   7
TORSDOF 2
ENDMDL
