MODEL 1
REMARK minimizedAffinity 4.40135479
REMARK minimizedRMSD -1
REMARK  0 active torsions:
REMARK  status: ('A' for Active; 'I' for Inactive)
ROOT
ATOM      1  C   UNL d   1       1.438  -1.011  -0.710  0.00  0.00     0.078 C 
ATOM      2  C1  UNL d   1       0.987  -1.009   0.720  0.00  0.00    -0.077 A 
ATOM      3  C2  UNL d   1       1.904  -1.171   1.766  0.00  0.00    -0.001 A 
ATOM      4  C3  UNL d   1       1.468  -1.176   3.092  0.00  0.00     0.003 A 
ATOM      5  C4  UNL d   1       0.114  -1.022   3.384  0.00  0.00    -0.005 A 
ATOM      6  C5  UNL d   1      -0.806  -0.863   2.350  0.00  0.00     0.003 A 
ATOM      7  C6  UNL d   1      -0.372  -0.857   1.023  0.00  0.00    -0.001 A 
ENDROOT
TORSDOF 0
ENDMDL
