MODEL 1
REMARK minimizedAffinity -1.51261234
REMARK minimizedRMSD -1
REMARK  0 active torsions:
REMARK  status: ('A' for Active; 'I' for Inactive)
ROOT
ATOM      1  C   UNL d   1       2.520  -1.471   1.177  0.00  0.00     0.078 C 
ATOM      2  C1  UNL d   1       2.340  -0.444   0.100  0.00  0.00    -0.077 A 
ATOM      3  C2  UNL d   1       2.633   0.906   0.334  0.00  0.00    -0.001 A 
ATOM      4  C3  UNL d   1       2.451   1.853  -0.674  0.00  0.00     0.003 A 
ATOM      5  C4  UNL d   1       1.974   1.462  -1.924  0.00  0.00    -0.005 A 
ATOM      6  C5  UNL d   1       1.677   0.122  -2.166  0.00  0.00     0.003 A 
ATOM      7  C6  UNL d   1       1.859  -0.827  -1.158  0.00  0.00    -0.001 A 
ENDROOT
TORSDOF 0
ENDMDL
