MODEL 1
REMARK minimizedAffinity 1.36656392
REMARK minimizedRMSD -1
REMARK  0 active torsions:
REMARK  status: ('A' for Active; 'I' for Inactive)
ROOT
ATOM      1  C   UNL d   1      -1.186  -0.563   3.466  0.00  0.00     0.078 C 
ATOM      2  C1  UNL d   1       0.076  -0.840   2.705  0.00  0.00    -0.077 A 
ATOM      3  C2  UNL d   1       1.324  -0.800   3.338  0.00  0.00    -0.001 A 
ATOM      4  C3  UNL d   1       2.491  -1.051   2.614  0.00  0.00     0.003 A 
ATOM      5  C4  UNL d   1       2.422  -1.341   1.253  0.00  0.00    -0.005 A 
ATOM      6  C5  UNL d   1       1.184  -1.381   0.614  0.00  0.00     0.003 A 
ATOM      7  C6  UNL d   1       0.016  -1.130   1.336  0.00  0.00    -0.001 A 
ENDROOT
TORSDOF 0
ENDMDL
