MODEL 1
REMARK minimizedAffinity 2.16923475
REMARK minimizedRMSD -1
REMARK  0 active torsions:
REMARK  status: ('A' for Active; 'I' for Inactive)
ROOT
ATOM      1  C   UNL d   1      -1.697   1.023   3.411  0.00  0.00     0.078 C 
ATOM      2  C1  UNL d   1      -0.581   0.067   3.113  0.00  0.00    -0.077 A 
ATOM      3  C2  UNL d   1       0.447  -0.153   4.038  0.00  0.00    -0.001 A 
ATOM      4  C3  UNL d   1       1.485  -1.038   3.744  0.00  0.00     0.003 A 
ATOM      5  C4  UNL d   1       1.506  -1.711   2.524  0.00  0.00    -0.005 A 
ATOM      6  C5  UNL d   1       0.488  -1.497   1.596  0.00  0.00     0.003 A 
ATOM      7  C6  UNL d   1      -0.550  -0.612   1.888  0.00  0.00    -0.001 A 
ENDROOT
TORSDOF 0
ENDMDL
