MODEL 1
REMARK minimizedAffinity 4.03888273
REMARK minimizedRMSD -1
REMARK  0 active torsions:
REMARK  status: ('A' for Active; 'I' for Inactive)
ROOT
ATOM      1  C   UNL d   1      -2.599   1.169   3.352  0.00  0.00     0.078 C 
ATOM      2  C1  UNL d   1      -1.535   0.214   2.898  0.00  0.00    -0.077 A 
ATOM      3  C2  UNL d   1      -0.417  -0.053   3.698  0.00  0.00    -0.001 A 
ATOM      4  C3  UNL d   1       0.570  -0.937   3.259  0.00  0.00     0.003 A 
ATOM      5  C4  UNL d   1       0.450  -1.559   2.018  0.00  0.00    -0.005 A 
ATOM      6  C5  UNL d   1      -0.658  -1.297   1.214  0.00  0.00     0.003 A 
ATOM      7  C6  UNL d   1      -1.646  -0.414   1.652  0.00  0.00    -0.001 A 
ENDROOT
TORSDOF 0
ENDMDL
