MODEL 1
REMARK minimizedAffinity 0.303197891
REMARK minimizedRMSD -1
REMARK  0 active torsions:
REMARK  status: ('A' for Active; 'I' for Inactive)
ROOT
ATOM      1  C   UNL d   1       0.420  -0.844   2.945  0.00  0.00     0.078 C 
ATOM      2  C1  UNL d   1       1.393  -1.369   1.932  0.00  0.00    -0.077 A 
ATOM      3  C2  UNL d   1       2.300  -2.384   2.262  0.00  0.00    -0.001 A 
ATOM      4  C3  UNL d   1       3.207  -2.856   1.312  0.00  0.00     0.003 A 
ATOM      5  C4  UNL d   1       3.217  -2.319   0.026  0.00  0.00    -0.005 A 
ATOM      6  C5  UNL d   1       2.319  -1.308  -0.311  0.00  0.00     0.003 A 
ATOM      7  C6  UNL d   1       1.412  -0.834   0.638  0.00  0.00    -0.001 A 
ENDROOT
TORSDOF 0
ENDMDL
