MODEL 1
REMARK minimizedAffinity 5.90756989
REMARK minimizedRMSD -1
REMARK  0 active torsions:
REMARK  status: ('A' for Active; 'I' for Inactive)
ROOT
ATOM      1  C   UNL d   1       5.998  -0.154  -0.023  0.00  0.00     0.020 A 
ATOM      2  C1  UNL d   1       6.000   1.142   0.489  0.00  0.00     0.020 A 
ATOM      3  C2  UNL d   1       4.829   1.682   1.026  0.00  0.00     0.034 A 
ATOM      4  C3  UNL d   1       3.652   0.925   1.052  0.00  0.00     0.017 A 
ATOM      5  C4  UNL d   1       3.652  -0.377   0.537  0.00  0.00     0.017 A 
ATOM      6  C5  UNL d   1       4.827  -0.912   0.001  0.00  0.00     0.034 A 
ATOM      7 Cl   UNL d   1       2.239  -1.372   0.533  0.00  0.00    -0.070 Cl
ATOM      8 Cl1  UNL d   1       2.241   1.656   1.731  0.00  0.00    -0.070 Cl
ENDROOT
TORSDOF 0
ENDMDL
