MODEL 1
REMARK minimizedAffinity 5.99144554
REMARK minimizedRMSD -1
REMARK  0 active torsions:
REMARK  status: ('A' for Active; 'I' for Inactive)
ROOT
ATOM      1  C   UNL d   1      -3.076   1.325   3.478  0.00  0.00     0.020 A 
ATOM      2  C1  UNL d   1      -2.071   1.062   4.408  0.00  0.00     0.020 A 
ATOM      3  C2  UNL d   1      -1.164   0.025   4.182  0.00  0.00     0.034 A 
ATOM      4  C3  UNL d   1      -1.260  -0.753   3.023  0.00  0.00     0.017 A 
ATOM      5  C4  UNL d   1      -2.269  -0.489   2.090  0.00  0.00     0.017 A 
ATOM      6  C5  UNL d   1      -3.175   0.551   2.321  0.00  0.00     0.034 A 
ATOM      7 Cl   UNL d   1      -2.451  -1.406   0.636  0.00  0.00    -0.070 Cl
ATOM      8 Cl1  UNL d   1      -0.104  -2.019   2.807  0.00  0.00    -0.070 Cl
ENDROOT
TORSDOF 0
ENDMDL
