MODEL 1
REMARK minimizedAffinity 8.24638367
REMARK minimizedRMSD -1
REMARK  0 active torsions:
REMARK  status: ('A' for Active; 'I' for Inactive)
ROOT
ATOM      1  C   UNL d   1      -4.286   1.500   2.884  0.00  0.00     0.020 A 
ATOM      2  C1  UNL d   1      -3.575   1.531   4.082  0.00  0.00     0.020 A 
ATOM      3  C2  UNL d   1      -2.438   0.737   4.241  0.00  0.00     0.034 A 
ATOM      4  C3  UNL d   1      -2.008  -0.093   3.198  0.00  0.00     0.017 A 
ATOM      5  C4  UNL d   1      -2.723  -0.124   1.995  0.00  0.00     0.017 A 
ATOM      6  C5  UNL d   1      -3.861   0.674   1.842  0.00  0.00     0.034 A 
ATOM      7 Cl   UNL d   1      -2.254  -1.122   0.664  0.00  0.00    -0.070 Cl
ATOM      8 Cl1  UNL d   1      -0.593  -1.048   3.463  0.00  0.00    -0.070 Cl
ENDROOT
TORSDOF 0
ENDMDL
