MODEL 1
REMARK minimizedAffinity 3.28989053
REMARK minimizedRMSD -1
REMARK  0 active torsions:
REMARK  status: ('A' for Active; 'I' for Inactive)
ROOT
ATOM      1  C   UNL d   1       5.950   2.378   0.881  0.00  0.00     0.020 A 
ATOM      2  C1  UNL d   1       5.952   1.785   2.143  0.00  0.00     0.020 A 
ATOM      3  C2  UNL d   1       5.966   0.394   2.261  0.00  0.00     0.034 A 
ATOM      4  C3  UNL d   1       5.978  -0.410   1.114  0.00  0.00     0.017 A 
ATOM      5  C4  UNL d   1       5.976   0.186  -0.152  0.00  0.00     0.017 A 
ATOM      6  C5  UNL d   1       5.962   1.580  -0.264  0.00  0.00     0.034 A 
ATOM      7 Cl   UNL d   1       5.990  -0.739  -1.612  0.00  0.00    -0.070 Cl
ATOM      8 Cl1  UNL d   1       5.995  -2.123   1.334  0.00  0.00    -0.070 Cl
ENDROOT
TORSDOF 0
ENDMDL
