MODEL 1
REMARK minimizedAffinity 10.5503893
REMARK minimizedRMSD -1
REMARK  0 active torsions:
REMARK  status: ('A' for Active; 'I' for Inactive)
ROOT
ATOM      1  C   UNL d   1       0.993  -3.410   1.738  0.00  0.00     0.020 A 
ATOM      2  C1  UNL d   1       2.209  -4.083   1.852  0.00  0.00     0.020 A 
ATOM      3  C2  UNL d   1       3.396  -3.446   1.484  0.00  0.00     0.034 A 
ATOM      4  C3  UNL d   1       3.370  -2.133   1.001  0.00  0.00     0.017 A 
ATOM      5  C4  UNL d   1       2.149  -1.458   0.887  0.00  0.00     0.017 A 
ATOM      6  C5  UNL d   1       0.963  -2.100   1.257  0.00  0.00     0.034 A 
ATOM      7 Cl   UNL d   1       2.037   0.164   0.300  0.00  0.00    -0.070 Cl
ATOM      8 Cl1  UNL d   1       4.876  -1.407   0.565  0.00  0.00    -0.070 Cl
ENDROOT
TORSDOF 0
ENDMDL
