MODEL 1
REMARK minimizedAffinity 0.678618431
REMARK minimizedRMSD -1
REMARK  0 active torsions:
REMARK  status: ('A' for Active; 'I' for Inactive)
ROOT
ATOM      1  C   UNL d   1      -0.022  -2.426   3.089  0.00  0.00     0.020 A 
ATOM      2  C1  UNL d   1       1.190  -1.826   3.431  0.00  0.00     0.020 A 
ATOM      3  C2  UNL d   1       1.256  -0.443   3.615  0.00  0.00     0.034 A 
ATOM      4  C3  UNL d   1       0.110   0.344   3.458  0.00  0.00     0.017 A 
ATOM      5  C4  UNL d   1      -1.106  -0.259   3.115  0.00  0.00     0.017 A 
ATOM      6  C5  UNL d   1      -1.167  -1.644   2.932  0.00  0.00     0.034 A 
ATOM      7 Cl   UNL d   1      -2.563   0.646   2.904  0.00  0.00    -0.070 Cl
ATOM      8 Cl1  UNL d   1       0.265   2.048   3.701  0.00  0.00    -0.070 Cl
ENDROOT
TORSDOF 0
ENDMDL
