MODEL 1
REMARK minimizedAffinity 10.0572157
REMARK minimizedRMSD -1
REMARK  0 active torsions:
REMARK  status: ('A' for Active; 'I' for Inactive)
ROOT
ATOM      1  C   UNL d   1       2.739  -4.846   0.640  0.00  0.00     0.020 A 
ATOM      2  C1  UNL d   1       1.580  -5.310   1.262  0.00  0.00     0.020 A 
ATOM      3  C2  UNL d   1       0.664  -4.402   1.797  0.00  0.00     0.034 A 
ATOM      4  C3  UNL d   1       0.905  -3.026   1.711  0.00  0.00     0.017 A 
ATOM      5  C4  UNL d   1       2.069  -2.562   1.087  0.00  0.00     0.017 A 
ATOM      6  C5  UNL d   1       2.982  -3.475   0.553  0.00  0.00     0.034 A 
ATOM      7 Cl   UNL d   1       2.435  -0.879   0.943  0.00  0.00    -0.070 Cl
ATOM      8 Cl1  UNL d   1      -0.271  -1.960   2.395  0.00  0.00    -0.070 Cl
ENDROOT
TORSDOF 0
ENDMDL
