MODEL 1
REMARK minimizedAffinity -3.80062413
REMARK minimizedRMSD -1
REMARK  0 active torsions:
REMARK  status: ('A' for Active; 'I' for Inactive)
ROOT
ATOM      1  C   UNL d   1       0.162   0.494   3.003  0.00  0.00     0.124 A 
ATOM      2  C1  UNL d   1      -0.825   0.965   2.148  0.00  0.00     0.062 A 
ATOM      3  C2  UNL d   1      -0.824   0.595   0.807  0.00  0.00     0.162 A 
ATOM      4  C3  UNL d   1       0.167  -0.253   0.311  0.00  0.00    -0.034 A 
ATOM      5  C4  UNL d   1       1.156  -0.722   1.176  0.00  0.00     0.162 A 
ATOM      6  C5  UNL d   1       1.151  -0.349   2.517  0.00  0.00     0.062 A 
ATOM      7  F   UNL d   1       2.106  -0.805   3.341  0.00  0.00    -0.097 F 
ATOM      8  F1  UNL d   1       2.124  -1.538   0.733  0.00  0.00    -0.096 F 
ATOM      9  I   UNL d   1       0.171  -0.808  -1.695  0.00  0.00    -0.060 I 
ATOM     10  F2  UNL d   1      -1.790   1.065   0.004  0.00  0.00    -0.096 F 
ATOM     11  F3  UNL d   1      -1.781   1.780   2.616  0.00  0.00    -0.097 F 
ATOM     12  F4  UNL d   1       0.159   0.852   4.293  0.00  0.00    -0.092 F 
ENDROOT
TORSDOF 0
ENDMDL
