MODEL 1
REMARK minimizedAffinity 0.0146632008
REMARK minimizedRMSD -1
REMARK  0 active torsions:
REMARK  status: ('A' for Active; 'I' for Inactive)
ROOT
ATOM      1  C   UNL d   1       1.172   0.225  -3.727  0.00  0.00     0.124 A 
ATOM      2  C1  UNL d   1       1.590   1.249  -2.889  0.00  0.00     0.062 A 
ATOM      3  C2  UNL d   1       1.372   1.163  -1.517  0.00  0.00     0.162 A 
ATOM      4  C3  UNL d   1       0.734   0.047  -0.974  0.00  0.00    -0.034 A 
ATOM      5  C4  UNL d   1       0.317  -0.978  -1.824  0.00  0.00     0.162 A 
ATOM      6  C5  UNL d   1       0.536  -0.887  -3.195  0.00  0.00     0.062 A 
ATOM      7  F   UNL d   1       0.132  -1.878  -4.003  0.00  0.00    -0.097 F 
ATOM      8  F1  UNL d   1      -0.300  -2.065  -1.336  0.00  0.00    -0.096 F 
ATOM      9  I   UNL d   1       0.407  -0.086   1.077  0.00  0.00    -0.060 I 
ATOM     10  F2  UNL d   1       1.786   2.167  -0.730  0.00  0.00    -0.096 F 
ATOM     11  F3  UNL d   1       2.203   2.325  -3.401  0.00  0.00    -0.097 F 
ATOM     12  F4  UNL d   1       1.382   0.311  -5.047  0.00  0.00    -0.092 F 
ENDROOT
TORSDOF 0
ENDMDL
