MODEL 1
REMARK minimizedAffinity 0.887216806
REMARK minimizedRMSD -1
REMARK  0 active torsions:
REMARK  status: ('A' for Active; 'I' for Inactive)
ROOT
ATOM      1  C   UNL d   1       0.492  -0.052   1.655  0.00  0.00     0.124 A 
ATOM      2  C1  UNL d   1       1.551  -0.608   0.949  0.00  0.00     0.062 A 
ATOM      3  C2  UNL d   1       1.472  -0.753  -0.433  0.00  0.00     0.162 A 
ATOM      4  C3  UNL d   1       0.330  -0.340  -1.119  0.00  0.00    -0.034 A 
ATOM      5  C4  UNL d   1      -0.730   0.218  -0.403  0.00  0.00     0.162 A 
ATOM      6  C5  UNL d   1      -0.647   0.361   0.978  0.00  0.00     0.062 A 
ATOM      7  F   UNL d   1      -1.670   0.898   1.658  0.00  0.00    -0.097 F 
ATOM      8  F1  UNL d   1      -1.843   0.626  -1.032  0.00  0.00    -0.096 F 
ATOM      9  I   UNL d   1       0.208  -0.554  -3.186  0.00  0.00    -0.060 I 
ATOM     10  F2  UNL d   1       2.509  -1.294  -1.088  0.00  0.00    -0.096 F 
ATOM     11  F3  UNL d   1       2.652  -1.009   1.601  0.00  0.00    -0.097 F 
ATOM     12  F4  UNL d   1       0.571   0.085   2.985  0.00  0.00    -0.092 F 
ENDROOT
TORSDOF 0
ENDMDL
