MODEL 1
REMARK minimizedAffinity 2.59020162
REMARK minimizedRMSD -1
REMARK  0 active torsions:
REMARK  status: ('A' for Active; 'I' for Inactive)
ROOT
ATOM      1  C   UNL d   1       0.884   1.443   0.821  0.00  0.00     0.124 A 
ATOM      2  C1  UNL d   1      -0.064   1.291   1.824  0.00  0.00     0.062 A 
ATOM      3  C2  UNL d   1      -1.004   0.268   1.749  0.00  0.00     0.162 A 
ATOM      4  C3  UNL d   1      -1.001  -0.613   0.668  0.00  0.00    -0.034 A 
ATOM      5  C4  UNL d   1      -0.046  -0.453  -0.338  0.00  0.00     0.162 A 
ATOM      6  C5  UNL d   1       0.892   0.572  -0.258  0.00  0.00     0.062 A 
ATOM      7  F   UNL d   1       1.806   0.717  -1.228  0.00  0.00    -0.097 F 
ATOM      8  F1  UNL d   1      -0.015  -1.282  -1.392  0.00  0.00    -0.096 F 
ATOM      9  I   UNL d   1      -2.405  -2.145   0.552  0.00  0.00    -0.060 I 
ATOM     10  F2  UNL d   1      -1.908   0.144   2.733  0.00  0.00    -0.096 F 
ATOM     11  F3  UNL d   1      -0.074   2.133   2.868  0.00  0.00    -0.097 F 
ATOM     12  F4  UNL d   1       1.786   2.430   0.895  0.00  0.00    -0.092 F 
ENDROOT
TORSDOF 0
ENDMDL
