MODEL 1
REMARK minimizedAffinity 8.34876442
REMARK minimizedRMSD -1
REMARK  0 active torsions:
REMARK  status: ('A' for Active; 'I' for Inactive)
ROOT
ATOM      1  C   UNL d   1      -0.579  -0.004   2.089  0.00  0.00     0.124 A 
ATOM      2  C1  UNL d   1       0.765  -0.260   1.857  0.00  0.00     0.062 A 
ATOM      3  C2  UNL d   1       1.347   0.097   0.645  0.00  0.00     0.162 A 
ATOM      4  C3  UNL d   1       0.586   0.717  -0.346  0.00  0.00    -0.034 A 
ATOM      5  C4  UNL d   1      -0.766   0.971  -0.106  0.00  0.00     0.162 A 
ATOM      6  C5  UNL d   1      -1.343   0.612   1.107  0.00  0.00     0.062 A 
ATOM      7  F   UNL d   1      -2.642   0.861   1.329  0.00  0.00    -0.097 F 
ATOM      8  F1  UNL d   1      -1.527   1.565  -1.037  0.00  0.00    -0.096 F 
ATOM      9  I   UNL d   1       1.452   1.253  -2.160  0.00  0.00    -0.060 I 
ATOM     10  F2  UNL d   1       2.648  -0.163   0.448  0.00  0.00    -0.096 F 
ATOM     11  F3  UNL d   1       1.505  -0.856   2.804  0.00  0.00    -0.097 F 
ATOM     12  F4  UNL d   1      -1.137  -0.350   3.256  0.00  0.00    -0.092 F 
ENDROOT
TORSDOF 0
ENDMDL
