MODEL 1
REMARK minimizedAffinity -1.00079346
REMARK minimizedRMSD -1
REMARK  0 active torsions:
REMARK  status: ('A' for Active; 'I' for Inactive)
ROOT
ATOM      1  C   UNL d   1       0.204   0.693   2.167  0.00  0.00     0.124 A 
ATOM      2  C1  UNL d   1       1.191  -0.099   1.596  0.00  0.00     0.062 A 
ATOM      3  C2  UNL d   1       1.085  -0.501   0.268  0.00  0.00     0.162 A 
ATOM      4  C3  UNL d   1      -0.012  -0.111  -0.500  0.00  0.00    -0.034 A 
ATOM      5  C4  UNL d   1      -1.001   0.685   0.081  0.00  0.00     0.162 A 
ATOM      6  C5  UNL d   1      -0.890   1.084   1.409  0.00  0.00     0.062 A 
ATOM      7  F   UNL d   1      -1.845   1.850   1.958  0.00  0.00    -0.097 F 
ATOM      8  F1  UNL d   1      -2.069   1.079  -0.629  0.00  0.00    -0.096 F 
ATOM      9  I   UNL d   1      -0.174  -0.710  -2.487  0.00  0.00    -0.060 I 
ATOM     10  F2  UNL d   1       2.053  -1.267  -0.257  0.00  0.00    -0.096 F 
ATOM     11  F3  UNL d   1       2.249  -0.479   2.327  0.00  0.00    -0.097 F 
ATOM     12  F4  UNL d   1       0.308   1.078   3.445  0.00  0.00    -0.092 F 
ENDROOT
TORSDOF 0
ENDMDL
