MODEL 1
REMARK minimizedAffinity -2.81892943
REMARK minimizedRMSD -1
REMARK  0 active torsions:
REMARK  status: ('A' for Active; 'I' for Inactive)
ROOT
ATOM      1  C   UNL d   1       0.273  -1.979   0.118  0.00  0.00     0.078 C 
ATOM      2  C1  UNL d   1      -0.548  -0.730   0.236  0.00  0.00    -0.077 A 
ATOM      3  C2  UNL d   1      -0.550   0.230  -0.783  0.00  0.00    -0.001 A 
ATOM      4  C3  UNL d   1      -1.311   1.393  -0.655  0.00  0.00     0.003 A 
ATOM      5  C4  UNL d   1      -2.076   1.606   0.490  0.00  0.00    -0.005 A 
ATOM      6  C5  UNL d   1      -2.079   0.657   1.510  0.00  0.00     0.003 A 
ATOM      7  C6  UNL d   1      -1.318  -0.506   1.384  0.00  0.00    -0.001 A 
ENDROOT
TORSDOF 0
ENDMDL
