MODEL 1
REMARK minimizedAffinity -3.38058543
REMARK minimizedRMSD -1
REMARK  0 active torsions:
REMARK  status: ('A' for Active; 'I' for Inactive)
ROOT
ATOM      1  C   UNL d   1      -4.109  -1.335   3.745  0.00  0.00     0.078 C 
ATOM      2  C1  UNL d   1      -3.142  -0.267   3.331  0.00  0.00    -0.077 A 
ATOM      3  C2  UNL d   1      -2.859   0.815   4.174  0.00  0.00    -0.001 A 
ATOM      4  C3  UNL d   1      -1.964   1.808   3.771  0.00  0.00     0.003 A 
ATOM      5  C4  UNL d   1      -1.346   1.729   2.524  0.00  0.00    -0.005 A 
ATOM      6  C5  UNL d   1      -1.624   0.658   1.678  0.00  0.00     0.003 A 
ATOM      7  C6  UNL d   1      -2.518  -0.336   2.079  0.00  0.00    -0.001 A 
ENDROOT
TORSDOF 0
ENDMDL
