MODEL 1
REMARK minimizedAffinity -1.14223516
REMARK minimizedRMSD -1
REMARK  0 active torsions:
REMARK  status: ('A' for Active; 'I' for Inactive)
ROOT
ATOM      1  C   UNL d   1       1.525   2.187  -2.642  0.00  0.00     0.078 C 
ATOM      2  C1  UNL d   1       1.446   0.913  -1.854  0.00  0.00    -0.077 A 
ATOM      3  C2  UNL d   1       2.256  -0.183  -2.173  0.00  0.00    -0.001 A 
ATOM      4  C3  UNL d   1       2.165  -1.366  -1.438  0.00  0.00     0.003 A 
ATOM      5  C4  UNL d   1       1.263  -1.464  -0.380  0.00  0.00    -0.005 A 
ATOM      6  C5  UNL d   1       0.450  -0.379  -0.057  0.00  0.00     0.003 A 
ATOM      7  C6  UNL d   1       0.541   0.805  -0.791  0.00  0.00    -0.001 A 
ENDROOT
TORSDOF 0
ENDMDL
