MODEL 1
REMARK minimizedAffinity -3.40109134
REMARK minimizedRMSD -1
REMARK  0 active torsions:
REMARK  status: ('A' for Active; 'I' for Inactive)
ROOT
ATOM      1  C   UNL d   1      -1.265   0.009   1.362  0.00  0.00     0.078 C 
ATOM      2  C1  UNL d   1      -0.173  -0.304   0.383  0.00  0.00    -0.077 A 
ATOM      3  C2  UNL d   1       0.522  -1.518   0.441  0.00  0.00    -0.001 A 
ATOM      4  C3  UNL d   1       1.542  -1.793  -0.471  0.00  0.00     0.003 A 
ATOM      5  C4  UNL d   1       1.877  -0.857  -1.448  0.00  0.00    -0.005 A 
ATOM      6  C5  UNL d   1       1.192   0.355  -1.513  0.00  0.00     0.003 A 
ATOM      7  C6  UNL d   1       0.172   0.631  -0.601  0.00  0.00    -0.001 A 
ENDROOT
TORSDOF 0
ENDMDL
