MODEL 1
REMARK minimizedAffinity -3.77893543
REMARK minimizedRMSD -1
REMARK  0 active torsions:
REMARK  status: ('A' for Active; 'I' for Inactive)
ROOT
ATOM      1  C   UNL d   1      -1.338   1.203  -1.104  0.00  0.00     0.078 C 
ATOM      2  C1  UNL d   1      -0.209   0.240  -0.886  0.00  0.00    -0.077 A 
ATOM      3  C2  UNL d   1      -0.442  -1.036  -0.358  0.00  0.00    -0.001 A 
ATOM      4  C3  UNL d   1       0.619  -1.919  -0.152  0.00  0.00     0.003 A 
ATOM      5  C4  UNL d   1       1.921  -1.535  -0.469  0.00  0.00    -0.005 A 
ATOM      6  C5  UNL d   1       2.162  -0.266  -0.992  0.00  0.00     0.003 A 
ATOM      7  C6  UNL d   1       1.102   0.618  -1.200  0.00  0.00    -0.001 A 
ENDROOT
TORSDOF 0
ENDMDL
