MODEL 1
REMARK minimizedAffinity -4.54619837
REMARK minimizedRMSD -1
REMARK  0 active torsions:
REMARK  status: ('A' for Active; 'I' for Inactive)
ROOT
ATOM      1  C   UNL d   1      -4.036  -1.097   3.828  0.00  0.00     0.078 C 
ATOM      2  C1  UNL d   1      -3.236  -0.005   3.183  0.00  0.00    -0.077 A 
ATOM      3  C2  UNL d   1      -3.035   1.221   3.829  0.00  0.00    -0.001 A 
ATOM      4  C3  UNL d   1      -2.297   2.232   3.212  0.00  0.00     0.003 A 
ATOM      5  C4  UNL d   1      -1.755   2.028   1.945  0.00  0.00    -0.005 A 
ATOM      6  C5  UNL d   1      -1.952   0.813   1.293  0.00  0.00     0.003 A 
ATOM      7  C6  UNL d   1      -2.689  -0.199   1.908  0.00  0.00    -0.001 A 
ENDROOT
TORSDOF 0
ENDMDL
