MODEL 1
REMARK minimizedAffinity -4.75420761
REMARK minimizedRMSD -1
REMARK  0 active torsions:
REMARK  status: ('A' for Active; 'I' for Inactive)
ROOT
ATOM      1  C   UNL d   1       2.885  -0.299  -1.076  0.00  0.00     0.078 C 
ATOM      2  C1  UNL d   1       1.472  -0.334  -0.574  0.00  0.00    -0.077 A 
ATOM      3  C2  UNL d   1       0.744   0.847  -0.387  0.00  0.00    -0.001 A 
ATOM      4  C3  UNL d   1      -0.567   0.800   0.090  0.00  0.00     0.003 A 
ATOM      5  C4  UNL d   1      -1.161  -0.426   0.385  0.00  0.00    -0.005 A 
ATOM      6  C5  UNL d   1      -0.443  -1.607   0.204  0.00  0.00     0.003 A 
ATOM      7  C6  UNL d   1       0.868  -1.561  -0.273  0.00  0.00    -0.001 A 
ENDROOT
TORSDOF 0
ENDMDL
