MODEL 1
REMARK minimizedAffinity -4.14937639
REMARK minimizedRMSD -1
REMARK  0 active torsions:
REMARK  status: ('A' for Active; 'I' for Inactive)
ROOT
ATOM      1  C   UNL d   1      -3.823  -1.289   3.184  0.00  0.00     0.078 C 
ATOM      2  C1  UNL d   1      -2.845  -0.279   2.662  0.00  0.00    -0.077 A 
ATOM      3  C2  UNL d   1      -2.881   1.052   3.099  0.00  0.00    -0.001 A 
ATOM      4  C3  UNL d   1      -1.971   1.983   2.597  0.00  0.00     0.003 A 
ATOM      5  C4  UNL d   1      -1.019   1.595   1.656  0.00  0.00    -0.005 A 
ATOM      6  C5  UNL d   1      -0.978   0.275   1.214  0.00  0.00     0.003 A 
ATOM      7  C6  UNL d   1      -1.887  -0.659   1.715  0.00  0.00    -0.001 A 
ENDROOT
TORSDOF 0
ENDMDL
