MODEL 1
REMARK minimizedAffinity -2.89981937
REMARK minimizedRMSD -1
REMARK  0 active torsions:
REMARK  status: ('A' for Active; 'I' for Inactive)
ROOT
ATOM      1  C   UNL d   1       2.472  -1.041  -1.641  0.00  0.00     0.078 C 
ATOM      2  C1  UNL d   1       1.275  -0.664  -0.821  0.00  0.00    -0.077 A 
ATOM      3  C2  UNL d   1       0.869   0.671  -0.707  0.00  0.00    -0.001 A 
ATOM      4  C3  UNL d   1      -0.241   1.008   0.068  0.00  0.00     0.003 A 
ATOM      5  C4  UNL d   1      -0.955   0.016   0.736  0.00  0.00    -0.005 A 
ATOM      6  C5  UNL d   1      -0.558  -1.316   0.631  0.00  0.00     0.003 A 
ATOM      7  C6  UNL d   1       0.552  -1.655  -0.144  0.00  0.00    -0.001 A 
ENDROOT
TORSDOF 0
ENDMDL
