MODEL 1
REMARK minimizedAffinity -4.85832596
REMARK minimizedRMSD -1
REMARK  0 active torsions:
REMARK  status: ('A' for Active; 'I' for Inactive)
ROOT
ATOM      1  C   UNL d   1       2.991  -0.690  -1.392  0.00  0.00     0.078 C 
ATOM      2  C1  UNL d   1       1.639  -0.485  -0.776  0.00  0.00    -0.077 A 
ATOM      3  C2  UNL d   1       1.029   0.775  -0.778  0.00  0.00    -0.001 A 
ATOM      4  C3  UNL d   1      -0.225   0.953  -0.192  0.00  0.00     0.003 A 
ATOM      5  C4  UNL d   1      -0.879  -0.125   0.401  0.00  0.00    -0.005 A 
ATOM      6  C5  UNL d   1      -0.279  -1.382   0.410  0.00  0.00     0.003 A 
ATOM      7  C6  UNL d   1       0.975  -1.562  -0.175  0.00  0.00    -0.001 A 
ENDROOT
TORSDOF 0
ENDMDL
