MODEL 1
REMARK minimizedAffinity -3.76759887
REMARK minimizedRMSD -1
REMARK  0 active torsions:
REMARK  status: ('A' for Active; 'I' for Inactive)
ROOT
ATOM      1  C   UNL d   1      -1.099   0.047   0.189  0.00  0.00     0.078 C 
ATOM      2  C1  UNL d   1      -1.638   0.470   1.523  0.00  0.00    -0.077 A 
ATOM      3  C2  UNL d   1      -2.823  -0.078   2.029  0.00  0.00    -0.001 A 
ATOM      4  C3  UNL d   1      -3.318   0.332   3.268  0.00  0.00     0.003 A 
ATOM      5  C4  UNL d   1      -2.635   1.293   4.011  0.00  0.00    -0.005 A 
ATOM      6  C5  UNL d   1      -1.456   1.846   3.515  0.00  0.00     0.003 A 
ATOM      7  C6  UNL d   1      -0.960   1.437   2.276  0.00  0.00    -0.001 A 
ENDROOT
TORSDOF 0
ENDMDL
