MODEL 1
REMARK minimizedAffinity 7.74287224
REMARK minimizedRMSD -1
REMARK  0 active torsions:
REMARK  status: ('A' for Active; 'I' for Inactive)
ROOT
ATOM      1  C   UNL d   1       1.577   1.086  -1.356  0.00  0.00     0.078 C 
ATOM      2  C1  UNL d   1       0.335   0.925  -0.531  0.00  0.00    -0.077 A 
ATOM      3  C2  UNL d   1      -0.658   0.006  -0.893  0.00  0.00    -0.001 A 
ATOM      4  C3  UNL d   1      -1.813  -0.126  -0.122  0.00  0.00     0.003 A 
ATOM      5  C4  UNL d   1      -1.987   0.659   1.017  0.00  0.00    -0.005 A 
ATOM      6  C5  UNL d   1      -1.006   1.577   1.384  0.00  0.00     0.003 A 
ATOM      7  C6  UNL d   1       0.150   1.711   0.613  0.00  0.00    -0.001 A 
ENDROOT
TORSDOF 0
ENDMDL
