MODEL 1
REMARK minimizedAffinity -4.42416096
REMARK minimizedRMSD -1
REMARK  0 active torsions:
REMARK  status: ('A' for Active; 'I' for Inactive)
ROOT
ATOM      1  C   UNL d   1       3.244  -0.831  -1.614  0.00  0.00     0.078 C 
ATOM      2  C1  UNL d   1       1.926  -0.669  -0.916  0.00  0.00    -0.077 A 
ATOM      3  C2  UNL d   1       1.385   0.602  -0.683  0.00  0.00    -0.001 A 
ATOM      4  C3  UNL d   1       0.163   0.738  -0.024  0.00  0.00     0.003 A 
ATOM      5  C4  UNL d   1      -0.529  -0.392   0.408  0.00  0.00    -0.005 A 
ATOM      6  C5  UNL d   1       0.002  -1.660   0.183  0.00  0.00     0.003 A 
ATOM      7  C6  UNL d   1       1.225  -1.798  -0.476  0.00  0.00    -0.001 A 
ENDROOT
TORSDOF 0
ENDMDL
