MODEL 1
REMARK minimizedAffinity -2.55541873
REMARK minimizedRMSD -1
REMARK  0 active torsions:
REMARK  status: ('A' for Active; 'I' for Inactive)
ROOT
ATOM      1  C   UNL d   1       1.917   2.297  -3.160  0.00  0.00     0.078 C 
ATOM      2  C1  UNL d   1       1.794   1.236  -2.108  0.00  0.00    -0.077 A 
ATOM      3  C2  UNL d   1       2.616   0.103  -2.127  0.00  0.00    -0.001 A 
ATOM      4  C3  UNL d   1       2.483  -0.882  -1.146  0.00  0.00     0.003 A 
ATOM      5  C4  UNL d   1       1.529  -0.744  -0.140  0.00  0.00    -0.005 A 
ATOM      6  C5  UNL d   1       0.705   0.379  -0.115  0.00  0.00     0.003 A 
ATOM      7  C6  UNL d   1       0.836   1.365  -1.094  0.00  0.00    -0.001 A 
ENDROOT
TORSDOF 0
ENDMDL
