MODEL 1
REMARK minimizedAffinity -5.0643096
REMARK minimizedRMSD -1
REMARK  0 active torsions:
REMARK  status: ('A' for Active; 'I' for Inactive)
ROOT
ATOM      1  C   UNL d   1       2.091  -1.916  -0.581  0.00  0.00     0.078 C 
ATOM      2  C1  UNL d   1       1.715  -0.574  -1.133  0.00  0.00    -0.077 A 
ATOM      3  C2  UNL d   1       0.654   0.159  -0.586  0.00  0.00    -0.001 A 
ATOM      4  C3  UNL d   1       0.309   1.403  -1.116  0.00  0.00     0.003 A 
ATOM      5  C4  UNL d   1       1.018   1.925  -2.196  0.00  0.00    -0.005 A 
ATOM      6  C5  UNL d   1       2.074   1.202  -2.748  0.00  0.00     0.003 A 
ATOM      7  C6  UNL d   1       2.421  -0.042  -2.219  0.00  0.00    -0.001 A 
ENDROOT
TORSDOF 0
ENDMDL
