MODEL 1
REMARK minimizedAffinity 18.8864021
REMARK minimizedRMSD -1
REMARK  0 active torsions:
REMARK  status: ('A' for Active; 'I' for Inactive)
ROOT
ATOM      1  C   UNL d   1      -1.874  -2.450   4.644  0.00  0.00    -0.002 A 
ATOM      2  C1  UNL d   1      -1.192  -1.473   5.355  0.00  0.00     0.010 A 
ATOM      3  C2  UNL d   1      -0.233  -0.676   4.727  0.00  0.00     0.041 A 
ATOM      4  C3  UNL d   1       0.031  -0.879   3.358  0.00  0.00    -0.075 A 
ATOM      5  S   UNL d   1       1.162  -0.022   2.379  0.00  0.00     0.015 SA
ATOM      6  C4  UNL d   1       0.766  -0.932   0.993  0.00  0.00     0.022 A 
ATOM      7  C5  UNL d   1      -0.204  -1.871   1.253  0.00  0.00     0.026 A 
ATOM      8  C6  UNL d   1      -0.644  -1.856   2.620  0.00  0.00    -0.082 A 
ATOM      9  C7  UNL d   1      -1.610  -2.648   3.286  0.00  0.00     0.045 A 
ENDROOT
TORSDOF 0
ENDMDL
