MODEL 1
REMARK minimizedAffinity 13.5019236
REMARK minimizedRMSD -1
REMARK  0 active torsions:
REMARK  status: ('A' for Active; 'I' for Inactive)
ROOT
ATOM      1  C   UNL d   1      -3.041  -1.606   6.000  0.00  0.00    -0.002 A 
ATOM      2  C1  UNL d   1      -3.246  -2.503   4.962  0.00  0.00     0.010 A 
ATOM      3  C2  UNL d   1      -2.369  -2.546   3.876  0.00  0.00     0.041 A 
ATOM      4  C3  UNL d   1      -1.271  -1.664   3.852  0.00  0.00    -0.075 A 
ATOM      5  S   UNL d   1      -0.066  -1.537   2.626  0.00  0.00     0.015 SA
ATOM      6  C4  UNL d   1       0.750  -0.289   3.452  0.00  0.00     0.022 A 
ATOM      7  C5  UNL d   1       0.132   0.036   4.636  0.00  0.00     0.026 A 
ATOM      8  C6  UNL d   1      -1.043  -0.751   4.886  0.00  0.00    -0.082 A 
ATOM      9  C7  UNL d   1      -1.950  -0.732   5.973  0.00  0.00     0.045 A 
ENDROOT
TORSDOF 0
ENDMDL
