MODEL 1
REMARK minimizedAffinity 10.6710911
REMARK minimizedRMSD -1
REMARK  0 active torsions:
REMARK  status: ('A' for Active; 'I' for Inactive)
ROOT
ATOM      1  C   UNL d   1      -1.937  -3.533   0.197  0.00  0.00    -0.002 A 
ATOM      2  C1  UNL d   1      -2.465  -2.973   1.352  0.00  0.00     0.010 A 
ATOM      3  C2  UNL d   1      -3.721  -3.364   1.820  0.00  0.00     0.041 A 
ATOM      4  C3  UNL d   1      -4.443  -4.338   1.102  0.00  0.00    -0.075 A 
ATOM      5  S   UNL d   1      -6.000  -4.971   1.488  0.00  0.00     0.015 SA
ATOM      6  C4  UNL d   1      -6.000  -6.000   0.129  0.00  0.00     0.022 A 
ATOM      7  C5  UNL d   1      -4.849  -5.876  -0.612  0.00  0.00     0.026 A 
ATOM      8  C6  UNL d   1      -3.932  -4.916  -0.063  0.00  0.00    -0.082 A 
ATOM      9  C7  UNL d   1      -2.656  -4.498  -0.512  0.00  0.00     0.045 A 
ENDROOT
TORSDOF 0
ENDMDL
