MODEL 1
REMARK minimizedAffinity 17.3764935
REMARK minimizedRMSD -1
REMARK  0 active torsions:
REMARK  status: ('A' for Active; 'I' for Inactive)
ROOT
ATOM      1  C   UNL d   1       4.133  -1.048   1.104  0.00  0.00    -0.002 A 
ATOM      2  C1  UNL d   1       4.151   0.049   1.954  0.00  0.00     0.010 A 
ATOM      3  C2  UNL d   1       3.069   0.311   2.798  0.00  0.00     0.041 A 
ATOM      4  C3  UNL d   1       1.960  -0.557   2.774  0.00  0.00    -0.075 A 
ATOM      5  S   UNL d   1       0.524  -0.434   3.720  0.00  0.00     0.015 SA
ATOM      6  C4  UNL d   1      -0.147  -1.835   3.018  0.00  0.00     0.022 A 
ATOM      7  C5  UNL d   1       0.691  -2.396   2.083  0.00  0.00     0.026 A 
ATOM      8  C6  UNL d   1       1.919  -1.668   1.927  0.00  0.00    -0.082 A 
ATOM      9  C7  UNL d   1       3.031  -1.907   1.083  0.00  0.00     0.045 A 
ENDROOT
TORSDOF 0
ENDMDL
