MODEL 1
REMARK minimizedAffinity 8.38709545
REMARK minimizedRMSD -1
REMARK  0 active torsions:
REMARK  status: ('A' for Active; 'I' for Inactive)
ROOT
ATOM      1  C   UNL d   1       0.298  -6.000  -5.194  0.00  0.00    -0.002 A 
ATOM      2  C1  UNL d   1       0.239  -5.806  -3.821  0.00  0.00     0.010 A 
ATOM      3  C2  UNL d   1       0.983  -4.793  -3.214  0.00  0.00     0.041 A 
ATOM      4  C3  UNL d   1       1.794  -3.968  -4.018  0.00  0.00    -0.075 A 
ATOM      5  S   UNL d   1       2.791  -2.663  -3.494  0.00  0.00     0.015 SA
ATOM      6  C4  UNL d   1       3.319  -2.331  -5.081  0.00  0.00     0.022 A 
ATOM      7  C5  UNL d   1       2.758  -3.185  -6.000  0.00  0.00     0.026 A 
ATOM      8  C6  UNL d   1       1.869  -4.142  -5.403  0.00  0.00    -0.082 A 
ATOM      9  C7  UNL d   1       1.104  -5.179  -5.988  0.00  0.00     0.045 A 
ENDROOT
TORSDOF 0
ENDMDL
