MODEL 1
REMARK minimizedAffinity 17.2497673
REMARK minimizedRMSD -1
REMARK  0 active torsions:
REMARK  status: ('A' for Active; 'I' for Inactive)
ROOT
ATOM      1  C   UNL d   1      -2.171   3.765  -5.781  0.00  0.00    -0.002 A 
ATOM      2  C1  UNL d   1      -1.585   3.577  -4.538  0.00  0.00     0.010 A 
ATOM      3  C2  UNL d   1      -2.312   3.013  -3.487  0.00  0.00     0.041 A 
ATOM      4  C3  UNL d   1      -3.650   2.635  -3.711  0.00  0.00    -0.075 A 
ATOM      5  S   UNL d   1      -4.734   1.925  -2.573  0.00  0.00     0.015 SA
ATOM      6  C4  UNL d   1      -6.000   1.852  -3.712  0.00  0.00     0.022 A 
ATOM      7  C5  UNL d   1      -5.623   2.354  -4.935  0.00  0.00     0.026 A 
ATOM      8  C6  UNL d   1      -4.262   2.813  -4.955  0.00  0.00    -0.082 A 
ATOM      9  C7  UNL d   1      -3.499   3.388  -5.999  0.00  0.00     0.045 A 
ENDROOT
TORSDOF 0
ENDMDL
