MODEL 1
REMARK minimizedAffinity 13.0683136
REMARK minimizedRMSD -1
REMARK  0 active torsions:
REMARK  status: ('A' for Active; 'I' for Inactive)
ROOT
ATOM      1  C   UNL d   1      -4.107  -5.278  -0.696  0.00  0.00    -0.002 A 
ATOM      2  C1  UNL d   1      -4.667  -4.019  -0.528  0.00  0.00     0.010 A 
ATOM      3  C2  UNL d   1      -4.783  -3.458   0.745  0.00  0.00     0.041 A 
ATOM      4  C3  UNL d   1      -4.321  -4.188   1.857  0.00  0.00    -0.075 A 
ATOM      5  S   UNL d   1      -4.359  -3.700   3.510  0.00  0.00     0.015 SA
ATOM      6  C4  UNL d   1      -3.632  -5.151   4.033  0.00  0.00     0.022 A 
ATOM      7  C5  UNL d   1      -3.360  -5.998   2.985  0.00  0.00     0.026 A 
ATOM      8  C6  UNL d   1      -3.752  -5.457   1.713  0.00  0.00    -0.082 A 
ATOM      9  C7  UNL d   1      -3.650  -6.000   0.410  0.00  0.00     0.045 A 
ENDROOT
TORSDOF 0
ENDMDL
