MODEL 1
REMARK minimizedAffinity 25.9357109
REMARK minimizedRMSD -1
REMARK  0 active torsions:
REMARK  status: ('A' for Active; 'I' for Inactive)
ROOT
ATOM      1  C   UNL d   1       0.514  -1.372   2.467  0.00  0.00    -0.002 A 
ATOM      2  C1  UNL d   1       0.825  -1.689   1.152  0.00  0.00     0.010 A 
ATOM      3  C2  UNL d   1      -0.124  -2.293   0.324  0.00  0.00     0.041 A 
ATOM      4  C3  UNL d   1      -1.403  -2.573   0.844  0.00  0.00    -0.075 A 
ATOM      5  S   UNL d   1      -2.724  -3.307   0.014  0.00  0.00     0.015 SA
ATOM      6  C4  UNL d   1      -3.733  -3.216   1.385  0.00  0.00     0.022 A 
ATOM      7  C5  UNL d   1      -3.093  -2.643   2.458  0.00  0.00     0.026 A 
ATOM      8  C6  UNL d   1      -1.740  -2.262   2.164  0.00  0.00    -0.082 A 
ATOM      9  C7  UNL d   1      -0.756  -1.652   2.979  0.00  0.00     0.045 A 
ENDROOT
TORSDOF 0
ENDMDL
