MODEL 1
REMARK minimizedAffinity 11.1838627
REMARK minimizedRMSD -1
REMARK  0 active torsions:
REMARK  status: ('A' for Active; 'I' for Inactive)
ROOT
ATOM      1  C   UNL d   1       0.326  -3.105   1.167  0.00  0.00    -0.002 A 
ATOM      2  C1  UNL d   1       1.443  -2.798   0.404  0.00  0.00     0.010 A 
ATOM      3  C2  UNL d   1       2.413  -1.917   0.887  0.00  0.00     0.041 A 
ATOM      4  C3  UNL d   1       2.239  -1.345   2.162  0.00  0.00    -0.075 A 
ATOM      5  S   UNL d   1       3.297  -0.240   2.959  0.00  0.00     0.015 SA
ATOM      6  C4  UNL d   1       2.290  -0.150   4.331  0.00  0.00     0.022 A 
ATOM      7  C5  UNL d   1       1.170  -0.937   4.202  0.00  0.00     0.026 A 
ATOM      8  C6  UNL d   1       1.123  -1.639   2.950  0.00  0.00    -0.082 A 
ATOM      9  C7  UNL d   1       0.157  -2.535   2.432  0.00  0.00     0.045 A 
ENDROOT
TORSDOF 0
ENDMDL
