MODEL 1
REMARK minimizedAffinity 2.75921702
REMARK minimizedRMSD -1
REMARK  0 active torsions:
REMARK  status: ('A' for Active; 'I' for Inactive)
ROOT
ATOM      1  C   UNL d   1      -3.745  -3.883   0.026  0.00  0.00    -0.002 A 
ATOM      2  C1  UNL d   1      -3.835  -5.267  -0.030  0.00  0.00     0.010 A 
ATOM      3  C2  UNL d   1      -4.227  -5.999   1.092  0.00  0.00     0.041 A 
ATOM      4  C3  UNL d   1      -4.530  -5.311   2.283  0.00  0.00    -0.075 A 
ATOM      5  S   UNL d   1      -5.031  -5.999   3.783  0.00  0.00     0.015 SA
ATOM      6  C4  UNL d   1      -5.138  -4.472   4.533  0.00  0.00     0.022 A 
ATOM      7  C5  UNL d   1      -4.802  -3.451   3.675  0.00  0.00     0.026 A 
ATOM      8  C6  UNL d   1      -4.447  -3.918   2.364  0.00  0.00    -0.082 A 
ATOM      9  C7  UNL d   1      -4.046  -3.204   1.209  0.00  0.00     0.045 A 
ENDROOT
TORSDOF 0
ENDMDL
