MODEL 1
REMARK minimizedAffinity 19.0966492
REMARK minimizedRMSD -1
REMARK  0 active torsions:
REMARK  status: ('A' for Active; 'I' for Inactive)
ROOT
ATOM      1  C   UNL d   1       1.296   2.647  -0.011  0.00  0.00    -0.002 A 
ATOM      2  C1  UNL d   1       1.549   3.984  -0.281  0.00  0.00     0.010 A 
ATOM      3  C2  UNL d   1       0.795   4.671  -1.236  0.00  0.00     0.041 A 
ATOM      4  C3  UNL d   1      -0.227   3.984  -1.919  0.00  0.00    -0.075 A 
ATOM      5  S   UNL d   1      -1.278   4.621  -3.128  0.00  0.00     0.015 SA
ATOM      6  C4  UNL d   1      -2.088   3.132  -3.314  0.00  0.00     0.022 A 
ATOM      7  C5  UNL d   1      -1.582   2.162  -2.482  0.00  0.00     0.026 A 
ATOM      8  C6  UNL d   1      -0.501   2.637  -1.664  0.00  0.00    -0.082 A 
ATOM      9  C7  UNL d   1       0.281   1.969  -0.691  0.00  0.00     0.045 A 
ENDROOT
TORSDOF 0
ENDMDL
