MODEL 1
REMARK minimizedAffinity 6.97467709
REMARK minimizedRMSD -1
REMARK  0 active torsions:
REMARK  status: ('A' for Active; 'I' for Inactive)
ROOT
ATOM      1  C   UNL d   1       1.881  -0.922  -0.689  0.00  0.00    -0.002 A 
ATOM      2  C1  UNL d   1       2.089  -0.530   0.626  0.00  0.00     0.010 A 
ATOM      3  C2  UNL d   1       1.783   0.768   1.037  0.00  0.00     0.041 A 
ATOM      4  C3  UNL d   1       1.257   1.675   0.096  0.00  0.00    -0.075 A 
ATOM      5  S   UNL d   1       0.807   3.316   0.373  0.00  0.00     0.015 SA
ATOM      6  C4  UNL d   1       0.328   3.536  -1.248  0.00  0.00     0.022 A 
ATOM      7  C5  UNL d   1       0.500   2.395  -1.996  0.00  0.00     0.026 A 
ATOM      8  C6  UNL d   1       1.038   1.304  -1.234  0.00  0.00    -0.082 A 
ATOM      9  C7  UNL d   1       1.360  -0.020  -1.620  0.00  0.00     0.045 A 
ENDROOT
TORSDOF 0
ENDMDL
