MODEL 1
REMARK minimizedAffinity 3.49747062
REMARK minimizedRMSD -1
REMARK  0 active torsions:
REMARK  status: ('A' for Active; 'I' for Inactive)
ROOT
ATOM      1  C   UNL d   1       0.784  -2.577  -1.314  0.00  0.00    -0.002 A 
ATOM      2  C1  UNL d   1       1.394  -2.535  -0.069  0.00  0.00     0.010 A 
ATOM      3  C2  UNL d   1       1.655  -1.313   0.554  0.00  0.00     0.041 A 
ATOM      4  C3  UNL d   1       1.287  -0.122  -0.103  0.00  0.00    -0.075 A 
ATOM      5  S   UNL d   1       1.507   1.490   0.468  0.00  0.00     0.015 SA
ATOM      6  C4  UNL d   1       0.795   2.161  -0.928  0.00  0.00     0.022 A 
ATOM      7  C5  UNL d   1       0.394   1.193  -1.818  0.00  0.00     0.026 A 
ATOM      8  C6  UNL d   1       0.670  -0.138  -1.357  0.00  0.00    -0.082 A 
ATOM      9  C7  UNL d   1       0.420  -1.394  -1.962  0.00  0.00     0.045 A 
ENDROOT
TORSDOF 0
ENDMDL
