MODEL 1
REMARK minimizedAffinity 8.91613007
REMARK minimizedRMSD -1
REMARK  0 active torsions:
REMARK  status: ('A' for Active; 'I' for Inactive)
ROOT
ATOM      1  C   UNL d   1      -4.295   2.261   0.757  0.00  0.00    -0.002 A 
ATOM      2  C1  UNL d   1      -4.488   1.387   1.817  0.00  0.00     0.010 A 
ATOM      3  C2  UNL d   1      -4.038   1.714   3.098  0.00  0.00     0.041 A 
ATOM      4  C3  UNL d   1      -3.386   2.947   3.297  0.00  0.00    -0.075 A 
ATOM      5  S   UNL d   1      -2.752   3.560   4.779  0.00  0.00     0.015 SA
ATOM      6  C4  UNL d   1      -2.210   4.996   4.039  0.00  0.00     0.022 A 
ATOM      7  C5  UNL d   1      -2.498   5.025   2.695  0.00  0.00     0.026 A 
ATOM      8  C6  UNL d   1      -3.181   3.844   2.245  0.00  0.00    -0.082 A 
ATOM      9  C7  UNL d   1      -3.648   3.483   0.958  0.00  0.00     0.045 A 
ENDROOT
TORSDOF 0
ENDMDL
