MODEL 1
REMARK minimizedAffinity 0.540292978
REMARK minimizedRMSD -1
REMARK  0 active torsions:
REMARK  status: ('A' for Active; 'I' for Inactive)
ROOT
ATOM      1  C   UNL d   1       1.139  -1.241  -1.435  0.00  0.00    -0.002 A 
ATOM      2  C1  UNL d   1       2.338  -1.541  -0.806  0.00  0.00     0.010 A 
ATOM      3  C2  UNL d   1       2.849  -0.701   0.186  0.00  0.00     0.041 A 
ATOM      4  C3  UNL d   1       2.126   0.455   0.539  0.00  0.00    -0.075 A 
ATOM      5  S   UNL d   1       2.557   1.629   1.725  0.00  0.00     0.015 SA
ATOM      6  C4  UNL d   1       1.158   2.556   1.425  0.00  0.00     0.022 A 
ATOM      7  C5  UNL d   1       0.370   1.998   0.446  0.00  0.00     0.026 A 
ATOM      8  C6  UNL d   1       0.915   0.778  -0.080  0.00  0.00    -0.082 A 
ATOM      9  C7  UNL d   1       0.424  -0.093  -1.083  0.00  0.00     0.045 A 
ENDROOT
TORSDOF 0
ENDMDL
