MODEL 1
REMARK minimizedAffinity -2.92243338
REMARK minimizedRMSD -1
REMARK  0 active torsions:
REMARK  status: ('A' for Active; 'I' for Inactive)
ROOT
ATOM      1  C   UNL d   1       1.434   0.639  -1.410  0.00  0.00    -0.002 A 
ATOM      2  C1  UNL d   1       1.503   0.419  -0.041  0.00  0.00     0.010 A 
ATOM      3  C2  UNL d   1       1.393   1.483   0.856  0.00  0.00     0.041 A 
ATOM      4  C3  UNL d   1       1.209   2.785   0.349  0.00  0.00    -0.075 A 
ATOM      5  S   UNL d   1       1.048   4.241   1.259  0.00  0.00     0.015 SA
ATOM      6  C4  UNL d   1       0.883   5.189  -0.148  0.00  0.00     0.022 A 
ATOM      7  C5  UNL d   1       0.947   4.430  -1.292  0.00  0.00     0.026 A 
ATOM      8  C6  UNL d   1       1.136   3.031  -1.024  0.00  0.00    -0.082 A 
ATOM      9  C7  UNL d   1       1.251   1.931  -1.908  0.00  0.00     0.045 A 
ENDROOT
TORSDOF 0
ENDMDL
