MODEL 1
REMARK minimizedAffinity 3.54608464
REMARK minimizedRMSD -1
REMARK  0 active torsions:
REMARK  status: ('A' for Active; 'I' for Inactive)
ROOT
ATOM      1  C   UNL d   1       0.890  -2.172  -1.383  0.00  0.00    -0.002 A 
ATOM      2  C1  UNL d   1       1.400  -2.278  -0.096  0.00  0.00     0.010 A 
ATOM      3  C2  UNL d   1       1.674  -1.135   0.656  0.00  0.00     0.041 A 
ATOM      4  C3  UNL d   1       1.423   0.130   0.089  0.00  0.00    -0.075 A 
ATOM      5  S   UNL d   1       1.681   1.668   0.824  0.00  0.00     0.015 SA
ATOM      6  C4  UNL d   1       1.120   2.503  -0.551  0.00  0.00     0.022 A 
ATOM      7  C5  UNL d   1       0.741   1.645  -1.556  0.00  0.00     0.026 A 
ATOM      8  C6  UNL d   1       0.909   0.263  -1.204  0.00  0.00    -0.082 A 
ATOM      9  C7  UNL d   1       0.643  -0.915  -1.941  0.00  0.00     0.045 A 
ENDROOT
TORSDOF 0
ENDMDL
