MODEL 1
REMARK minimizedAffinity 8.57852364
REMARK minimizedRMSD -1
REMARK  0 active torsions:
REMARK  status: ('A' for Active; 'I' for Inactive)
ROOT
ATOM      1  C   UNL d   1       0.986  -0.222   0.864  0.00  0.00    -0.002 A 
ATOM      2  C1  UNL d   1       1.330  -0.855  -0.322  0.00  0.00     0.010 A 
ATOM      3  C2  UNL d   1       1.384  -0.138  -1.519  0.00  0.00     0.041 A 
ATOM      4  C3  UNL d   1       1.085   1.239  -1.503  0.00  0.00    -0.075 A 
ATOM      5  S   UNL d   1       1.087   2.318  -2.847  0.00  0.00     0.015 SA
ATOM      6  C4  UNL d   1       0.633   3.645  -1.878  0.00  0.00     0.022 A 
ATOM      7  C5  UNL d   1       0.478   3.290  -0.559  0.00  0.00     0.026 A 
ATOM      8  C6  UNL d   1       0.737   1.898  -0.321  0.00  0.00    -0.082 A 
ATOM      9  C7  UNL d   1       0.691   1.143   0.876  0.00  0.00     0.045 A 
ENDROOT
TORSDOF 0
ENDMDL
