MODEL 1
REMARK minimizedAffinity -0.582960308
REMARK minimizedRMSD -1
REMARK  0 active torsions:
REMARK  status: ('A' for Active; 'I' for Inactive)
ROOT
ATOM      1  C   UNL d   1       0.693   0.365  -1.594  0.00  0.00    -0.002 A 
ATOM      2  C1  UNL d   1       0.765   1.735  -1.802  0.00  0.00     0.010 A 
ATOM      3  C2  UNL d   1       0.994   2.605  -0.734  0.00  0.00     0.041 A 
ATOM      4  C3  UNL d   1       1.151   2.069   0.559  0.00  0.00    -0.075 A 
ATOM      5  S   UNL d   1       1.440   2.941   2.018  0.00  0.00     0.015 SA
ATOM      6  C4  UNL d   1       1.475   1.516   2.952  0.00  0.00     0.022 A 
ATOM      7  C5  UNL d   1       1.272   0.392   2.185  0.00  0.00     0.026 A 
ATOM      8  C6  UNL d   1       1.083   0.692   0.794  0.00  0.00    -0.082 A 
ATOM      9  C7  UNL d   1       0.850  -0.163  -0.310  0.00  0.00     0.045 A 
ENDROOT
TORSDOF 0
ENDMDL
