MODEL 1
REMARK minimizedAffinity 7.81195021
REMARK minimizedRMSD -1
REMARK  0 active torsions:
REMARK  status: ('A' for Active; 'I' for Inactive)
ROOT
ATOM      1  C   UNL d   1       0.314  -0.457  -1.593  0.00  0.00    -0.002 A 
ATOM      2  C1  UNL d   1       0.890  -1.428  -0.787  0.00  0.00     0.010 A 
ATOM      3  C2  UNL d   1       1.472  -1.083   0.435  0.00  0.00     0.041 A 
ATOM      4  C3  UNL d   1       1.463   0.267   0.837  0.00  0.00    -0.075 A 
ATOM      5  S   UNL d   1       2.115   0.922   2.292  0.00  0.00     0.015 SA
ATOM      6  C4  UNL d   1       1.644   2.507   1.877  0.00  0.00     0.022 A 
ATOM      7  C5  UNL d   1       1.003   2.553   0.662  0.00  0.00     0.026 A 
ATOM      8  C6  UNL d   1       0.888   1.263   0.042  0.00  0.00    -0.082 A 
ATOM      9  C7  UNL d   1       0.307   0.881  -1.191  0.00  0.00     0.045 A 
ENDROOT
TORSDOF 0
ENDMDL
