MODEL 1
REMARK minimizedAffinity 6.06089163
REMARK minimizedRMSD -1
REMARK  0 active torsions:
REMARK  status: ('A' for Active; 'I' for Inactive)
ROOT
ATOM      1  C   UNL d   1       0.931  -0.182  -1.077  0.00  0.00    -0.002 A 
ATOM      2  C1  UNL d   1       0.543   1.106  -1.418  0.00  0.00     0.010 A 
ATOM      3  C2  UNL d   1       0.777   2.172  -0.547  0.00  0.00     0.041 A 
ATOM      4  C3  UNL d   1       1.416   1.919   0.683  0.00  0.00    -0.075 A 
ATOM      5  S   UNL d   1       1.806   3.070   1.906  0.00  0.00     0.015 SA
ATOM      6  C4  UNL d   1       2.499   1.878   2.910  0.00  0.00     0.022 A 
ATOM      7  C5  UNL d   1       2.442   0.628   2.341  0.00  0.00     0.026 A 
ATOM      8  C6  UNL d   1       1.817   0.631   1.048  0.00  0.00    -0.082 A 
ATOM      9  C7  UNL d   1       1.565  -0.429   0.144  0.00  0.00     0.045 A 
ENDROOT
TORSDOF 0
ENDMDL
