MODEL 1
REMARK minimizedAffinity 13.5023279
REMARK minimizedRMSD -1
REMARK  0 active torsions:
REMARK  status: ('A' for Active; 'I' for Inactive)
ROOT
ATOM      1  C   UNL d   1       0.686   1.537  -1.603  0.00  0.00    -0.002 A 
ATOM      2  C1  UNL d   1       0.997   1.974  -2.883  0.00  0.00     0.010 A 
ATOM      3  C2  UNL d   1       1.397   3.293  -3.105  0.00  0.00     0.041 A 
ATOM      4  C3  UNL d   1       1.482   4.173  -2.008  0.00  0.00    -0.075 A 
ATOM      5  S   UNL d   1       1.950   5.832  -2.041  0.00  0.00     0.015 SA
ATOM      6  C4  UNL d   1       1.749   5.999  -0.356  0.00  0.00     0.022 A 
ATOM      7  C5  UNL d   1       1.335   4.828   0.232  0.00  0.00     0.026 A 
ATOM      8  C6  UNL d   1       1.175   3.756  -0.710  0.00  0.00    -0.082 A 
ATOM      9  C7  UNL d   1       0.771   2.413  -0.517  0.00  0.00     0.045 A 
ENDROOT
TORSDOF 0
ENDMDL
