MODEL 1
REMARK minimizedAffinity -2.33202195
REMARK minimizedRMSD -1
REMARK  0 active torsions:
REMARK  status: ('A' for Active; 'I' for Inactive)
ROOT
ATOM      1  C   UNL d   1      -0.660  -1.521  -3.138  0.00  0.00     0.023 A 
ATOM      2  C1  UNL d   1       0.670  -1.104  -3.176  0.00  0.00     0.003 A 
ATOM      3  C2  UNL d   1       1.213  -0.395  -2.102  0.00  0.00     0.048 A 
ATOM      4  C3  UNL d   1       0.419  -0.109  -0.992  0.00  0.00     0.023 A 
ATOM      5  C4  UNL d   1      -0.912  -0.526  -0.948  0.00  0.00     0.048 A 
ATOM      6  C5  UNL d   1      -1.450  -1.233  -2.025  0.00  0.00     0.003 A 
ATOM      7  I   UNL d   1       1.225   0.945   0.609  0.00  0.00    -0.146 I 
ENDROOT
TORSDOF 0
ENDMDL
