MODEL 1
REMARK minimizedAffinity -2.36466789
REMARK minimizedRMSD -1
REMARK  0 active torsions:
REMARK  status: ('A' for Active; 'I' for Inactive)
ROOT
ATOM      1  C   UNL d   1      -0.983   0.678   0.600  0.00  0.00     0.023 A 
ATOM      2  C1  UNL d   1      -1.777   0.317  -0.489  0.00  0.00     0.003 A 
ATOM      3  C2  UNL d   1      -1.212  -0.356  -1.574  0.00  0.00     0.048 A 
ATOM      4  C3  UNL d   1       0.148  -0.666  -1.564  0.00  0.00     0.023 A 
ATOM      5  C4  UNL d   1       0.946  -0.307  -0.476  0.00  0.00     0.048 A 
ATOM      6  C5  UNL d   1       0.377   0.366   0.606  0.00  0.00     0.003 A 
ATOM      7  I   UNL d   1       0.991  -1.668  -3.178  0.00  0.00    -0.146 I 
ENDROOT
TORSDOF 0
ENDMDL
