MODEL 1
REMARK minimizedAffinity -3.90343285
REMARK minimizedRMSD -1
REMARK  0 active torsions:
REMARK  status: ('A' for Active; 'I' for Inactive)
ROOT
ATOM      1  C   UNL d   1      -1.850   0.057   0.089  0.00  0.00     0.023 A 
ATOM      2  C1  UNL d   1      -0.509   0.214   0.438  0.00  0.00     0.003 A 
ATOM      3  C2  UNL d   1       0.485   0.096  -0.536  0.00  0.00     0.048 A 
ATOM      4  C3  UNL d   1       0.130  -0.178  -1.856  0.00  0.00     0.023 A 
ATOM      5  C4  UNL d   1      -1.211  -0.335  -2.210  0.00  0.00     0.048 A 
ATOM      6  C5  UNL d   1      -2.201  -0.217  -1.233  0.00  0.00     0.003 A 
ATOM      7  I   UNL d   1       1.608  -0.353  -3.308  0.00  0.00    -0.146 I 
ENDROOT
TORSDOF 0
ENDMDL
