MODEL 1
REMARK minimizedAffinity -3.31472254
REMARK minimizedRMSD -1
REMARK  0 active torsions:
REMARK  status: ('A' for Active; 'I' for Inactive)
ROOT
ATOM      1  C   UNL d   1      -1.905  -0.373   3.113  0.00  0.00     0.023 A 
ATOM      2  C1  UNL d   1      -2.643  -0.158   1.949  0.00  0.00     0.003 A 
ATOM      3  C2  UNL d   1      -1.990   0.152   0.754  0.00  0.00     0.048 A 
ATOM      4  C3  UNL d   1      -0.599   0.243   0.730  0.00  0.00     0.023 A 
ATOM      5  C4  UNL d   1       0.144   0.027   1.892  0.00  0.00     0.048 A 
ATOM      6  C5  UNL d   1      -0.513  -0.281   3.084  0.00  0.00     0.003 A 
ATOM      7  I   UNL d   1       0.375   0.703  -1.048  0.00  0.00    -0.146 I 
ENDROOT
TORSDOF 0
ENDMDL
