MODEL 1
REMARK minimizedAffinity -5.45020771
REMARK minimizedRMSD -1
REMARK  0 active torsions:
REMARK  status: ('A' for Active; 'I' for Inactive)
ROOT
ATOM      1  C   UNL d   1      -2.213   0.186   2.149  0.00  0.00     0.023 A 
ATOM      2  C1  UNL d   1      -3.078   0.310   1.061  0.00  0.00     0.003 A 
ATOM      3  C2  UNL d   1      -2.628   0.013  -0.227  0.00  0.00     0.048 A 
ATOM      4  C3  UNL d   1      -1.313  -0.409  -0.420  0.00  0.00     0.023 A 
ATOM      5  C4  UNL d   1      -0.445  -0.536   0.665  0.00  0.00     0.048 A 
ATOM      6  C5  UNL d   1      -0.899  -0.236   1.951  0.00  0.00     0.003 A 
ATOM      7  I   UNL d   1      -0.642  -0.853  -2.336  0.00  0.00    -0.146 I 
ENDROOT
TORSDOF 0
ENDMDL
