MODEL 1
REMARK minimizedAffinity -4.74764872
REMARK minimizedRMSD -1
REMARK  0 active torsions:
REMARK  status: ('A' for Active; 'I' for Inactive)
ROOT
ATOM      1  C   UNL d   1      -2.744   0.466  -0.798  0.00  0.00     0.023 A 
ATOM      2  C1  UNL d   1      -1.379   0.179  -0.818  0.00  0.00     0.003 A 
ATOM      3  C2  UNL d   1      -0.716  -0.145   0.367  0.00  0.00     0.048 A 
ATOM      4  C3  UNL d   1      -1.424  -0.182   1.568  0.00  0.00     0.023 A 
ATOM      5  C4  UNL d   1      -2.790   0.103   1.592  0.00  0.00     0.048 A 
ATOM      6  C5  UNL d   1      -3.449   0.428   0.405  0.00  0.00     0.003 A 
ATOM      7  I   UNL d   1      -0.438  -0.665   3.333  0.00  0.00    -0.146 I 
ENDROOT
TORSDOF 0
ENDMDL
