MODEL 1
REMARK minimizedAffinity -5.43274498
REMARK minimizedRMSD -1
REMARK  0 active torsions:
REMARK  status: ('A' for Active; 'I' for Inactive)
ROOT
ATOM      1  C   UNL d   1      -1.415  -0.531   2.985  0.00  0.00     0.023 A 
ATOM      2  C1  UNL d   1      -0.086  -0.661   2.581  0.00  0.00     0.003 A 
ATOM      3  C2  UNL d   1       0.256  -0.492   1.238  0.00  0.00     0.048 A 
ATOM      4  C3  UNL d   1      -0.735  -0.191   0.304  0.00  0.00     0.023 A 
ATOM      5  C4  UNL d   1      -2.066  -0.059   0.704  0.00  0.00     0.048 A 
ATOM      6  C5  UNL d   1      -2.403  -0.230   2.048  0.00  0.00     0.003 A 
ATOM      7  I   UNL d   1      -0.228   0.062  -1.696  0.00  0.00    -0.146 I 
ENDROOT
TORSDOF 0
ENDMDL
