MODEL 1
REMARK minimizedAffinity -2.68236351
REMARK minimizedRMSD -1
REMARK  0 active torsions:
REMARK  status: ('A' for Active; 'I' for Inactive)
ROOT
ATOM      1  C   UNL d   1      -1.612   0.351   0.062  0.00  0.00     0.023 A 
ATOM      2  C1  UNL d   1      -2.068  -0.186  -1.142  0.00  0.00     0.003 A 
ATOM      3  C2  UNL d   1      -1.156  -0.564  -2.129  0.00  0.00     0.048 A 
ATOM      4  C3  UNL d   1       0.211  -0.405  -1.906  0.00  0.00     0.023 A 
ATOM      5  C4  UNL d   1       0.672   0.130  -0.702  0.00  0.00     0.048 A 
ATOM      6  C5  UNL d   1      -0.243   0.508   0.282  0.00  0.00     0.003 A 
ATOM      7  I   UNL d   1       1.570  -0.968  -3.374  0.00  0.00    -0.146 I 
ENDROOT
TORSDOF 0
ENDMDL
