MODEL 1
REMARK minimizedAffinity -1.40739071
REMARK minimizedRMSD -1
REMARK  0 active torsions:
REMARK  status: ('A' for Active; 'I' for Inactive)
ROOT
ATOM      1  C   UNL d   1      -2.052  -1.133  -1.725  0.00  0.00     0.023 A 
ATOM      2  C1  UNL d   1      -1.443  -1.914  -2.708  0.00  0.00     0.003 A 
ATOM      3  C2  UNL d   1      -0.155  -1.605  -3.148  0.00  0.00     0.048 A 
ATOM      4  C3  UNL d   1       0.520  -0.514  -2.601  0.00  0.00     0.023 A 
ATOM      5  C4  UNL d   1      -0.085   0.270  -1.617  0.00  0.00     0.048 A 
ATOM      6  C5  UNL d   1      -1.374  -0.043  -1.180  0.00  0.00     0.003 A 
ATOM      7  I   UNL d   1       2.438  -0.051  -3.255  0.00  0.00    -0.146 I 
ENDROOT
TORSDOF 0
ENDMDL
