MODEL 1
REMARK minimizedAffinity -1.03974056
REMARK minimizedRMSD -1
REMARK  0 active torsions:
REMARK  status: ('A' for Active; 'I' for Inactive)
ROOT
ATOM      1  C   UNL d   1      -0.374   0.512   1.351  0.00  0.00     0.023 A 
ATOM      2  C1  UNL d   1       0.993   0.390   1.102  0.00  0.00     0.003 A 
ATOM      3  C2  UNL d   1       1.442  -0.014  -0.157  0.00  0.00     0.048 A 
ATOM      4  C3  UNL d   1       0.518  -0.292  -1.164  0.00  0.00     0.023 A 
ATOM      5  C4  UNL d   1      -0.851  -0.170  -0.920  0.00  0.00     0.048 A 
ATOM      6  C5  UNL d   1      -1.295   0.233   0.341  0.00  0.00     0.003 A 
ATOM      7  I   UNL d   1       1.183  -0.893  -3.039  0.00  0.00    -0.146 I 
ENDROOT
TORSDOF 0
ENDMDL
