MODEL 1
REMARK minimizedAffinity -2.9068656
REMARK minimizedRMSD -1
REMARK  0 active torsions:
REMARK  status: ('A' for Active; 'I' for Inactive)
ROOT
ATOM      1  C   UNL d   1      -1.513   0.504  -0.044  0.00  0.00     0.023 A 
ATOM      2  C1  UNL d   1      -0.170   0.854   0.092  0.00  0.00     0.003 A 
ATOM      3  C2  UNL d   1       0.771   0.387  -0.828  0.00  0.00     0.048 A 
ATOM      4  C3  UNL d   1       0.362  -0.429  -1.882  0.00  0.00     0.023 A 
ATOM      5  C4  UNL d   1      -0.981  -0.781  -2.023  0.00  0.00     0.048 A 
ATOM      6  C5  UNL d   1      -1.918  -0.313  -1.100  0.00  0.00     0.003 A 
ATOM      7  I   UNL d   1       1.762  -1.124  -3.252  0.00  0.00    -0.146 I 
ENDROOT
TORSDOF 0
ENDMDL
