MODEL 1
REMARK minimizedAffinity -3.76020885
REMARK minimizedRMSD -1
REMARK  0 active torsions:
REMARK  status: ('A' for Active; 'I' for Inactive)
ROOT
ATOM      1  C   UNL d   1       0.963   0.329   1.491  0.00  0.00     0.023 A 
ATOM      2  C1  UNL d   1       0.707  -1.010   1.194  0.00  0.00     0.003 A 
ATOM      3  C2  UNL d   1       0.463  -1.399  -0.125  0.00  0.00     0.048 A 
ATOM      4  C3  UNL d   1       0.478  -0.444  -1.141  0.00  0.00     0.023 A 
ATOM      5  C4  UNL d   1       0.735   0.896  -0.848  0.00  0.00     0.048 A 
ATOM      6  C5  UNL d   1       0.977   1.281   0.472  0.00  0.00     0.003 A 
ATOM      7  I   UNL d   1       0.115  -1.021  -3.105  0.00  0.00    -0.146 I 
ENDROOT
TORSDOF 0
ENDMDL
