MODEL 1
REMARK minimizedAffinity -4.64466095
REMARK minimizedRMSD -1
REMARK  0 active torsions:
REMARK  status: ('A' for Active; 'I' for Inactive)
ROOT
ATOM      1  C   UNL d   1       0.246  -0.161   2.627  0.00  0.00     0.023 A 
ATOM      2  C1  UNL d   1       0.823   0.391   1.483  0.00  0.00     0.003 A 
ATOM      3  C2  UNL d   1       0.329   0.057   0.220  0.00  0.00     0.048 A 
ATOM      4  C3  UNL d   1      -0.742  -0.829   0.109  0.00  0.00     0.023 A 
ATOM      5  C4  UNL d   1      -1.323  -1.383   1.250  0.00  0.00     0.048 A 
ATOM      6  C5  UNL d   1      -0.825  -1.047   2.511  0.00  0.00     0.003 A 
ATOM      7  I   UNL d   1      -1.479  -1.327  -1.770  0.00  0.00    -0.146 I 
ENDROOT
TORSDOF 0
ENDMDL
