MODEL 1
REMARK minimizedAffinity -4.03700113
REMARK minimizedRMSD -1
REMARK  1 active torsions:
REMARK  status: ('A' for Active; 'I' for Inactive)
REMARK    1  A    between atoms: C1_2  and  C2_3 
ROOT
ATOM      1  C2  UNL d   1      -3.628   0.785   2.824  0.00  0.00    -0.076 A 
ATOM      2  C3  UNL d   1      -3.522   0.801   4.226  0.00  0.00     0.004 A 
ATOM      3  C4  UNL d   1      -4.624   1.097   5.025  0.00  0.00    -0.003 A 
ATOM      4  C5  UNL d   1      -5.851   1.381   4.436  0.00  0.00     0.000 A 
ATOM      5  C6  UNL d   1      -5.979   1.353   3.048  0.00  0.00     0.000 A 
ATOM      6  C7  UNL d   1      -4.881   1.041   2.228  0.00  0.00    -0.073 A 
ATOM      7  C8  UNL d   1      -5.074   1.031   0.736  0.00  0.00     0.078 C 
ENDROOT
BRANCH   1   8
ATOM      8  C1  UNL d   1      -2.391   0.485   2.007  0.00  0.00     0.053 C 
ATOM      9  C   UNL d   1      -2.253  -0.995   1.683  0.00  0.00     0.018 C 
ENDBRANCH   1   8
TORSDOF 1
ENDMDL
