MODEL 1
REMARK minimizedAffinity 10.4874506
REMARK minimizedRMSD -1
REMARK  1 active torsions:
REMARK  status: ('A' for Active; 'I' for Inactive)
REMARK    1  A    between atoms: C1_2  and  C2_3 
ROOT
ATOM      1  C2  UNL d   1       4.447   3.854  -1.261  0.00  0.00    -0.076 A 
ATOM      2  C3  UNL d   1       3.840   2.909  -2.106  0.00  0.00     0.004 A 
ATOM      3  C4  UNL d   1       3.883   3.054  -3.492  0.00  0.00    -0.003 A 
ATOM      4  C5  UNL d   1       4.533   4.146  -4.055  0.00  0.00     0.000 A 
ATOM      5  C6  UNL d   1       5.156   5.084  -3.232  0.00  0.00     0.000 A 
ATOM      6  C7  UNL d   1       5.136   4.944  -1.834  0.00  0.00    -0.073 A 
ATOM      7  C8  UNL d   1       5.819   5.989  -0.995  0.00  0.00     0.078 C 
ENDROOT
BRANCH   1   8
ATOM      8  C1  UNL d   1       4.346   3.659   0.235  0.00  0.00     0.053 C 
ATOM      9  C   UNL d   1       4.028   2.221   0.615  0.00  0.00     0.018 C 
ENDBRANCH   1   8
TORSDOF 1
ENDMDL
