MODEL 1
REMARK minimizedAffinity 3.31411839
REMARK minimizedRMSD -1
REMARK  1 active torsions:
REMARK  status: ('A' for Active; 'I' for Inactive)
REMARK    1  A    between atoms: C1_2  and  C2_3 
ROOT
ATOM      1  C2  UNL d   1      -3.516   0.838   1.291  0.00  0.00    -0.076 A 
ATOM      2  C3  UNL d   1      -2.676  -0.118   0.693  0.00  0.00     0.004 A 
ATOM      3  C4  UNL d   1      -1.625  -0.695   1.405  0.00  0.00    -0.003 A 
ATOM      4  C5  UNL d   1      -1.398  -0.326   2.726  0.00  0.00     0.000 A 
ATOM      5  C6  UNL d   1      -2.232   0.608   3.340  0.00  0.00     0.000 A 
ATOM      6  C7  UNL d   1      -3.306   1.187   2.642  0.00  0.00    -0.073 A 
ATOM      7  C8  UNL d   1      -4.170   2.193   3.352  0.00  0.00     0.078 C 
ENDROOT
BRANCH   1   8
ATOM      8  C1  UNL d   1      -4.622   1.449   0.462  0.00  0.00     0.053 C 
ATOM      9  C   UNL d   1      -4.479   1.139  -1.020  0.00  0.00     0.018 C 
ENDBRANCH   1   8
TORSDOF 1
ENDMDL
