MODEL 1
REMARK minimizedAffinity 9.17378998
REMARK minimizedRMSD -1
REMARK  1 active torsions:
REMARK  status: ('A' for Active; 'I' for Inactive)
REMARK    1  A    between atoms: C1_2  and  C2_3 
ROOT
ATOM      1  C2  UNL d   1       3.380   4.469  -3.163  0.00  0.00    -0.076 A 
ATOM      2  C3  UNL d   1       3.650   5.270  -2.040  0.00  0.00     0.004 A 
ATOM      3  C4  UNL d   1       4.949   5.683  -1.749  0.00  0.00    -0.003 A 
ATOM      4  C5  UNL d   1       5.999   5.301  -2.576  0.00  0.00     0.000 A 
ATOM      5  C6  UNL d   1       5.747   4.521  -3.704  0.00  0.00     0.000 A 
ATOM      6  C7  UNL d   1       4.441   4.110  -4.021  0.00  0.00    -0.073 A 
ATOM      7  C8  UNL d   1       4.227   3.264  -5.247  0.00  0.00     0.078 C 
ENDROOT
BRANCH   1   8
ATOM      8  C1  UNL d   1       1.955   4.029  -3.413  0.00  0.00     0.053 C 
ATOM      9  C   UNL d   1       0.938   4.926  -2.722  0.00  0.00     0.018 C 
ENDBRANCH   1   8
TORSDOF 1
ENDMDL
