MODEL 1
REMARK minimizedAffinity 4.16907406
REMARK minimizedRMSD -1
REMARK  1 active torsions:
REMARK  status: ('A' for Active; 'I' for Inactive)
REMARK    1  A    between atoms: C1_2  and  C2_3 
ROOT
ATOM      1  C2  UNL d   1      -3.090   0.022   1.840  0.00  0.00    -0.076 A 
ATOM      2  C3  UNL d   1      -2.565  -0.977   1.001  0.00  0.00     0.004 A 
ATOM      3  C4  UNL d   1      -1.351  -1.594   1.294  0.00  0.00    -0.003 A 
ATOM      4  C5  UNL d   1      -0.641  -1.223   2.431  0.00  0.00     0.000 A 
ATOM      5  C6  UNL d   1      -1.155  -0.247   3.284  0.00  0.00     0.000 A 
ATOM      6  C7  UNL d   1      -2.387   0.374   3.012  0.00  0.00    -0.073 A 
ATOM      7  C8  UNL d   1      -2.891   1.425   3.962  0.00  0.00     0.078 C 
ENDROOT
BRANCH   1   8
ATOM      8  C1  UNL d   1      -4.399   0.676   1.457  0.00  0.00     0.053 C 
ATOM      9  C   UNL d   1      -4.897   0.226   0.092  0.00  0.00     0.018 C 
ENDBRANCH   1   8
TORSDOF 1
ENDMDL
