MODEL 1
REMARK minimizedAffinity 4.22214031
REMARK minimizedRMSD -1
REMARK  1 active torsions:
REMARK  status: ('A' for Active; 'I' for Inactive)
REMARK    1  A    between atoms: C1_2  and  C2_3 
ROOT
ATOM      1  C2  UNL d   1      -0.964  -5.557  -4.972  0.00  0.00    -0.076 A 
ATOM      2  C3  UNL d   1      -0.109  -5.998  -5.997  0.00  0.00     0.004 A 
ATOM      3  C4  UNL d   1       1.273  -5.849  -5.892  0.00  0.00    -0.003 A 
ATOM      4  C5  UNL d   1       1.822  -5.257  -4.760  0.00  0.00     0.000 A 
ATOM      5  C6  UNL d   1       0.991  -4.831  -3.726  0.00  0.00     0.000 A 
ATOM      6  C7  UNL d   1      -0.404  -4.988  -3.808  0.00  0.00    -0.073 A 
ATOM      7  C8  UNL d   1      -1.254  -4.504  -2.665  0.00  0.00     0.078 C 
ENDROOT
BRANCH   1   8
ATOM      8  C1  UNL d   1      -2.456  -5.721  -5.153  0.00  0.00     0.053 C 
ATOM      9  C   UNL d   1      -3.239  -4.516  -4.654  0.00  0.00     0.018 C 
ENDBRANCH   1   8
TORSDOF 1
ENDMDL
