MODEL 1
REMARK minimizedAffinity 6.63121319
REMARK minimizedRMSD -1
REMARK  1 active torsions:
REMARK  status: ('A' for Active; 'I' for Inactive)
REMARK    1  A    between atoms: C1_2  and  C2_3 
ROOT
ATOM      1  C2  UNL d   1      -2.726  -0.576   1.767  0.00  0.00    -0.076 A 
ATOM      2  C3  UNL d   1      -3.607  -0.278   0.712  0.00  0.00     0.004 A 
ATOM      3  C4  UNL d   1      -4.445   0.834   0.770  0.00  0.00    -0.003 A 
ATOM      4  C5  UNL d   1      -4.416   1.667   1.883  0.00  0.00     0.000 A 
ATOM      5  C6  UNL d   1      -3.535   1.397   2.931  0.00  0.00     0.000 A 
ATOM      6  C7  UNL d   1      -2.672   0.289   2.881  0.00  0.00    -0.073 A 
ATOM      7  C8  UNL d   1      -1.748   0.041   4.041  0.00  0.00     0.078 C 
ENDROOT
BRANCH   1   8
ATOM      8  C1  UNL d   1      -1.860  -1.811   1.660  0.00  0.00     0.053 C 
ATOM      9  C   UNL d   1      -0.442  -1.491   1.212  0.00  0.00     0.018 C 
ENDBRANCH   1   8
TORSDOF 1
ENDMDL
