MODEL 1
REMARK minimizedAffinity 8.84675407
REMARK minimizedRMSD -1
REMARK  1 active torsions:
REMARK  status: ('A' for Active; 'I' for Inactive)
REMARK    1  A    between atoms: C1_2  and  C2_3 
ROOT
ATOM      1  C2  UNL d   1      -3.712   0.232   0.908  0.00  0.00    -0.076 A 
ATOM      2  C3  UNL d   1      -2.658  -0.587   0.467  0.00  0.00     0.004 A 
ATOM      3  C4  UNL d   1      -2.616  -1.059  -0.844  0.00  0.00    -0.003 A 
ATOM      4  C5  UNL d   1      -3.628  -0.718  -1.736  0.00  0.00     0.000 A 
ATOM      5  C6  UNL d   1      -4.672   0.108  -1.320  0.00  0.00     0.000 A 
ATOM      6  C7  UNL d   1      -4.720   0.605  -0.006  0.00  0.00    -0.073 A 
ATOM      7  C8  UNL d   1      -5.872   1.487   0.390  0.00  0.00     0.078 C 
ENDROOT
BRANCH   1   8
ATOM      8  C1  UNL d   1      -3.718   0.691   2.349  0.00  0.00     0.053 C 
ATOM      9  C   UNL d   1      -2.342   0.611   2.991  0.00  0.00     0.018 C 
ENDBRANCH   1   8
TORSDOF 1
ENDMDL
