MODEL 1
REMARK minimizedAffinity 3.33722663
REMARK minimizedRMSD -1
REMARK  1 active torsions:
REMARK  status: ('A' for Active; 'I' for Inactive)
REMARK    1  A    between atoms: C1_2  and  C2_3 
ROOT
ATOM      1  C2  UNL d   1      -1.659  -0.990   2.235  0.00  0.00    -0.076 A 
ATOM      2  C3  UNL d   1      -0.597  -1.910   2.264  0.00  0.00     0.004 A 
ATOM      3  C4  UNL d   1       0.373  -1.856   3.265  0.00  0.00    -0.003 A 
ATOM      4  C5  UNL d   1       0.295  -0.881   4.253  0.00  0.00     0.000 A 
ATOM      5  C6  UNL d   1      -0.762   0.029   4.250  0.00  0.00     0.000 A 
ATOM      6  C7  UNL d   1      -1.756  -0.022   3.258  0.00  0.00    -0.073 A 
ATOM      7  C8  UNL d   1      -2.870   0.988   3.299  0.00  0.00     0.078 C 
ENDROOT
BRANCH   1   8
ATOM      8  C1  UNL d   1      -2.665  -1.081   1.111  0.00  0.00     0.053 C 
ATOM      9  C   UNL d   1      -3.451  -2.383   1.136  0.00  0.00     0.018 C 
ENDBRANCH   1   8
TORSDOF 1
ENDMDL
