MODEL 1
REMARK minimizedAffinity 15.2097664
REMARK minimizedRMSD -1
REMARK  1 active torsions:
REMARK  status: ('A' for Active; 'I' for Inactive)
REMARK    1  A    between atoms: C1_2  and  C2_3 
ROOT
ATOM      1  C2  UNL d   1       4.693   3.806  -3.856  0.00  0.00    -0.076 A 
ATOM      2  C3  UNL d   1       4.393   4.168  -2.531  0.00  0.00     0.004 A 
ATOM      3  C4  UNL d   1       3.192   3.785  -1.938  0.00  0.00    -0.003 A 
ATOM      4  C5  UNL d   1       2.271   3.034  -2.659  0.00  0.00     0.000 A 
ATOM      5  C6  UNL d   1       2.559   2.651  -3.969  0.00  0.00     0.000 A 
ATOM      6  C7  UNL d   1       3.773   3.015  -4.577  0.00  0.00    -0.073 A 
ATOM      7  C8  UNL d   1       4.029   2.580  -5.993  0.00  0.00     0.078 C 
ENDROOT
BRANCH   1   8
ATOM      8  C1  UNL d   1       6.000   4.273  -4.456  0.00  0.00     0.053 C 
ATOM      9  C   UNL d   1       6.000   5.762  -4.767  0.00  0.00     0.018 C 
ENDBRANCH   1   8
TORSDOF 1
ENDMDL
