MODEL 1
REMARK minimizedAffinity 9.24898148
REMARK minimizedRMSD -1
REMARK  1 active torsions:
REMARK  status: ('A' for Active; 'I' for Inactive)
REMARK    1  A    between atoms: C1_2  and  C2_3 
ROOT
ATOM      1  C2  UNL d   1      -1.705   0.028   3.022  0.00  0.00    -0.076 A 
ATOM      2  C3  UNL d   1      -0.389  -0.466   3.031  0.00  0.00     0.004 A 
ATOM      3  C4  UNL d   1       0.007  -1.470   2.148  0.00  0.00    -0.003 A 
ATOM      4  C5  UNL d   1      -0.908  -1.996   1.242  0.00  0.00     0.000 A 
ATOM      5  C6  UNL d   1      -2.213  -1.505   1.208  0.00  0.00     0.000 A 
ATOM      6  C7  UNL d   1      -2.623  -0.482   2.079  0.00  0.00    -0.073 A 
ATOM      7  C8  UNL d   1      -4.044   0.005   2.003  0.00  0.00     0.078 C 
ENDROOT
BRANCH   1   8
ATOM      8  C1  UNL d   1      -2.083   1.099   4.020  0.00  0.00     0.053 C 
ATOM      9  C   UNL d   1      -2.433   0.525   5.385  0.00  0.00     0.018 C 
ENDBRANCH   1   8
TORSDOF 1
ENDMDL
