MODEL 1
REMARK minimizedAffinity 7.98649406
REMARK minimizedRMSD -1
REMARK  1 active torsions:
REMARK  status: ('A' for Active; 'I' for Inactive)
REMARK    1  A    between atoms: C1_2  and  C2_3 
ROOT
ATOM      1  C2  UNL d   1      -4.266   1.485   3.989  0.00  0.00    -0.076 A 
ATOM      2  C3  UNL d   1      -3.208   1.368   4.907  0.00  0.00     0.004 A 
ATOM      3  C4  UNL d   1      -2.005   0.765   4.543  0.00  0.00    -0.003 A 
ATOM      4  C5  UNL d   1      -1.841   0.270   3.254  0.00  0.00     0.000 A 
ATOM      5  C6  UNL d   1      -2.874   0.393   2.325  0.00  0.00     0.000 A 
ATOM      6  C7  UNL d   1      -4.087   1.013   2.672  0.00  0.00    -0.073 A 
ATOM      7  C8  UNL d   1      -5.169   1.113   1.632  0.00  0.00     0.078 C 
ENDROOT
BRANCH   1   8
ATOM      8  C1  UNL d   1      -5.557   2.124   4.449  0.00  0.00     0.053 C 
ATOM      9  C   UNL d   1      -5.443   2.733   5.838  0.00  0.00     0.018 C 
ENDBRANCH   1   8
TORSDOF 1
ENDMDL
