MODEL 1
REMARK minimizedAffinity 8.32853699
REMARK minimizedRMSD -1
REMARK  1 active torsions:
REMARK  status: ('A' for Active; 'I' for Inactive)
REMARK    1  A    between atoms: C1_2  and  C2_3 
ROOT
ATOM      1  C2  UNL d   1       2.613   1.371  -0.109  0.00  0.00    -0.076 A 
ATOM      2  C3  UNL d   1       3.189   1.958  -1.249  0.00  0.00     0.004 A 
ATOM      3  C4  UNL d   1       2.409   2.290  -2.356  0.00  0.00    -0.003 A 
ATOM      4  C5  UNL d   1       1.041   2.040  -2.341  0.00  0.00     0.000 A 
ATOM      5  C6  UNL d   1       0.451   1.474  -1.211  0.00  0.00     0.000 A 
ATOM      6  C7  UNL d   1       1.220   1.149  -0.080  0.00  0.00    -0.073 A 
ATOM      7  C8  UNL d   1       0.532   0.535   1.108  0.00  0.00     0.078 C 
ENDROOT
BRANCH   1   8
ATOM      8  C1  UNL d   1       3.513   1.008   1.051  0.00  0.00     0.053 C 
ATOM      9  C   UNL d   1       4.398   2.166   1.486  0.00  0.00     0.018 C 
ENDBRANCH   1   8
TORSDOF 1
ENDMDL
