MODEL 1
REMARK minimizedAffinity 7.4893465
REMARK minimizedRMSD -1
REMARK  1 active torsions:
REMARK  status: ('A' for Active; 'I' for Inactive)
REMARK    1  A    between atoms: C1_2  and  C2_3 
ROOT
ATOM      1  C2  UNL d   1      -1.719  -5.036  -5.124  0.00  0.00    -0.076 A 
ATOM      2  C3  UNL d   1      -2.395  -4.109  -4.313  0.00  0.00     0.004 A 
ATOM      3  C4  UNL d   1      -1.694  -3.226  -3.493  0.00  0.00    -0.003 A 
ATOM      4  C5  UNL d   1      -0.304  -3.257  -3.472  0.00  0.00     0.000 A 
ATOM      5  C6  UNL d   1       0.384  -4.158  -4.284  0.00  0.00     0.000 A 
ATOM      6  C7  UNL d   1      -0.308  -5.043  -5.128  0.00  0.00    -0.073 A 
ATOM      7  C8  UNL d   1       0.485  -5.998  -5.978  0.00  0.00     0.078 C 
ENDROOT
BRANCH   1   8
ATOM      8  C1  UNL d   1      -2.534  -5.986  -5.972  0.00  0.00     0.053 C 
ATOM      9  C   UNL d   1      -4.013  -5.631  -5.988  0.00  0.00     0.018 C 
ENDBRANCH   1   8
TORSDOF 1
ENDMDL
