MODEL 1
REMARK minimizedAffinity 8.07785416
REMARK minimizedRMSD -1
REMARK  1 active torsions:
REMARK  status: ('A' for Active; 'I' for Inactive)
REMARK    1  A    between atoms: C1_2  and  C2_3 
ROOT
ATOM      1  C2  UNL d   1       3.828   3.374  -2.267  0.00  0.00    -0.076 A 
ATOM      2  C3  UNL d   1       3.332   2.123  -1.860  0.00  0.00     0.004 A 
ATOM      3  C4  UNL d   1       3.593   1.629  -0.583  0.00  0.00    -0.003 A 
ATOM      4  C5  UNL d   1       4.352   2.378   0.308  0.00  0.00     0.000 A 
ATOM      5  C6  UNL d   1       4.837   3.629  -0.072  0.00  0.00     0.000 A 
ATOM      6  C7  UNL d   1       4.570   4.149  -1.350  0.00  0.00    -0.073 A 
ATOM      7  C8  UNL d   1       5.122   5.501  -1.709  0.00  0.00     0.078 C 
ENDROOT
BRANCH   1   8
ATOM      8  C1  UNL d   1       3.536   3.846  -3.673  0.00  0.00     0.053 C 
ATOM      9  C   UNL d   1       4.643   3.484  -4.651  0.00  0.00     0.018 C 
ENDBRANCH   1   8
TORSDOF 1
ENDMDL
