MODEL 1
REMARK minimizedAffinity 5.79507589
REMARK minimizedRMSD -1
REMARK  1 active torsions:
REMARK  status: ('A' for Active; 'I' for Inactive)
REMARK    1  A    between atoms: C1_2  and  C2_3 
ROOT
ATOM      1  C2  UNL d   1      -3.686   1.160   4.782  0.00  0.00    -0.076 A 
ATOM      2  C3  UNL d   1      -2.311   0.884   4.874  0.00  0.00     0.004 A 
ATOM      3  C4  UNL d   1      -1.616   0.332   3.800  0.00  0.00    -0.003 A 
ATOM      4  C5  UNL d   1      -2.285   0.048   2.614  0.00  0.00     0.000 A 
ATOM      5  C6  UNL d   1      -3.645   0.331   2.499  0.00  0.00     0.000 A 
ATOM      6  C7  UNL d   1      -4.357   0.903   3.567  0.00  0.00    -0.073 A 
ATOM      7  C8  UNL d   1      -5.825   1.182   3.390  0.00  0.00     0.078 C 
ENDROOT
BRANCH   1   8
ATOM      8  C1  UNL d   1      -4.393   1.734   5.989  0.00  0.00     0.053 C 
ATOM      9  C   UNL d   1      -4.413   3.254   5.985  0.00  0.00     0.018 C 
ENDBRANCH   1   8
TORSDOF 1
ENDMDL
