MODEL 1
REMARK minimizedAffinity -1.72423911
REMARK minimizedRMSD -1
REMARK  1 active torsions:
REMARK  status: ('A' for Active; 'I' for Inactive)
REMARK    1  A    between atoms: N_2  and  C1_3 
ROOT
ATOM      1  C1  UNL d   1      -0.427  -0.054   0.280  0.00  0.00     0.143 A 
ATOM      2  C2  UNL d   1      -1.814   0.087   0.396  0.00  0.00    -0.057 A 
ATOM      3  C3  UNL d   1      -2.391   1.308   0.766  0.00  0.00     0.033 A 
ATOM      4  C4  UNL d   1      -1.586   2.406   1.054  0.00  0.00    -0.042 A 
ATOM      5  C5  UNL d   1      -0.204   2.282   0.969  0.00  0.00     0.033 A 
ATOM      6  C6  UNL d   1       0.366   1.061   0.593  0.00  0.00    -0.057 A 
ENDROOT
BRANCH   1   7
ATOM      7  N   UNL d   1       0.212  -1.267   0.013  0.00  0.00    -0.732 N 
ATOM      8  C   UNL d   1      -0.482  -2.327  -0.687  0.00  0.00     0.284 C 
ATOM      9  H3  UNL d   1       1.179  -1.142  -0.277  0.00  0.00     0.395 HD
ENDBRANCH   1   7
TORSDOF 1
ENDMDL
