MODEL 1
REMARK minimizedAffinity -2.76825166
REMARK minimizedRMSD -1
REMARK  1 active torsions:
REMARK  status: ('A' for Active; 'I' for Inactive)
REMARK    1  A    between atoms: N_2  and  C1_3 
ROOT
ATOM      1  C1  UNL d   1      -0.059   0.072   0.260  0.00  0.00     0.143 A 
ATOM      2  C2  UNL d   1      -0.786   1.235   0.539  0.00  0.00    -0.057 A 
ATOM      3  C3  UNL d   1      -0.143   2.419   0.920  0.00  0.00     0.033 A 
ATOM      4  C4  UNL d   1       1.241   2.453   1.058  0.00  0.00    -0.042 A 
ATOM      5  C5  UNL d   1       1.981   1.303   0.810  0.00  0.00     0.033 A 
ATOM      6  C6  UNL d   1       1.334   0.126   0.423  0.00  0.00    -0.057 A 
ENDROOT
BRANCH   1   7
ATOM      7  N   UNL d   1      -0.646  -1.162  -0.028  0.00  0.00    -0.732 N 
ATOM      8  C   UNL d   1      -0.925  -1.545  -1.395  0.00  0.00     0.284 C 
ATOM      9  H3  UNL d   1      -0.271  -1.914   0.546  0.00  0.00     0.395 HD
ENDBRANCH   1   7
TORSDOF 1
ENDMDL
