MODEL 1
REMARK minimizedAffinity -3.30294967
REMARK minimizedRMSD -1
REMARK  1 active torsions:
REMARK  status: ('A' for Active; 'I' for Inactive)
REMARK    1  A    between atoms: N_2  and  C1_3 
ROOT
ATOM      1  C1  UNL d   1      -0.477  -0.401   0.439  0.00  0.00     0.143 A 
ATOM      2  C2  UNL d   1      -1.600  -0.074   1.207  0.00  0.00    -0.057 A 
ATOM      3  C3  UNL d   1      -1.995   1.258   1.382  0.00  0.00     0.033 A 
ATOM      4  C4  UNL d   1      -1.256   2.290   0.815  0.00  0.00    -0.042 A 
ATOM      5  C5  UNL d   1      -0.122   1.989   0.068  0.00  0.00     0.033 A 
ATOM      6  C6  UNL d   1       0.264   0.657  -0.109  0.00  0.00    -0.057 A 
ENDROOT
BRANCH   1   7
ATOM      7  N   UNL d   1       0.024  -1.699   0.308  0.00  0.00    -0.732 N 
ATOM      8  C   UNL d   1      -0.447  -2.568  -0.748  0.00  0.00     0.284 C 
ATOM      9  H3  UNL d   1       1.028  -1.746   0.469  0.00  0.00     0.395 HD
ENDBRANCH   1   7
TORSDOF 1
ENDMDL
