MODEL 1
REMARK minimizedAffinity -4.86240673
REMARK minimizedRMSD -1
REMARK  1 active torsions:
REMARK  status: ('A' for Active; 'I' for Inactive)
REMARK    1  A    between atoms: N_2  and  C1_3 
ROOT
ATOM      1  C1  UNL d   1      -0.659   0.054   0.296  0.00  0.00     0.143 A 
ATOM      2  C2  UNL d   1       0.612   0.480  -0.105  0.00  0.00    -0.057 A 
ATOM      3  C3  UNL d   1       0.992   1.824  -0.003  0.00  0.00     0.033 A 
ATOM      4  C4  UNL d   1       0.096   2.772   0.477  0.00  0.00    -0.042 A 
ATOM      5  C5  UNL d   1      -1.181   2.375   0.858  0.00  0.00     0.033 A 
ATOM      6  C6  UNL d   1      -1.553   1.031   0.760  0.00  0.00    -0.057 A 
ENDROOT
BRANCH   1   7
ATOM      7  N   UNL d   1      -1.131  -1.250   0.128  0.00  0.00    -0.732 N 
ATOM      8  C   UNL d   1      -0.354  -2.227  -0.605  0.00  0.00     0.284 C 
ATOM      9  H3  UNL d   1      -1.570  -1.616   0.970  0.00  0.00     0.395 HD
ENDBRANCH   1   7
TORSDOF 1
ENDMDL
