MODEL 1
REMARK minimizedAffinity -4.60240126
REMARK minimizedRMSD -1
REMARK  1 active torsions:
REMARK  status: ('A' for Active; 'I' for Inactive)
REMARK    1  A    between atoms: N_2  and  C1_3 
ROOT
ATOM      1  C1  UNL d   1      -0.083   0.017   0.316  0.00  0.00     0.143 A 
ATOM      2  C2  UNL d   1      -1.298   0.412   0.887  0.00  0.00    -0.057 A 
ATOM      3  C3  UNL d   1      -1.632   1.765   1.020  0.00  0.00     0.033 A 
ATOM      4  C4  UNL d   1      -0.741   2.751   0.609  0.00  0.00    -0.042 A 
ATOM      5  C5  UNL d   1       0.483   2.382   0.061  0.00  0.00     0.033 A 
ATOM      6  C6  UNL d   1       0.807   1.029  -0.075  0.00  0.00    -0.057 A 
ENDROOT
BRANCH   1   7
ATOM      7  N   UNL d   1       0.348  -1.309   0.246  0.00  0.00    -0.732 N 
ATOM      8  C   UNL d   1      -0.360  -2.273  -0.569  0.00  0.00     0.284 C 
ATOM      9  H3  UNL d   1       1.362  -1.386   0.194  0.00  0.00     0.395 HD
ENDBRANCH   1   7
TORSDOF 1
ENDMDL
