MODEL 1
REMARK minimizedAffinity -4.41228485
REMARK minimizedRMSD -1
REMARK  1 active torsions:
REMARK  status: ('A' for Active; 'I' for Inactive)
REMARK    1  A    between atoms: N_2  and  C1_3 
ROOT
ATOM      1  C1  UNL d   1      -0.331  -0.003   0.369  0.00  0.00     0.143 A 
ATOM      2  C2  UNL d   1      -1.350   0.446   1.216  0.00  0.00    -0.057 A 
ATOM      3  C3  UNL d   1      -1.599   1.812   1.391  0.00  0.00     0.033 A 
ATOM      4  C4  UNL d   1      -0.812   2.758   0.742  0.00  0.00    -0.042 A 
ATOM      5  C5  UNL d   1       0.223   2.335  -0.085  0.00  0.00     0.033 A 
ATOM      6  C6  UNL d   1       0.463   0.968  -0.260  0.00  0.00    -0.057 A 
ENDROOT
BRANCH   1   7
ATOM      7  N   UNL d   1       0.030  -1.346   0.230  0.00  0.00    -0.732 N 
ATOM      8  C   UNL d   1      -0.161  -2.034  -1.028  0.00  0.00     0.284 C 
ATOM      9  H3  UNL d   1       0.910  -1.561   0.693  0.00  0.00     0.395 HD
ENDBRANCH   1   7
TORSDOF 1
ENDMDL
