MODEL 1
REMARK minimizedAffinity 2.60891271
REMARK minimizedRMSD -1
REMARK  1 active torsions:
REMARK  status: ('A' for Active; 'I' for Inactive)
REMARK    1  A    between atoms: N_2  and  C1_3 
ROOT
ATOM      1  C1  UNL d   1       0.629   0.141   0.744  0.00  0.00     0.143 A 
ATOM      2  C2  UNL d   1      -0.625  -0.468   0.622  0.00  0.00    -0.057 A 
ATOM      3  C3  UNL d   1      -1.803   0.230   0.912  0.00  0.00     0.033 A 
ATOM      4  C4  UNL d   1      -1.746   1.546   1.359  0.00  0.00    -0.042 A 
ATOM      5  C5  UNL d   1      -0.510   2.164   1.512  0.00  0.00     0.033 A 
ATOM      6  C6  UNL d   1       0.663   1.463   1.214  0.00  0.00    -0.057 A 
ENDROOT
BRANCH   1   7
ATOM      7  N   UNL d   1       1.841  -0.530   0.565  0.00  0.00    -0.732 N 
ATOM      8  C   UNL d   1       3.085   0.204   0.478  0.00  0.00     0.284 C 
ATOM      9  H3  UNL d   1       1.898  -1.382   1.119  0.00  0.00     0.395 HD
ENDBRANCH   1   7
TORSDOF 1
ENDMDL
