MODEL 1
REMARK minimizedAffinity -4.88036966
REMARK minimizedRMSD -1
REMARK  1 active torsions:
REMARK  status: ('A' for Active; 'I' for Inactive)
REMARK    1  A    between atoms: N_2  and  C1_3 
ROOT
ATOM      1  C1  UNL d   1       0.693   1.837   0.447  0.00  0.00     0.143 A 
ATOM      2  C2  UNL d   1       0.436   0.464   0.513  0.00  0.00    -0.057 A 
ATOM      3  C3  UNL d   1      -0.873  -0.028   0.580  0.00  0.00     0.033 A 
ATOM      4  C4  UNL d   1      -1.952   0.850   0.610  0.00  0.00    -0.042 A 
ATOM      5  C5  UNL d   1      -1.719   2.220   0.570  0.00  0.00     0.033 A 
ATOM      6  C6  UNL d   1      -0.410   2.705   0.497  0.00  0.00    -0.057 A 
ENDROOT
BRANCH   1   7
ATOM      7  N   UNL d   1       1.975   2.392   0.478  0.00  0.00    -0.732 N 
ATOM      8  C   UNL d   1       3.116   1.588   0.861  0.00  0.00     0.284 C 
ATOM      9  H3  UNL d   1       2.149   3.013  -0.309  0.00  0.00     0.395 HD
ENDBRANCH   1   7
TORSDOF 1
ENDMDL
