MODEL 1
REMARK minimizedAffinity -4.86442423
REMARK minimizedRMSD -1
REMARK  1 active torsions:
REMARK  status: ('A' for Active; 'I' for Inactive)
REMARK    1  A    between atoms: N_2  and  C1_3 
ROOT
ATOM      1  C1  UNL d   1      -0.268   0.821   0.204  0.00  0.00     0.143 A 
ATOM      2  C2  UNL d   1      -1.003   1.925   0.648  0.00  0.00    -0.057 A 
ATOM      3  C3  UNL d   1      -0.465   3.217   0.617  0.00  0.00     0.033 A 
ATOM      4  C4  UNL d   1       0.835   3.424   0.166  0.00  0.00    -0.042 A 
ATOM      5  C5  UNL d   1       1.593   2.339  -0.257  0.00  0.00     0.033 A 
ATOM      6  C6  UNL d   1       1.047   1.052  -0.229  0.00  0.00    -0.057 A 
ENDROOT
BRANCH   1   7
ATOM      7  N   UNL d   1      -0.711  -0.500   0.302  0.00  0.00    -0.732 N 
ATOM      8  C   UNL d   1      -0.021  -1.563  -0.396  0.00  0.00     0.284 C 
ATOM      9  H3  UNL d   1      -1.003  -0.743   1.246  0.00  0.00     0.395 HD
ENDBRANCH   1   7
TORSDOF 1
ENDMDL
