MODEL 1
REMARK minimizedAffinity 3.22114539
REMARK minimizedRMSD -1
REMARK  1 active torsions:
REMARK  status: ('A' for Active; 'I' for Inactive)
REMARK    1  A    between atoms: N_2  and  C1_3 
ROOT
ATOM      1  C1  UNL d   1      -1.088   0.072   1.061  0.00  0.00     0.143 A 
ATOM      2  C2  UNL d   1      -0.131   0.980   1.528  0.00  0.00    -0.057 A 
ATOM      3  C3  UNL d   1      -0.500   2.249   1.993  0.00  0.00     0.033 A 
ATOM      4  C4  UNL d   1      -1.834   2.643   1.972  0.00  0.00    -0.042 A 
ATOM      5  C5  UNL d   1      -2.799   1.766   1.489  0.00  0.00     0.033 A 
ATOM      6  C6  UNL d   1      -2.425   0.498   1.032  0.00  0.00    -0.057 A 
ENDROOT
BRANCH   1   7
ATOM      7  N   UNL d   1      -0.774  -1.166   0.495  0.00  0.00    -0.732 N 
ATOM      8  C   UNL d   1      -1.147  -1.468  -0.870  0.00  0.00     0.284 C 
ATOM      9  H3  UNL d   1       0.158  -1.485   0.751  0.00  0.00     0.395 HD
ENDBRANCH   1   7
TORSDOF 1
ENDMDL
