MODEL 1
REMARK minimizedAffinity -4.14842319
REMARK minimizedRMSD -1
REMARK  1 active torsions:
REMARK  status: ('A' for Active; 'I' for Inactive)
REMARK    1  A    between atoms: N_2  and  C1_3 
ROOT
ATOM      1  C1  UNL d   1       0.140   0.662   0.377  0.00  0.00     0.143 A 
ATOM      2  C2  UNL d   1      -0.750   1.515   1.039  0.00  0.00    -0.057 A 
ATOM      3  C3  UNL d   1      -0.553   2.901   1.052  0.00  0.00     0.033 A 
ATOM      4  C4  UNL d   1       0.557   3.458   0.426  0.00  0.00    -0.042 A 
ATOM      5  C5  UNL d   1       1.468   2.627  -0.216  0.00  0.00     0.033 A 
ATOM      6  C6  UNL d   1       1.263   1.244  -0.232  0.00  0.00    -0.057 A 
ENDROOT
BRANCH   1   7
ATOM      7  N   UNL d   1       0.052  -0.732   0.411  0.00  0.00    -0.732 N 
ATOM      8  C   UNL d   1      -0.249  -1.482  -0.789  0.00  0.00     0.284 C 
ATOM      9  H3  UNL d   1       0.773  -1.152   0.994  0.00  0.00     0.395 HD
ENDBRANCH   1   7
TORSDOF 1
ENDMDL
