MODEL 1
REMARK minimizedAffinity -3.80202484
REMARK minimizedRMSD -1
REMARK  1 active torsions:
REMARK  status: ('A' for Active; 'I' for Inactive)
REMARK    1  A    between atoms: N_2  and  C1_3 
ROOT
ATOM      1  C1  UNL d   1      -0.461   0.284  -0.266  0.00  0.00     0.143 A 
ATOM      2  C2  UNL d   1       0.902   0.539  -0.449  0.00  0.00    -0.057 A 
ATOM      3  C3  UNL d   1       1.429   1.825  -0.280  0.00  0.00     0.033 A 
ATOM      4  C4  UNL d   1       0.594   2.888   0.047  0.00  0.00    -0.042 A 
ATOM      5  C5  UNL d   1      -0.769   2.663   0.210  0.00  0.00     0.033 A 
ATOM      6  C6  UNL d   1      -1.288   1.375   0.047  0.00  0.00    -0.057 A 
ENDROOT
BRANCH   1   7
ATOM      7  N   UNL d   1      -1.062  -0.953  -0.515  0.00  0.00    -0.732 N 
ATOM      8  C   UNL d   1      -1.047  -1.525  -1.844  0.00  0.00     0.284 C 
ATOM      9  H3  UNL d   1      -0.889  -1.625   0.229  0.00  0.00     0.395 HD
ENDBRANCH   1   7
TORSDOF 1
ENDMDL
