MODEL 1
REMARK minimizedAffinity -0.119330734
REMARK minimizedRMSD -1
REMARK  1 active torsions:
REMARK  status: ('A' for Active; 'I' for Inactive)
REMARK    1  A    between atoms: C1_2  and  C2_3 
ROOT
ATOM      1  C2  UNL d   1       1.152   2.490  -0.708  0.00  0.00    -0.076 A 
ATOM      2  C3  UNL d   1       0.101   1.557  -0.686  0.00  0.00     0.004 A 
ATOM      3  C4  UNL d   1      -0.062   0.685   0.390  0.00  0.00    -0.003 A 
ATOM      4  C5  UNL d   1       0.823   0.733   1.461  0.00  0.00     0.000 A 
ATOM      5  C6  UNL d   1       1.860   1.665   1.464  0.00  0.00     0.000 A 
ATOM      6  C7  UNL d   1       2.029   2.562   0.395  0.00  0.00    -0.073 A 
ATOM      7  C8  UNL d   1       3.169   3.541   0.448  0.00  0.00     0.078 C 
ENDROOT
BRANCH   1   8
ATOM      8  C1  UNL d   1       1.295   3.391  -1.914  0.00  0.00     0.053 C 
ATOM      9  C   UNL d   1       1.788   2.644  -3.144  0.00  0.00     0.018 C 
ENDBRANCH   1   8
TORSDOF 1
ENDMDL
