MODEL 1
REMARK minimizedAffinity 3.85815477
REMARK minimizedRMSD -1
REMARK  1 active torsions:
REMARK  status: ('A' for Active; 'I' for Inactive)
REMARK    1  A    between atoms: C1_2  and  C2_3 
ROOT
ATOM      1  C2  UNL d   1       3.917   4.938  -4.105  0.00  0.00    -0.076 A 
ATOM      2  C3  UNL d   1       3.767   3.922  -3.145  0.00  0.00     0.004 A 
ATOM      3  C4  UNL d   1       4.713   2.906  -3.022  0.00  0.00    -0.003 A 
ATOM      4  C5  UNL d   1       5.825   2.890  -3.856  0.00  0.00     0.000 A 
ATOM      5  C6  UNL d   1       6.000   3.899  -4.802  0.00  0.00     0.000 A 
ATOM      6  C7  UNL d   1       5.063   4.940  -4.928  0.00  0.00    -0.073 A 
ATOM      7  C8  UNL d   1       5.298   6.000  -5.970  0.00  0.00     0.078 C 
ENDROOT
BRANCH   1   8
ATOM      8  C1  UNL d   1       2.845   5.999  -4.211  0.00  0.00     0.053 C 
ATOM      9  C   UNL d   1       1.571   5.477  -4.857  0.00  0.00     0.018 C 
ENDBRANCH   1   8
TORSDOF 1
ENDMDL
