MODEL 1
REMARK minimizedAffinity 2.40969276
REMARK minimizedRMSD -1
REMARK  1 active torsions:
REMARK  status: ('A' for Active; 'I' for Inactive)
REMARK    1  A    between atoms: C1_2  and  C2_3 
ROOT
ATOM      1  C2  UNL d   1       1.763   5.716  -3.783  0.00  0.00    -0.076 A 
ATOM      2  C3  UNL d   1       3.064   5.949  -3.303  0.00  0.00     0.004 A 
ATOM      3  C4  UNL d   1       4.165   5.882  -4.154  0.00  0.00    -0.003 A 
ATOM      4  C5  UNL d   1       3.984   5.582  -5.500  0.00  0.00     0.000 A 
ATOM      5  C6  UNL d   1       2.700   5.365  -5.997  0.00  0.00     0.000 A 
ATOM      6  C7  UNL d   1       1.577   5.445  -5.155  0.00  0.00    -0.073 A 
ATOM      7  C8  UNL d   1       0.215   5.196  -5.744  0.00  0.00     0.078 C 
ENDROOT
BRANCH   1   8
ATOM      8  C1  UNL d   1       0.610   5.774  -2.807  0.00  0.00     0.053 C 
ATOM      9  C   UNL d   1      -0.731   5.960  -3.501  0.00  0.00     0.018 C 
ENDBRANCH   1   8
TORSDOF 1
ENDMDL
