MODEL 1
REMARK minimizedAffinity 4.90024376
REMARK minimizedRMSD -1
REMARK  1 active torsions:
REMARK  status: ('A' for Active; 'I' for Inactive)
REMARK    1  A    between atoms: C1_2  and  C2_3 
ROOT
ATOM      1  C2  UNL d   1      -0.805  -1.829  -4.709  0.00  0.00    -0.076 A 
ATOM      2  C3  UNL d   1      -0.108  -2.865  -4.063  0.00  0.00     0.004 A 
ATOM      3  C4  UNL d   1       1.270  -2.792  -3.872  0.00  0.00    -0.003 A 
ATOM      4  C5  UNL d   1       1.975  -1.682  -4.322  0.00  0.00     0.000 A 
ATOM      5  C6  UNL d   1       1.298  -0.636  -4.949  0.00  0.00     0.000 A 
ATOM      6  C7  UNL d   1      -0.094  -0.686  -5.135  0.00  0.00    -0.073 A 
ATOM      7  C8  UNL d   1      -0.773   0.467  -5.823  0.00  0.00     0.078 C 
ENDROOT
BRANCH   1   8
ATOM      8  C1  UNL d   1      -2.296  -1.975  -4.913  0.00  0.00     0.053 C 
ATOM      9  C   UNL d   1      -3.095  -1.560  -3.687  0.00  0.00     0.018 C 
ENDBRANCH   1   8
TORSDOF 1
ENDMDL
