MODEL 1
REMARK minimizedAffinity -0.901903212
REMARK minimizedRMSD -1
REMARK  1 active torsions:
REMARK  status: ('A' for Active; 'I' for Inactive)
REMARK    1  A    between atoms: C1_2  and  C2_3 
ROOT
ATOM      1  C2  UNL d   1      -0.601  -1.958  -4.592  0.00  0.00    -0.076 A 
ATOM      2  C3  UNL d   1      -0.032  -3.021  -3.868  0.00  0.00     0.004 A 
ATOM      3  C4  UNL d   1       1.351  -3.168  -3.777  0.00  0.00    -0.003 A 
ATOM      4  C5  UNL d   1       2.188  -2.254  -4.407  0.00  0.00     0.000 A 
ATOM      5  C6  UNL d   1       1.642  -1.183  -5.114  0.00  0.00     0.000 A 
ATOM      6  C7  UNL d   1       0.250  -1.011  -5.202  0.00  0.00    -0.073 A 
ATOM      7  C8  UNL d   1      -0.285   0.158  -5.983  0.00  0.00     0.078 C 
ENDROOT
BRANCH   1   8
ATOM      8  C1  UNL d   1      -2.107  -1.865  -4.679  0.00  0.00     0.053 C 
ATOM      9  C   UNL d   1      -2.787  -2.165  -3.352  0.00  0.00     0.018 C 
ENDBRANCH   1   8
TORSDOF 1
ENDMDL
