MODEL 1
REMARK minimizedAffinity 2.72351384
REMARK minimizedRMSD -1
REMARK  1 active torsions:
REMARK  status: ('A' for Active; 'I' for Inactive)
REMARK    1  A    between atoms: C1_2  and  C2_3 
ROOT
ATOM      1  C2  UNL d   1      -0.361   5.963  -3.155  0.00  0.00    -0.076 A 
ATOM      2  C3  UNL d   1       0.940   5.981  -3.689  0.00  0.00     0.004 A 
ATOM      3  C4  UNL d   1       1.150   5.999  -5.066  0.00  0.00    -0.003 A 
ATOM      4  C5  UNL d   1       0.063   6.000  -5.933  0.00  0.00     0.000 A 
ATOM      5  C6  UNL d   1      -1.234   6.000  -5.422  0.00  0.00     0.000 A 
ATOM      6  C7  UNL d   1      -1.464   5.998  -4.035  0.00  0.00    -0.073 A 
ATOM      7  C8  UNL d   1      -2.883   5.992  -3.538  0.00  0.00     0.078 C 
ENDROOT
BRANCH   1   8
ATOM      8  C1  UNL d   1      -0.527   5.917  -1.653  0.00  0.00     0.053 C 
ATOM      9  C   UNL d   1      -0.374   4.511  -1.093  0.00  0.00     0.018 C 
ENDBRANCH   1   8
TORSDOF 1
ENDMDL
