MODEL 1
REMARK minimizedAffinity 2.06090569
REMARK minimizedRMSD -1
REMARK  1 active torsions:
REMARK  status: ('A' for Active; 'I' for Inactive)
REMARK    1  A    between atoms: C1_2  and  C2_3 
ROOT
ATOM      1  C2  UNL d   1      -0.860   5.925  -4.184  0.00  0.00    -0.076 A 
ATOM      2  C3  UNL d   1      -0.250   5.869  -5.449  0.00  0.00     0.004 A 
ATOM      3  C4  UNL d   1       1.138   5.861  -5.576  0.00  0.00    -0.003 A 
ATOM      4  C5  UNL d   1       1.939   5.908  -4.440  0.00  0.00     0.000 A 
ATOM      5  C6  UNL d   1       1.350   5.946  -3.176  0.00  0.00     0.000 A 
ATOM      6  C7  UNL d   1      -0.048   5.938  -3.030  0.00  0.00    -0.073 A 
ATOM      7  C8  UNL d   1      -0.629   5.986  -1.644  0.00  0.00     0.078 C 
ENDROOT
BRANCH   1   8
ATOM      8  C1  UNL d   1      -2.370   5.958  -4.109  0.00  0.00     0.053 C 
ATOM      9  C   UNL d   1      -2.882   6.000  -2.678  0.00  0.00     0.018 C 
ENDBRANCH   1   8
TORSDOF 1
ENDMDL
