MODEL 1
REMARK minimizedAffinity 4.46307898
REMARK minimizedRMSD -1
REMARK  1 active torsions:
REMARK  status: ('A' for Active; 'I' for Inactive)
REMARK    1  A    between atoms: C1_2  and  C2_3 
ROOT
ATOM      1  C2  UNL d   1       3.123   4.981  -4.791  0.00  0.00    -0.076 A 
ATOM      2  C3  UNL d   1       3.885   5.917  -5.511  0.00  0.00     0.004 A 
ATOM      3  C4  UNL d   1       5.266   6.000  -5.342  0.00  0.00    -0.003 A 
ATOM      4  C5  UNL d   1       5.907   5.148  -4.450  0.00  0.00     0.000 A 
ATOM      5  C6  UNL d   1       5.169   4.201  -3.739  0.00  0.00     0.000 A 
ATOM      6  C7  UNL d   1       3.778   4.094  -3.911  0.00  0.00    -0.073 A 
ATOM      7  C8  UNL d   1       3.031   3.059  -3.114  0.00  0.00     0.078 C 
ENDROOT
BRANCH   1   8
ATOM      8  C1  UNL d   1       1.625   4.956  -4.995  0.00  0.00     0.053 C 
ATOM      9  C   UNL d   1       1.156   5.998  -5.999  0.00  0.00     0.018 C 
ENDBRANCH   1   8
TORSDOF 1
ENDMDL
