MODEL 1
REMARK minimizedAffinity 2.64953518
REMARK minimizedRMSD -1
REMARK  1 active torsions:
REMARK  status: ('A' for Active; 'I' for Inactive)
REMARK    1  A    between atoms: C1_2  and  C2_3 
ROOT
ATOM      1  C2  UNL d   1      -0.289   5.952  -4.312  0.00  0.00    -0.076 A 
ATOM      2  C3  UNL d   1       0.129   5.917  -5.654  0.00  0.00     0.004 A 
ATOM      3  C4  UNL d   1       1.483   5.932  -5.984  0.00  0.00    -0.003 A 
ATOM      4  C5  UNL d   1       2.442   5.982  -4.978  0.00  0.00     0.000 A 
ATOM      5  C6  UNL d   1       2.046   6.000  -3.641  0.00  0.00     0.000 A 
ATOM      6  C7  UNL d   1       0.685   5.969  -3.291  0.00  0.00    -0.073 A 
ATOM      7  C8  UNL d   1       0.315   5.996  -1.833  0.00  0.00     0.078 C 
ENDROOT
BRANCH   1   8
ATOM      8  C1  UNL d   1      -1.771   5.961  -4.015  0.00  0.00     0.053 C 
ATOM      9  C   UNL d   1      -2.162   4.930  -2.967  0.00  0.00     0.018 C 
ENDBRANCH   1   8
TORSDOF 1
ENDMDL
