MODEL 1
REMARK minimizedAffinity 9.15643978
REMARK minimizedRMSD -1
REMARK  1 active torsions:
REMARK  status: ('A' for Active; 'I' for Inactive)
REMARK    1  A    between atoms: C1_2  and  C2_3 
ROOT
ATOM      1  C2  UNL d   1       4.377   4.763  -4.089  0.00  0.00    -0.076 A 
ATOM      2  C3  UNL d   1       3.082   4.700  -3.545  0.00  0.00     0.004 A 
ATOM      3  C4  UNL d   1       1.996   5.266  -4.210  0.00  0.00    -0.003 A 
ATOM      4  C5  UNL d   1       2.186   5.904  -5.431  0.00  0.00     0.000 A 
ATOM      5  C6  UNL d   1       3.461   5.961  -5.994  0.00  0.00     0.000 A 
ATOM      6  C7  UNL d   1       4.564   5.382  -5.344  0.00  0.00    -0.073 A 
ATOM      7  C8  UNL d   1       5.917   5.478  -5.994  0.00  0.00     0.078 C 
ENDROOT
BRANCH   1   8
ATOM      8  C1  UNL d   1       5.521   4.156  -3.310  0.00  0.00     0.053 C 
ATOM      9  C   UNL d   1       5.997   2.839  -3.904  0.00  0.00     0.018 C 
ENDBRANCH   1   8
TORSDOF 1
ENDMDL
