MODEL 1
REMARK minimizedAffinity -2.27768517
REMARK minimizedRMSD -1
REMARK  1 active torsions:
REMARK  status: ('A' for Active; 'I' for Inactive)
REMARK    1  A    between atoms: C1_2  and  C2_3 
ROOT
ATOM      1  C2  UNL d   1       3.194   5.101  -4.517  0.00  0.00    -0.076 A 
ATOM      2  C3  UNL d   1       3.999   6.000  -5.238  0.00  0.00     0.004 A 
ATOM      3  C4  UNL d   1       5.389   5.907  -5.199  0.00  0.00    -0.003 A 
ATOM      4  C5  UNL d   1       5.997   4.913  -4.440  0.00  0.00     0.000 A 
ATOM      5  C6  UNL d   1       5.213   4.002  -3.732  0.00  0.00     0.000 A 
ATOM      6  C7  UNL d   1       3.810   4.072  -3.774  0.00  0.00    -0.073 A 
ATOM      7  C8  UNL d   1       3.014   3.067  -2.987  0.00  0.00     0.078 C 
ENDROOT
BRANCH   1   8
ATOM      8  C1  UNL d   1       1.692   5.267  -4.576  0.00  0.00     0.053 C 
ATOM      9  C   UNL d   1       1.158   5.247  -6.000  0.00  0.00     0.018 C 
ENDBRANCH   1   8
TORSDOF 1
ENDMDL
