MODEL 1
REMARK minimizedAffinity 7.59347725
REMARK minimizedRMSD -1
REMARK  1 active torsions:
REMARK  status: ('A' for Active; 'I' for Inactive)
REMARK    1  A    between atoms: C1_2  and  C2_3 
ROOT
ATOM      1  C2  UNL d   1       1.551   1.816   0.506  0.00  0.00    -0.076 A 
ATOM      2  C3  UNL d   1       1.380   1.380   1.831  0.00  0.00     0.004 A 
ATOM      3  C4  UNL d   1       0.676   0.212   2.117  0.00  0.00    -0.003 A 
ATOM      4  C5  UNL d   1       0.130  -0.539   1.082  0.00  0.00     0.000 A 
ATOM      5  C6  UNL d   1       0.305  -0.131  -0.240  0.00  0.00     0.000 A 
ATOM      6  C7  UNL d   1       1.027   1.035  -0.546  0.00  0.00    -0.073 A 
ATOM      7  C8  UNL d   1       1.179   1.432  -1.989  0.00  0.00     0.078 C 
ENDROOT
BRANCH   1   8
ATOM      8  C1  UNL d   1       2.301   3.105   0.258  0.00  0.00     0.053 C 
ATOM      9  C   UNL d   1       3.810   2.923   0.321  0.00  0.00     0.018 C 
ENDBRANCH   1   8
TORSDOF 1
ENDMDL
