MODEL 1
REMARK minimizedAffinity 1.28088164
REMARK minimizedRMSD -1
REMARK  1 active torsions:
REMARK  status: ('A' for Active; 'I' for Inactive)
REMARK    1  A    between atoms: C1_2  and  C2_3 
ROOT
ATOM      1  C2  UNL d   1      -1.898   5.980  -4.576  0.00  0.00    -0.076 A 
ATOM      2  C3  UNL d   1      -1.298   5.988  -5.847  0.00  0.00     0.004 A 
ATOM      3  C4  UNL d   1       0.089   5.996  -5.985  0.00  0.00    -0.003 A 
ATOM      4  C5  UNL d   1       0.898   5.995  -4.854  0.00  0.00     0.000 A 
ATOM      5  C6  UNL d   1       0.320   5.969  -3.586  0.00  0.00     0.000 A 
ATOM      6  C7  UNL d   1      -1.077   5.944  -3.429  0.00  0.00    -0.073 A 
ATOM      7  C8  UNL d   1      -1.647   5.923  -2.037  0.00  0.00     0.078 C 
ENDROOT
BRANCH   1   8
ATOM      8  C1  UNL d   1      -3.408   5.999  -4.488  0.00  0.00     0.053 C 
ATOM      9  C   UNL d   1      -3.908   5.990  -3.051  0.00  0.00     0.018 C 
ENDBRANCH   1   8
TORSDOF 1
ENDMDL
