MODEL 1
REMARK minimizedAffinity 3.57569504
REMARK minimizedRMSD -1
REMARK  1 active torsions:
REMARK  status: ('A' for Active; 'I' for Inactive)
REMARK    1  A    between atoms: C1_2  and  C2_3 
ROOT
ATOM      1  C2  UNL d   1       1.007   0.732   0.314  0.00  0.00    -0.076 A 
ATOM      2  C3  UNL d   1       0.632   1.294  -0.919  0.00  0.00     0.004 A 
ATOM      3  C4  UNL d   1       1.200   2.485  -1.367  0.00  0.00    -0.003 A 
ATOM      4  C5  UNL d   1       2.154   3.133  -0.591  0.00  0.00     0.000 A 
ATOM      5  C6  UNL d   1       2.551   2.581   0.627  0.00  0.00     0.000 A 
ATOM      6  C7  UNL d   1       2.000   1.373   1.086  0.00  0.00    -0.073 A 
ATOM      7  C8  UNL d   1       2.461   0.826   2.409  0.00  0.00     0.078 C 
ENDROOT
BRANCH   1   8
ATOM      8  C1  UNL d   1       0.337  -0.547   0.761  0.00  0.00     0.053 C 
ATOM      9  C   UNL d   1      -0.892  -0.292   1.619  0.00  0.00     0.018 C 
ENDBRANCH   1   8
TORSDOF 1
ENDMDL
