MODEL 1
REMARK minimizedAffinity 0.147765398
REMARK minimizedRMSD -1
REMARK  1 active torsions:
REMARK  status: ('A' for Active; 'I' for Inactive)
REMARK    1  A    between atoms: C1_2  and  C2_3 
ROOT
ATOM      1  C2  UNL d   1      -1.475   5.972  -3.833  0.00  0.00    -0.076 A 
ATOM      2  C3  UNL d   1      -1.460   5.996  -5.239  0.00  0.00     0.004 A 
ATOM      3  C4  UNL d   1      -0.257   5.997  -5.943  0.00  0.00    -0.003 A 
ATOM      4  C5  UNL d   1       0.950   5.973  -5.253  0.00  0.00     0.000 A 
ATOM      5  C6  UNL d   1       0.953   5.930  -3.860  0.00  0.00     0.000 A 
ATOM      6  C7  UNL d   1      -0.251   5.913  -3.135  0.00  0.00    -0.073 A 
ATOM      7  C8  UNL d   1      -0.188   5.873  -1.632  0.00  0.00     0.078 C 
ENDROOT
BRANCH   1   8
ATOM      8  C1  UNL d   1      -2.810   6.000  -3.123  0.00  0.00     0.053 C 
ATOM      9  C   UNL d   1      -3.984   5.997  -4.089  0.00  0.00     0.018 C 
ENDBRANCH   1   8
TORSDOF 1
ENDMDL
