MODEL 1
REMARK minimizedAffinity 6.28023624
REMARK minimizedRMSD -1
REMARK  1 active torsions:
REMARK  status: ('A' for Active; 'I' for Inactive)
REMARK    1  A    between atoms: C1_2  and  C2_3 
ROOT
ATOM      1  C2  UNL d   1       0.383   1.160   1.675  0.00  0.00    -0.076 A 
ATOM      2  C3  UNL d   1       0.905   2.463   1.589  0.00  0.00     0.004 A 
ATOM      3  C4  UNL d   1       1.257   3.015   0.358  0.00  0.00    -0.003 A 
ATOM      4  C5  UNL d   1       1.091   2.274  -0.806  0.00  0.00     0.000 A 
ATOM      5  C6  UNL d   1       0.558   0.987  -0.742  0.00  0.00     0.000 A 
ATOM      6  C7  UNL d   1       0.183   0.422   0.489  0.00  0.00    -0.073 A 
ATOM      7  C8  UNL d   1      -0.381  -0.973   0.501  0.00  0.00     0.078 C 
ENDROOT
BRANCH   1   8
ATOM      8  C1  UNL d   1       0.044   0.604   3.040  0.00  0.00     0.053 C 
ATOM      9  C   UNL d   1      -1.450   0.625   3.323  0.00  0.00     0.018 C 
ENDBRANCH   1   8
TORSDOF 1
ENDMDL
