MODEL 1
REMARK minimizedAffinity -4.47365856
REMARK minimizedRMSD -1
REMARK  0 active torsions:
REMARK  status: ('A' for Active; 'I' for Inactive)
ROOT
ATOM      1  N1  IND d   1      -0.196  -0.886  -1.132  0.00  0.00    -0.196 N 
ATOM      2  C2  IND d   1      -1.344  -0.243  -0.761  0.00  0.00     0.054 A 
ATOM      3  C3  IND d   1      -1.089   0.636   0.235  0.00  0.00    -0.031 A 
ATOM      4  C4  IND d   1       1.153   1.253   1.338  0.00  0.00     0.051 A 
ATOM      5  C5  IND d   1       2.475   0.906   1.359  0.00  0.00    -0.031 A 
ATOM      6  C6  IND d   1       2.985  -0.074   0.532  0.00  0.00     0.015 A 
ATOM      7  C7  IND d   1       2.190  -0.738  -0.359  0.00  0.00    -0.016 A 
ATOM      8  C8  IND d   1       0.846  -0.394  -0.378  0.00  0.00    -0.047 A 
ATOM      9  C9  IND d   1       0.315   0.570   0.489  0.00  0.00    -0.096 A 
ATOM     10  HN1 IND d   1      -0.135  -1.496  -1.736  0.00  0.00     0.298 HD
ENDROOT
TORSDOF 0
ENDMDL
