MODEL 1
REMARK minimizedAffinity -6.28900576
REMARK minimizedRMSD -1
REMARK  0 active torsions:
REMARK  status: ('A' for Active; 'I' for Inactive)
ROOT
ATOM      1  N1  IND d   1      -0.628  -0.869   0.622  0.00  0.00    -0.196 N 
ATOM      2  C2  IND d   1      -0.494   0.261  -0.136  0.00  0.00     0.054 A 
ATOM      3  C3  IND d   1       0.787   0.691  -0.116  0.00  0.00    -0.031 A 
ATOM      4  C4  IND d   1       2.849  -0.361   1.011  0.00  0.00     0.051 A 
ATOM      5  C5  IND d   1       3.219  -1.379   1.845  0.00  0.00    -0.031 A 
ATOM      6  C6  IND d   1       2.307  -2.299   2.321  0.00  0.00     0.015 A 
ATOM      7  C7  IND d   1       0.988  -2.241   1.971  0.00  0.00    -0.016 A 
ATOM      8  C8  IND d   1       0.607  -1.205   1.130  0.00  0.00    -0.047 A 
ATOM      9  C9  IND d   1       1.520  -0.244   0.677  0.00  0.00    -0.096 A 
ATOM     10  HN1 IND d   1      -1.361  -1.297   0.759  0.00  0.00     0.298 HD
ENDROOT
TORSDOF 0
ENDMDL
