MODEL 1
REMARK minimizedAffinity -5.05545664
REMARK minimizedRMSD -1
REMARK  0 active torsions:
REMARK  status: ('A' for Active; 'I' for Inactive)
ROOT
ATOM      1  N1  IND d   1      -0.728  -0.375   0.032  0.00  0.00    -0.196 N 
ATOM      2  C2  IND d   1      -0.800   0.926  -0.381  0.00  0.00     0.054 A 
ATOM      3  C3  IND d   1       0.367   1.563  -0.136  0.00  0.00    -0.031 A 
ATOM      4  C4  IND d   1       2.561   0.637   0.841  0.00  0.00     0.051 A 
ATOM      5  C5  IND d   1       3.102  -0.487   1.400  0.00  0.00    -0.031 A 
ATOM      6  C6  IND d   1       2.380  -1.656   1.531  0.00  0.00     0.015 A 
ATOM      7  C7  IND d   1       1.088  -1.747   1.096  0.00  0.00    -0.016 A 
ATOM      8  C8  IND d   1       0.533  -0.606   0.535  0.00  0.00    -0.047 A 
ATOM      9  C9  IND d   1       1.248   0.595   0.438  0.00  0.00    -0.096 A 
ATOM     10  HN1 IND d   1      -1.364  -0.952  -0.015  0.00  0.00     0.298 HD
ENDROOT
TORSDOF 0
ENDMDL
