MODEL 1
REMARK minimizedAffinity -5.85665798
REMARK minimizedRMSD -1
REMARK  0 active torsions:
REMARK  status: ('A' for Active; 'I' for Inactive)
ROOT
ATOM      1  N1  IND d   1      -0.600  -0.303   0.293  0.00  0.00    -0.196 N 
ATOM      2  C2  IND d   1      -0.472   0.876  -0.387  0.00  0.00     0.054 A 
ATOM      3  C3  IND d   1       0.815   1.288  -0.376  0.00  0.00    -0.031 A 
ATOM      4  C4  IND d   1       2.894   0.132   0.609  0.00  0.00     0.051 A 
ATOM      5  C5  IND d   1       3.274  -0.947   1.357  0.00  0.00    -0.031 A 
ATOM      6  C6  IND d   1       2.364  -1.888   1.794  0.00  0.00     0.015 A 
ATOM      7  C7  IND d   1       1.036  -1.789   1.490  0.00  0.00    -0.016 A 
ATOM      8  C8  IND d   1       0.645  -0.691   0.737  0.00  0.00    -0.047 A 
ATOM      9  C9  IND d   1       1.558   0.289   0.326  0.00  0.00    -0.096 A 
ATOM     10  HN1 IND d   1      -1.335  -0.731   0.422  0.00  0.00     0.298 HD
ENDROOT
TORSDOF 0
ENDMDL
