MODEL 1
REMARK minimizedAffinity -6.00879812
REMARK minimizedRMSD -1
REMARK  0 active torsions:
REMARK  status: ('A' for Active; 'I' for Inactive)
ROOT
ATOM      1  N1  IND d   1      -0.754  -0.844   0.205  0.00  0.00    -0.196 N 
ATOM      2  C2  IND d   1      -0.900   0.374  -0.399  0.00  0.00     0.054 A 
ATOM      3  C3  IND d   1       0.236   1.098  -0.276  0.00  0.00    -0.031 A 
ATOM      4  C4  IND d   1       2.487   0.442   0.785  0.00  0.00     0.051 A 
ATOM      5  C5  IND d   1       3.093  -0.556   1.496  0.00  0.00    -0.031 A 
ATOM      6  C6  IND d   1       2.435  -1.725   1.817  0.00  0.00     0.015 A 
ATOM      7  C7  IND d   1       1.144  -1.946   1.428  0.00  0.00    -0.016 A 
ATOM      8  C8  IND d   1       0.524  -0.932   0.712  0.00  0.00    -0.047 A 
ATOM      9  C9  IND d   1       1.173   0.274   0.419  0.00  0.00    -0.096 A 
ATOM     10  HN1 IND d   1      -1.359  -1.452   0.259  0.00  0.00     0.298 HD
ENDROOT
TORSDOF 0
ENDMDL
