MODEL 1
REMARK minimizedAffinity -5.88678265
REMARK minimizedRMSD -1
REMARK  0 active torsions:
REMARK  status: ('A' for Active; 'I' for Inactive)
ROOT
ATOM      1  N1  IND d   1      -0.841  -0.369   0.832  0.00  0.00    -0.196 N 
ATOM      2  C2  IND d   1      -0.698   0.880   0.295  0.00  0.00     0.054 A 
ATOM      3  C3  IND d   1       0.611   1.206   0.204  0.00  0.00    -0.031 A 
ATOM      4  C4  IND d   1       2.690  -0.198   0.782  0.00  0.00     0.051 A 
ATOM      5  C5  IND d   1       3.065  -1.389   1.338  0.00  0.00    -0.031 A 
ATOM      6  C6  IND d   1       2.138  -2.321   1.760  0.00  0.00     0.015 A 
ATOM      7  C7  IND d   1       0.796  -2.100   1.630  0.00  0.00    -0.016 A 
ATOM      8  C8  IND d   1       0.412  -0.889   1.073  0.00  0.00    -0.047 A 
ATOM      9  C9  IND d   1       1.347   0.078   0.682  0.00  0.00    -0.096 A 
ATOM     10  HN1 IND d   1      -1.588  -0.763   0.993  0.00  0.00     0.298 HD
ENDROOT
TORSDOF 0
ENDMDL
