MODEL 1
REMARK minimizedAffinity -2.4814055
REMARK minimizedRMSD -1
REMARK  0 active torsions:
REMARK  status: ('A' for Active; 'I' for Inactive)
ROOT
ATOM      1  N1  IND d   1      -0.175  -2.134   1.934  0.00  0.00    -0.196 N 
ATOM      2  C2  IND d   1       0.894  -2.555   2.676  0.00  0.00     0.054 A 
ATOM      3  C3  IND d   1       1.919  -1.681   2.561  0.00  0.00    -0.031 A 
ATOM      4  C4  IND d   1       2.027   0.557   1.292  0.00  0.00     0.051 A 
ATOM      5  C5  IND d   1       1.309   1.346   0.438  0.00  0.00    -0.031 A 
ATOM      6  C6  IND d   1       0.033   1.011   0.034  0.00  0.00     0.015 A 
ATOM      7  C7  IND d   1      -0.579  -0.126   0.479  0.00  0.00    -0.016 A 
ATOM      8  C8  IND d   1       0.149  -0.934   1.340  0.00  0.00    -0.047 A 
ATOM      9  C9  IND d   1       1.460  -0.620   1.721  0.00  0.00    -0.096 A 
ATOM     10  HN1 IND d   1      -0.923  -2.549   1.853  0.00  0.00     0.298 HD
ENDROOT
TORSDOF 0
ENDMDL
