MODEL 1
REMARK minimizedAffinity -1.0890435
REMARK minimizedRMSD -1
REMARK  0 active torsions:
REMARK  status: ('A' for Active; 'I' for Inactive)
ROOT
ATOM      1  N1  IND d   1      -0.209  -0.227   1.328  0.00  0.00    -0.196 N 
ATOM      2  C2  IND d   1      -0.042   0.785   0.424  0.00  0.00     0.054 A 
ATOM      3  C3  IND d   1       1.025   1.544   0.758  0.00  0.00    -0.031 A 
ATOM      4  C4  IND d   1       2.700   1.250   2.690  0.00  0.00     0.051 A 
ATOM      5  C5  IND d   1       2.941   0.492   3.802  0.00  0.00    -0.031 A 
ATOM      6  C6  IND d   1       2.129  -0.568   4.151  0.00  0.00     0.015 A 
ATOM      7  C7  IND d   1       1.048  -0.917   3.392  0.00  0.00    -0.016 A 
ATOM      8  C8  IND d   1       0.797  -0.145   2.267  0.00  0.00    -0.047 A 
ATOM      9  C9  IND d   1       1.592   0.958   1.931  0.00  0.00    -0.096 A 
ATOM     10  HN1 IND d   1      -0.836  -0.815   1.314  0.00  0.00     0.298 HD
ENDROOT
TORSDOF 0
ENDMDL
