MODEL 1
REMARK minimizedAffinity 1.57684827
REMARK minimizedRMSD -1
REMARK  0 active torsions:
REMARK  status: ('A' for Active; 'I' for Inactive)
ROOT
ATOM      1  N1  IND d   1      -1.080  -0.366   1.235  0.00  0.00    -0.196 N 
ATOM      2  C2  IND d   1      -1.075   0.793   0.511  0.00  0.00     0.054 A 
ATOM      3  C3  IND d   1       0.074   1.475   0.722  0.00  0.00    -0.031 A 
ATOM      4  C4  IND d   1       2.124   0.825   2.137  0.00  0.00     0.051 A 
ATOM      5  C5  IND d   1       2.572  -0.125   3.012  0.00  0.00    -0.031 A 
ATOM      6  C6  IND d   1       1.811  -1.227   3.344  0.00  0.00     0.015 A 
ATOM      7  C7  IND d   1       0.573  -1.428   2.802  0.00  0.00    -0.016 A 
ATOM      8  C8  IND d   1       0.112  -0.462   1.919  0.00  0.00    -0.047 A 
ATOM      9  C9  IND d   1       0.862   0.681   1.611  0.00  0.00    -0.096 A 
ATOM     10  HN1 IND d   1      -1.721  -0.939   1.260  0.00  0.00     0.298 HD
ENDROOT
TORSDOF 0
ENDMDL
