MODEL 1
REMARK minimizedAffinity -5.51465178
REMARK minimizedRMSD -1
REMARK  0 active torsions:
REMARK  status: ('A' for Active; 'I' for Inactive)
ROOT
ATOM      1  N1  IND d   1      -0.710  -1.005   0.685  0.00  0.00    -0.196 N 
ATOM      2  C2  IND d   1      -0.686   0.258   0.163  0.00  0.00     0.054 A 
ATOM      3  C3  IND d   1       0.535   0.814   0.332  0.00  0.00    -0.031 A 
ATOM      4  C4  IND d   1       2.669  -0.206   1.347  0.00  0.00     0.051 A 
ATOM      5  C5  IND d   1       3.130  -1.320   1.990  0.00  0.00    -0.031 A 
ATOM      6  C6  IND d   1       2.319  -2.409   2.234  0.00  0.00     0.015 A 
ATOM      7  C7  IND d   1       1.013  -2.429   1.832  0.00  0.00    -0.016 A 
ATOM      8  C8  IND d   1       0.540  -1.297   1.184  0.00  0.00    -0.047 A 
ATOM      9  C9  IND d   1       1.347  -0.172   0.971  0.00  0.00    -0.096 A 
ATOM     10  HN1 IND d   1      -1.392  -1.529   0.699  0.00  0.00     0.298 HD
ENDROOT
TORSDOF 0
ENDMDL
