MODEL 1
REMARK minimizedAffinity 1.63668108
REMARK minimizedRMSD -1
REMARK  1 active torsions:
REMARK  status: ('A' for Active; 'I' for Inactive)
REMARK    1  A    between atoms: N_2  and  C1_3 
ROOT
ATOM      1  C1  UNL d   1       2.187  -2.248   3.088  0.00  0.00     0.143 A 
ATOM      2  C2  UNL d   1       1.974  -3.580   2.719  0.00  0.00    -0.057 A 
ATOM      3  C3  UNL d   1       2.565  -4.634   3.427  0.00  0.00     0.033 A 
ATOM      4  C4  UNL d   1       3.406  -4.371   4.503  0.00  0.00    -0.042 A 
ATOM      5  C5  UNL d   1       3.653  -3.053   4.872  0.00  0.00     0.033 A 
ATOM      6  C6  UNL d   1       3.054  -2.006   4.165  0.00  0.00    -0.057 A 
ENDROOT
BRANCH   1   7
ATOM      7  N   UNL d   1       1.707  -1.154   2.364  0.00  0.00    -0.732 N 
ATOM      8  C   UNL d   1       2.588  -0.061   2.009  0.00  0.00     0.284 C 
ATOM      9  H3  UNL d   1       1.067  -1.429   1.623  0.00  0.00     0.395 HD
ENDBRANCH   1   7
TORSDOF 1
ENDMDL
