MODEL 1
REMARK minimizedAffinity 2.94997549
REMARK minimizedRMSD -1
REMARK  1 active torsions:
REMARK  status: ('A' for Active; 'I' for Inactive)
REMARK    1  A    between atoms: N_2  and  C1_3 
ROOT
ATOM      1  C1  UNL d   1       3.749  -5.913  -3.509  0.00  0.00     0.143 A 
ATOM      2  C2  UNL d   1       5.148  -5.949  -3.520  0.00  0.00    -0.057 A 
ATOM      3  C3  UNL d   1       5.864  -5.963  -4.723  0.00  0.00     0.033 A 
ATOM      4  C4  UNL d   1       5.191  -5.970  -5.941  0.00  0.00    -0.042 A 
ATOM      5  C5  UNL d   1       3.801  -5.959  -5.954  0.00  0.00     0.033 A 
ATOM      6  C6  UNL d   1       3.091  -5.939  -4.749  0.00  0.00    -0.057 A 
ENDROOT
BRANCH   1   7
ATOM      7  N   UNL d   1       2.978  -5.997  -2.348  0.00  0.00    -0.732 N 
ATOM      8  C   UNL d   1       1.533  -6.000  -2.421  0.00  0.00     0.284 C 
ATOM      9  H3  UNL d   1       3.362  -6.656  -1.674  0.00  0.00     0.395 HD
ENDBRANCH   1   7
TORSDOF 1
ENDMDL
