MODEL 1
REMARK minimizedAffinity -3.57963228
REMARK minimizedRMSD -1
REMARK  1 active torsions:
REMARK  status: ('A' for Active; 'I' for Inactive)
REMARK    1  A    between atoms: N_2  and  C1_3 
ROOT
ATOM      1  C1  UNL d   1       3.319  -5.818  -2.387  0.00  0.00     0.143 A 
ATOM      2  C2  UNL d   1       4.572  -5.806  -3.007  0.00  0.00    -0.057 A 
ATOM      3  C3  UNL d   1       4.693  -5.722  -4.400  0.00  0.00     0.033 A 
ATOM      4  C4  UNL d   1       3.556  -5.679  -5.200  0.00  0.00    -0.042 A 
ATOM      5  C5  UNL d   1       2.300  -5.714  -4.607  0.00  0.00     0.033 A 
ATOM      6  C6  UNL d   1       2.186  -5.791  -3.215  0.00  0.00    -0.057 A 
ENDROOT
BRANCH   1   7
ATOM      7  N   UNL d   1       3.132  -5.998  -1.014  0.00  0.00    -0.732 N 
ATOM      8  C   UNL d   1       1.801  -6.000  -0.445  0.00  0.00     0.284 C 
ATOM      9  H3  UNL d   1       3.750  -6.709  -0.628  0.00  0.00     0.395 HD
ENDBRANCH   1   7
TORSDOF 1
ENDMDL
