MODEL 1
REMARK minimizedAffinity 3.72026086
REMARK minimizedRMSD -1
REMARK  1 active torsions:
REMARK  status: ('A' for Active; 'I' for Inactive)
REMARK    1  A    between atoms: N_2  and  C1_3 
ROOT
ATOM      1  C1  UNL d   1       1.693  -1.873   4.022  0.00  0.00     0.143 A 
ATOM      2  C2  UNL d   1       1.178  -1.056   3.009  0.00  0.00    -0.057 A 
ATOM      3  C3  UNL d   1       1.920  -0.777   1.855  0.00  0.00     0.033 A 
ATOM      4  C4  UNL d   1       3.206  -1.287   1.706  0.00  0.00    -0.042 A 
ATOM      5  C5  UNL d   1       3.747  -2.081   2.712  0.00  0.00     0.033 A 
ATOM      6  C6  UNL d   1       2.998  -2.362   3.859  0.00  0.00    -0.057 A 
ENDROOT
BRANCH   1   7
ATOM      7  N   UNL d   1       1.044  -2.108   5.237  0.00  0.00    -0.732 N 
ATOM      8  C   UNL d   1       1.316  -3.307   5.998  0.00  0.00     0.284 C 
ATOM      9  H3  UNL d   1       0.962  -1.266   5.802  0.00  0.00     0.395 HD
ENDBRANCH   1   7
TORSDOF 1
ENDMDL
