MODEL 1
REMARK minimizedAffinity 3.69945884
REMARK minimizedRMSD -1
REMARK  1 active torsions:
REMARK  status: ('A' for Active; 'I' for Inactive)
REMARK    1  A    between atoms: N_2  and  C1_3 
ROOT
ATOM      1  C1  UNL d   1      -3.758   2.352  -0.554  0.00  0.00     0.143 A 
ATOM      2  C2  UNL d   1      -2.930   2.869   0.449  0.00  0.00    -0.057 A 
ATOM      3  C3  UNL d   1      -3.458   3.319   1.665  0.00  0.00     0.033 A 
ATOM      4  C4  UNL d   1      -4.830   3.286   1.890  0.00  0.00    -0.042 A 
ATOM      5  C5  UNL d   1      -5.674   2.800   0.898  0.00  0.00     0.033 A 
ATOM      6  C6  UNL d   1      -5.141   2.346  -0.312  0.00  0.00    -0.057 A 
ENDROOT
BRANCH   1   7
ATOM      7  N   UNL d   1      -3.305   1.980  -1.822  0.00  0.00    -0.732 N 
ATOM      8  C   UNL d   1      -3.960   2.475  -3.013  0.00  0.00     0.284 C 
ATOM      9  H3  UNL d   1      -2.289   1.965  -1.882  0.00  0.00     0.395 HD
ENDBRANCH   1   7
TORSDOF 1
ENDMDL
