MODEL 1
REMARK minimizedAffinity 5.12497568
REMARK minimizedRMSD -1
REMARK  1 active torsions:
REMARK  status: ('A' for Active; 'I' for Inactive)
REMARK    1  A    between atoms: N_2  and  C1_3 
ROOT
ATOM      1  C1  UNL d   1       2.559  -5.870  -2.047  0.00  0.00     0.143 A 
ATOM      2  C2  UNL d   1       2.477  -5.952  -0.653  0.00  0.00    -0.057 A 
ATOM      3  C3  UNL d   1       3.629  -6.000   0.141  0.00  0.00     0.033 A 
ATOM      4  C4  UNL d   1       4.888  -5.996  -0.449  0.00  0.00    -0.042 A 
ATOM      5  C5  UNL d   1       4.994  -5.940  -1.834  0.00  0.00     0.033 A 
ATOM      6  C6  UNL d   1       3.840  -5.886  -2.621  0.00  0.00    -0.057 A 
ENDROOT
BRANCH   1   7
ATOM      7  N   UNL d   1       1.451  -5.920  -2.896  0.00  0.00    -0.732 N 
ATOM      8  C   UNL d   1       1.472  -5.242  -4.175  0.00  0.00     0.284 C 
ATOM      9  H3  UNL d   1       1.021  -6.841  -2.921  0.00  0.00     0.395 HD
ENDBRANCH   1   7
TORSDOF 1
ENDMDL
