MODEL 1
REMARK minimizedAffinity 3.35528874
REMARK minimizedRMSD -1
REMARK  1 active torsions:
REMARK  status: ('A' for Active; 'I' for Inactive)
REMARK    1  A    between atoms: N_2  and  C1_3 
ROOT
ATOM      1  C1  UNL d   1       1.696  -1.461   3.610  0.00  0.00     0.143 A 
ATOM      2  C2  UNL d   1       0.828  -2.317   4.295  0.00  0.00    -0.057 A 
ATOM      3  C3  UNL d   1       1.316  -3.355   5.099  0.00  0.00     0.033 A 
ATOM      4  C4  UNL d   1       2.685  -3.573   5.208  0.00  0.00    -0.042 A 
ATOM      5  C5  UNL d   1       3.566  -2.750   4.515  0.00  0.00     0.033 A 
ATOM      6  C6  UNL d   1       3.073  -1.711   3.720  0.00  0.00    -0.057 A 
ENDROOT
BRANCH   1   7
ATOM      7  N   UNL d   1       1.270  -0.473   2.718  0.00  0.00    -0.732 N 
ATOM      8  C   UNL d   1       2.152   0.612   2.345  0.00  0.00     0.284 C 
ATOM      9  H3  UNL d   1       0.731  -0.855   1.944  0.00  0.00     0.395 HD
ENDBRANCH   1   7
TORSDOF 1
ENDMDL
