MODEL 1
REMARK minimizedAffinity 0.528695464
REMARK minimizedRMSD -1
REMARK  1 active torsions:
REMARK  status: ('A' for Active; 'I' for Inactive)
REMARK    1  A    between atoms: N_2  and  C1_3 
ROOT
ATOM      1  C1  UNL d   1       1.451  -1.696   2.728  0.00  0.00     0.143 A 
ATOM      2  C2  UNL d   1       1.990  -2.866   2.182  0.00  0.00    -0.057 A 
ATOM      3  C3  UNL d   1       2.298  -3.968   2.988  0.00  0.00     0.033 A 
ATOM      4  C4  UNL d   1       2.098  -3.909   4.363  0.00  0.00    -0.042 A 
ATOM      5  C5  UNL d   1       1.587  -2.747   4.931  0.00  0.00     0.033 A 
ATOM      6  C6  UNL d   1       1.275  -1.652   4.120  0.00  0.00    -0.057 A 
ENDROOT
BRANCH   1   7
ATOM      7  N   UNL d   1       1.216  -0.531   1.993  0.00  0.00    -0.732 N 
ATOM      8  C   UNL d   1       2.190   0.539   1.976  0.00  0.00     0.284 C 
ATOM      9  H3  UNL d   1       0.792  -0.722   1.088  0.00  0.00     0.395 HD
ENDBRANCH   1   7
TORSDOF 1
ENDMDL
