MODEL 1
REMARK minimizedAffinity 2.44496703
REMARK minimizedRMSD -1
REMARK  3 active torsions:
REMARK  status: ('A' for Active; 'I' for Inactive)
REMARK    1  A    between atoms: C3'_2  and  C2'_3 
REMARK    2  A    between atoms: C2'_3  and  C1'_4 
REMARK    3  A    between atoms: C1'_4  and  C1_5 
ROOT
ATOM      1  C1  N4B d   1       0.837  -3.482   0.670  0.00  0.00    -0.075 A 
ATOM      2  C2  N4B d   1       0.779  -3.698  -0.724  0.00  0.00     0.002 A 
ATOM      3  C3  N4B d   1      -0.111  -2.989  -1.493  0.00  0.00     0.002 A 
ATOM      4  C4  N4B d   1      -0.963  -2.076  -0.889  0.00  0.00    -0.004 A 
ATOM      5  C5  N4B d   1      -0.883  -1.855   0.454  0.00  0.00     0.002 A 
ATOM      6  C6  N4B d   1       0.010  -2.557   1.238  0.00  0.00     0.002 A 
ENDROOT
BRANCH   1   7
ATOM      7  C1' N4B d   1       1.734  -4.294   1.563  0.00  0.00     0.057 C 
BRANCH   7   8
ATOM      8  C2' N4B d   1       1.936  -5.676   0.948  0.00  0.00     0.009 C 
BRANCH   8   9
ATOM      9  C3' N4B d   1       3.375  -5.902   0.518  0.00  0.00     0.004 C 
ATOM     10  C4' N4B d   1       3.708  -5.223  -0.777  0.00  0.00     0.003 C 
ENDBRANCH   8   9
ENDBRANCH   7   8
ENDBRANCH   1   7
TORSDOF 3
ENDMDL
