MODEL 1
REMARK minimizedAffinity 4.21949196
REMARK minimizedRMSD -1
REMARK  3 active torsions:
REMARK  status: ('A' for Active; 'I' for Inactive)
REMARK    1  A    between atoms: C3'_2  and  C2'_3 
REMARK    2  A    between atoms: C2'_3  and  C1'_4 
REMARK    3  A    between atoms: C1'_4  and  C1_5 
ROOT
ATOM      1  C1  N4B d   1       0.407  -2.138   1.101  0.00  0.00    -0.075 A 
ATOM      2  C2  N4B d   1       0.622  -3.182   0.174  0.00  0.00     0.002 A 
ATOM      3  C3  N4B d   1      -0.269  -3.385  -0.851  0.00  0.00     0.002 A 
ATOM      4  C4  N4B d   1      -1.389  -2.574  -0.957  0.00  0.00    -0.004 A 
ATOM      5  C5  N4B d   1      -1.577  -1.552  -0.072  0.00  0.00     0.002 A 
ATOM      6  C6  N4B d   1      -0.687  -1.333   0.960  0.00  0.00     0.002 A 
ENDROOT
BRANCH   1   7
ATOM      7  C1' N4B d   1       1.308  -1.931   2.287  0.00  0.00     0.057 C 
BRANCH   7   8
ATOM      8  C2' N4B d   1       1.784  -0.481   2.307  0.00  0.00     0.009 C 
BRANCH   8   9
ATOM      9  C3' N4B d   1       2.802  -0.202   1.214  0.00  0.00     0.004 C 
ATOM     10  C4' N4B d   1       2.850   1.244   0.820  0.00  0.00     0.003 C 
ENDBRANCH   8   9
ENDBRANCH   7   8
ENDBRANCH   1   7
TORSDOF 3
ENDMDL
