MODEL 1
REMARK minimizedAffinity 0.303028136
REMARK minimizedRMSD -1
REMARK  3 active torsions:
REMARK  status: ('A' for Active; 'I' for Inactive)
REMARK    1  A    between atoms: C3'_2  and  C2'_3 
REMARK    2  A    between atoms: C2'_3  and  C1'_4 
REMARK    3  A    between atoms: C1'_4  and  C1_5 
ROOT
ATOM      1  C1  N4B d   1       1.248  -0.128   1.111  0.00  0.00    -0.075 A 
ATOM      2  C2  N4B d   1       2.022   0.984   0.711  0.00  0.00     0.002 A 
ATOM      3  C3  N4B d   1       2.980   1.492   1.553  0.00  0.00     0.002 A 
ATOM      4  C4  N4B d   1       3.168   0.921   2.803  0.00  0.00    -0.004 A 
ATOM      5  C5  N4B d   1       2.434  -0.168   3.172  0.00  0.00     0.002 A 
ATOM      6  C6  N4B d   1       1.471  -0.693   2.334  0.00  0.00     0.002 A 
ENDROOT
BRANCH   1   7
ATOM      7  C1' N4B d   1       0.131  -0.666   0.260  0.00  0.00     0.057 C 
BRANCH   7   8
ATOM      8  C2' N4B d   1      -0.095  -2.136   0.600  0.00  0.00     0.009 C 
BRANCH   8   9
ATOM      9  C3' N4B d   1      -1.131  -2.777  -0.308  0.00  0.00     0.004 C 
ATOM     10  C4' N4B d   1      -0.518  -3.493  -1.474  0.00  0.00     0.003 C 
ENDBRANCH   8   9
ENDBRANCH   7   8
ENDBRANCH   1   7
TORSDOF 3
ENDMDL
