MODEL 1
REMARK minimizedAffinity 0.156318694
REMARK minimizedRMSD -1
REMARK  3 active torsions:
REMARK  status: ('A' for Active; 'I' for Inactive)
REMARK    1  A    between atoms: C3'_2  and  C2'_3 
REMARK    2  A    between atoms: C2'_3  and  C1'_4 
REMARK    3  A    between atoms: C1'_4  and  C1_5 
ROOT
ATOM      1  C1  N4B d   1       2.033   1.006   1.217  0.00  0.00    -0.075 A 
ATOM      2  C2  N4B d   1       2.584   2.144   1.845  0.00  0.00     0.002 A 
ATOM      3  C3  N4B d   1       2.959   2.087   3.165  0.00  0.00     0.002 A 
ATOM      4  C4  N4B d   1       2.775   0.912   3.879  0.00  0.00    -0.004 A 
ATOM      5  C5  N4B d   1       2.266  -0.191   3.259  0.00  0.00     0.002 A 
ATOM      6  C6  N4B d   1       1.889  -0.148   1.932  0.00  0.00     0.002 A 
ENDROOT
BRANCH   1   7
ATOM      7  C1' N4B d   1       1.529   1.046  -0.200  0.00  0.00     0.057 C 
BRANCH   7   8
ATOM      8  C2' N4B d   1       0.710   2.316  -0.404  0.00  0.00     0.009 C 
BRANCH   8   9
ATOM      9  C3' N4B d   1      -0.783   2.036  -0.403  0.00  0.00     0.004 C 
ATOM     10  C4' N4B d   1      -1.105   0.603  -0.098  0.00  0.00     0.003 C 
ENDBRANCH   8   9
ENDBRANCH   7   8
ENDBRANCH   1   7
TORSDOF 3
ENDMDL
