MODEL 1
REMARK minimizedAffinity -0.272447437
REMARK minimizedRMSD -1
REMARK  0 active torsions:
REMARK  status: ('A' for Active; 'I' for Inactive)
ROOT
ATOM      1  C   UNL d   1      -1.840   0.322   1.241  0.00  0.00    -0.002 A 
ATOM      2  C1  UNL d   1      -2.294  -0.979   1.076  0.00  0.00     0.010 A 
ATOM      3  C2  UNL d   1      -1.396  -2.019   0.835  0.00  0.00     0.041 A 
ATOM      4  C3  UNL d   1      -0.019  -1.728   0.763  0.00  0.00    -0.075 A 
ATOM      5  S   UNL d   1       1.266  -2.842   0.478  0.00  0.00     0.015 SA
ATOM      6  C4  UNL d   1       2.447  -1.618   0.569  0.00  0.00     0.022 A 
ATOM      7  C5  UNL d   1       1.893  -0.383   0.810  0.00  0.00     0.026 A 
ATOM      8  C6  UNL d   1       0.462  -0.426   0.927  0.00  0.00    -0.082 A 
ATOM      9  C7  UNL d   1      -0.474   0.607   1.169  0.00  0.00     0.045 A 
ENDROOT
TORSDOF 0
ENDMDL
