MODEL 1
REMARK minimizedAffinity 1.71243334
REMARK minimizedRMSD -1
REMARK  0 active torsions:
REMARK  status: ('A' for Active; 'I' for Inactive)
ROOT
ATOM      1  C   UNL d   1       0.150  -0.448   1.041  0.00  0.00    -0.002 A 
ATOM      2  C1  UNL d   1       1.503  -0.300   1.311  0.00  0.00     0.010 A 
ATOM      3  C2  UNL d   1       2.412  -1.298   0.954  0.00  0.00     0.041 A 
ATOM      4  C3  UNL d   1       1.933  -2.459   0.315  0.00  0.00    -0.075 A 
ATOM      5  S   UNL d   1       2.862  -3.812  -0.213  0.00  0.00     0.015 SA
ATOM      6  C4  UNL d   1       1.484  -4.619  -0.810  0.00  0.00     0.022 A 
ATOM      7  C5  UNL d   1       0.335  -3.888  -0.619  0.00  0.00     0.026 A 
ATOM      8  C6  UNL d   1       0.575  -2.631   0.032  0.00  0.00    -0.082 A 
ATOM      9  C7  UNL d   1      -0.321  -1.601   0.407  0.00  0.00     0.045 A 
ENDROOT
TORSDOF 0
ENDMDL
