MODEL 1
REMARK minimizedAffinity 17.4010506
REMARK minimizedRMSD -1
REMARK  0 active torsions:
REMARK  status: ('A' for Active; 'I' for Inactive)
ROOT
ATOM      1  C   UNL d   1       4.566   5.481  -0.697  0.00  0.00    -0.002 A 
ATOM      2  C1  UNL d   1       5.815   5.163  -1.212  0.00  0.00     0.010 A 
ATOM      3  C2  UNL d   1       5.995   4.011  -1.980  0.00  0.00     0.041 A 
ATOM      4  C3  UNL d   1       4.887   3.177  -2.227  0.00  0.00    -0.075 A 
ATOM      5  S   UNL d   1       4.869   1.715  -3.141  0.00  0.00     0.015 SA
ATOM      6  C4  UNL d   1       3.203   1.479  -2.871  0.00  0.00     0.022 A 
ATOM      7  C5  UNL d   1       2.657   2.481  -2.104  0.00  0.00     0.026 A 
ATOM      8  C6  UNL d   1       3.619   3.476  -1.720  0.00  0.00    -0.082 A 
ATOM      9  C7  UNL d   1       3.469   4.651  -0.944  0.00  0.00     0.045 A 
ENDROOT
TORSDOF 0
ENDMDL
