MODEL 1
REMARK minimizedAffinity 3.70164251
REMARK minimizedRMSD -1
REMARK  0 active torsions:
REMARK  status: ('A' for Active; 'I' for Inactive)
ROOT
ATOM      1  C   UNL d   1       1.400  -1.516  -0.526  0.00  0.00    -0.002 A 
ATOM      2  C1  UNL d   1       2.120  -0.737   0.369  0.00  0.00     0.010 A 
ATOM      3  C2  UNL d   1       1.469  -0.047   1.394  0.00  0.00     0.041 A 
ATOM      4  C3  UNL d   1       0.069  -0.155   1.506  0.00  0.00    -0.075 A 
ATOM      5  S   UNL d   1      -0.941   0.599   2.682  0.00  0.00     0.015 SA
ATOM      6  C4  UNL d   1      -2.352  -0.095   2.024  0.00  0.00     0.022 A 
ATOM      7  C5  UNL d   1      -2.078  -0.886   0.934  0.00  0.00     0.026 A 
ATOM      8  C6  UNL d   1      -0.678  -0.934   0.617  0.00  0.00    -0.082 A 
ATOM      9  C7  UNL d   1       0.011  -1.621  -0.411  0.00  0.00     0.045 A 
ENDROOT
TORSDOF 0
ENDMDL
