MODEL 1
REMARK minimizedAffinity 6.88678885
REMARK minimizedRMSD -1
REMARK  0 active torsions:
REMARK  status: ('A' for Active; 'I' for Inactive)
ROOT
ATOM      1  C   UNL d   1       2.665   3.953  -5.413  0.00  0.00    -0.002 A 
ATOM      2  C1  UNL d   1       2.797   3.316  -4.188  0.00  0.00     0.010 A 
ATOM      3  C2  UNL d   1       1.890   3.565  -3.156  0.00  0.00     0.041 A 
ATOM      4  C3  UNL d   1       0.837   4.474  -3.379  0.00  0.00    -0.075 A 
ATOM      5  S   UNL d   1      -0.393   4.934  -2.261  0.00  0.00     0.015 SA
ATOM      6  C4  UNL d   1      -1.123   5.987  -3.384  0.00  0.00     0.022 A 
ATOM      7  C5  UNL d   1      -0.458   6.000  -4.587  0.00  0.00     0.026 A 
ATOM      8  C6  UNL d   1       0.682   5.127  -4.604  0.00  0.00    -0.082 A 
ATOM      9  C7  UNL d   1       1.618   4.854  -5.631  0.00  0.00     0.045 A 
ENDROOT
TORSDOF 0
ENDMDL
