MODEL 1
REMARK minimizedAffinity 0.900721431
REMARK minimizedRMSD -1
REMARK  0 active torsions:
REMARK  status: ('A' for Active; 'I' for Inactive)
ROOT
ATOM      1  C   UNL d   1      -1.255  -0.614   1.210  0.00  0.00    -0.002 A 
ATOM      2  C1  UNL d   1      -1.495  -1.908   0.771  0.00  0.00     0.010 A 
ATOM      3  C2  UNL d   1      -0.457  -2.686   0.253  0.00  0.00     0.041 A 
ATOM      4  C3  UNL d   1       0.838  -2.136   0.184  0.00  0.00    -0.075 A 
ATOM      5  S   UNL d   1       2.262  -2.903  -0.412  0.00  0.00     0.015 SA
ATOM      6  C4  UNL d   1       3.223  -1.530  -0.097  0.00  0.00     0.022 A 
ATOM      7  C5  UNL d   1       2.490  -0.503   0.449  0.00  0.00     0.026 A 
ATOM      8  C6  UNL d   1       1.104  -0.835   0.621  0.00  0.00    -0.082 A 
ATOM      9  C7  UNL d   1       0.031  -0.072   1.140  0.00  0.00     0.045 A 
ENDROOT
TORSDOF 0
ENDMDL
