MODEL 1
REMARK minimizedAffinity 0.0920029283
REMARK minimizedRMSD -1
REMARK  0 active torsions:
REMARK  status: ('A' for Active; 'I' for Inactive)
ROOT
ATOM      1  C   UNL d   1       1.022   0.110   1.550  0.00  0.00    -0.002 A 
ATOM      2  C1  UNL d   1      -0.307  -0.281   1.484  0.00  0.00     0.010 A 
ATOM      3  C2  UNL d   1      -0.678  -1.422   0.770  0.00  0.00     0.041 A 
ATOM      4  C3  UNL d   1       0.321  -2.172   0.118  0.00  0.00    -0.075 A 
ATOM      5  S   UNL d   1       0.103  -3.606  -0.814  0.00  0.00     0.015 SA
ATOM      6  C4  UNL d   1       1.770  -3.734  -1.145  0.00  0.00     0.022 A 
ATOM      7  C5  UNL d   1       2.490  -2.716  -0.567  0.00  0.00     0.026 A 
ATOM      8  C6  UNL d   1       1.667  -1.799   0.172  0.00  0.00    -0.082 A 
ATOM      9  C7  UNL d   1       2.010  -0.636   0.903  0.00  0.00     0.045 A 
ENDROOT
TORSDOF 0
ENDMDL
