MODEL 1
REMARK minimizedAffinity 4.54948759
REMARK minimizedRMSD -1
REMARK  0 active torsions:
REMARK  status: ('A' for Active; 'I' for Inactive)
ROOT
ATOM      1  C   UNL d   1       0.894  -3.964  -0.261  0.00  0.00    -0.002 A 
ATOM      2  C1  UNL d   1       2.135  -4.415  -0.688  0.00  0.00     0.010 A 
ATOM      3  C2  UNL d   1       3.286  -3.665  -0.439  0.00  0.00     0.041 A 
ATOM      4  C3  UNL d   1       3.168  -2.444   0.254  0.00  0.00    -0.075 A 
ATOM      5  S   UNL d   1       4.441  -1.359   0.672  0.00  0.00     0.015 SA
ATOM      6  C4  UNL d   1       3.367  -0.272   1.427  0.00  0.00     0.022 A 
ATOM      7  C5  UNL d   1       2.065  -0.711   1.371  0.00  0.00     0.026 A 
ATOM      8  C6  UNL d   1       1.929  -1.970   0.694  0.00  0.00    -0.082 A 
ATOM      9  C7  UNL d   1       0.780  -2.753   0.426  0.00  0.00     0.045 A 
ENDROOT
TORSDOF 0
ENDMDL
