MODEL 1
REMARK minimizedAffinity -2.97693276
REMARK minimizedRMSD -1
REMARK  2 active torsions:
REMARK  status: ('A' for Active; 'I' for Inactive)
REMARK    1  A    between atoms: C2'_3  and  C1'_4 
REMARK    2  A    between atoms: C1'_4  and  C1_5 
ROOT
ATOM      1  C1  I4B d   1       1.228  -0.034   0.259  0.00  0.00    -0.075 A 
ATOM      2  C2  I4B d   1       0.554   1.115  -0.073  0.00  0.00     0.003 A 
ATOM      3  C3  I4B d   1      -0.853   1.095  -0.231  0.00  0.00     0.002 A 
ATOM      4  C4  I4B d   1      -1.536  -0.097  -0.098  0.00  0.00    -0.004 A 
ATOM      5  C5  I4B d   1      -0.853  -1.256   0.261  0.00  0.00     0.002 A 
ATOM      6  C6  I4B d   1       0.536  -1.222   0.453  0.00  0.00     0.003 A 
ENDROOT
BRANCH   1   7
ATOM      7  C1' I4B d   1       2.717   0.016   0.386  0.00  0.00     0.060 C 
BRANCH   7   8
ATOM      8  C2' I4B d   1       3.070  -0.225   1.840  0.00  0.00    -0.013 C 
ATOM      9  C4' I4B d   1       4.401  -0.918   1.970  0.00  0.00     0.013 C 
ATOM     10  C3' I4B d   1       3.079   1.101   2.540  0.00  0.00     0.013 C 
ENDBRANCH   7   8
ENDBRANCH   1   7
TORSDOF 2
ENDMDL
