MODEL 1
REMARK minimizedAffinity -2.44960928
REMARK minimizedRMSD -1
REMARK  2 active torsions:
REMARK  status: ('A' for Active; 'I' for Inactive)
REMARK    1  A    between atoms: C2'_3  and  C1'_4 
REMARK    2  A    between atoms: C1'_4  and  C1_5 
ROOT
ATOM      1  C1  I4B d   1      -1.106  -0.448   0.159  0.00  0.00    -0.075 A 
ATOM      2  C2  I4B d   1      -1.096  -1.589   0.921  0.00  0.00     0.003 A 
ATOM      3  C3  I4B d   1       0.127  -2.113   1.404  0.00  0.00     0.002 A 
ATOM      4  C4  I4B d   1       1.313  -1.497   1.060  0.00  0.00    -0.004 A 
ATOM      5  C5  I4B d   1       1.300  -0.327   0.306  0.00  0.00     0.002 A 
ATOM      6  C6  I4B d   1       0.082   0.209  -0.137  0.00  0.00     0.003 A 
ENDROOT
BRANCH   1   7
ATOM      7  C1' I4B d   1      -2.413   0.060  -0.362  0.00  0.00     0.060 C 
BRANCH   7   8
ATOM      8  C2' I4B d   1      -2.294   0.200  -1.866  0.00  0.00    -0.013 C 
ATOM      9  C4' I4B d   1      -2.909  -0.979  -2.573  0.00  0.00     0.013 C 
ATOM     10  C3' I4B d   1      -2.964   1.480  -2.267  0.00  0.00     0.013 C 
ENDBRANCH   7   8
ENDBRANCH   1   7
TORSDOF 2
ENDMDL
