MODEL 1
REMARK minimizedAffinity -1.54532623
REMARK minimizedRMSD -1
REMARK  2 active torsions:
REMARK  status: ('A' for Active; 'I' for Inactive)
REMARK    1  A    between atoms: C2'_3  and  C1'_4 
REMARK    2  A    between atoms: C1'_4  and  C1_5 
ROOT
ATOM      1  C1  I4B d   1      -0.301   0.187  -0.023  0.00  0.00    -0.075 A 
ATOM      2  C2  I4B d   1       0.032   1.512   0.117  0.00  0.00     0.003 A 
ATOM      3  C3  I4B d   1       1.338   1.879   0.523  0.00  0.00     0.002 A 
ATOM      4  C4  I4B d   1       2.258   0.896   0.825  0.00  0.00    -0.004 A 
ATOM      5  C5  I4B d   1       1.925  -0.446   0.661  0.00  0.00     0.002 A 
ATOM      6  C6  I4B d   1       0.642  -0.802   0.223  0.00  0.00     0.003 A 
ENDROOT
BRANCH   1   7
ATOM      7  C1' I4B d   1      -1.699  -0.166  -0.421  0.00  0.00     0.060 C 
BRANCH   7   8
ATOM      8  C2' I4B d   1      -1.980   0.484  -1.761  0.00  0.00    -0.013 C 
ATOM      9  C4' I4B d   1      -2.212  -0.551  -2.830  0.00  0.00     0.013 C 
ATOM     10  C3' I4B d   1      -3.176   1.375  -1.601  0.00  0.00     0.013 C 
ENDBRANCH   7   8
ENDBRANCH   1   7
TORSDOF 2
ENDMDL
