MODEL 1
REMARK minimizedAffinity -5.4254446
REMARK minimizedRMSD -1
REMARK  2 active torsions:
REMARK  status: ('A' for Active; 'I' for Inactive)
REMARK    1  A    between atoms: C2'_3  and  C1'_4 
REMARK    2  A    between atoms: C1'_4  and  C1_5 
ROOT
ATOM      1  C1  I4B d   1      -0.017   0.220   0.273  0.00  0.00    -0.075 A 
ATOM      2  C2  I4B d   1       0.543   1.467   0.150  0.00  0.00     0.003 A 
ATOM      3  C3  I4B d   1       1.933   1.647   0.352  0.00  0.00     0.002 A 
ATOM      4  C4  I4B d   1       2.712   0.570   0.722  0.00  0.00    -0.004 A 
ATOM      5  C5  I4B d   1       2.146  -0.698   0.824  0.00  0.00     0.002 A 
ATOM      6  C6  I4B d   1       0.776  -0.877   0.586  0.00  0.00     0.003 A 
ENDROOT
BRANCH   1   7
ATOM      7  C1' I4B d   1      -1.493   0.071   0.085  0.00  0.00     0.060 C 
BRANCH   7   8
ATOM      8  C2' I4B d   1      -1.835   0.536  -1.316  0.00  0.00    -0.013 C 
ATOM      9  C4' I4B d   1      -2.175  -0.628  -2.209  0.00  0.00     0.013 C 
ATOM     10  C3' I4B d   1      -2.982   1.497  -1.218  0.00  0.00     0.013 C 
ENDBRANCH   7   8
ENDBRANCH   1   7
TORSDOF 2
ENDMDL
