MODEL 1
REMARK minimizedAffinity -2.9007411
REMARK minimizedRMSD -1
REMARK  2 active torsions:
REMARK  status: ('A' for Active; 'I' for Inactive)
REMARK    1  A    between atoms: C2'_3  and  C1'_4 
REMARK    2  A    between atoms: C1'_4  and  C1_5 
ROOT
ATOM      1  C1  I4B d   1       0.623  -0.896   1.079  0.00  0.00    -0.075 A 
ATOM      2  C2  I4B d   1       1.242   0.279   1.428  0.00  0.00     0.003 A 
ATOM      3  C3  I4B d   1       2.654   0.376   1.402  0.00  0.00     0.002 A 
ATOM      4  C4  I4B d   1       3.406  -0.733   1.071  0.00  0.00    -0.004 A 
ATOM      5  C5  I4B d   1       2.776  -1.916   0.696  0.00  0.00     0.002 A 
ATOM      6  C6  I4B d   1       1.376  -1.995   0.687  0.00  0.00     0.003 A 
ENDROOT
BRANCH   1   7
ATOM      7  C1' I4B d   1      -0.869  -0.973   1.149  0.00  0.00     0.060 C 
BRANCH   7   8
ATOM      8  C2' I4B d   1      -1.433   0.264   0.481  0.00  0.00    -0.013 C 
ATOM      9  C4' I4B d   1      -1.762   0.001  -0.965  0.00  0.00     0.013 C 
ATOM     10  C3' I4B d   1      -2.651   0.688   1.245  0.00  0.00     0.013 C 
ENDBRANCH   7   8
ENDBRANCH   1   7
TORSDOF 2
ENDMDL
