MODEL 1
REMARK minimizedAffinity -4.70054388
REMARK minimizedRMSD -1
REMARK  2 active torsions:
REMARK  status: ('A' for Active; 'I' for Inactive)
REMARK    1  A    between atoms: C2'_3  and  C1'_4 
REMARK    2  A    between atoms: C1'_4  and  C1_5 
ROOT
ATOM      1  C1  I4B d   1      -0.504  -0.627  -0.323  0.00  0.00    -0.075 A 
ATOM      2  C2  I4B d   1      -0.044   0.562   0.186  0.00  0.00     0.003 A 
ATOM      3  C3  I4B d   1       1.267   0.652   0.713  0.00  0.00     0.002 A 
ATOM      4  C4  I4B d   1       2.061  -0.476   0.757  0.00  0.00    -0.004 A 
ATOM      5  C5  I4B d   1       1.601  -1.675   0.220  0.00  0.00     0.002 A 
ATOM      6  C6  I4B d   1       0.315  -1.748  -0.335  0.00  0.00     0.003 A 
ENDROOT
BRANCH   1   7
ATOM      7  C1' I4B d   1      -1.905  -0.695  -0.841  0.00  0.00     0.060 C 
BRANCH   7   8
ATOM      8  C2' I4B d   1      -1.886  -0.272  -2.296  0.00  0.00    -0.013 C 
ATOM      9  C4' I4B d   1      -2.120  -1.447  -3.209  0.00  0.00     0.013 C 
ATOM     10  C3' I4B d   1      -2.937   0.780  -2.487  0.00  0.00     0.013 C 
ENDBRANCH   7   8
ENDBRANCH   1   7
TORSDOF 2
ENDMDL
