MODEL 1
REMARK minimizedAffinity -1.43408298
REMARK minimizedRMSD -1
REMARK  2 active torsions:
REMARK  status: ('A' for Active; 'I' for Inactive)
REMARK    1  A    between atoms: C2'_3  and  C1'_4 
REMARK    2  A    between atoms: C1'_4  and  C1_5 
ROOT
ATOM      1  C1  I4B d   1       0.153   0.110   0.145  0.00  0.00    -0.075 A 
ATOM      2  C2  I4B d   1       0.893  -1.039   0.275  0.00  0.00     0.003 A 
ATOM      3  C3  I4B d   1       2.276  -0.965   0.571  0.00  0.00     0.002 A 
ATOM      4  C4  I4B d   1       2.884   0.269   0.677  0.00  0.00    -0.004 A 
ATOM      5  C5  I4B d   1       2.127   1.432   0.568  0.00  0.00     0.002 A 
ATOM      6  C6  I4B d   1       0.750   1.352   0.312  0.00  0.00     0.003 A 
ENDROOT
BRANCH   1   7
ATOM      7  C1' I4B d   1      -1.298  -0.004  -0.200  0.00  0.00     0.060 C 
BRANCH   7   8
ATOM      8  C2' I4B d   1      -1.421  -0.000  -1.710  0.00  0.00    -0.013 C 
ATOM      9  C4' I4B d   1      -1.771  -1.369  -2.232  0.00  0.00     0.013 C 
ATOM     10  C3' I4B d   1      -2.466   1.007  -2.087  0.00  0.00     0.013 C 
ENDBRANCH   7   8
ENDBRANCH   1   7
TORSDOF 2
ENDMDL
