MODEL 1
REMARK minimizedAffinity 7.36799955
REMARK minimizedRMSD -1
REMARK  0 active torsions:
REMARK  status: ('A' for Active; 'I' for Inactive)
ROOT
ATOM      1  C2' OXE d   1       1.440  -2.549   0.728  0.00  0.00     0.078 C 
ATOM      2  C1' OXE d   1      -0.927  -2.278   2.213  0.00  0.00     0.078 C 
ATOM      3  C1  OXE d   1      -0.903  -1.707   0.817  0.00  0.00    -0.078 A 
ATOM      4  C2  OXE d   1       0.275  -1.803   0.115  0.00  0.00    -0.078 A 
ATOM      5  C3  OXE d   1       0.335  -1.341  -1.197  0.00  0.00     0.003 A 
ATOM      6  C4  OXE d   1      -0.744  -0.643  -1.753  0.00  0.00    -0.002 A 
ATOM      7  C5  OXE d   1      -1.939  -0.499  -1.040  0.00  0.00    -0.002 A 
ATOM      8  C6  OXE d   1      -2.049  -1.061   0.227  0.00  0.00     0.003 A 
ENDROOT
TORSDOF 0
ENDMDL
