MODEL 1
REMARK minimizedAffinity 10.8376188
REMARK minimizedRMSD -1
REMARK  0 active torsions:
REMARK  status: ('A' for Active; 'I' for Inactive)
ROOT
ATOM      1  C2' OXE d   1       2.145  -0.060   0.377  0.00  0.00     0.078 C 
ATOM      2  C1' OXE d   1       4.594  -1.419   0.565  0.00  0.00     0.078 C 
ATOM      3  C1  OXE d   1       3.347  -2.155   0.986  0.00  0.00    -0.078 A 
ATOM      4  C2  OXE d   1       2.159  -1.467   0.935  0.00  0.00    -0.078 A 
ATOM      5  C3  OXE d   1       0.971  -2.116   1.259  0.00  0.00     0.003 A 
ATOM      6  C4  OXE d   1       0.994  -3.414   1.784  0.00  0.00    -0.002 A 
ATOM      7  C5  OXE d   1       2.198  -4.120   1.882  0.00  0.00    -0.002 A 
ATOM      8  C6  OXE d   1       3.375  -3.521   1.448  0.00  0.00     0.003 A 
ENDROOT
TORSDOF 0
ENDMDL
