MODEL 1
REMARK minimizedAffinity -4.87254095
REMARK minimizedRMSD -1
REMARK  1 active torsions:
REMARK  status: ('A' for Active; 'I' for Inactive)
REMARK    1  A    between atoms: N_2  and  C1_3 
ROOT
ATOM      1  C1  UNL d   1       0.739   0.322   0.604  0.00  0.00     0.143 A 
ATOM      2  C2  UNL d   1      -0.104   1.435   0.694  0.00  0.00    -0.057 A 
ATOM      3  C3  UNL d   1       0.408   2.738   0.664  0.00  0.00     0.033 A 
ATOM      4  C4  UNL d   1       1.780   2.951   0.573  0.00  0.00    -0.042 A 
ATOM      5  C5  UNL d   1       2.638   1.859   0.508  0.00  0.00     0.033 A 
ATOM      6  C6  UNL d   1       2.121   0.561   0.531  0.00  0.00    -0.057 A 
ENDROOT
BRANCH   1   7
ATOM      7  N   UNL d   1       0.300  -0.999   0.727  0.00  0.00    -0.732 N 
ATOM      8  C   UNL d   1      -0.534  -1.596  -0.293  0.00  0.00     0.284 C 
ATOM      9  H3  UNL d   1       1.024  -1.617   1.088  0.00  0.00     0.395 HD
ENDBRANCH   1   7
TORSDOF 1
ENDMDL
