MODEL 1
REMARK minimizedAffinity -3.34369564
REMARK minimizedRMSD -1
REMARK  1 active torsions:
REMARK  status: ('A' for Active; 'I' for Inactive)
REMARK    1  A    between atoms: N_2  and  C1_3 
ROOT
ATOM      1  C1  UNL d   1       0.304   0.941   0.122  0.00  0.00     0.143 A 
ATOM      2  C2  UNL d   1      -0.474   2.085   0.331  0.00  0.00    -0.057 A 
ATOM      3  C3  UNL d   1       0.117   3.335   0.549  0.00  0.00     0.033 A 
ATOM      4  C4  UNL d   1       1.502   3.458   0.590  0.00  0.00    -0.042 A 
ATOM      5  C5  UNL d   1       2.295   2.331   0.409  0.00  0.00     0.033 A 
ATOM      6  C6  UNL d   1       1.698   1.086   0.186  0.00  0.00    -0.057 A 
ENDROOT
BRANCH   1   7
ATOM      7  N   UNL d   1      -0.224  -0.347  -0.002  0.00  0.00    -0.732 N 
ATOM      8  C   UNL d   1       0.623  -1.458  -0.379  0.00  0.00     0.284 C 
ATOM      9  H3  UNL d   1      -0.893  -0.565   0.734  0.00  0.00     0.395 HD
ENDBRANCH   1   7
TORSDOF 1
ENDMDL
