MODEL 1
REMARK minimizedAffinity -2.68084812
REMARK minimizedRMSD -1
REMARK  1 active torsions:
REMARK  status: ('A' for Active; 'I' for Inactive)
REMARK    1  A    between atoms: N_2  and  C1_3 
ROOT
ATOM      1  C1  UNL d   1      -0.257   0.962   0.201  0.00  0.00     0.143 A 
ATOM      2  C2  UNL d   1       0.922   1.324  -0.460  0.00  0.00    -0.057 A 
ATOM      3  C3  UNL d   1       1.541   2.557  -0.219  0.00  0.00     0.033 A 
ATOM      4  C4  UNL d   1       0.973   3.465   0.668  0.00  0.00    -0.042 A 
ATOM      5  C5  UNL d   1      -0.212   3.137   1.318  0.00  0.00     0.033 A 
ATOM      6  C6  UNL d   1      -0.821   1.902   1.078  0.00  0.00    -0.057 A 
ENDROOT
BRANCH   1   7
ATOM      7  N   UNL d   1      -0.972  -0.207  -0.068  0.00  0.00    -0.732 N 
ATOM      8  C   UNL d   1      -0.284  -1.468  -0.246  0.00  0.00     0.284 C 
ATOM      9  H3  UNL d   1      -1.828  -0.273   0.479  0.00  0.00     0.395 HD
ENDBRANCH   1   7
TORSDOF 1
ENDMDL
