MODEL 1
REMARK minimizedAffinity -4.64417839
REMARK minimizedRMSD -1
REMARK  1 active torsions:
REMARK  status: ('A' for Active; 'I' for Inactive)
REMARK    1  A    between atoms: N_2  and  C1_3 
ROOT
ATOM      1  C1  UNL d   1       0.301   0.020   0.184  0.00  0.00     0.143 A 
ATOM      2  C2  UNL d   1       1.449   0.543  -0.420  0.00  0.00    -0.057 A 
ATOM      3  C3  UNL d   1       1.607   1.922  -0.608  0.00  0.00     0.033 A 
ATOM      4  C4  UNL d   1       0.603   2.802  -0.220  0.00  0.00    -0.042 A 
ATOM      5  C5  UNL d   1      -0.558   2.303   0.360  0.00  0.00     0.033 A 
ATOM      6  C6  UNL d   1      -0.707   0.926   0.551  0.00  0.00    -0.057 A 
ENDROOT
BRANCH   1   7
ATOM      7  N   UNL d   1       0.041  -1.347   0.309  0.00  0.00    -0.732 N 
ATOM      8  C   UNL d   1      -0.153  -2.171  -0.865  0.00  0.00     0.284 C 
ATOM      9  H3  UNL d   1       0.604  -1.784   1.035  0.00  0.00     0.395 HD
ENDBRANCH   1   7
TORSDOF 1
ENDMDL
