MODEL 1
REMARK minimizedAffinity -5.24669123
REMARK minimizedRMSD -1
REMARK  1 active torsions:
REMARK  status: ('A' for Active; 'I' for Inactive)
REMARK    1  A    between atoms: N_2  and  C1_3 
ROOT
ATOM      1  C1  UNL d   1       0.511   0.917   0.023  0.00  0.00     0.143 A 
ATOM      2  C2  UNL d   1      -0.136   2.158   0.040  0.00  0.00    -0.057 A 
ATOM      3  C3  UNL d   1       0.559   3.335   0.341  0.00  0.00     0.033 A 
ATOM      4  C4  UNL d   1       1.913   3.289   0.660  0.00  0.00    -0.042 A 
ATOM      5  C5  UNL d   1       2.570   2.064   0.673  0.00  0.00     0.033 A 
ATOM      6  C6  UNL d   1       1.872   0.892   0.365  0.00  0.00    -0.057 A 
ENDROOT
BRANCH   1   7
ATOM      7  N   UNL d   1      -0.147  -0.300  -0.172  0.00  0.00    -0.732 N 
ATOM      8  C   UNL d   1       0.220  -1.468   0.599  0.00  0.00     0.284 C 
ATOM      9  H3  UNL d   1      -1.149  -0.184  -0.299  0.00  0.00     0.395 HD
ENDBRANCH   1   7
TORSDOF 1
ENDMDL
