MODEL 1
REMARK minimizedAffinity -1.55849874
REMARK minimizedRMSD -1
REMARK  1 active torsions:
REMARK  status: ('A' for Active; 'I' for Inactive)
REMARK    1  A    between atoms: N_2  and  C1_3 
ROOT
ATOM      1  C1  UNL d   1      -0.011   1.437   0.307  0.00  0.00     0.143 A 
ATOM      2  C2  UNL d   1       1.303   0.960   0.235  0.00  0.00    -0.057 A 
ATOM      3  C3  UNL d   1       1.572  -0.406   0.085  0.00  0.00     0.033 A 
ATOM      4  C4  UNL d   1       0.529  -1.324   0.032  0.00  0.00    -0.042 A 
ATOM      5  C5  UNL d   1      -0.784  -0.875   0.126  0.00  0.00     0.033 A 
ATOM      6  C6  UNL d   1      -1.046   0.490   0.270  0.00  0.00    -0.057 A 
ENDROOT
BRANCH   1   7
ATOM      7  N   UNL d   1      -0.341   2.772   0.556  0.00  0.00    -0.732 N 
ATOM      8  C   UNL d   1       0.625   3.672   1.148  0.00  0.00     0.284 C 
ATOM      9  H3  UNL d   1      -0.886   3.184  -0.198  0.00  0.00     0.395 HD
ENDBRANCH   1   7
TORSDOF 1
ENDMDL
