MODEL 1
REMARK minimizedAffinity -3.35246253
REMARK minimizedRMSD -1
REMARK  1 active torsions:
REMARK  status: ('A' for Active; 'I' for Inactive)
REMARK    1  A    between atoms: N_2  and  C1_3 
ROOT
ATOM      1  C1  UNL d   1      -0.455  -0.539  -0.617  0.00  0.00     0.143 A 
ATOM      2  C2  UNL d   1      -0.025  -1.774  -0.121  0.00  0.00    -0.057 A 
ATOM      3  C3  UNL d   1      -0.199  -2.952  -0.857  0.00  0.00     0.033 A 
ATOM      4  C4  UNL d   1      -0.835  -2.919  -2.094  0.00  0.00    -0.042 A 
ATOM      5  C5  UNL d   1      -1.293  -1.706  -2.595  0.00  0.00     0.033 A 
ATOM      6  C6  UNL d   1      -1.110  -0.532  -1.858  0.00  0.00    -0.057 A 
ENDROOT
BRANCH   1   7
ATOM      7  N   UNL d   1      -0.400   0.653   0.110  0.00  0.00    -0.732 N 
ATOM      8  C   UNL d   1      -1.476   1.617   0.029  0.00  0.00     0.284 C 
ATOM      9  H3  UNL d   1      -0.032   0.518   1.049  0.00  0.00     0.395 HD
ENDBRANCH   1   7
TORSDOF 1
ENDMDL
