MODEL 1
REMARK minimizedAffinity -4.1363101
REMARK minimizedRMSD -1
REMARK  1 active torsions:
REMARK  status: ('A' for Active; 'I' for Inactive)
REMARK    1  A    between atoms: N_2  and  C1_3 
ROOT
ATOM      1  C1  UNL d   1      -0.032  -0.541   0.341  0.00  0.00     0.143 A 
ATOM      2  C2  UNL d   1       0.834   0.446  -0.142  0.00  0.00    -0.057 A 
ATOM      3  C3  UNL d   1       0.516   1.806  -0.036  0.00  0.00     0.033 A 
ATOM      4  C4  UNL d   1      -0.690   2.202   0.531  0.00  0.00    -0.042 A 
ATOM      5  C5  UNL d   1      -1.578   1.238   0.995  0.00  0.00     0.033 A 
ATOM      6  C6  UNL d   1      -1.252  -0.118   0.892  0.00  0.00    -0.057 A 
ENDROOT
BRANCH   1   7
ATOM      7  N   UNL d   1       0.181  -1.911   0.176  0.00  0.00    -0.732 N 
ATOM      8  C   UNL d   1       0.024  -2.531  -1.122  0.00  0.00     0.284 C 
ATOM      9  H3  UNL d   1       0.987  -2.245   0.701  0.00  0.00     0.395 HD
ENDBRANCH   1   7
TORSDOF 1
ENDMDL
