MODEL 1
REMARK minimizedAffinity -4.61812973
REMARK minimizedRMSD -1
REMARK  1 active torsions:
REMARK  status: ('A' for Active; 'I' for Inactive)
REMARK    1  A    between atoms: N_2  and  C1_3 
ROOT
ATOM      1  C1  UNL d   1       0.026   1.138   0.326  0.00  0.00     0.143 A 
ATOM      2  C2  UNL d   1      -0.677   2.317   0.054  0.00  0.00    -0.057 A 
ATOM      3  C3  UNL d   1      -0.040   3.563   0.074  0.00  0.00     0.033 A 
ATOM      4  C4  UNL d   1       1.310   3.656   0.396  0.00  0.00    -0.042 A 
ATOM      5  C5  UNL d   1       2.023   2.500   0.694  0.00  0.00     0.033 A 
ATOM      6  C6  UNL d   1       1.383   1.258   0.666  0.00  0.00    -0.057 A 
ENDROOT
BRANCH   1   7
ATOM      7  N   UNL d   1      -0.573  -0.121   0.419  0.00  0.00    -0.732 N 
ATOM      8  C   UNL d   1       0.217  -1.325   0.274  0.00  0.00     0.284 C 
ATOM      9  H3  UNL d   1      -1.268  -0.166   1.160  0.00  0.00     0.395 HD
ENDBRANCH   1   7
TORSDOF 1
ENDMDL
