MODEL 1
REMARK minimizedAffinity 10.3054838
REMARK minimizedRMSD -1
REMARK  0 active torsions:
REMARK  status: ('A' for Active; 'I' for Inactive)
ROOT
ATOM      1  C4' PXY d   1       0.676  -3.287   0.231  0.00  0.00     0.077 C 
ATOM      2  C1' PXY d   1       1.728   1.933   2.482  0.00  0.00     0.077 C 
ATOM      3  C1  PXY d   1       1.439   0.565   1.894  0.00  0.00    -0.082 A 
ATOM      4  C2  PXY d   1       2.388  -0.356   1.884  0.00  0.00     0.003 A 
ATOM      5  C3  PXY d   1       2.154  -1.587   1.327  0.00  0.00     0.003 A 
ATOM      6  C4  PXY d   1       0.919  -1.896   0.823  0.00  0.00    -0.082 A 
ATOM      7  C5  PXY d   1      -0.058  -0.965   0.839  0.00  0.00     0.003 A 
ATOM      8  C6  PXY d   1       0.212   0.292   1.372  0.00  0.00     0.003 A 
ENDROOT
TORSDOF 0
ENDMDL
