MODEL 1
REMARK minimizedAffinity 5.60997057
REMARK minimizedRMSD -1
REMARK  0 active torsions:
REMARK  status: ('A' for Active; 'I' for Inactive)
ROOT
ATOM      1  C4' PXY d   1      -5.921  -5.994  -5.998  0.00  0.00     0.077 C 
ATOM      2  C1' PXY d   1      -3.318  -0.892  -5.216  0.00  0.00     0.077 C 
ATOM      3  C1  PXY d   1      -4.011  -2.226  -5.414  0.00  0.00    -0.082 A 
ATOM      4  C2  PXY d   1      -3.294  -3.297  -5.716  0.00  0.00     0.003 A 
ATOM      5  C3  PXY d   1      -3.908  -4.504  -5.930  0.00  0.00     0.003 A 
ATOM      6  C4  PXY d   1      -5.263  -4.629  -5.780  0.00  0.00    -0.082 A 
ATOM      7  C5  PXY d   1      -6.000  -3.544  -5.461  0.00  0.00     0.003 A 
ATOM      8  C6  PXY d   1      -5.363  -2.319  -5.289  0.00  0.00     0.003 A 
ENDROOT
TORSDOF 0
ENDMDL
