MODEL 1
REMARK minimizedAffinity 12.5723047
REMARK minimizedRMSD -1
REMARK  0 active torsions:
REMARK  status: ('A' for Active; 'I' for Inactive)
ROOT
ATOM      1  C4' PXY d   1       5.807   2.141  -5.998  0.00  0.00     0.077 C 
ATOM      2  C1' PXY d   1       3.873  -2.977  -4.132  0.00  0.00     0.077 C 
ATOM      3  C1  PXY d   1       4.392  -1.640  -4.624  0.00  0.00    -0.082 A 
ATOM      4  C2  PXY d   1       3.862  -0.521  -4.158  0.00  0.00     0.003 A 
ATOM      5  C3  PXY d   1       4.297   0.696  -4.616  0.00  0.00     0.003 A 
ATOM      6  C4  PXY d   1       5.321   0.769  -5.522  0.00  0.00    -0.082 A 
ATOM      7  C5  PXY d   1       5.874  -0.368  -5.995  0.00  0.00     0.003 A 
ATOM      8  C6  PXY d   1       5.390  -1.594  -5.548  0.00  0.00     0.003 A 
ENDROOT
TORSDOF 0
ENDMDL
