MODEL 1
REMARK minimizedAffinity 4.55264235
REMARK minimizedRMSD -1
REMARK  0 active torsions:
REMARK  status: ('A' for Active; 'I' for Inactive)
ROOT
ATOM      1  C4' PXY d   1      -5.977  -2.455  -1.850  0.00  0.00     0.077 C 
ATOM      2  C1' PXY d   1      -4.072  -6.000  -6.000  0.00  0.00     0.077 C 
ATOM      3  C1  PXY d   1      -4.569  -5.079  -4.902  0.00  0.00    -0.082 A 
ATOM      4  C2  PXY d   1      -5.435  -4.122  -5.194  0.00  0.00     0.003 A 
ATOM      5  C3  PXY d   1      -5.870  -3.261  -4.220  0.00  0.00     0.003 A 
ATOM      6  C4  PXY d   1      -5.455  -3.414  -2.924  0.00  0.00    -0.082 A 
ATOM      7  C5  PXY d   1      -4.580  -4.394  -2.617  0.00  0.00     0.003 A 
ATOM      8  C6  PXY d   1      -4.119  -5.232  -3.628  0.00  0.00     0.003 A 
ENDROOT
TORSDOF 0
ENDMDL
