MODEL 1
REMARK minimizedAffinity 12.5262442
REMARK minimizedRMSD -1
REMARK  0 active torsions:
REMARK  status: ('A' for Active; 'I' for Inactive)
ROOT
ATOM      1  C4' PXY d   1      -0.675   2.216   1.515  0.00  0.00     0.077 C 
ATOM      2  C1' PXY d   1      -5.997   4.395   0.924  0.00  0.00     0.077 C 
ATOM      3  C1  PXY d   1      -4.602   3.817   1.067  0.00  0.00    -0.082 A 
ATOM      4  C2  PXY d   1      -4.081   3.658   2.273  0.00  0.00     0.003 A 
ATOM      5  C3  PXY d   1      -2.809   3.167   2.419  0.00  0.00     0.003 A 
ATOM      6  C4  PXY d   1      -2.083   2.786   1.323  0.00  0.00    -0.082 A 
ATOM      7  C5  PXY d   1      -2.612   2.936   0.090  0.00  0.00     0.003 A 
ATOM      8  C6  PXY d   1      -3.889   3.474  -0.040  0.00  0.00     0.003 A 
ENDROOT
TORSDOF 0
ENDMDL
