MODEL 1
REMARK minimizedAffinity 3.16568637
REMARK minimizedRMSD -1
REMARK  0 active torsions:
REMARK  status: ('A' for Active; 'I' for Inactive)
ROOT
ATOM      1  C4' PXY d   1       5.764   0.195  -6.000  0.00  0.00     0.077 C 
ATOM      2  C1' PXY d   1       1.483  -2.670  -3.377  0.00  0.00     0.077 C 
ATOM      3  C1  PXY d   1       2.597  -1.912  -4.072  0.00  0.00    -0.082 A 
ATOM      4  C2  PXY d   1       3.807  -2.444  -4.139  0.00  0.00     0.003 A 
ATOM      5  C3  PXY d   1       4.833  -1.758  -4.736  0.00  0.00     0.003 A 
ATOM      6  C4  PXY d   1       4.607  -0.539  -5.316  0.00  0.00    -0.082 A 
ATOM      7  C5  PXY d   1       3.373   0.006  -5.261  0.00  0.00     0.003 A 
ATOM      8  C6  PXY d   1       2.354  -0.689  -4.614  0.00  0.00     0.003 A 
ENDROOT
TORSDOF 0
ENDMDL
