MODEL 1
REMARK minimizedAffinity 9.55451584
REMARK minimizedRMSD -1
REMARK  0 active torsions:
REMARK  status: ('A' for Active; 'I' for Inactive)
ROOT
ATOM      1  C4' PXY d   1       1.834  -0.792   2.214  0.00  0.00     0.077 C 
ATOM      2  C1' PXY d   1       2.117   4.160  -0.754  0.00  0.00     0.077 C 
ATOM      3  C1  PXY d   1       2.048   2.855   0.014  0.00  0.00    -0.082 A 
ATOM      4  C2  PXY d   1       1.145   2.705   0.969  0.00  0.00     0.003 A 
ATOM      5  C3  PXY d   1       1.090   1.543   1.695  0.00  0.00     0.003 A 
ATOM      6  C4  PXY d   1       1.933   0.505   1.406  0.00  0.00    -0.082 A 
ATOM      7  C5  PXY d   1       2.851   0.646   0.426  0.00  0.00     0.003 A 
ATOM      8  C6  PXY d   1       2.918   1.848  -0.272  0.00  0.00     0.003 A 
ENDROOT
TORSDOF 0
ENDMDL
