MODEL 1
REMARK minimizedAffinity 3.6064198
REMARK minimizedRMSD -1
REMARK  0 active torsions:
REMARK  status: ('A' for Active; 'I' for Inactive)
ROOT
ATOM      1  C4' PXY d   1       2.395   1.171   3.095  0.00  0.00     0.077 C 
ATOM      2  C1' PXY d   1       1.093  -3.992   0.845  0.00  0.00     0.077 C 
ATOM      3  C1  PXY d   1       1.441  -2.644   1.445  0.00  0.00    -0.082 A 
ATOM      4  C2  PXY d   1       0.675  -1.596   1.188  0.00  0.00     0.003 A 
ATOM      5  C3  PXY d   1       0.993  -0.363   1.696  0.00  0.00     0.003 A 
ATOM      6  C4  PXY d   1       2.077  -0.211   2.519  0.00  0.00    -0.082 A 
ATOM      7  C5  PXY d   1       2.857  -1.278   2.795  0.00  0.00     0.003 A 
ATOM      8  C6  PXY d   1       2.540  -2.512   2.236  0.00  0.00     0.003 A 
ENDROOT
TORSDOF 0
ENDMDL
