MODEL 1
REMARK minimizedAffinity 0.470402122
REMARK minimizedRMSD -1
REMARK  0 active torsions:
REMARK  status: ('A' for Active; 'I' for Inactive)
ROOT
ATOM      1  C4' PXY d   1       1.999   4.503  -1.249  0.00  0.00     0.077 C 
ATOM      2  C1' PXY d   1       5.997   5.996  -5.148  0.00  0.00     0.077 C 
ATOM      3  C1  PXY d   1       4.958   5.605  -4.116  0.00  0.00    -0.082 A 
ATOM      4  C2  PXY d   1       3.896   4.909  -4.488  0.00  0.00     0.003 A 
ATOM      5  C3  PXY d   1       2.930   4.575  -3.574  0.00  0.00     0.003 A 
ATOM      6  C4  PXY d   1       3.079   4.911  -2.255  0.00  0.00    -0.082 A 
ATOM      7  C5  PXY d   1       4.164   5.612  -1.865  0.00  0.00     0.003 A 
ATOM      8  C6  PXY d   1       5.113   5.977  -2.816  0.00  0.00     0.003 A 
ENDROOT
TORSDOF 0
ENDMDL
