MODEL 1
REMARK minimizedAffinity 8.43693352
REMARK minimizedRMSD -1
REMARK  0 active torsions:
REMARK  status: ('A' for Active; 'I' for Inactive)
ROOT
ATOM      1  C4' PXY d   1      -3.845   0.626  -3.459  0.00  0.00     0.077 C 
ATOM      2  C1' PXY d   1      -5.698   4.859   0.015  0.00  0.00     0.077 C 
ATOM      3  C1  PXY d   1      -5.200   3.753  -0.894  0.00  0.00    -0.082 A 
ATOM      4  C2  PXY d   1      -6.000   3.262  -1.826  0.00  0.00     0.003 A 
ATOM      5  C3  PXY d   1      -5.577   2.240  -2.636  0.00  0.00     0.003 A 
ATOM      6  C4  PXY d   1      -4.303   1.750  -2.525  0.00  0.00    -0.082 A 
ATOM      7  C5  PXY d   1      -3.476   2.253  -1.583  0.00  0.00     0.003 A 
ATOM      8  C6  PXY d   1      -3.939   3.262  -0.744  0.00  0.00     0.003 A 
ENDROOT
TORSDOF 0
ENDMDL
