MODEL 1
REMARK minimizedAffinity 2.1898315
REMARK minimizedRMSD -1
REMARK  0 active torsions:
REMARK  status: ('A' for Active; 'I' for Inactive)
ROOT
ATOM      1  C4' PXY d   1       5.993  -5.976  -5.196  0.00  0.00     0.077 C 
ATOM      2  C1' PXY d   1       4.641  -0.376  -4.715  0.00  0.00     0.077 C 
ATOM      3  C1  PXY d   1       4.994  -1.846  -4.829  0.00  0.00    -0.082 A 
ATOM      4  C2  PXY d   1       5.699  -2.272  -5.864  0.00  0.00     0.003 A 
ATOM      5  C3  PXY d   1       6.000  -3.603  -5.999  0.00  0.00     0.003 A 
ATOM      6  C4  PXY d   1       5.621  -4.499  -5.036  0.00  0.00    -0.082 A 
ATOM      7  C5  PXY d   1       4.911  -4.071  -3.971  0.00  0.00     0.003 A 
ATOM      8  C6  PXY d   1       4.581  -2.723  -3.874  0.00  0.00     0.003 A 
ENDROOT
TORSDOF 0
ENDMDL
