MODEL 1
REMARK minimizedAffinity 12.4321003
REMARK minimizedRMSD -1
REMARK  0 active torsions:
REMARK  status: ('A' for Active; 'I' for Inactive)
ROOT
ATOM      1  C4' PXY d   1       1.612   2.701   3.172  0.00  0.00     0.077 C 
ATOM      2  C1' PXY d   1       3.186  -2.515   1.241  0.00  0.00     0.077 C 
ATOM      3  C1  PXY d   1       2.785  -1.143   1.747  0.00  0.00    -0.082 A 
ATOM      4  C2  PXY d   1       1.679  -1.006   2.458  0.00  0.00     0.003 A 
ATOM      5  C3  PXY d   1       1.285   0.233   2.896  0.00  0.00     0.003 A 
ATOM      6  C4  PXY d   1       2.060   1.334   2.649  0.00  0.00    -0.082 A 
ATOM      7  C5  PXY d   1       3.196   1.200   1.932  0.00  0.00     0.003 A 
ATOM      8  C6  PXY d   1       3.557  -0.059   1.461  0.00  0.00     0.003 A 
ENDROOT
TORSDOF 0
ENDMDL
