MODEL 1
REMARK minimizedAffinity 3.42178583
REMARK minimizedRMSD -1
REMARK  0 active torsions:
REMARK  status: ('A' for Active; 'I' for Inactive)
ROOT
ATOM      1  C4' PXY d   1       5.465  -3.673  -5.628  0.00  0.00     0.077 C 
ATOM      2  C1' PXY d   1       3.877   1.013  -2.638  0.00  0.00     0.077 C 
ATOM      3  C1  PXY d   1       4.304  -0.209  -3.426  0.00  0.00    -0.082 A 
ATOM      4  C2  PXY d   1       3.404  -1.121  -3.758  0.00  0.00     0.003 A 
ATOM      5  C3  PXY d   1       3.778  -2.248  -4.444  0.00  0.00     0.003 A 
ATOM      6  C4  PXY d   1       5.078  -2.418  -4.840  0.00  0.00    -0.082 A 
ATOM      7  C5  PXY d   1       6.000  -1.488  -4.514  0.00  0.00     0.003 A 
ATOM      8  C6  PXY d   1       5.607  -0.371  -3.783  0.00  0.00     0.003 A 
ENDROOT
TORSDOF 0
ENDMDL
