MODEL 1
REMARK minimizedAffinity 2.192554
REMARK minimizedRMSD -1
REMARK  1 active torsions:
REMARK  status: ('A' for Active; 'I' for Inactive)
REMARK    1  A    between atoms: C1_2  and  C2_3 
ROOT
ATOM      1  C2  UNL d   1      -0.840  -2.543  -0.482  0.00  0.00    -0.076 A 
ATOM      2  C3  UNL d   1      -2.231  -2.547  -0.283  0.00  0.00     0.004 A 
ATOM      3  C4  UNL d   1      -3.101  -2.135  -1.290  0.00  0.00    -0.003 A 
ATOM      4  C5  UNL d   1      -2.594  -1.712  -2.514  0.00  0.00     0.000 A 
ATOM      5  C6  UNL d   1      -1.217  -1.718  -2.736  0.00  0.00     0.000 A 
ATOM      6  C7  UNL d   1      -0.327  -2.147  -1.736  0.00  0.00    -0.073 A 
ATOM      7  C8  UNL d   1       1.148  -2.127  -2.027  0.00  0.00     0.078 C 
ENDROOT
BRANCH   1   8
ATOM      8  C1  UNL d   1       0.056  -2.976   0.656  0.00  0.00     0.053 C 
ATOM      9  C   UNL d   1       0.406  -1.828   1.591  0.00  0.00     0.018 C 
ENDBRANCH   1   8
TORSDOF 1
ENDMDL
