MODEL 1
REMARK minimizedAffinity 1.98098922
REMARK minimizedRMSD -1
REMARK  1 active torsions:
REMARK  status: ('A' for Active; 'I' for Inactive)
REMARK    1  A    between atoms: C1_2  and  C2_3 
ROOT
ATOM      1  C2  UNL d   1      -0.015  -1.571  -0.641  0.00  0.00    -0.076 A 
ATOM      2  C3  UNL d   1       1.349  -1.405  -0.937  0.00  0.00     0.004 A 
ATOM      3  C4  UNL d   1       1.823  -1.553  -2.240  0.00  0.00    -0.003 A 
ATOM      4  C5  UNL d   1       0.940  -1.870  -3.267  0.00  0.00     0.000 A 
ATOM      5  C6  UNL d   1      -0.419  -2.021  -2.993  0.00  0.00     0.000 A 
ATOM      6  C7  UNL d   1      -0.916  -1.859  -1.689  0.00  0.00    -0.073 A 
ATOM      7  C8  UNL d   1      -2.390  -2.039  -1.450  0.00  0.00     0.078 C 
ENDROOT
BRANCH   1   8
ATOM      8  C1  UNL d   1      -0.467  -1.424   0.795  0.00  0.00     0.053 C 
ATOM      9  C   UNL d   1       0.101  -2.508   1.698  0.00  0.00     0.018 C 
ENDBRANCH   1   8
TORSDOF 1
ENDMDL
