MODEL 1
REMARK minimizedAffinity 13.6357899
REMARK minimizedRMSD -1
REMARK  1 active torsions:
REMARK  status: ('A' for Active; 'I' for Inactive)
REMARK    1  A    between atoms: C1_2  and  C2_3 
ROOT
ATOM      1  C2  UNL d   1       1.390   0.302   1.724  0.00  0.00    -0.076 A 
ATOM      2  C3  UNL d   1       0.186   0.453   1.016  0.00  0.00     0.004 A 
ATOM      3  C4  UNL d   1      -0.682  -0.624   0.839  0.00  0.00    -0.003 A 
ATOM      4  C5  UNL d   1      -0.360  -1.868   1.368  0.00  0.00     0.000 A 
ATOM      5  C6  UNL d   1       0.823  -2.032   2.088  0.00  0.00     0.000 A 
ATOM      6  C7  UNL d   1       1.701  -0.953   2.290  0.00  0.00    -0.073 A 
ATOM      7  C8  UNL d   1       2.966  -1.188   3.070  0.00  0.00     0.078 C 
ENDROOT
BRANCH   1   8
ATOM      8  C1  UNL d   1       2.305   1.498   1.860  0.00  0.00     0.053 C 
ATOM      9  C   UNL d   1       2.739   2.057   0.514  0.00  0.00     0.018 C 
ENDBRANCH   1   8
TORSDOF 1
ENDMDL
