MODEL 1
REMARK minimizedAffinity 3.15262318
REMARK minimizedRMSD -1
REMARK  1 active torsions:
REMARK  status: ('A' for Active; 'I' for Inactive)
REMARK    1  A    between atoms: C1_2  and  C2_3 
ROOT
ATOM      1  C2  UNL d   1       0.257  -2.183  -1.467  0.00  0.00    -0.076 A 
ATOM      2  C3  UNL d   1      -0.538  -2.291  -2.621  0.00  0.00     0.004 A 
ATOM      3  C4  UNL d   1      -1.905  -2.549  -2.530  0.00  0.00    -0.003 A 
ATOM      4  C5  UNL d   1      -2.499  -2.703  -1.282  0.00  0.00     0.000 A 
ATOM      5  C6  UNL d   1      -1.729  -2.582  -0.126  0.00  0.00     0.000 A 
ATOM      6  C7  UNL d   1      -0.353  -2.306  -0.200  0.00  0.00    -0.073 A 
ATOM      7  C8  UNL d   1       0.430  -2.192   1.079  0.00  0.00     0.078 C 
ENDROOT
BRANCH   1   8
ATOM      8  C1  UNL d   1       1.738  -1.929  -1.628  0.00  0.00     0.053 C 
ATOM      9  C   UNL d   1       2.032  -0.782  -2.583  0.00  0.00     0.018 C 
ENDBRANCH   1   8
TORSDOF 1
ENDMDL
