MODEL 1
REMARK minimizedAffinity 8.66714478
REMARK minimizedRMSD -1
REMARK  1 active torsions:
REMARK  status: ('A' for Active; 'I' for Inactive)
REMARK    1  A    between atoms: C1_2  and  C2_3 
ROOT
ATOM      1  C2  UNL d   1       0.756   1.216   0.798  0.00  0.00    -0.076 A 
ATOM      2  C3  UNL d   1      -0.551   0.800   0.492  0.00  0.00     0.004 A 
ATOM      3  C4  UNL d   1      -0.963  -0.509   0.737  0.00  0.00    -0.003 A 
ATOM      4  C5  UNL d   1      -0.075  -1.422   1.294  0.00  0.00     0.000 A 
ATOM      5  C6  UNL d   1       1.221  -1.022   1.620  0.00  0.00     0.000 A 
ATOM      6  C7  UNL d   1       1.647   0.298   1.394  0.00  0.00    -0.073 A 
ATOM      7  C8  UNL d   1       3.057   0.674   1.760  0.00  0.00     0.078 C 
ENDROOT
BRANCH   1   8
ATOM      8  C1  UNL d   1       1.155   2.641   0.485  0.00  0.00     0.053 C 
ATOM      9  C   UNL d   1       2.071   2.737  -0.725  0.00  0.00     0.018 C 
ENDBRANCH   1   8
TORSDOF 1
ENDMDL
