MODEL 1
REMARK minimizedAffinity 2.93130779
REMARK minimizedRMSD -1
REMARK  1 active torsions:
REMARK  status: ('A' for Active; 'I' for Inactive)
REMARK    1  A    between atoms: C1_2  and  C2_3 
ROOT
ATOM      1  C2  UNL d   1       1.941  -1.534   3.013  0.00  0.00    -0.076 A 
ATOM      2  C3  UNL d   1       3.044  -1.977   3.763  0.00  0.00     0.004 A 
ATOM      3  C4  UNL d   1       3.096  -3.278   4.261  0.00  0.00    -0.003 A 
ATOM      4  C5  UNL d   1       2.046  -4.156   4.017  0.00  0.00     0.000 A 
ATOM      5  C6  UNL d   1       0.953  -3.739   3.260  0.00  0.00     0.000 A 
ATOM      6  C7  UNL d   1       0.892  -2.436   2.736  0.00  0.00    -0.073 A 
ATOM      7  C8  UNL d   1      -0.315  -2.037   1.931  0.00  0.00     0.078 C 
ENDROOT
BRANCH   1   8
ATOM      8  C1  UNL d   1       1.927  -0.104   2.521  0.00  0.00     0.053 C 
ATOM      9  C   UNL d   1       2.069  -0.006   1.010  0.00  0.00     0.018 C 
ENDBRANCH   1   8
TORSDOF 1
ENDMDL
