MODEL 1
REMARK minimizedAffinity 0.689975619
REMARK minimizedRMSD -1
REMARK  1 active torsions:
REMARK  status: ('A' for Active; 'I' for Inactive)
REMARK    1  A    between atoms: C3_4  and  O_7 
ROOT
ATOM      1  C   UNL d   1      -5.998  -0.380   5.168  0.00  0.00    -0.033 A 
ATOM      2  C1  UNL d   1      -5.084   0.290   5.983  0.00  0.00     0.039 A 
ATOM      3  C2  UNL d   1      -4.167   1.181   5.422  0.00  0.00    -0.080 A 
ATOM      4  C3  UNL d   1      -4.175   1.393   4.046  0.00  0.00     0.150 A 
ATOM      5  C4  UNL d   1      -5.086   0.732   3.228  0.00  0.00    -0.007 A 
ATOM      6  C5  UNL d   1      -6.000  -0.158   3.790  0.00  0.00     0.039 A 
ENDROOT
BRANCH   4   7
ATOM      7  O   UNL d   1      -3.296   2.250   3.452  0.00  0.00    -0.526 OA
ATOM      8  H5  UNL d   1      -2.709   2.612   4.137  0.00  0.00     0.418 HD
ENDBRANCH   4   7
TORSDOF 1
ENDMDL
