MODEL 1
REMARK minimizedAffinity 0.0811265185
REMARK minimizedRMSD -1
REMARK  1 active torsions:
REMARK  status: ('A' for Active; 'I' for Inactive)
REMARK    1  A    between atoms: C3_4  and  O_7 
ROOT
ATOM      1  C   UNL d   1      -2.727   1.069   1.045  0.00  0.00    -0.033 A 
ATOM      2  C1  UNL d   1      -1.568   0.425   0.607  0.00  0.00     0.039 A 
ATOM      3  C2  UNL d   1      -0.432   0.401   1.418  0.00  0.00    -0.080 A 
ATOM      4  C3  UNL d   1      -0.467   1.024   2.663  0.00  0.00     0.150 A 
ATOM      5  C4  UNL d   1      -1.620   1.664   3.107  0.00  0.00    -0.007 A 
ATOM      6  C5  UNL d   1      -2.753   1.687   2.295  0.00  0.00     0.039 A 
ENDROOT
BRANCH   4   7
ATOM      7  O   UNL d   1       0.619   1.032   3.487  0.00  0.00    -0.526 OA
ATOM      8  H5  UNL d   1       1.350   0.577   3.037  0.00  0.00     0.418 HD
ENDBRANCH   4   7
TORSDOF 1
ENDMDL
