MODEL 1
REMARK minimizedAffinity -0.401669323
REMARK minimizedRMSD -1
REMARK  1 active torsions:
REMARK  status: ('A' for Active; 'I' for Inactive)
REMARK    1  A    between atoms: C3_4  and  O_7 
ROOT
ATOM      1  C   UNL d   1      -1.168   2.727   4.194  0.00  0.00    -0.033 A 
ATOM      2  C1  UNL d   1      -2.372   2.233   3.689  0.00  0.00     0.039 A 
ATOM      3  C2  UNL d   1      -2.368   1.338   2.618  0.00  0.00    -0.080 A 
ATOM      4  C3  UNL d   1      -1.154   0.943   2.063  0.00  0.00     0.150 A 
ATOM      5  C4  UNL d   1       0.050   1.427   2.563  0.00  0.00    -0.007 A 
ATOM      6  C5  UNL d   1       0.044   2.323   3.631  0.00  0.00     0.039 A 
ENDROOT
BRANCH   4   7
ATOM      7  O   UNL d   1      -1.100   0.074   1.013  0.00  0.00    -0.526 OA
ATOM      8  H5  UNL d   1      -2.009  -0.154   0.755  0.00  0.00     0.418 HD
ENDBRANCH   4   7
TORSDOF 1
ENDMDL
