MODEL 1
REMARK minimizedAffinity 2.67652559
REMARK minimizedRMSD -1
REMARK  1 active torsions:
REMARK  status: ('A' for Active; 'I' for Inactive)
REMARK    1  A    between atoms: C3_4  and  O_7 
ROOT
ATOM      1  C   UNL d   1       3.850   0.445  -4.100  0.00  0.00    -0.033 A 
ATOM      2  C1  UNL d   1       3.421  -0.576  -3.249  0.00  0.00     0.039 A 
ATOM      3  C2  UNL d   1       2.334  -1.376  -3.607  0.00  0.00    -0.080 A 
ATOM      4  C3  UNL d   1       1.685  -1.145  -4.817  0.00  0.00     0.150 A 
ATOM      5  C4  UNL d   1       2.109  -0.133  -5.672  0.00  0.00    -0.007 A 
ATOM      6  C5  UNL d   1       3.195   0.665  -5.312  0.00  0.00     0.039 A 
ENDROOT
BRANCH   4   7
ATOM      7  O   UNL d   1       0.617  -1.896  -5.207  0.00  0.00    -0.526 OA
ATOM      8  H5  UNL d   1       0.419  -2.538  -4.505  0.00  0.00     0.418 HD
ENDBRANCH   4   7
TORSDOF 1
ENDMDL
