MODEL 1
REMARK minimizedAffinity 0.150251493
REMARK minimizedRMSD -1
REMARK  1 active torsions:
REMARK  status: ('A' for Active; 'I' for Inactive)
REMARK    1  A    between atoms: C3_4  and  O_7 
ROOT
ATOM      1  C   UNL d   1      -2.394   3.873   5.930  0.00  0.00    -0.033 A 
ATOM      2  C1  UNL d   1      -2.359   5.269   5.909  0.00  0.00     0.039 A 
ATOM      3  C2  UNL d   1      -3.548   6.000   5.931  0.00  0.00    -0.080 A 
ATOM      4  C3  UNL d   1      -4.765   5.324   5.975  0.00  0.00     0.150 A 
ATOM      5  C4  UNL d   1      -4.807   3.934   6.000  0.00  0.00    -0.007 A 
ATOM      6  C5  UNL d   1      -3.619   3.206   5.977  0.00  0.00     0.039 A 
ENDROOT
BRANCH   4   7
ATOM      7  O   UNL d   1      -5.952   5.994   5.992  0.00  0.00    -0.526 OA
ATOM      8  H5  UNL d   1      -5.768   6.947   5.942  0.00  0.00     0.418 HD
ENDBRANCH   4   7
TORSDOF 1
ENDMDL
