MODEL 1
REMARK minimizedAffinity 10.739934
REMARK minimizedRMSD -1
REMARK  1 active torsions:
REMARK  status: ('A' for Active; 'I' for Inactive)
REMARK    1  A    between atoms: C3_4  and  O_7 
ROOT
ATOM      1  C   UNL d   1       2.692   1.345   0.748  0.00  0.00    -0.033 A 
ATOM      2  C1  UNL d   1       4.039   1.644   0.534  0.00  0.00     0.039 A 
ATOM      3  C2  UNL d   1       5.021   1.075   1.347  0.00  0.00    -0.080 A 
ATOM      4  C3  UNL d   1       4.643   0.208   2.369  0.00  0.00     0.150 A 
ATOM      5  C4  UNL d   1       3.303  -0.097   2.586  0.00  0.00    -0.007 A 
ATOM      6  C5  UNL d   1       2.325   0.474   1.774  0.00  0.00     0.039 A 
ENDROOT
BRANCH   4   7
ATOM      7  O   UNL d   1       5.565  -0.368   3.192  0.00  0.00    -0.526 OA
ATOM      8  H5  UNL d   1       6.446  -0.043   2.942  0.00  0.00     0.418 HD
ENDBRANCH   4   7
TORSDOF 1
ENDMDL
