MODEL 1
REMARK minimizedAffinity 2.59087706
REMARK minimizedRMSD -1
REMARK  1 active torsions:
REMARK  status: ('A' for Active; 'I' for Inactive)
REMARK    1  A    between atoms: C3_4  and  O_7 
ROOT
ATOM      1  C   UNL d   1      -4.976   2.978   5.996  0.00  0.00    -0.033 A 
ATOM      2  C1  UNL d   1      -5.396   4.310   5.998  0.00  0.00     0.039 A 
ATOM      3  C2  UNL d   1      -4.454   5.340   5.997  0.00  0.00    -0.080 A 
ATOM      4  C3  UNL d   1      -3.098   5.026   5.993  0.00  0.00     0.150 A 
ATOM      5  C4  UNL d   1      -2.673   3.702   5.987  0.00  0.00    -0.007 A 
ATOM      6  C5  UNL d   1      -3.615   2.674   5.989  0.00  0.00     0.039 A 
ENDROOT
BRANCH   4   7
ATOM      7  O   UNL d   1      -2.141   5.998   5.997  0.00  0.00    -0.526 OA
ATOM      8  H5  UNL d   1      -2.582   6.863   6.030  0.00  0.00     0.418 HD
ENDBRANCH   4   7
TORSDOF 1
ENDMDL
