MODEL 1
REMARK minimizedAffinity 5.44253445
REMARK minimizedRMSD -1
REMARK  1 active torsions:
REMARK  status: ('A' for Active; 'I' for Inactive)
REMARK    1  A    between atoms: C3_4  and  O_7 
ROOT
ATOM      1  C   UNL d   1       2.994  -1.778  -3.109  0.00  0.00    -0.033 A 
ATOM      2  C1  UNL d   1       3.805  -0.681  -2.812  0.00  0.00     0.039 A 
ATOM      3  C2  UNL d   1       3.762   0.459  -3.617  0.00  0.00    -0.080 A 
ATOM      4  C3  UNL d   1       2.904   0.490  -4.713  0.00  0.00     0.150 A 
ATOM      5  C4  UNL d   1       2.091  -0.598  -5.012  0.00  0.00    -0.007 A 
ATOM      6  C5  UNL d   1       2.135  -1.736  -4.208  0.00  0.00     0.039 A 
ENDROOT
BRANCH   4   7
ATOM      7  O   UNL d   1       2.831   1.578  -5.530  0.00  0.00    -0.526 OA
ATOM      8  H5  UNL d   1       3.470   2.241  -5.219  0.00  0.00     0.418 HD
ENDBRANCH   4   7
TORSDOF 1
ENDMDL
