MODEL 1
REMARK minimizedAffinity 1.51601493
REMARK minimizedRMSD -1
REMARK  1 active torsions:
REMARK  status: ('A' for Active; 'I' for Inactive)
REMARK    1  A    between atoms: C3_4  and  O_7 
ROOT
ATOM      1  C   UNL d   1      -5.939   4.301   5.933  0.00  0.00    -0.033 A 
ATOM      2  C1  UNL d   1      -5.030   5.360   5.969  0.00  0.00     0.039 A 
ATOM      3  C2  UNL d   1      -3.657   5.103   5.979  0.00  0.00    -0.080 A 
ATOM      4  C3  UNL d   1      -3.208   3.786   5.952  0.00  0.00     0.150 A 
ATOM      5  C4  UNL d   1      -4.109   2.727   5.913  0.00  0.00    -0.007 A 
ATOM      6  C5  UNL d   1      -5.479   2.985   5.904  0.00  0.00     0.039 A 
ENDROOT
BRANCH   4   7
ATOM      7  O   UNL d   1      -1.879   3.486   5.966  0.00  0.00    -0.526 OA
ATOM      8  H5  UNL d   1      -1.376   4.316   6.023  0.00  0.00     0.418 HD
ENDBRANCH   4   7
TORSDOF 1
ENDMDL
