MODEL 1
REMARK minimizedAffinity 7.01182795
REMARK minimizedRMSD -1
REMARK  1 active torsions:
REMARK  status: ('A' for Active; 'I' for Inactive)
REMARK    1  A    between atoms: C3_4  and  O_7 
ROOT
ATOM      1  C   UNL d   1      -2.076   5.312   5.989  0.00  0.00    -0.033 A 
ATOM      2  C1  UNL d   1      -2.054   3.916   5.982  0.00  0.00     0.039 A 
ATOM      3  C2  UNL d   1      -3.251   3.197   5.981  0.00  0.00    -0.080 A 
ATOM      4  C3  UNL d   1      -4.461   3.885   5.986  0.00  0.00     0.150 A 
ATOM      5  C4  UNL d   1      -4.491   5.276   5.989  0.00  0.00    -0.007 A 
ATOM      6  C5  UNL d   1      -3.295   5.992   5.991  0.00  0.00     0.039 A 
ENDROOT
BRANCH   4   7
ATOM      7  O   UNL d   1      -5.655   3.227   5.990  0.00  0.00    -0.526 OA
ATOM      8  H5  UNL d   1      -5.479   2.271   6.016  0.00  0.00     0.418 HD
ENDBRANCH   4   7
TORSDOF 1
ENDMDL
