MODEL 1
REMARK minimizedAffinity 0.700843096
REMARK minimizedRMSD -1
REMARK  1 active torsions:
REMARK  status: ('A' for Active; 'I' for Inactive)
REMARK    1  A    between atoms: C3_4  and  O_7 
ROOT
ATOM      1  C   UNL d   1      -5.611   2.964   5.993  0.00  0.00    -0.033 A 
ATOM      2  C1  UNL d   1      -4.275   2.561   5.997  0.00  0.00     0.039 A 
ATOM      3  C2  UNL d   1      -3.255   3.515   6.000  0.00  0.00    -0.080 A 
ATOM      4  C3  UNL d   1      -3.585   4.867   5.999  0.00  0.00     0.150 A 
ATOM      5  C4  UNL d   1      -4.915   5.276   5.998  0.00  0.00    -0.007 A 
ATOM      6  C5  UNL d   1      -5.931   4.322   5.995  0.00  0.00     0.039 A 
ENDROOT
BRANCH   4   7
ATOM      7  O   UNL d   1      -2.625   5.835   5.996  0.00  0.00    -0.526 OA
ATOM      8  H5  UNL d   1      -1.755   5.404   5.968  0.00  0.00     0.418 HD
ENDBRANCH   4   7
TORSDOF 1
ENDMDL
