MODEL 1
REMARK minimizedAffinity 3.18829918
REMARK minimizedRMSD -1
REMARK  1 active torsions:
REMARK  status: ('A' for Active; 'I' for Inactive)
REMARK    1  A    between atoms: C3_4  and  O_7 
ROOT
ATOM      1  C   UNL d   1      -3.540   4.913   5.994  0.00  0.00    -0.033 A 
ATOM      2  C1  UNL d   1      -3.149   3.573   5.998  0.00  0.00     0.039 A 
ATOM      3  C2  UNL d   1      -1.948   3.192   5.398  0.00  0.00    -0.080 A 
ATOM      4  C3  UNL d   1      -1.147   4.160   4.799  0.00  0.00     0.150 A 
ATOM      5  C4  UNL d   1      -1.528   5.498   4.794  0.00  0.00    -0.007 A 
ATOM      6  C5  UNL d   1      -2.729   5.876   5.394  0.00  0.00     0.039 A 
ENDROOT
BRANCH   4   7
ATOM      7  O   UNL d   1       0.032   3.836   4.196  0.00  0.00    -0.526 OA
ATOM      8  H5  UNL d   1       0.152   2.874   4.251  0.00  0.00     0.418 HD
ENDBRANCH   4   7
TORSDOF 1
ENDMDL
