MODEL 1
REMARK minimizedAffinity -4.6748209
REMARK minimizedRMSD -1
REMARK  0 active torsions:
REMARK  status: ('A' for Active; 'I' for Inactive)
ROOT
ATOM      1  C1  DEN d   1       1.349   1.260  -0.544  0.00  0.00     0.130 A 
ATOM      2  C2  DEN d   1       0.986   0.583  -1.786  0.00  0.00    -0.031 A 
ATOM      3  C3  DEN d   1      -0.402   0.096  -1.651  0.00  0.00     0.027 A 
ATOM      4  C4  DEN d   1      -2.016   0.326   0.348  0.00  0.00     0.027 A 
ATOM      5  C5  DEN d   1      -2.152   0.810   1.630  0.00  0.00    -0.003 A 
ATOM      6  C6  DEN d   1      -1.129   1.443   2.285  0.00  0.00     0.001 A 
ATOM      7  C7  DEN d   1       0.063   1.649   1.642  0.00  0.00     0.017 A 
ATOM      8  C8  DEN d   1       0.211   1.157   0.352  0.00  0.00    -0.094 A 
ATOM      9  C9  DEN d   1      -0.839   0.531  -0.297  0.00  0.00    -0.072 A 
ENDROOT
TORSDOF 0
ENDMDL
