MODEL 1
REMARK minimizedAffinity -4.31762934
REMARK minimizedRMSD -1
REMARK  0 active torsions:
REMARK  status: ('A' for Active; 'I' for Inactive)
ROOT
ATOM      1  C1  DEN d   1      -1.228  -0.383  -0.407  0.00  0.00     0.130 A 
ATOM      2  C2  DEN d   1      -0.077  -0.968  -1.088  0.00  0.00    -0.031 A 
ATOM      3  C3  DEN d   1       1.134  -0.625  -0.316  0.00  0.00     0.027 A 
ATOM      4  C4  DEN d   1       1.336   0.745   1.860  0.00  0.00     0.027 A 
ATOM      5  C5  DEN d   1       0.635   1.457   2.808  0.00  0.00    -0.003 A 
ATOM      6  C6  DEN d   1      -0.722   1.634   2.732  0.00  0.00     0.001 A 
ATOM      7  C7  DEN d   1      -1.426   1.052   1.711  0.00  0.00     0.017 A 
ATOM      8  C8  DEN d   1      -0.725   0.339   0.748  0.00  0.00    -0.094 A 
ATOM      9  C9  DEN d   1       0.645   0.161   0.849  0.00  0.00    -0.072 A 
ENDROOT
TORSDOF 0
ENDMDL
