MODEL 1
REMARK minimizedAffinity -4.69205666
REMARK minimizedRMSD -1
REMARK  0 active torsions:
REMARK  status: ('A' for Active; 'I' for Inactive)
ROOT
ATOM      1  C1  DEN d   1       1.475  -0.537  -0.342  0.00  0.00     0.130 A 
ATOM      2  C2  DEN d   1       0.622  -0.792  -1.500  0.00  0.00    -0.031 A 
ATOM      3  C3  DEN d   1      -0.716  -0.236  -1.213  0.00  0.00     0.027 A 
ATOM      4  C4  DEN d   1      -1.543   0.993   0.899  0.00  0.00     0.027 A 
ATOM      5  C5  DEN d   1      -1.184   1.436   2.152  0.00  0.00    -0.003 A 
ATOM      6  C6  DEN d   1       0.065   1.225   2.672  0.00  0.00     0.001 A 
ATOM      7  C7  DEN d   1       1.016   0.591   1.916  0.00  0.00     0.017 A 
ATOM      8  C8  DEN d   1       0.660   0.135   0.654  0.00  0.00    -0.094 A 
ATOM      9  C9  DEN d   1      -0.605   0.370   0.142  0.00  0.00    -0.072 A 
ENDROOT
TORSDOF 0
ENDMDL
