MODEL 1
REMARK minimizedAffinity -3.25828934
REMARK minimizedRMSD -1
REMARK  0 active torsions:
REMARK  status: ('A' for Active; 'I' for Inactive)
ROOT
ATOM      1  C1  DEN d   1       0.211   1.088   2.472  0.00  0.00     0.130 A 
ATOM      2  C2  DEN d   1      -1.126   1.327   3.007  0.00  0.00    -0.031 A 
ATOM      3  C3  DEN d   1      -2.108   0.921   1.982  0.00  0.00     0.027 A 
ATOM      4  C4  DEN d   1      -1.690  -0.056  -0.368  0.00  0.00     0.027 A 
ATOM      5  C5  DEN d   1      -0.721  -0.429  -1.273  0.00  0.00    -0.003 A 
ATOM      6  C6  DEN d   1       0.616  -0.292  -1.008  0.00  0.00     0.001 A 
ATOM      7  C7  DEN d   1       1.021   0.189   0.209  0.00  0.00     0.017 A 
ATOM      8  C8  DEN d   1       0.050   0.575   1.123  0.00  0.00    -0.094 A 
ATOM      9  C9  DEN d   1      -1.297   0.417   0.841  0.00  0.00    -0.072 A 
ENDROOT
TORSDOF 0
ENDMDL
