MODEL 1
REMARK minimizedAffinity -3.13982868
REMARK minimizedRMSD -1
REMARK  0 active torsions:
REMARK  status: ('A' for Active; 'I' for Inactive)
ROOT
ATOM      1  C1  DEN d   1       1.494   0.303  -0.486  0.00  0.00     0.130 A 
ATOM      2  C2  DEN d   1       0.517  -0.600   0.117  0.00  0.00    -0.031 A 
ATOM      3  C3  DEN d   1      -0.119  -1.375  -0.967  0.00  0.00     0.027 A 
ATOM      4  C4  DEN d   1       0.316  -1.270  -3.507  0.00  0.00     0.027 A 
ATOM      5  C5  DEN d   1       1.045  -0.648  -4.496  0.00  0.00    -0.003 A 
ATOM      6  C6  DEN d   1       1.943   0.349  -4.224  0.00  0.00     0.001 A 
ATOM      7  C7  DEN d   1       2.168   0.724  -2.925  0.00  0.00     0.017 A 
ATOM      8  C8  DEN d   1       1.431   0.107  -1.923  0.00  0.00    -0.094 A 
ATOM      9  C9  DEN d   1       0.537  -0.908  -2.218  0.00  0.00    -0.072 A 
ENDROOT
TORSDOF 0
ENDMDL
