MODEL 1
REMARK minimizedAffinity -4.54664135
REMARK minimizedRMSD -1
REMARK  0 active torsions:
REMARK  status: ('A' for Active; 'I' for Inactive)
ROOT
ATOM      1  C1  DEN d   1       1.600  -0.386  -0.031  0.00  0.00     0.130 A 
ATOM      2  C2  DEN d   1       1.105  -0.875  -1.315  0.00  0.00    -0.031 A 
ATOM      3  C3  DEN d   1      -0.348  -0.617  -1.373  0.00  0.00     0.027 A 
ATOM      4  C4  DEN d   1      -1.870   0.493   0.390  0.00  0.00     0.027 A 
ATOM      5  C5  DEN d   1      -1.906   1.061   1.644  0.00  0.00    -0.003 A 
ATOM      6  C6  DEN d   1      -0.792   1.155   2.435  0.00  0.00     0.001 A 
ATOM      7  C7  DEN d   1       0.416   0.714   1.962  0.00  0.00     0.017 A 
ATOM      8  C8  DEN d   1       0.459   0.134   0.701  0.00  0.00    -0.094 A 
ATOM      9  C9  DEN d   1      -0.676   0.059  -0.088  0.00  0.00    -0.072 A 
ENDROOT
TORSDOF 0
ENDMDL
