MODEL 1
REMARK minimizedAffinity -1.17740667
REMARK minimizedRMSD -1
REMARK  0 active torsions:
REMARK  status: ('A' for Active; 'I' for Inactive)
ROOT
ATOM      1  C1  DEN d   1       0.576  -1.591  -0.719  0.00  0.00     0.130 A 
ATOM      2  C2  DEN d   1      -0.617  -0.857  -1.133  0.00  0.00    -0.031 A 
ATOM      3  C3  DEN d   1      -0.650   0.419  -0.389  0.00  0.00     0.027 A 
ATOM      4  C4  DEN d   1       1.024   1.325   1.352  0.00  0.00     0.027 A 
ATOM      5  C5  DEN d   1       2.187   1.053   2.038  0.00  0.00    -0.003 A 
ATOM      6  C6  DEN d   1       2.871  -0.123   1.880  0.00  0.00     0.001 A 
ATOM      7  C7  DEN d   1       2.421  -1.054   0.982  0.00  0.00     0.017 A 
ATOM      8  C8  DEN d   1       1.245  -0.791   0.291  0.00  0.00    -0.094 A 
ATOM      9  C9  DEN d   1       0.575   0.410   0.456  0.00  0.00    -0.072 A 
ENDROOT
TORSDOF 0
ENDMDL
