MODEL 1
REMARK minimizedAffinity -4.33607626
REMARK minimizedRMSD -1
REMARK  0 active torsions:
REMARK  status: ('A' for Active; 'I' for Inactive)
ROOT
ATOM      1  C1  DEN d   1       1.671  -0.334   1.148  0.00  0.00     0.130 A 
ATOM      2  C2  DEN d   1       1.601  -1.284   0.042  0.00  0.00    -0.031 A 
ATOM      3  C3  DEN d   1       0.303  -1.099  -0.638  0.00  0.00     0.027 A 
ATOM      4  C4  DEN d   1      -1.592   0.562  -0.090  0.00  0.00     0.027 A 
ATOM      5  C5  DEN d   1      -1.996   1.562   0.767  0.00  0.00    -0.003 A 
ATOM      6  C6  DEN d   1      -1.226   1.974   1.823  0.00  0.00     0.001 A 
ATOM      7  C7  DEN d   1       0.008   1.413   2.022  0.00  0.00     0.017 A 
ATOM      8  C8  DEN d   1       0.418   0.399   1.167  0.00  0.00    -0.094 A 
ATOM      9  C9  DEN d   1      -0.369   0.006   0.098  0.00  0.00    -0.072 A 
ENDROOT
TORSDOF 0
ENDMDL
