MODEL 1
REMARK minimizedAffinity -2.61822796
REMARK minimizedRMSD -1
REMARK  0 active torsions:
REMARK  status: ('A' for Active; 'I' for Inactive)
ROOT
ATOM      1  C   UNL d   1      -1.665   2.809   1.613  0.00  0.00     0.077 C 
ATOM      2  C1  UNL d   1      -0.647   1.737   1.366  0.00  0.00    -0.074 A 
ATOM      3  C2  UNL d   1       0.256   1.359   2.365  0.00  0.00    -0.005 A 
ATOM      4  C3  UNL d   1       1.192   0.353   2.123  0.00  0.00     0.006 A 
ATOM      5  C4  UNL d   1       1.234  -0.284   0.882  0.00  0.00    -0.005 A 
ATOM      6  C5  UNL d   1       0.339   0.080  -0.128  0.00  0.00    -0.074 A 
ATOM      7  C6  UNL d   1       0.364  -0.601  -1.464  0.00  0.00     0.077 C 
ATOM      8  C7  UNL d   1      -0.603   1.087   0.124  0.00  0.00    -0.001 A 
ENDROOT
TORSDOF 0
ENDMDL
