MODEL 1
REMARK minimizedAffinity -3.89495993
REMARK minimizedRMSD -1
REMARK  0 active torsions:
REMARK  status: ('A' for Active; 'I' for Inactive)
ROOT
ATOM      1  C   UNL d   1       0.019  -0.703   1.204  0.00  0.00     0.077 C 
ATOM      2  C1  UNL d   1      -0.387   0.722   0.968  0.00  0.00    -0.074 A 
ATOM      3  C2  UNL d   1      -0.699   1.567   2.038  0.00  0.00    -0.005 A 
ATOM      4  C3  UNL d   1      -1.066   2.892   1.803  0.00  0.00     0.006 A 
ATOM      5  C4  UNL d   1      -1.125   3.384   0.499  0.00  0.00    -0.005 A 
ATOM      6  C5  UNL d   1      -0.816   2.554  -0.583  0.00  0.00    -0.074 A 
ATOM      7  C6  UNL d   1      -0.865   3.071  -1.990  0.00  0.00     0.077 C 
ATOM      8  C7  UNL d   1      -0.441   1.226  -0.339  0.00  0.00    -0.001 A 
ENDROOT
TORSDOF 0
ENDMDL
