MODEL 1
REMARK minimizedAffinity -5.65733671
REMARK minimizedRMSD -1
REMARK  0 active torsions:
REMARK  status: ('A' for Active; 'I' for Inactive)
ROOT
ATOM      1  C   UNL d   1       0.720  -0.847  -0.786  0.00  0.00     0.077 C 
ATOM      2  C1  UNL d   1       0.105   0.340  -0.106  0.00  0.00    -0.074 A 
ATOM      3  C2  UNL d   1       0.182   0.494   1.282  0.00  0.00    -0.005 A 
ATOM      4  C3  UNL d   1      -0.387   1.608   1.898  0.00  0.00     0.006 A 
ATOM      5  C4  UNL d   1      -1.037   2.579   1.135  0.00  0.00    -0.005 A 
ATOM      6  C5  UNL d   1      -1.123   2.443  -0.254  0.00  0.00    -0.074 A 
ATOM      7  C6  UNL d   1      -1.809   3.481  -1.091  0.00  0.00     0.077 C 
ATOM      8  C7  UNL d   1      -0.543   1.324  -0.867  0.00  0.00    -0.001 A 
ENDROOT
TORSDOF 0
ENDMDL
