MODEL 1
REMARK minimizedAffinity -4.80447531
REMARK minimizedRMSD -1
REMARK  0 active torsions:
REMARK  status: ('A' for Active; 'I' for Inactive)
ROOT
ATOM      1  C   UNL d   1       0.543  -0.074  -2.334  0.00  0.00     0.077 C 
ATOM      2  C1  UNL d   1       0.216   0.359  -0.935  0.00  0.00    -0.074 A 
ATOM      3  C2  UNL d   1       0.375  -0.517   0.144  0.00  0.00    -0.005 A 
ATOM      4  C3  UNL d   1       0.077  -0.097   1.440  0.00  0.00     0.006 A 
ATOM      5  C4  UNL d   1      -0.384   1.200   1.670  0.00  0.00    -0.005 A 
ATOM      6  C5  UNL d   1      -0.549   2.089   0.604  0.00  0.00    -0.074 A 
ATOM      7  C6  UNL d   1      -1.033   3.490   0.835  0.00  0.00     0.077 C 
ATOM      8  C7  UNL d   1      -0.240   1.663  -0.695  0.00  0.00    -0.001 A 
ENDROOT
TORSDOF 0
ENDMDL
