MODEL 1
REMARK minimizedAffinity -3.85399652
REMARK minimizedRMSD -1
REMARK  0 active torsions:
REMARK  status: ('A' for Active; 'I' for Inactive)
ROOT
ATOM      1  C   UNL d   1      -1.369   3.011   1.695  0.00  0.00     0.077 C 
ATOM      2  C1  UNL d   1      -0.943   2.202   0.506  0.00  0.00    -0.074 A 
ATOM      3  C2  UNL d   1      -0.913   2.766  -0.774  0.00  0.00    -0.005 A 
ATOM      4  C3  UNL d   1      -0.506   2.004  -1.868  0.00  0.00     0.006 A 
ATOM      5  C4  UNL d   1      -0.124   0.673  -1.695  0.00  0.00    -0.005 A 
ATOM      6  C5  UNL d   1      -0.147   0.092  -0.423  0.00  0.00    -0.074 A 
ATOM      7  C6  UNL d   1       0.269  -1.334  -0.218  0.00  0.00     0.077 C 
ATOM      8  C7  UNL d   1      -0.551   0.867   0.673  0.00  0.00    -0.001 A 
ENDROOT
TORSDOF 0
ENDMDL
