MODEL 1
REMARK minimizedAffinity -4.55587912
REMARK minimizedRMSD -1
REMARK  0 active torsions:
REMARK  status: ('A' for Active; 'I' for Inactive)
ROOT
ATOM      1  C   UNL d   1       0.570  -1.157  -0.738  0.00  0.00     0.077 C 
ATOM      2  C1  UNL d   1       0.123   0.089  -0.033  0.00  0.00    -0.074 A 
ATOM      3  C2  UNL d   1       0.182   0.187   1.361  0.00  0.00    -0.005 A 
ATOM      4  C3  UNL d   1      -0.228   1.356   2.002  0.00  0.00     0.006 A 
ATOM      5  C4  UNL d   1      -0.701   2.437   1.256  0.00  0.00    -0.005 A 
ATOM      6  C5  UNL d   1      -0.767   2.357  -0.138  0.00  0.00    -0.074 A 
ATOM      7  C6  UNL d   1      -1.264   3.513  -0.955  0.00  0.00     0.077 C 
ATOM      8  C7  UNL d   1      -0.346   1.182  -0.775  0.00  0.00    -0.001 A 
ENDROOT
TORSDOF 0
ENDMDL
