MODEL 1
REMARK minimizedAffinity -4.60737562
REMARK minimizedRMSD -1
REMARK  0 active torsions:
REMARK  status: ('A' for Active; 'I' for Inactive)
ROOT
ATOM      1  C   UNL d   1      -0.953   2.181   2.366  0.00  0.00     0.077 C 
ATOM      2  C1  UNL d   1      -0.547   2.064   0.927  0.00  0.00    -0.074 A 
ATOM      3  C2  UNL d   1      -0.678   3.148   0.053  0.00  0.00    -0.005 A 
ATOM      4  C3  UNL d   1      -0.287   3.028  -1.281  0.00  0.00     0.006 A 
ATOM      5  C4  UNL d   1       0.238   1.824  -1.753  0.00  0.00    -0.005 A 
ATOM      6  C5  UNL d   1       0.378   0.730  -0.893  0.00  0.00    -0.074 A 
ATOM      7  C6  UNL d   1       0.950  -0.568  -1.382  0.00  0.00     0.077 C 
ATOM      8  C7  UNL d   1      -0.011   0.861   0.447  0.00  0.00    -0.001 A 
ENDROOT
TORSDOF 0
ENDMDL
