MODEL 1
REMARK minimizedAffinity -6.55272388
REMARK minimizedRMSD -1
REMARK  0 active torsions:
REMARK  status: ('A' for Active; 'I' for Inactive)
ROOT
ATOM      1  C   UNL d   1       0.280  -0.992  -0.672  0.00  0.00     0.077 C 
ATOM      2  C1  UNL d   1      -0.055   0.467  -0.577  0.00  0.00    -0.074 A 
ATOM      3  C2  UNL d   1      -0.065   1.278  -1.716  0.00  0.00    -0.005 A 
ATOM      4  C3  UNL d   1      -0.388   2.631  -1.613  0.00  0.00     0.006 A 
ATOM      5  C4  UNL d   1      -0.704   3.185  -0.372  0.00  0.00    -0.005 A 
ATOM      6  C5  UNL d   1      -0.701   2.389   0.778  0.00  0.00    -0.074 A 
ATOM      7  C6  UNL d   1      -1.049   2.967   2.117  0.00  0.00     0.077 C 
ATOM      8  C7  UNL d   1      -0.382   1.029   0.665  0.00  0.00    -0.001 A 
ENDROOT
TORSDOF 0
ENDMDL
