MODEL 1
REMARK minimizedAffinity -4.26883364
REMARK minimizedRMSD -1
REMARK  0 active torsions:
REMARK  status: ('A' for Active; 'I' for Inactive)
ROOT
ATOM      1  C   UNL d   1      -1.375   3.630  -0.672  0.00  0.00     0.077 C 
ATOM      2  C1  UNL d   1      -0.833   2.474   0.115  0.00  0.00    -0.074 A 
ATOM      3  C2  UNL d   1      -0.482   2.622   1.460  0.00  0.00    -0.005 A 
ATOM      4  C3  UNL d   1       0.012   1.535   2.182  0.00  0.00     0.006 A 
ATOM      5  C4  UNL d   1       0.158   0.291   1.566  0.00  0.00    -0.005 A 
ATOM      6  C5  UNL d   1      -0.190   0.124   0.222  0.00  0.00    -0.074 A 
ATOM      7  C6  UNL d   1      -0.048  -1.209  -0.452  0.00  0.00     0.077 C 
ATOM      8  C7  UNL d   1      -0.691   1.219  -0.494  0.00  0.00    -0.001 A 
ENDROOT
TORSDOF 0
ENDMDL
