MODEL 1
REMARK minimizedAffinity 9.91793156
REMARK minimizedRMSD -1
REMARK  0 active torsions:
REMARK  status: ('A' for Active; 'I' for Inactive)
ROOT
ATOM      1  C2' OXE d   1       5.993   0.358   2.990  0.00  0.00     0.078 C 
ATOM      2  C1' OXE d   1       3.837   1.991   3.742  0.00  0.00     0.078 C 
ATOM      3  C1  OXE d   1       4.395   2.158   2.350  0.00  0.00    -0.078 A 
ATOM      4  C2  OXE d   1       5.480   1.388   2.007  0.00  0.00    -0.078 A 
ATOM      5  C3  OXE d   1       5.999   1.464   0.718  0.00  0.00     0.003 A 
ATOM      6  C4  OXE d   1       5.525   2.426  -0.182  0.00  0.00    -0.002 A 
ATOM      7  C5  OXE d   1       4.446   3.249   0.161  0.00  0.00    -0.002 A 
ATOM      8  C6  OXE d   1       3.843   3.098   1.406  0.00  0.00     0.003 A 
ENDROOT
TORSDOF 0
ENDMDL
