MODEL 1
REMARK minimizedAffinity 7.28321218
REMARK minimizedRMSD -1
REMARK  0 active torsions:
REMARK  status: ('A' for Active; 'I' for Inactive)
ROOT
ATOM      1  C2' OXE d   1      -2.631  -2.193   0.774  0.00  0.00     0.078 C 
ATOM      2  C1' OXE d   1      -1.122  -4.504   0.262  0.00  0.00     0.078 C 
ATOM      3  C1  OXE d   1      -2.618  -4.653   0.379  0.00  0.00    -0.078 A 
ATOM      4  C2  OXE d   1      -3.344  -3.524   0.676  0.00  0.00    -0.078 A 
ATOM      5  C3  OXE d   1      -4.733  -3.596   0.741  0.00  0.00     0.003 A 
ATOM      6  C4  OXE d   1      -5.384  -4.832   0.659  0.00  0.00    -0.002 A 
ATOM      7  C5  OXE d   1      -4.659  -6.000   0.396  0.00  0.00    -0.002 A 
ATOM      8  C6  OXE d   1      -3.283  -5.921   0.211  0.00  0.00     0.003 A 
ENDROOT
TORSDOF 0
ENDMDL
