MODEL 1
REMARK minimizedAffinity 15.1208515
REMARK minimizedRMSD -1
REMARK  0 active torsions:
REMARK  status: ('A' for Active; 'I' for Inactive)
ROOT
ATOM      1  C2' OXE d   1       3.770   1.895   3.837  0.00  0.00     0.078 C 
ATOM      2  C1' OXE d   1       5.999   0.377   3.057  0.00  0.00     0.078 C 
ATOM      3  C1  OXE d   1       5.427   1.352   2.058  0.00  0.00    -0.078 A 
ATOM      4  C2  OXE d   1       4.308   2.056   2.432  0.00  0.00    -0.078 A 
ATOM      5  C3  OXE d   1       3.772   3.008   1.568  0.00  0.00     0.003 A 
ATOM      6  C4  OXE d   1       4.270   3.144   0.267  0.00  0.00    -0.002 A 
ATOM      7  C5  OXE d   1       5.384   2.407  -0.148  0.00  0.00    -0.002 A 
ATOM      8  C6  OXE d   1       6.000   1.540   0.748  0.00  0.00     0.003 A 
ENDROOT
TORSDOF 0
ENDMDL
