MODEL 1
REMARK minimizedAffinity 10.8862114
REMARK minimizedRMSD -1
REMARK  0 active torsions:
REMARK  status: ('A' for Active; 'I' for Inactive)
ROOT
ATOM      1  C2' OXE d   1      -1.118  -4.446  -0.704  0.00  0.00     0.078 C 
ATOM      2  C1' OXE d   1      -1.982  -1.896  -1.500  0.00  0.00     0.078 C 
ATOM      3  C1  OXE d   1      -1.792  -2.146  -0.024  0.00  0.00    -0.078 A 
ATOM      4  C2  OXE d   1      -1.414  -3.410   0.359  0.00  0.00    -0.078 A 
ATOM      5  C3  OXE d   1      -1.171  -3.679   1.703  0.00  0.00     0.003 A 
ATOM      6  C4  OXE d   1      -1.457  -2.719   2.681  0.00  0.00    -0.002 A 
ATOM      7  C5  OXE d   1      -1.881  -1.437   2.315  0.00  0.00    -0.002 A 
ATOM      8  C6  OXE d   1      -2.012  -1.122   0.967  0.00  0.00     0.003 A 
ENDROOT
TORSDOF 0
ENDMDL
