MODEL 1
REMARK minimizedAffinity 13.6160154
REMARK minimizedRMSD -1
REMARK  0 active torsions:
REMARK  status: ('A' for Active; 'I' for Inactive)
ROOT
ATOM      1  C2' OXE d   1       5.888   1.915  -3.941  0.00  0.00     0.078 C 
ATOM      2  C1' OXE d   1       5.973  -0.887  -4.073  0.00  0.00     0.078 C 
ATOM      3  C1  OXE d   1       4.816  -0.252  -3.343  0.00  0.00    -0.078 A 
ATOM      4  C2  OXE d   1       4.807   1.118  -3.243  0.00  0.00    -0.078 A 
ATOM      5  C3  OXE d   1       3.735   1.757  -2.627  0.00  0.00     0.003 A 
ATOM      6  C4  OXE d   1       2.745   1.012  -1.975  0.00  0.00    -0.002 A 
ATOM      7  C5  OXE d   1       2.757  -0.386  -2.030  0.00  0.00    -0.002 A 
ATOM      8  C6  OXE d   1       3.760  -1.031  -2.745  0.00  0.00     0.003 A 
ENDROOT
TORSDOF 0
ENDMDL
