MODEL 1
REMARK minimizedAffinity 7.69248581
REMARK minimizedRMSD -1
REMARK  0 active torsions:
REMARK  status: ('A' for Active; 'I' for Inactive)
ROOT
ATOM      1  C2' OXE d   1      -0.328  -3.617   1.593  0.00  0.00     0.078 C 
ATOM      2  C1' OXE d   1      -2.095  -1.648   2.532  0.00  0.00     0.078 C 
ATOM      3  C1  OXE d   1      -1.964  -1.821   1.040  0.00  0.00    -0.078 A 
ATOM      4  C2  OXE d   1      -1.062  -2.755   0.588  0.00  0.00    -0.078 A 
ATOM      5  C3  OXE d   1      -0.942  -2.993  -0.778  0.00  0.00     0.003 A 
ATOM      6  C4  OXE d   1      -1.617  -2.184  -1.700  0.00  0.00    -0.002 A 
ATOM      7  C5  OXE d   1      -2.510  -1.201  -1.262  0.00  0.00    -0.002 A 
ATOM      8  C6  OXE d   1      -2.727  -1.035   0.101  0.00  0.00     0.003 A 
ENDROOT
TORSDOF 0
ENDMDL
