MODEL 1
REMARK minimizedAffinity 9.89377308
REMARK minimizedRMSD -1
REMARK  0 active torsions:
REMARK  status: ('A' for Active; 'I' for Inactive)
ROOT
ATOM      1  C2' OXE d   1      -2.600  -2.133   0.722  0.00  0.00     0.078 C 
ATOM      2  C1' OXE d   1      -2.904  -2.819   3.427  0.00  0.00     0.078 C 
ATOM      3  C1  OXE d   1      -2.085  -3.738   2.556  0.00  0.00    -0.078 A 
ATOM      4  C2  OXE d   1      -1.980  -3.420   1.224  0.00  0.00    -0.078 A 
ATOM      5  C3  OXE d   1      -1.191  -4.204   0.387  0.00  0.00     0.003 A 
ATOM      6  C4  OXE d   1      -0.629  -5.398   0.857  0.00  0.00    -0.002 A 
ATOM      7  C5  OXE d   1      -0.757  -5.761   2.202  0.00  0.00    -0.002 A 
ATOM      8  C6  OXE d   1      -1.444  -4.923   3.072  0.00  0.00     0.003 A 
ENDROOT
TORSDOF 0
ENDMDL
