MODEL 1
REMARK minimizedAffinity 4.76459885
REMARK minimizedRMSD -1
REMARK  0 active torsions:
REMARK  status: ('A' for Active; 'I' for Inactive)
ROOT
ATOM      1  C2' OXE d   1      -3.771   3.346   1.566  0.00  0.00     0.078 C 
ATOM      2  C1' OXE d   1      -5.996   4.950   2.163  0.00  0.00     0.078 C 
ATOM      3  C1  OXE d   1      -5.410   5.048   0.777  0.00  0.00    -0.078 A 
ATOM      4  C2  OXE d   1      -4.292   4.294   0.509  0.00  0.00    -0.078 A 
ATOM      5  C3  OXE d   1      -3.744   4.306  -0.771  0.00  0.00     0.003 A 
ATOM      6  C4  OXE d   1      -4.226   5.194  -1.740  0.00  0.00    -0.002 A 
ATOM      7  C5  OXE d   1      -5.338   6.000  -1.475  0.00  0.00    -0.002 A 
ATOM      8  C6  OXE d   1      -5.966   5.908  -0.238  0.00  0.00     0.003 A 
ENDROOT
TORSDOF 0
ENDMDL
