MODEL 1
REMARK minimizedAffinity 18.5318336
REMARK minimizedRMSD -1
REMARK  0 active torsions:
REMARK  status: ('A' for Active; 'I' for Inactive)
ROOT
ATOM      1  C2' OXE d   1       3.765   3.805   0.555  0.00  0.00     0.078 C 
ATOM      2  C1' OXE d   1       4.563   1.390   1.742  0.00  0.00     0.078 C 
ATOM      3  C1  OXE d   1       3.574   1.322   0.605  0.00  0.00    -0.078 A 
ATOM      4  C2  OXE d   1       3.153   2.511   0.061  0.00  0.00    -0.078 A 
ATOM      5  C3  OXE d   1       2.283   2.503  -1.025  0.00  0.00     0.003 A 
ATOM      6  C4  OXE d   1       1.715   1.303  -1.469  0.00  0.00    -0.002 A 
ATOM      7  C5  OXE d   1       2.100   0.083  -0.903  0.00  0.00    -0.002 A 
ATOM      8  C6  OXE d   1       3.058   0.071   0.105  0.00  0.00     0.003 A 
ENDROOT
TORSDOF 0
ENDMDL
