MODEL 1
REMARK minimizedAffinity 9.15062523
REMARK minimizedRMSD -1
REMARK  0 active torsions:
REMARK  status: ('A' for Active; 'I' for Inactive)
ROOT
ATOM      1  C2' OXE d   1      -0.654  -4.365   2.039  0.00  0.00     0.078 C 
ATOM      2  C1' OXE d   1      -2.632  -2.568   2.898  0.00  0.00     0.078 C 
ATOM      3  C1  OXE d   1      -2.154  -2.459   1.471  0.00  0.00    -0.078 A 
ATOM      4  C2  OXE d   1      -1.153  -3.312   1.073  0.00  0.00    -0.078 A 
ATOM      5  C3  OXE d   1      -0.714  -3.291  -0.247  0.00  0.00     0.003 A 
ATOM      6  C4  OXE d   1      -1.173  -2.308  -1.131  0.00  0.00    -0.002 A 
ATOM      7  C5  OXE d   1      -2.164  -1.404  -0.735  0.00  0.00    -0.002 A 
ATOM      8  C6  OXE d   1      -2.695  -1.493   0.547  0.00  0.00     0.003 A 
ENDROOT
TORSDOF 0
ENDMDL
