MODEL 1
REMARK minimizedAffinity 9.98203468
REMARK minimizedRMSD -1
REMARK  0 active torsions:
REMARK  status: ('A' for Active; 'I' for Inactive)
ROOT
ATOM      1  C2' OXE d   1       1.517   0.520  -1.930  0.00  0.00     0.078 C 
ATOM      2  C1' OXE d   1       0.335  -0.856  -4.072  0.00  0.00     0.078 C 
ATOM      3  C1  OXE d   1      -0.331  -0.951  -2.722  0.00  0.00    -0.078 A 
ATOM      4  C2  OXE d   1       0.280  -0.312  -1.670  0.00  0.00    -0.078 A 
ATOM      5  C3  OXE d   1      -0.321  -0.322  -0.414  0.00  0.00     0.003 A 
ATOM      6  C4  OXE d   1      -1.460  -1.103  -0.180  0.00  0.00    -0.002 A 
ATOM      7  C5  OXE d   1      -2.076  -1.793  -1.229  0.00  0.00    -0.002 A 
ATOM      8  C6  OXE d   1      -1.550  -1.693  -2.512  0.00  0.00     0.003 A 
ENDROOT
TORSDOF 0
ENDMDL
