MODEL 1
REMARK minimizedAffinity 18.3989868
REMARK minimizedRMSD -1
REMARK  0 active torsions:
REMARK  status: ('A' for Active; 'I' for Inactive)
ROOT
ATOM      1  C2' OXE d   1      -0.417  -4.584   1.568  0.00  0.00     0.078 C 
ATOM      2  C1' OXE d   1      -2.282  -2.827   2.714  0.00  0.00     0.078 C 
ATOM      3  C1  OXE d   1      -1.862  -2.575   1.287  0.00  0.00    -0.078 A 
ATOM      4  C2  OXE d   1      -0.914  -3.412   0.750  0.00  0.00    -0.078 A 
ATOM      5  C3  OXE d   1      -0.531  -3.257  -0.579  0.00  0.00     0.003 A 
ATOM      6  C4  OXE d   1      -0.988  -2.163  -1.325  0.00  0.00    -0.002 A 
ATOM      7  C5  OXE d   1      -1.924  -1.276  -0.784  0.00  0.00    -0.002 A 
ATOM      8  C6  OXE d   1      -2.402  -1.491   0.504  0.00  0.00     0.003 A 
ENDROOT
TORSDOF 0
ENDMDL
