MODEL 1
REMARK minimizedAffinity 21.6580944
REMARK minimizedRMSD -1
REMARK  0 active torsions:
REMARK  status: ('A' for Active; 'I' for Inactive)
ROOT
ATOM      1  C2' OXE d   1       5.384   5.312  -1.073  0.00  0.00     0.078 C 
ATOM      2  C1' OXE d   1       5.006   5.831   1.659  0.00  0.00     0.078 C 
ATOM      3  C1  OXE d   1       4.455   4.541   1.106  0.00  0.00    -0.078 A 
ATOM      4  C2  OXE d   1       4.603   4.316  -0.242  0.00  0.00    -0.078 A 
ATOM      5  C3  OXE d   1       4.161   3.118  -0.794  0.00  0.00     0.003 A 
ATOM      6  C4  OXE d   1       3.432   2.207  -0.020  0.00  0.00    -0.002 A 
ATOM      7  C5  OXE d   1       3.235   2.435   1.346  0.00  0.00    -0.002 A 
ATOM      8  C6  OXE d   1       3.775   3.574   1.932  0.00  0.00     0.003 A 
ENDROOT
TORSDOF 0
ENDMDL
