MODEL 1
REMARK minimizedAffinity 14.6469784
REMARK minimizedRMSD -1
REMARK  0 active torsions:
REMARK  status: ('A' for Active; 'I' for Inactive)
ROOT
ATOM      1  C2' OXE d   1       4.504   5.280  -0.008  0.00  0.00     0.078 C 
ATOM      2  C1' OXE d   1       5.997   3.325  -1.360  0.00  0.00     0.078 C 
ATOM      3  C1  OXE d   1       5.239   2.903  -0.126  0.00  0.00    -0.078 A 
ATOM      4  C2  OXE d   1       4.549   3.877   0.556  0.00  0.00    -0.078 A 
ATOM      5  C3  OXE d   1       3.789   3.531   1.670  0.00  0.00     0.003 A 
ATOM      6  C4  OXE d   1       3.845   2.233   2.191  0.00  0.00    -0.002 A 
ATOM      7  C5  OXE d   1       4.573   1.235   1.535  0.00  0.00    -0.002 A 
ATOM      8  C6  OXE d   1       5.240   1.543   0.354  0.00  0.00     0.003 A 
ENDROOT
TORSDOF 0
ENDMDL
