MODEL 1
REMARK minimizedAffinity 7.84971285
REMARK minimizedRMSD -1
REMARK  0 active torsions:
REMARK  status: ('A' for Active; 'I' for Inactive)
ROOT
ATOM      1  C2' OXE d   1       4.392   0.611   2.566  0.00  0.00     0.078 C 
ATOM      2  C1' OXE d   1       3.820   3.048   3.836  0.00  0.00     0.078 C 
ATOM      3  C1  OXE d   1       4.173   3.084   2.370  0.00  0.00    -0.078 A 
ATOM      4  C2  OXE d   1       4.497   1.892   1.768  0.00  0.00    -0.078 A 
ATOM      5  C3  OXE d   1       4.777   1.862   0.405  0.00  0.00     0.003 A 
ATOM      6  C4  OXE d   1       4.882   3.053  -0.324  0.00  0.00    -0.002 A 
ATOM      7  C5  OXE d   1       4.595   4.282   0.280  0.00  0.00    -0.002 A 
ATOM      8  C6  OXE d   1       4.199   4.311   1.612  0.00  0.00     0.003 A 
ENDROOT
TORSDOF 0
ENDMDL
