MODEL 1
REMARK minimizedAffinity 12.6643944
REMARK minimizedRMSD -1
REMARK  0 active torsions:
REMARK  status: ('A' for Active; 'I' for Inactive)
ROOT
ATOM      1  C2' OXE d   1      -0.381  -4.378   1.135  0.00  0.00     0.078 C 
ATOM      2  C1' OXE d   1      -2.236  -2.891   2.627  0.00  0.00     0.078 C 
ATOM      3  C1  OXE d   1      -1.971  -2.462   1.205  0.00  0.00    -0.078 A 
ATOM      4  C2  OXE d   1      -1.027  -3.168   0.497  0.00  0.00    -0.078 A 
ATOM      5  C3  OXE d   1      -0.785  -2.849  -0.836  0.00  0.00     0.003 A 
ATOM      6  C4  OXE d   1      -1.380  -1.721  -1.415  0.00  0.00    -0.002 A 
ATOM      7  C5  OXE d   1      -2.314  -0.965  -0.699  0.00  0.00    -0.002 A 
ATOM      8  C6  OXE d   1      -2.652  -1.347   0.595  0.00  0.00     0.003 A 
ENDROOT
TORSDOF 0
ENDMDL
