MODEL 1
REMARK minimizedAffinity 21.2902336
REMARK minimizedRMSD -1
REMARK  0 active torsions:
REMARK  status: ('A' for Active; 'I' for Inactive)
ROOT
ATOM      1  C2' OXE d   1      -3.058  -1.887   0.415  0.00  0.00     0.078 C 
ATOM      2  C1' OXE d   1      -3.035  -2.565   3.139  0.00  0.00     0.078 C 
ATOM      3  C1  OXE d   1      -2.033  -3.242   2.237  0.00  0.00    -0.078 A 
ATOM      4  C2  OXE d   1      -2.082  -2.939   0.898  0.00  0.00    -0.078 A 
ATOM      5  C3  OXE d   1      -1.145  -3.493   0.031  0.00  0.00     0.003 A 
ATOM      6  C4  OXE d   1      -0.253  -4.472   0.484  0.00  0.00    -0.002 A 
ATOM      7  C5  OXE d   1      -0.212  -4.824   1.837  0.00  0.00    -0.002 A 
ATOM      8  C6  OXE d   1      -1.065  -4.189   2.732  0.00  0.00     0.003 A 
ENDROOT
TORSDOF 0
ENDMDL
