MODEL 1
REMARK minimizedAffinity 19.3912487
REMARK minimizedRMSD -1
REMARK  0 active torsions:
REMARK  status: ('A' for Active; 'I' for Inactive)
ROOT
ATOM      1  C2' OXE d   1       2.663   1.912   1.908  0.00  0.00     0.078 C 
ATOM      2  C1' OXE d   1       4.147   0.040   3.382  0.00  0.00     0.078 C 
ATOM      3  C1  OXE d   1       3.751   1.322   4.070  0.00  0.00    -0.078 A 
ATOM      4  C2  OXE d   1       3.065   2.253   3.327  0.00  0.00    -0.078 A 
ATOM      5  C3  OXE d   1       2.628   3.430   3.928  0.00  0.00     0.003 A 
ATOM      6  C4  OXE d   1       3.013   3.741   5.238  0.00  0.00    -0.002 A 
ATOM      7  C5  OXE d   1       3.745   2.825   6.000  0.00  0.00    -0.002 A 
ATOM      8  C6  OXE d   1       4.085   1.595   5.446  0.00  0.00     0.003 A 
ENDROOT
TORSDOF 0
ENDMDL
