MODEL 1
REMARK minimizedAffinity 7.57488918
REMARK minimizedRMSD -1
REMARK  0 active torsions:
REMARK  status: ('A' for Active; 'I' for Inactive)
ROOT
ATOM      1  C   UNL d   1      -3.174   1.878   5.257  0.00  0.00     0.020 A 
ATOM      2  C1  UNL d   1      -4.124   1.178   6.000  0.00  0.00     0.020 A 
ATOM      3  C2  UNL d   1      -4.547  -0.085   5.579  0.00  0.00     0.034 A 
ATOM      4  C3  UNL d   1      -4.022  -0.650   4.411  0.00  0.00     0.017 A 
ATOM      5  C4  UNL d   1      -3.069   0.054   3.666  0.00  0.00     0.017 A 
ATOM      6  C5  UNL d   1      -2.648   1.318   4.092  0.00  0.00     0.034 A 
ATOM      7 Cl   UNL d   1      -2.374  -0.579   2.215  0.00  0.00    -0.070 Cl
ATOM      8 Cl1  UNL d   1      -4.590  -2.215   3.950  0.00  0.00    -0.070 Cl
ENDROOT
TORSDOF 0
ENDMDL
