MODEL 1
REMARK minimizedAffinity 1.90648317
REMARK minimizedRMSD -1
REMARK  0 active torsions:
REMARK  status: ('A' for Active; 'I' for Inactive)
ROOT
ATOM      1  C   UNL d   1      -5.588  -1.080   4.868  0.00  0.00     0.020 A 
ATOM      2  C1  UNL d   1      -5.245  -1.506   3.586  0.00  0.00     0.020 A 
ATOM      3  C2  UNL d   1      -4.021  -1.129   3.029  0.00  0.00     0.034 A 
ATOM      4  C3  UNL d   1      -3.135  -0.324   3.755  0.00  0.00     0.017 A 
ATOM      5  C4  UNL d   1      -3.480   0.102   5.043  0.00  0.00     0.017 A 
ATOM      6  C5  UNL d   1      -4.707  -0.278   5.595  0.00  0.00     0.034 A 
ATOM      7 Cl   UNL d   1      -2.440   1.097   6.000  0.00  0.00    -0.070 Cl
ATOM      8 Cl1  UNL d   1      -1.638   0.103   3.005  0.00  0.00    -0.070 Cl
ENDROOT
TORSDOF 0
ENDMDL
