MODEL 1
REMARK minimizedAffinity -0.267708093
REMARK minimizedRMSD -1
REMARK  0 active torsions:
REMARK  status: ('A' for Active; 'I' for Inactive)
ROOT
ATOM      1  C   UNL d   1      -5.370  -0.809   3.272  0.00  0.00     0.020 A 
ATOM      2  C1  UNL d   1      -4.881  -1.809   2.433  0.00  0.00     0.020 A 
ATOM      3  C2  UNL d   1      -3.513  -1.883   2.158  0.00  0.00     0.034 A 
ATOM      4  C3  UNL d   1      -2.631  -0.954   2.722  0.00  0.00     0.017 A 
ATOM      5  C4  UNL d   1      -3.124   0.049   3.564  0.00  0.00     0.017 A 
ATOM      6  C5  UNL d   1      -4.494   0.118   3.836  0.00  0.00     0.034 A 
ATOM      7 Cl   UNL d   1      -2.097   1.231   4.298  0.00  0.00    -0.070 Cl
ATOM      8 Cl1  UNL d   1      -0.953  -1.105   2.339  0.00  0.00    -0.070 Cl
ENDROOT
TORSDOF 0
ENDMDL
