MODEL 1
REMARK minimizedAffinity 9.88308716
REMARK minimizedRMSD -1
REMARK  0 active torsions:
REMARK  status: ('A' for Active; 'I' for Inactive)
ROOT
ATOM      1  C   UNL d   1      -0.309  -1.024   2.262  0.00  0.00     0.020 A 
ATOM      2  C1  UNL d   1      -1.233  -1.370   1.277  0.00  0.00     0.020 A 
ATOM      3  C2  UNL d   1      -2.572  -0.998   1.413  0.00  0.00     0.034 A 
ATOM      4  C3  UNL d   1      -2.991  -0.277   2.537  0.00  0.00     0.017 A 
ATOM      5  C4  UNL d   1      -2.063   0.070   3.526  0.00  0.00     0.017 A 
ATOM      6  C5  UNL d   1      -0.724  -0.305   3.384  0.00  0.00     0.034 A 
ATOM      7 Cl   UNL d   1      -2.505   0.958   4.941  0.00  0.00    -0.070 Cl
ATOM      8 Cl1  UNL d   1      -4.662   0.151   2.640  0.00  0.00    -0.070 Cl
ENDROOT
TORSDOF 0
ENDMDL
