MODEL 1
REMARK minimizedAffinity 9.17962933
REMARK minimizedRMSD -1
REMARK  0 active torsions:
REMARK  status: ('A' for Active; 'I' for Inactive)
ROOT
ATOM      1  C   UNL d   1      -0.057  -2.522   4.588  0.00  0.00     0.020 A 
ATOM      2  C1  UNL d   1      -0.361  -1.551   5.541  0.00  0.00     0.020 A 
ATOM      3  C2  UNL d   1      -0.999  -0.370   5.156  0.00  0.00     0.034 A 
ATOM      4  C3  UNL d   1      -1.335  -0.157   3.814  0.00  0.00     0.017 A 
ATOM      5  C4  UNL d   1      -1.030  -1.133   2.858  0.00  0.00     0.017 A 
ATOM      6  C5  UNL d   1      -0.391  -2.314   3.249  0.00  0.00     0.034 A 
ATOM      7 Cl   UNL d   1      -1.414  -0.942   1.183  0.00  0.00    -0.070 Cl
ATOM      8 Cl1  UNL d   1      -2.123   1.326   3.408  0.00  0.00    -0.070 Cl
ENDROOT
TORSDOF 0
ENDMDL
