MODEL 1
REMARK minimizedAffinity 6.59432745
REMARK minimizedRMSD -1
REMARK  0 active torsions:
REMARK  status: ('A' for Active; 'I' for Inactive)
ROOT
ATOM      1  C   UNL d   1       0.044   4.841   0.369  0.00  0.00     0.020 A 
ATOM      2  C1  UNL d   1      -0.971   5.194  -0.519  0.00  0.00     0.020 A 
ATOM      3  C2  UNL d   1      -2.134   4.424  -0.592  0.00  0.00     0.034 A 
ATOM      4  C3  UNL d   1      -2.284   3.297   0.224  0.00  0.00     0.017 A 
ATOM      5  C4  UNL d   1      -1.265   2.943   1.115  0.00  0.00     0.017 A 
ATOM      6  C5  UNL d   1      -0.103   3.718   1.185  0.00  0.00     0.034 A 
ATOM      7 Cl   UNL d   1      -1.378   1.566   2.154  0.00  0.00    -0.070 Cl
ATOM      8 Cl1  UNL d   1      -3.749   2.391   0.081  0.00  0.00    -0.070 Cl
ENDROOT
TORSDOF 0
ENDMDL
