MODEL 1
REMARK minimizedAffinity 12.081152
REMARK minimizedRMSD -1
REMARK  0 active torsions:
REMARK  status: ('A' for Active; 'I' for Inactive)
ROOT
ATOM      1  C   UNL d   1       3.395  -0.224  -3.254  0.00  0.00     0.020 A 
ATOM      2  C1  UNL d   1       4.311   0.111  -2.257  0.00  0.00     0.020 A 
ATOM      3  C2  UNL d   1       4.253   1.367  -1.649  0.00  0.00     0.034 A 
ATOM      4  C3  UNL d   1       3.277   2.292  -2.037  0.00  0.00     0.017 A 
ATOM      5  C4  UNL d   1       2.358   1.955  -3.037  0.00  0.00     0.017 A 
ATOM      6  C5  UNL d   1       2.421   0.696  -3.643  0.00  0.00     0.034 A 
ATOM      7 Cl   UNL d   1       1.126   3.044  -3.569  0.00  0.00    -0.070 Cl
ATOM      8 Cl1  UNL d   1       3.264   3.826  -1.243  0.00  0.00    -0.070 Cl
ENDROOT
TORSDOF 0
ENDMDL
