MODEL 1
REMARK minimizedAffinity 6.90506935
REMARK minimizedRMSD -1
REMARK  0 active torsions:
REMARK  status: ('A' for Active; 'I' for Inactive)
ROOT
ATOM      1  C   UNL d   1       4.175  -4.794  -0.215  0.00  0.00     0.020 A 
ATOM      2  C1  UNL d   1       5.160  -3.810  -0.288  0.00  0.00     0.020 A 
ATOM      3  C2  UNL d   1       4.854  -2.489   0.045  0.00  0.00     0.034 A 
ATOM      4  C3  UNL d   1       3.559  -2.147   0.451  0.00  0.00     0.017 A 
ATOM      5  C4  UNL d   1       2.571  -3.135   0.524  0.00  0.00     0.017 A 
ATOM      6  C5  UNL d   1       2.883  -4.457   0.190  0.00  0.00     0.034 A 
ATOM      7 Cl   UNL d   1       0.950  -2.790   1.018  0.00  0.00    -0.070 Cl
ATOM      8 Cl1  UNL d   1       3.251  -0.494   0.848  0.00  0.00    -0.070 Cl
ENDROOT
TORSDOF 0
ENDMDL
