MODEL 1
REMARK minimizedAffinity 4.91319847
REMARK minimizedRMSD -1
REMARK  0 active torsions:
REMARK  status: ('A' for Active; 'I' for Inactive)
ROOT
ATOM      1  C   UNL d   1       5.989  -5.091   0.012  0.00  0.00     0.020 A 
ATOM      2  C1  UNL d   1       4.944  -6.000  -0.151  0.00  0.00     0.020 A 
ATOM      3  C2  UNL d   1       3.626  -5.544  -0.216  0.00  0.00     0.034 A 
ATOM      4  C3  UNL d   1       3.349  -4.175  -0.118  0.00  0.00     0.017 A 
ATOM      5  C4  UNL d   1       4.399  -3.264   0.046  0.00  0.00     0.017 A 
ATOM      6  C5  UNL d   1       5.717  -3.726   0.110  0.00  0.00     0.034 A 
ATOM      7 Cl   UNL d   1       4.136  -1.560   0.174  0.00  0.00    -0.070 Cl
ATOM      8 Cl1  UNL d   1       1.696  -3.681  -0.207  0.00  0.00    -0.070 Cl
ENDROOT
TORSDOF 0
ENDMDL
