MODEL 1
REMARK minimizedAffinity 4.85477543
REMARK minimizedRMSD -1
REMARK  0 active torsions:
REMARK  status: ('A' for Active; 'I' for Inactive)
ROOT
ATOM      1  C   UNL d   1      -1.576   1.064   3.552  0.00  0.00     0.020 A 
ATOM      2  C1  UNL d   1      -1.734   2.428   3.312  0.00  0.00     0.020 A 
ATOM      3  C2  UNL d   1      -2.506   2.863   2.233  0.00  0.00     0.034 A 
ATOM      4  C3  UNL d   1      -3.123   1.932   1.389  0.00  0.00     0.017 A 
ATOM      5  C4  UNL d   1      -2.964   0.563   1.630  0.00  0.00     0.017 A 
ATOM      6  C5  UNL d   1      -2.190   0.133   2.713  0.00  0.00     0.034 A 
ATOM      7 Cl   UNL d   1      -3.694  -0.646   0.633  0.00  0.00    -0.070 Cl
ATOM      8 Cl1  UNL d   1      -4.063   2.540   0.073  0.00  0.00    -0.070 Cl
ENDROOT
TORSDOF 0
ENDMDL
