MODEL 1
REMARK minimizedAffinity 5.70922184
REMARK minimizedRMSD -1
REMARK  0 active torsions:
REMARK  status: ('A' for Active; 'I' for Inactive)
ROOT
ATOM      1  C   UNL d   1      -1.060   5.602  -0.988  0.00  0.00     0.020 A 
ATOM      2  C1  UNL d   1      -0.043   5.323  -0.075  0.00  0.00     0.020 A 
ATOM      3  C2  UNL d   1      -0.165   4.239   0.797  0.00  0.00     0.034 A 
ATOM      4  C3  UNL d   1      -1.306   3.429   0.758  0.00  0.00     0.017 A 
ATOM      5  C4  UNL d   1      -2.326   3.710  -0.159  0.00  0.00     0.017 A 
ATOM      6  C5  UNL d   1      -2.198   4.796  -1.029  0.00  0.00     0.034 A 
ATOM      7 Cl   UNL d   1      -3.763   2.756  -0.266  0.00  0.00    -0.070 Cl
ATOM      8 Cl1  UNL d   1      -1.389   2.105   1.864  0.00  0.00    -0.070 Cl
ENDROOT
TORSDOF 0
ENDMDL
