MODEL 1
REMARK minimizedAffinity 8.66239071
REMARK minimizedRMSD -1
REMARK  0 active torsions:
REMARK  status: ('A' for Active; 'I' for Inactive)
ROOT
ATOM      1  C   UNL d   1       2.762  -3.519  -0.720  0.00  0.00     0.020 A 
ATOM      2  C1  UNL d   1       1.603  -3.059  -0.096  0.00  0.00     0.020 A 
ATOM      3  C2  UNL d   1       1.675  -2.011   0.824  0.00  0.00     0.034 A 
ATOM      4  C3  UNL d   1       2.908  -1.419   1.122  0.00  0.00     0.017 A 
ATOM      5  C4  UNL d   1       4.070  -1.882   0.495  0.00  0.00     0.017 A 
ATOM      6  C5  UNL d   1       3.993  -2.932  -0.425  0.00  0.00     0.034 A 
ATOM      7 Cl   UNL d   1       5.627  -1.202   0.812  0.00  0.00    -0.070 Cl
ATOM      8 Cl1  UNL d   1       2.922  -0.127   2.269  0.00  0.00    -0.070 Cl
ENDROOT
TORSDOF 0
ENDMDL
