MODEL 1
REMARK minimizedAffinity 6.92520475
REMARK minimizedRMSD -1
REMARK  0 active torsions:
REMARK  status: ('A' for Active; 'I' for Inactive)
ROOT
ATOM      1  C   UNL d   1       0.742  -2.570   0.998  0.00  0.00     0.020 A 
ATOM      2  C1  UNL d   1       0.660  -3.957   0.878  0.00  0.00     0.020 A 
ATOM      3  C2  UNL d   1       1.776  -4.690   0.469  0.00  0.00     0.034 A 
ATOM      4  C3  UNL d   1       2.980  -4.036   0.179  0.00  0.00     0.017 A 
ATOM      5  C4  UNL d   1       3.061  -2.644   0.300  0.00  0.00     0.017 A 
ATOM      6  C5  UNL d   1       1.940  -1.915   0.709  0.00  0.00     0.034 A 
ATOM      7 Cl   UNL d   1       4.511  -1.768  -0.041  0.00  0.00    -0.070 Cl
ATOM      8 Cl1  UNL d   1       4.320  -5.005  -0.321  0.00  0.00    -0.070 Cl
ENDROOT
TORSDOF 0
ENDMDL
