MODEL 1
REMARK minimizedAffinity 5.07174349
REMARK minimizedRMSD -1
REMARK  0 active torsions:
REMARK  status: ('A' for Active; 'I' for Inactive)
ROOT
ATOM      1  C   UNL d   1       4.734  -6.000   0.351  0.00  0.00     0.020 A 
ATOM      2  C1  UNL d   1       5.829  -5.139   0.300  0.00  0.00     0.020 A 
ATOM      3  C2  UNL d   1       5.630  -3.762   0.179  0.00  0.00     0.034 A 
ATOM      4  C3  UNL d   1       4.332  -3.242   0.108  0.00  0.00     0.017 A 
ATOM      5  C4  UNL d   1       3.233  -4.108   0.159  0.00  0.00     0.017 A 
ATOM      6  C5  UNL d   1       3.439  -5.486   0.281  0.00  0.00     0.034 A 
ATOM      7 Cl   UNL d   1       1.602  -3.541   0.078  0.00  0.00    -0.070 Cl
ATOM      8 Cl1  UNL d   1       4.159  -1.530  -0.041  0.00  0.00    -0.070 Cl
ENDROOT
TORSDOF 0
ENDMDL
