MODEL 1
REMARK minimizedAffinity 0.0191093888
REMARK minimizedRMSD -1
REMARK  0 active torsions:
REMARK  status: ('A' for Active; 'I' for Inactive)
ROOT
ATOM      1  C   UNL d   1       0.035  -4.344  -0.707  0.00  0.00     0.020 A 
ATOM      2  C1  UNL d   1       1.134  -3.723  -0.116  0.00  0.00     0.020 A 
ATOM      3  C2  UNL d   1       0.943  -2.766   0.882  0.00  0.00     0.034 A 
ATOM      4  C3  UNL d   1      -0.351  -2.425   1.291  0.00  0.00     0.017 A 
ATOM      5  C4  UNL d   1      -1.455  -3.048   0.697  0.00  0.00     0.017 A 
ATOM      6  C5  UNL d   1      -1.257  -4.006  -0.302  0.00  0.00     0.034 A 
ATOM      7 Cl   UNL d   1      -3.082  -2.680   1.150  0.00  0.00    -0.070 Cl
ATOM      8 Cl1  UNL d   1      -0.514  -1.232   2.531  0.00  0.00    -0.070 Cl
ENDROOT
TORSDOF 0
ENDMDL
