MODEL 1
REMARK minimizedAffinity 4.08228588
REMARK minimizedRMSD -1
REMARK  0 active torsions:
REMARK  status: ('A' for Active; 'I' for Inactive)
ROOT
ATOM      1  C   UNL d   1       1.036  -3.476   0.136  0.00  0.00     0.020 A 
ATOM      2  C1  UNL d   1       1.360  -2.206   0.610  0.00  0.00     0.020 A 
ATOM      3  C2  UNL d   1       2.697  -1.858   0.819  0.00  0.00     0.034 A 
ATOM      4  C3  UNL d   1       3.714  -2.783   0.554  0.00  0.00     0.017 A 
ATOM      5  C4  UNL d   1       3.387  -4.058   0.078  0.00  0.00     0.017 A 
ATOM      6  C5  UNL d   1       2.048  -4.400  -0.129  0.00  0.00     0.034 A 
ATOM      7 Cl   UNL d   1       4.587  -5.252  -0.272  0.00  0.00    -0.070 Cl
ATOM      8 Cl1  UNL d   1       5.345  -2.285   0.834  0.00  0.00    -0.070 Cl
ENDROOT
TORSDOF 0
ENDMDL
