MODEL 1
REMARK minimizedAffinity 14.6075134
REMARK minimizedRMSD -1
REMARK  0 active torsions:
REMARK  status: ('A' for Active; 'I' for Inactive)
ROOT
ATOM      1  C   UNL d   1       5.876  -5.029  -0.167  0.00  0.00     0.020 A 
ATOM      2  C1  UNL d   1       4.875  -6.000  -0.167  0.00  0.00     0.020 A 
ATOM      3  C2  UNL d   1       3.541  -5.627   0.009  0.00  0.00     0.034 A 
ATOM      4  C3  UNL d   1       3.204  -4.280   0.187  0.00  0.00     0.017 A 
ATOM      5  C4  UNL d   1       4.209  -3.307   0.188  0.00  0.00     0.017 A 
ATOM      6  C5  UNL d   1       5.543  -3.686   0.011  0.00  0.00     0.034 A 
ATOM      7 Cl   UNL d   1       3.871  -1.625   0.402  0.00  0.00    -0.070 Cl
ATOM      8 Cl1  UNL d   1       1.534  -3.891   0.399  0.00  0.00    -0.070 Cl
ENDROOT
TORSDOF 0
ENDMDL
