MODEL 1
REMARK minimizedAffinity 4.69261503
REMARK minimizedRMSD -1
REMARK  0 active torsions:
REMARK  status: ('A' for Active; 'I' for Inactive)
ROOT
ATOM      1  C   UNL d   1       3.318   1.233  -1.797  0.00  0.00     0.020 A 
ATOM      2  C1  UNL d   1       2.466   0.882  -0.751  0.00  0.00     0.020 A 
ATOM      3  C2  UNL d   1       2.224   1.787   0.285  0.00  0.00     0.034 A 
ATOM      4  C3  UNL d   1       2.835   3.046   0.278  0.00  0.00     0.017 A 
ATOM      5  C4  UNL d   1       3.691   3.397  -0.773  0.00  0.00     0.017 A 
ATOM      6  C5  UNL d   1       3.929   2.487  -1.808  0.00  0.00     0.034 A 
ATOM      7 Cl   UNL d   1       4.481   4.932  -0.851  0.00  0.00    -0.070 Cl
ATOM      8 Cl1  UNL d   1       2.490   4.114   1.591  0.00  0.00    -0.070 Cl
ENDROOT
TORSDOF 0
ENDMDL
