MODEL 1
REMARK minimizedAffinity -1.03902555
REMARK minimizedRMSD -1
REMARK  0 active torsions:
REMARK  status: ('A' for Active; 'I' for Inactive)
ROOT
ATOM      1  N1  IND d   1      -1.140  -0.033   1.874  0.00  0.00    -0.196 N 
ATOM      2  C2  IND d   1      -2.311  -0.046   1.169  0.00  0.00     0.054 A 
ATOM      3  C3  IND d   1      -2.098  -0.502  -0.086  0.00  0.00    -0.031 A 
ATOM      4  C4  IND d   1       0.070  -1.379  -1.163  0.00  0.00     0.051 A 
ATOM      5  C5  IND d   1       1.407  -1.529  -0.924  0.00  0.00    -0.031 A 
ATOM      6  C6  IND d   1       1.975  -1.183   0.285  0.00  0.00     0.015 A 
ATOM      7  C7  IND d   1       1.221  -0.684   1.309  0.00  0.00    -0.016 A 
ATOM      8  C8  IND d   1      -0.136  -0.523   1.068  0.00  0.00    -0.047 A 
ATOM      9  C9  IND d   1      -0.711  -0.832  -0.172  0.00  0.00    -0.096 A 
ATOM     10  HN1 IND d   1      -1.046   0.236   2.686  0.00  0.00     0.298 HD
ENDROOT
TORSDOF 0
ENDMDL
