MODEL 1
REMARK minimizedAffinity 1.44049406
REMARK minimizedRMSD -1
REMARK  0 active torsions:
REMARK  status: ('A' for Active; 'I' for Inactive)
ROOT
ATOM      1  N1  IND d   1      -0.187   0.419   3.788  0.00  0.00    -0.196 N 
ATOM      2  C2  IND d   1      -0.874  -0.639   3.261  0.00  0.00     0.054 A 
ATOM      3  C3  IND d   1      -0.325  -1.806   3.668  0.00  0.00    -0.031 A 
ATOM      4  C4  IND d   1       1.641  -2.215   5.278  0.00  0.00     0.051 A 
ATOM      5  C5  IND d   1       2.608  -1.559   5.986  0.00  0.00    -0.031 A 
ATOM      6  C6  IND d   1       2.693  -0.182   6.000  0.00  0.00     0.015 A 
ATOM      7  C7  IND d   1       1.803   0.594   5.312  0.00  0.00    -0.016 A 
ATOM      8  C8  IND d   1       0.824  -0.069   4.587  0.00  0.00    -0.047 A 
ATOM      9  C9  IND d   1       0.758  -1.468   4.535  0.00  0.00    -0.096 A 
ATOM     10  HN1 IND d   1      -0.357   1.249   3.645  0.00  0.00     0.298 HD
ENDROOT
TORSDOF 0
ENDMDL
