MODEL 1
REMARK minimizedAffinity -2.10688448
REMARK minimizedRMSD -1
REMARK  0 active torsions:
REMARK  status: ('A' for Active; 'I' for Inactive)
ROOT
ATOM      1  N1  IND d   1       0.441   0.444   1.476  0.00  0.00    -0.196 N 
ATOM      2  C2  IND d   1       0.074   0.444   2.793  0.00  0.00     0.054 A 
ATOM      3  C3  IND d   1      -1.260   0.254   2.909  0.00  0.00    -0.031 A 
ATOM      4  C4  IND d   1      -3.015  -0.183   1.077  0.00  0.00     0.051 A 
ATOM      5  C5  IND d   1      -3.165  -0.238  -0.280  0.00  0.00    -0.031 A 
ATOM      6  C6  IND d   1      -2.098  -0.069  -1.139  0.00  0.00     0.015 A 
ATOM      7  C7  IND d   1      -0.834   0.152  -0.669  0.00  0.00    -0.016 A 
ATOM      8  C8  IND d   1      -0.680   0.217   0.708  0.00  0.00    -0.047 A 
ATOM      9  C9  IND d   1      -1.766   0.088   1.583  0.00  0.00    -0.096 A 
ATOM     10  HN1 IND d   1       1.239   0.565   1.178  0.00  0.00     0.298 HD
ENDROOT
TORSDOF 0
ENDMDL
