MODEL 1
REMARK minimizedAffinity 6.81533957
REMARK minimizedRMSD -1
REMARK  0 active torsions:
REMARK  status: ('A' for Active; 'I' for Inactive)
ROOT
ATOM      1  N1  IND d   1       1.700  -0.630   0.517  0.00  0.00    -0.196 N 
ATOM      2  C2  IND d   1       1.783   0.312   1.505  0.00  0.00     0.054 A 
ATOM      3  C3  IND d   1       0.566   0.846   1.749  0.00  0.00    -0.031 A 
ATOM      4  C4  IND d   1      -1.717   0.252   0.718  0.00  0.00     0.051 A 
ATOM      5  C5  IND d   1      -2.294  -0.521  -0.251  0.00  0.00    -0.031 A 
ATOM      6  C6  IND d   1      -1.553  -1.389  -1.027  0.00  0.00     0.015 A 
ATOM      7  C7  IND d   1      -0.205  -1.525  -0.855  0.00  0.00    -0.016 A 
ATOM      8  C8  IND d   1       0.385  -0.737   0.124  0.00  0.00    -0.047 A 
ATOM      9  C9  IND d   1      -0.355   0.176   0.886  0.00  0.00    -0.096 A 
ATOM     10  HN1 IND d   1       2.359  -1.080   0.196  0.00  0.00     0.298 HD
ENDROOT
TORSDOF 0
ENDMDL
