MODEL 1
REMARK minimizedAffinity 6.24206495
REMARK minimizedRMSD -1
REMARK  0 active torsions:
REMARK  status: ('A' for Active; 'I' for Inactive)
ROOT
ATOM      1  N1  IND d   1       1.604  -0.960   0.191  0.00  0.00    -0.196 N 
ATOM      2  C2  IND d   1       2.063  -0.257   1.270  0.00  0.00     0.054 A 
ATOM      3  C3  IND d   1       1.056   0.446   1.836  0.00  0.00    -0.031 A 
ATOM      4  C4  IND d   1      -1.442   0.512   1.219  0.00  0.00     0.051 A 
ATOM      5  C5  IND d   1      -2.333   0.064   0.284  0.00  0.00    -0.031 A 
ATOM      6  C6  IND d   1      -1.950  -0.767  -0.749  0.00  0.00     0.015 A 
ATOM      7  C7  IND d   1      -0.658  -1.192  -0.879  0.00  0.00    -0.016 A 
ATOM      8  C8  IND d   1       0.251  -0.734   0.064  0.00  0.00    -0.047 A 
ATOM      9  C9  IND d   1      -0.124   0.144   1.090  0.00  0.00    -0.096 A 
ATOM     10  HN1 IND d   1       2.080  -1.459  -0.322  0.00  0.00     0.298 HD
ENDROOT
TORSDOF 0
ENDMDL
