MODEL 1
REMARK minimizedAffinity 2.67543483
REMARK minimizedRMSD -1
REMARK  0 active torsions:
REMARK  status: ('A' for Active; 'I' for Inactive)
ROOT
ATOM      1  N1  IND d   1      -1.345  -1.351  -0.376  0.00  0.00    -0.196 N 
ATOM      2  C2  IND d   1      -2.505  -0.756   0.034  0.00  0.00     0.054 A 
ATOM      3  C3  IND d   1      -2.234   0.295   0.841  0.00  0.00    -0.031 A 
ATOM      4  C4  IND d   1       0.041   1.279   1.538  0.00  0.00     0.051 A 
ATOM      5  C5  IND d   1       1.386   1.054   1.443  0.00  0.00    -0.031 A 
ATOM      6  C6  IND d   1       1.899  -0.003   0.720  0.00  0.00     0.015 A 
ATOM      7  C7  IND d   1       1.084  -0.873   0.053  0.00  0.00    -0.016 A 
ATOM      8  C8  IND d   1      -0.282  -0.652   0.153  0.00  0.00    -0.047 A 
ATOM      9  C9  IND d   1      -0.811   0.394   0.919  0.00  0.00    -0.096 A 
ATOM     10  HN1 IND d   1      -1.289  -2.046  -0.880  0.00  0.00     0.298 HD
ENDROOT
TORSDOF 0
ENDMDL
