MODEL 1
REMARK minimizedAffinity -1.01172245
REMARK minimizedRMSD -1
REMARK  0 active torsions:
REMARK  status: ('A' for Active; 'I' for Inactive)
ROOT
ATOM      1  N1  IND d   1      -1.305  -1.335  -1.111  0.00  0.00    -0.196 N 
ATOM      2  C2  IND d   1      -2.607  -0.957  -0.935  0.00  0.00     0.054 A 
ATOM      3  C3  IND d   1      -2.767  -0.371   0.272  0.00  0.00    -0.031 A 
ATOM      4  C4  IND d   1      -1.012   0.165   2.077  0.00  0.00     0.051 A 
ATOM      5  C5  IND d   1       0.307  -0.021   2.386  0.00  0.00    -0.031 A 
ATOM      6  C6  IND d   1       1.173  -0.665   1.527  0.00  0.00     0.015 A 
ATOM      7  C7  IND d   1       0.754  -1.139   0.316  0.00  0.00    -0.016 A 
ATOM      8  C8  IND d   1      -0.585  -0.959   0.002  0.00  0.00    -0.047 A 
ATOM      9  C9  IND d   1      -1.479  -0.344   0.888  0.00  0.00    -0.096 A 
ATOM     10  HN1 IND d   1      -0.988  -1.740  -1.800  0.00  0.00     0.298 HD
ENDROOT
TORSDOF 0
ENDMDL
