MODEL 1
REMARK minimizedAffinity 11.7593193
REMARK minimizedRMSD -1
REMARK  0 active torsions:
REMARK  status: ('A' for Active; 'I' for Inactive)
ROOT
ATOM      1  N1  IND d   1       0.497  -0.297   1.305  0.00  0.00    -0.196 N 
ATOM      2  C2  IND d   1      -0.130  -0.621   0.134  0.00  0.00     0.054 A 
ATOM      3  C3  IND d   1       0.608  -0.216  -0.923  0.00  0.00    -0.031 A 
ATOM      4  C4  IND d   1       2.923   0.909  -0.966  0.00  0.00     0.051 A 
ATOM      5  C5  IND d   1       3.879   1.438  -0.145  0.00  0.00    -0.031 A 
ATOM      6  C6  IND d   1       3.755   1.413   1.229  0.00  0.00     0.015 A 
ATOM      7  C7  IND d   1       2.671   0.845   1.836  0.00  0.00    -0.016 A 
ATOM      8  C8  IND d   1       1.695   0.313   1.005  0.00  0.00    -0.047 A 
ATOM      9  C9  IND d   1       1.795   0.374  -0.390  0.00  0.00    -0.096 A 
ATOM     10  HN1 IND d   1       0.194  -0.448   2.095  0.00  0.00     0.298 HD
ENDROOT
TORSDOF 0
ENDMDL
