MODEL 1
REMARK minimizedAffinity 11.1308756
REMARK minimizedRMSD -1
REMARK  0 active torsions:
REMARK  status: ('A' for Active; 'I' for Inactive)
ROOT
ATOM      1  N1  IND d   1       1.320  -0.586  -0.196  0.00  0.00    -0.196 N 
ATOM      2  C2  IND d   1       1.991  -0.048   0.866  0.00  0.00     0.054 A 
ATOM      3  C3  IND d   1       1.127   0.572   1.702  0.00  0.00    -0.031 A 
ATOM      4  C4  IND d   1      -1.439   0.737   1.575  0.00  0.00     0.051 A 
ATOM      5  C5  IND d   1      -2.499   0.431   0.768  0.00  0.00    -0.031 A 
ATOM      6  C6  IND d   1      -2.337  -0.245  -0.424  0.00  0.00     0.015 A 
ATOM      7  C7  IND d   1      -1.105  -0.652  -0.850  0.00  0.00    -0.016 A 
ATOM      8  C8  IND d   1      -0.025  -0.338  -0.037  0.00  0.00    -0.047 A 
ATOM      9  C9  IND d   1      -0.178   0.385   1.153  0.00  0.00    -0.096 A 
ATOM     10  HN1 IND d   1       1.679  -1.009  -0.854  0.00  0.00     0.298 HD
ENDROOT
TORSDOF 0
ENDMDL
