MODEL 1
REMARK minimizedAffinity 9.15439796
REMARK minimizedRMSD -1
REMARK  3 active torsions:
REMARK  status: ('A' for Active; 'I' for Inactive)
REMARK    1  A    between atoms: C3'_2  and  C2'_3 
REMARK    2  A    between atoms: C2'_3  and  C1'_4 
REMARK    3  A    between atoms: C1'_4  and  C1_5 
ROOT
ATOM      1  C1  N4B d   1      -0.403   0.046  -1.535  0.00  0.00    -0.075 A 
ATOM      2  C2  N4B d   1      -1.053  -0.961  -2.283  0.00  0.00     0.002 A 
ATOM      3  C3  N4B d   1      -2.315  -0.742  -2.778  0.00  0.00     0.002 A 
ATOM      4  C4  N4B d   1      -2.952   0.464  -2.524  0.00  0.00    -0.004 A 
ATOM      5  C5  N4B d   1      -2.307   1.441  -1.823  0.00  0.00     0.002 A 
ATOM      6  C6  N4B d   1      -1.037   1.236  -1.323  0.00  0.00     0.002 A 
ENDROOT
BRANCH   1   7
ATOM      7  C1' N4B d   1       0.942  -0.180  -0.901  0.00  0.00     0.057 C 
BRANCH   7   8
ATOM      8  C2' N4B d   1       0.746  -0.761   0.496  0.00  0.00     0.009 C 
BRANCH   8   9
ATOM      9  C3' N4B d   1       0.621   0.325   1.551  0.00  0.00     0.004 C 
ATOM     10  C4' N4B d   1       1.003  -0.149   2.921  0.00  0.00     0.003 C 
ENDBRANCH   8   9
ENDBRANCH   7   8
ENDBRANCH   1   7
TORSDOF 3
ENDMDL
