MODEL 1
REMARK minimizedAffinity 12.0291882
REMARK minimizedRMSD -1
REMARK  3 active torsions:
REMARK  status: ('A' for Active; 'I' for Inactive)
REMARK    1  A    between atoms: C3'_2  and  C2'_3 
REMARK    2  A    between atoms: C2'_3  and  C1'_4 
REMARK    3  A    between atoms: C1'_4  and  C1_5 
ROOT
ATOM      1  C1  N4B d   1       0.285   0.551   1.438  0.00  0.00    -0.075 A 
ATOM      2  C2  N4B d   1       0.828   1.179   2.580  0.00  0.00     0.002 A 
ATOM      3  C3  N4B d   1       1.851   0.580   3.273  0.00  0.00     0.002 A 
ATOM      4  C4  N4B d   1       2.332  -0.652   2.855  0.00  0.00    -0.004 A 
ATOM      5  C5  N4B d   1       1.820  -1.240   1.736  0.00  0.00     0.002 A 
ATOM      6  C6  N4B d   1       0.794  -0.647   1.028  0.00  0.00     0.002 A 
ENDROOT
BRANCH   1   7
ATOM      7  C1' N4B d   1      -0.892   1.126   0.699  0.00  0.00     0.057 C 
BRANCH   7   8
ATOM      8  C2' N4B d   1      -0.432   1.617  -0.671  0.00  0.00     0.009 C 
BRANCH   8   9
ATOM      9  C3' N4B d   1      -1.580   2.186  -1.486  0.00  0.00     0.004 C 
ATOM     10  C4' N4B d   1      -2.521   1.129  -1.981  0.00  0.00     0.003 C 
ENDBRANCH   8   9
ENDBRANCH   7   8
ENDBRANCH   1   7
TORSDOF 3
ENDMDL
