MODEL 1
REMARK minimizedAffinity 10.4218369
REMARK minimizedRMSD -1
REMARK  3 active torsions:
REMARK  status: ('A' for Active; 'I' for Inactive)
REMARK    1  A    between atoms: C3'_2  and  C2'_3 
REMARK    2  A    between atoms: C2'_3  and  C1'_4 
REMARK    3  A    between atoms: C1'_4  and  C1_5 
ROOT
ATOM      1  C1  N4B d   1      -0.093   1.170  -0.316  0.00  0.00    -0.075 A 
ATOM      2  C2  N4B d   1       0.815   0.276  -0.926  0.00  0.00     0.002 A 
ATOM      3  C3  N4B d   1       1.599  -0.541  -0.149  0.00  0.00     0.002 A 
ATOM      4  C4  N4B d   1       1.508  -0.469   1.233  0.00  0.00    -0.004 A 
ATOM      5  C5  N4B d   1       0.610   0.379   1.813  0.00  0.00     0.002 A 
ATOM      6  C6  N4B d   1      -0.187   1.203   1.045  0.00  0.00     0.002 A 
ENDROOT
BRANCH   1   7
ATOM      7  C1' N4B d   1      -0.910   2.144  -1.121  0.00  0.00     0.057 C 
BRANCH   7   8
ATOM      8  C2' N4B d   1      -0.105   3.424  -1.325  0.00  0.00     0.009 C 
BRANCH   8   9
ATOM      9  C3' N4B d   1      -0.752   4.346  -2.344  0.00  0.00     0.004 C 
ATOM     10  C4' N4B d   1       0.230   5.273  -2.995  0.00  0.00     0.003 C 
ENDBRANCH   8   9
ENDBRANCH   7   8
ENDBRANCH   1   7
TORSDOF 3
ENDMDL
