MODEL 1
REMARK minimizedAffinity -5.39171457
REMARK minimizedRMSD -1
REMARK  1 active torsions:
REMARK  status: ('A' for Active; 'I' for Inactive)
REMARK    1  A    between atoms: N_2  and  C1_3 
ROOT
ATOM      1  C1  UNL d   1       0.840   0.346   0.382  0.00  0.00     0.143 A 
ATOM      2  C2  UNL d   1       1.422  -0.920   0.253  0.00  0.00    -0.057 A 
ATOM      3  C3  UNL d   1       2.773  -1.131   0.551  0.00  0.00     0.033 A 
ATOM      4  C4  UNL d   1       3.576  -0.071   0.957  0.00  0.00    -0.042 A 
ATOM      5  C5  UNL d   1       3.025   1.201   1.068  0.00  0.00     0.033 A 
ATOM      6  C6  UNL d   1       1.673   1.404   0.775  0.00  0.00    -0.057 A 
ENDROOT
BRANCH   1   7
ATOM      7  N   UNL d   1      -0.473   0.640   0.006  0.00  0.00    -0.732 N 
ATOM      8  C   UNL d   1      -1.499  -0.380   0.050  0.00  0.00     0.284 C 
ATOM      9  H3  UNL d   1      -0.779   1.551   0.341  0.00  0.00     0.395 HD
ENDBRANCH   1   7
TORSDOF 1
ENDMDL
