MODEL 1
REMARK minimizedAffinity -5.45505285
REMARK minimizedRMSD -1
REMARK  1 active torsions:
REMARK  status: ('A' for Active; 'I' for Inactive)
REMARK    1  A    between atoms: N_2  and  C1_3 
ROOT
ATOM      1  C1  UNL d   1       1.739   0.581   0.524  0.00  0.00     0.143 A 
ATOM      2  C2  UNL d   1       2.817   0.308   1.372  0.00  0.00    -0.057 A 
ATOM      3  C3  UNL d   1       2.961  -0.944   1.983  0.00  0.00     0.033 A 
ATOM      4  C4  UNL d   1       2.010  -1.938   1.778  0.00  0.00    -0.042 A 
ATOM      5  C5  UNL d   1       0.917  -1.680   0.959  0.00  0.00     0.033 A 
ATOM      6  C6  UNL d   1       0.782  -0.431   0.346  0.00  0.00    -0.057 A 
ENDROOT
BRANCH   1   7
ATOM      7  N   UNL d   1       1.488   1.837  -0.035  0.00  0.00    -0.732 N 
ATOM      8  C   UNL d   1       0.257   2.540   0.257  0.00  0.00     0.284 C 
ATOM      9  H3  UNL d   1       2.314   2.430  -0.044  0.00  0.00     0.395 HD
ENDBRANCH   1   7
TORSDOF 1
ENDMDL
