MODEL 1
REMARK minimizedAffinity -5.22145176
REMARK minimizedRMSD -1
REMARK  1 active torsions:
REMARK  status: ('A' for Active; 'I' for Inactive)
REMARK    1  A    between atoms: N_2  and  C1_3 
ROOT
ATOM      1  C1  UNL d   1       0.246   0.350   0.120  0.00  0.00     0.143 A 
ATOM      2  C2  UNL d   1       0.916   1.516   0.507  0.00  0.00    -0.057 A 
ATOM      3  C3  UNL d   1       2.273   1.492   0.853  0.00  0.00     0.033 A 
ATOM      4  C4  UNL d   1       2.978   0.293   0.846  0.00  0.00    -0.042 A 
ATOM      5  C5  UNL d   1       2.326  -0.882   0.489  0.00  0.00     0.033 A 
ATOM      6  C6  UNL d   1       0.973  -0.851   0.138  0.00  0.00    -0.057 A 
ENDROOT
BRANCH   1   7
ATOM      7  N   UNL d   1      -1.126   0.292  -0.140  0.00  0.00    -0.732 N 
ATOM      8  C   UNL d   1      -1.613  -0.157  -1.426  0.00  0.00     0.284 C 
ATOM      9  H3  UNL d   1      -1.656  -0.063   0.653  0.00  0.00     0.395 HD
ENDBRANCH   1   7
TORSDOF 1
ENDMDL
