MODEL 1
REMARK minimizedAffinity -1.03763545
REMARK minimizedRMSD -1
REMARK  0 active torsions:
REMARK  status: ('A' for Active; 'I' for Inactive)
ROOT
ATOM      1  C   UNL d   1       6.000  -0.476   5.566  0.00  0.00     0.077 C 
ATOM      2  C1  UNL d   1       5.334  -1.795   5.308  0.00  0.00    -0.074 A 
ATOM      3  C2  UNL d   1       4.122  -1.864   4.612  0.00  0.00    -0.005 A 
ATOM      4  C3  UNL d   1       3.520  -3.099   4.371  0.00  0.00     0.006 A 
ATOM      5  C4  UNL d   1       4.122  -4.274   4.821  0.00  0.00    -0.005 A 
ATOM      6  C5  UNL d   1       5.334  -4.225   5.517  0.00  0.00    -0.074 A 
ATOM      7  C6  UNL d   1       5.999  -5.480   5.999  0.00  0.00     0.077 C 
ATOM      8  C7  UNL d   1       5.936  -2.981   5.750  0.00  0.00    -0.001 A 
ENDROOT
TORSDOF 0
ENDMDL
