MODEL 1
REMARK minimizedAffinity -1.65556061
REMARK minimizedRMSD -1
REMARK  0 active torsions:
REMARK  status: ('A' for Active; 'I' for Inactive)
ROOT
ATOM      1  C   UNL d   1       5.233  -0.081   2.253  0.00  0.00     0.077 C 
ATOM      2  C1  UNL d   1       5.251  -0.815   3.561  0.00  0.00    -0.074 A 
ATOM      3  C2  UNL d   1       5.999  -0.338   4.643  0.00  0.00    -0.005 A 
ATOM      4  C3  UNL d   1       5.999  -1.026   5.856  0.00  0.00     0.006 A 
ATOM      5  C4  UNL d   1       5.253  -2.196   6.000  0.00  0.00    -0.005 A 
ATOM      6  C5  UNL d   1       4.499  -2.688   4.930  0.00  0.00    -0.074 A 
ATOM      7  C6  UNL d   1       3.683  -3.939   5.071  0.00  0.00     0.077 C 
ATOM      8  C7  UNL d   1       4.498  -1.987   3.716  0.00  0.00    -0.001 A 
ENDROOT
TORSDOF 0
ENDMDL
