MODEL 1
REMARK minimizedAffinity 2.70109892
REMARK minimizedRMSD -1
REMARK  0 active torsions:
REMARK  status: ('A' for Active; 'I' for Inactive)
ROOT
ATOM      1  C   UNL d   1       1.093   3.949   0.434  0.00  0.00     0.077 C 
ATOM      2  C1  UNL d   1       0.624   2.525   0.456  0.00  0.00    -0.074 A 
ATOM      3  C2  UNL d   1       0.930   1.651  -0.592  0.00  0.00    -0.005 A 
ATOM      4  C3  UNL d   1       0.496   0.326  -0.554  0.00  0.00     0.006 A 
ATOM      5  C4  UNL d   1      -0.248  -0.138   0.532  0.00  0.00    -0.005 A 
ATOM      6  C5  UNL d   1      -0.563   0.721   1.590  0.00  0.00    -0.074 A 
ATOM      7  C6  UNL d   1      -1.353   0.236   2.769  0.00  0.00     0.077 C 
ATOM      8  C7  UNL d   1      -0.116   2.049   1.547  0.00  0.00    -0.001 A 
ENDROOT
TORSDOF 0
ENDMDL
