MODEL 1
REMARK minimizedAffinity -0.573379159
REMARK minimizedRMSD -1
REMARK  0 active torsions:
REMARK  status: ('A' for Active; 'I' for Inactive)
ROOT
ATOM      1  C   UNL d   1       5.247  -1.825   4.881  0.00  0.00     0.077 C 
ATOM      2  C1  UNL d   1       5.350  -0.329   4.901  0.00  0.00    -0.074 A 
ATOM      3  C2  UNL d   1       5.900   0.340   5.999  0.00  0.00    -0.005 A 
ATOM      4  C3  UNL d   1       5.998   1.731   5.999  0.00  0.00     0.006 A 
ATOM      5  C4  UNL d   1       5.547   2.467   4.903  0.00  0.00    -0.005 A 
ATOM      6  C5  UNL d   1       4.995   1.816   3.795  0.00  0.00    -0.074 A 
ATOM      7  C6  UNL d   1       4.515   2.591   2.604  0.00  0.00     0.077 C 
ATOM      8  C7  UNL d   1       4.907   0.417   3.800  0.00  0.00    -0.001 A 
ENDROOT
TORSDOF 0
ENDMDL
