MODEL 1
REMARK minimizedAffinity -2.28854442
REMARK minimizedRMSD -1
REMARK  0 active torsions:
REMARK  status: ('A' for Active; 'I' for Inactive)
ROOT
ATOM      1  C   UNL d   1       5.998  -1.901   5.996  0.00  0.00     0.077 C 
ATOM      2  C1  UNL d   1       5.676  -0.743   5.098  0.00  0.00    -0.074 A 
ATOM      3  C2  UNL d   1       5.120  -0.949   3.831  0.00  0.00    -0.005 A 
ATOM      4  C3  UNL d   1       4.817   0.138   3.012  0.00  0.00     0.006 A 
ATOM      5  C4  UNL d   1       5.068   1.439   3.449  0.00  0.00    -0.005 A 
ATOM      6  C5  UNL d   1       5.623   1.664   4.713  0.00  0.00    -0.074 A 
ATOM      7  C6  UNL d   1       5.889   3.057   5.202  0.00  0.00     0.077 C 
ATOM      8  C7  UNL d   1       5.918   0.567   5.534  0.00  0.00    -0.001 A 
ENDROOT
TORSDOF 0
ENDMDL
