MODEL 1
REMARK minimizedAffinity -3.40666699
REMARK minimizedRMSD -1
REMARK  0 active torsions:
REMARK  status: ('A' for Active; 'I' for Inactive)
ROOT
ATOM      1  C   UNL d   1       5.969   3.768   5.995  0.00  0.00     0.077 C 
ATOM      2  C1  UNL d   1       5.757   2.491   5.238  0.00  0.00    -0.074 A 
ATOM      3  C2  UNL d   1       5.638   2.494   3.845  0.00  0.00    -0.005 A 
ATOM      4  C3  UNL d   1       5.450   1.297   3.153  0.00  0.00     0.006 A 
ATOM      5  C4  UNL d   1       5.381   0.088   3.846  0.00  0.00    -0.005 A 
ATOM      6  C5  UNL d   1       5.499   0.066   5.240  0.00  0.00    -0.074 A 
ATOM      7  C6  UNL d   1       5.437  -1.225   6.000  0.00  0.00     0.077 C 
ATOM      8  C7  UNL d   1       5.694   1.272   5.927  0.00  0.00    -0.001 A 
ENDROOT
TORSDOF 0
ENDMDL
