MODEL 1
REMARK minimizedAffinity -2.5229485
REMARK minimizedRMSD -1
REMARK  0 active torsions:
REMARK  status: ('A' for Active; 'I' for Inactive)
ROOT
ATOM      1  C   UNL d   1       5.848   2.999   5.999  0.00  0.00     0.077 C 
ATOM      2  C1  UNL d   1       5.670   1.714   5.247  0.00  0.00    -0.074 A 
ATOM      3  C2  UNL d   1       5.458   1.713   3.865  0.00  0.00    -0.005 A 
ATOM      4  C3  UNL d   1       5.303   0.509   3.178  0.00  0.00     0.006 A 
ATOM      5  C4  UNL d   1       5.359  -0.704   3.865  0.00  0.00    -0.005 A 
ATOM      6  C5  UNL d   1       5.571  -0.723   5.247  0.00  0.00    -0.074 A 
ATOM      7  C6  UNL d   1       5.644  -2.019   5.999  0.00  0.00     0.077 C 
ATOM      8  C7  UNL d   1       5.733   0.490   5.929  0.00  0.00    -0.001 A 
ENDROOT
TORSDOF 0
ENDMDL
