MODEL 1
REMARK minimizedAffinity 3.93833494
REMARK minimizedRMSD -1
REMARK  0 active torsions:
REMARK  status: ('A' for Active; 'I' for Inactive)
ROOT
ATOM      1  C   UNL d   1       0.878   3.817   0.374  0.00  0.00     0.077 C 
ATOM      2  C1  UNL d   1       0.380   2.402   0.404  0.00  0.00    -0.074 A 
ATOM      3  C2  UNL d   1       0.595   1.541  -0.677  0.00  0.00    -0.005 A 
ATOM      4  C3  UNL d   1       0.134   0.226  -0.631  0.00  0.00     0.006 A 
ATOM      5  C4  UNL d   1      -0.545  -0.241   0.495  0.00  0.00    -0.005 A 
ATOM      6  C5  UNL d   1      -0.769   0.605   1.586  0.00  0.00    -0.074 A 
ATOM      7  C6  UNL d   1      -1.488   0.116   2.808  0.00  0.00     0.077 C 
ATOM      8  C7  UNL d   1      -0.297   1.923   1.535  0.00  0.00    -0.001 A 
ENDROOT
TORSDOF 0
ENDMDL
