MODEL 1
REMARK minimizedAffinity 3.73299956
REMARK minimizedRMSD -1
REMARK  0 active torsions:
REMARK  status: ('A' for Active; 'I' for Inactive)
ROOT
ATOM      1  C   UNL d   1       2.624  -2.351  -1.930  0.00  0.00     0.077 C 
ATOM      2  C1  UNL d   1       1.335  -1.912  -1.300  0.00  0.00    -0.074 A 
ATOM      3  C2  UNL d   1       0.530  -2.819  -0.604  0.00  0.00    -0.005 A 
ATOM      4  C3  UNL d   1      -0.661  -2.394  -0.015  0.00  0.00     0.006 A 
ATOM      5  C4  UNL d   1      -1.058  -1.060  -0.117  0.00  0.00    -0.005 A 
ATOM      6  C5  UNL d   1      -0.265  -0.139  -0.808  0.00  0.00    -0.074 A 
ATOM      7  C6  UNL d   1      -0.673   1.301  -0.919  0.00  0.00     0.077 C 
ATOM      8  C7  UNL d   1       0.934  -0.572  -1.391  0.00  0.00    -0.001 A 
ENDROOT
TORSDOF 0
ENDMDL
