MODEL 1
REMARK minimizedAffinity -1.753775
REMARK minimizedRMSD -1
REMARK  0 active torsions:
REMARK  status: ('A' for Active; 'I' for Inactive)
ROOT
ATOM      1  C   UNL d   1       5.946   1.272   5.851  0.00  0.00     0.077 C 
ATOM      2  C1  UNL d   1       5.952  -0.041   5.126  0.00  0.00    -0.074 A 
ATOM      3  C2  UNL d   1       5.959  -0.091   3.729  0.00  0.00    -0.005 A 
ATOM      4  C3  UNL d   1       5.975  -1.320   3.069  0.00  0.00     0.006 A 
ATOM      5  C4  UNL d   1       5.984  -2.509   3.799  0.00  0.00    -0.005 A 
ATOM      6  C5  UNL d   1       5.978  -2.479   5.197  0.00  0.00    -0.074 A 
ATOM      7  C6  UNL d   1       5.998  -3.747   5.997  0.00  0.00     0.077 C 
ATOM      8  C7  UNL d   1       5.970  -1.240   5.853  0.00  0.00    -0.001 A 
ENDROOT
TORSDOF 0
ENDMDL
