MODEL 1
REMARK minimizedAffinity -1.41546643
REMARK minimizedRMSD -1
REMARK  0 active torsions:
REMARK  status: ('A' for Active; 'I' for Inactive)
ROOT
ATOM      1  C   UNL d   1       6.000   4.084   5.630  0.00  0.00     0.077 C 
ATOM      2  C1  UNL d   1       5.715   2.744   5.019  0.00  0.00    -0.074 A 
ATOM      3  C2  UNL d   1       5.210   2.639   3.719  0.00  0.00    -0.005 A 
ATOM      4  C3  UNL d   1       4.960   1.385   3.162  0.00  0.00     0.006 A 
ATOM      5  C4  UNL d   1       5.210   0.226   3.897  0.00  0.00    -0.005 A 
ATOM      6  C5  UNL d   1       5.715   0.312   5.198  0.00  0.00    -0.074 A 
ATOM      7  C6  UNL d   1       6.000  -0.924   5.999  0.00  0.00     0.077 C 
ATOM      8  C7  UNL d   1       5.971   1.575   5.749  0.00  0.00    -0.001 A 
ENDROOT
TORSDOF 0
ENDMDL
