MODEL 1
REMARK minimizedAffinity -1.78663087
REMARK minimizedRMSD -1
REMARK  0 active torsions:
REMARK  status: ('A' for Active; 'I' for Inactive)
ROOT
ATOM      1  C   UNL d   1       5.996  -2.998   5.997  0.00  0.00     0.077 C 
ATOM      2  C1  UNL d   1       5.956  -1.706   5.236  0.00  0.00    -0.074 A 
ATOM      3  C2  UNL d   1       5.979  -1.695   3.838  0.00  0.00    -0.005 A 
ATOM      4  C3  UNL d   1       5.932  -0.486   3.143  0.00  0.00     0.006 A 
ATOM      5  C4  UNL d   1       5.861   0.722   3.839  0.00  0.00    -0.005 A 
ATOM      6  C5  UNL d   1       5.837   0.730   5.237  0.00  0.00    -0.074 A 
ATOM      7  C6  UNL d   1       5.752   2.019   6.000  0.00  0.00     0.077 C 
ATOM      8  C7  UNL d   1       5.878  -0.489   5.928  0.00  0.00    -0.001 A 
ENDROOT
TORSDOF 0
ENDMDL
