MODEL 1
REMARK minimizedAffinity -2.77420044
REMARK minimizedRMSD -1
REMARK  0 active torsions:
REMARK  status: ('A' for Active; 'I' for Inactive)
ROOT
ATOM      1  C   UNL d   1       5.955   0.469   5.959  0.00  0.00     0.077 C 
ATOM      2  C1  UNL d   1       5.977   1.641   5.024  0.00  0.00    -0.074 A 
ATOM      3  C2  UNL d   1       5.982   1.454   3.638  0.00  0.00    -0.005 A 
ATOM      4  C3  UNL d   1       5.994   2.554   2.780  0.00  0.00     0.006 A 
ATOM      5  C4  UNL d   1       6.000   3.849   3.298  0.00  0.00    -0.005 A 
ATOM      6  C5  UNL d   1       5.994   4.056   4.681  0.00  0.00    -0.074 A 
ATOM      7  C6  UNL d   1       5.990   5.441   5.255  0.00  0.00     0.077 C 
ATOM      8  C7  UNL d   1       5.975   2.946   5.537  0.00  0.00    -0.001 A 
ENDROOT
TORSDOF 0
ENDMDL
