MODEL 1
REMARK minimizedAffinity 5.2009244
REMARK minimizedRMSD -1
REMARK  0 active torsions:
REMARK  status: ('A' for Active; 'I' for Inactive)
ROOT
ATOM      1  C   UNL d   1       5.991  -3.234   5.999  0.00  0.00     0.077 C 
ATOM      2  C1  UNL d   1       5.597  -1.944   5.344  0.00  0.00    -0.074 A 
ATOM      3  C2  UNL d   1       4.865  -1.937   4.152  0.00  0.00    -0.005 A 
ATOM      4  C3  UNL d   1       4.497  -0.730   3.560  0.00  0.00     0.006 A 
ATOM      5  C4  UNL d   1       4.856   0.482   4.152  0.00  0.00    -0.005 A 
ATOM      6  C5  UNL d   1       5.587   0.495   5.345  0.00  0.00    -0.074 A 
ATOM      7  C6  UNL d   1       5.972   1.788   6.000  0.00  0.00     0.077 C 
ATOM      8  C7  UNL d   1       5.947  -0.723   5.938  0.00  0.00    -0.001 A 
ENDROOT
TORSDOF 0
ENDMDL
