MODEL 1
REMARK minimizedAffinity 3.38166428
REMARK minimizedRMSD -1
REMARK  0 active torsions:
REMARK  status: ('A' for Active; 'I' for Inactive)
ROOT
ATOM      1  N1  IND d   1      -1.032  -1.192   2.025  0.00  0.00    -0.196 N 
ATOM      2  C2  IND d   1      -1.574  -0.311   1.132  0.00  0.00     0.054 A 
ATOM      3  C3  IND d   1      -0.850  -0.294  -0.010  0.00  0.00    -0.031 A 
ATOM      4  C4  IND d   1       1.201  -1.705  -0.667  0.00  0.00     0.051 A 
ATOM      5  C5  IND d   1       2.083  -2.621  -0.167  0.00  0.00    -0.031 A 
ATOM      6  C6  IND d   1       1.968  -3.120   1.114  0.00  0.00     0.015 A 
ATOM      7  C7  IND d   1       0.955  -2.728   1.943  0.00  0.00    -0.016 A 
ATOM      8  C8  IND d   1       0.061  -1.793   1.441  0.00  0.00    -0.047 A 
ATOM      9  C9  IND d   1       0.198  -1.251   0.157  0.00  0.00    -0.096 A 
ATOM     10  HN1 IND d   1      -1.326  -1.346   2.819  0.00  0.00     0.298 HD
ENDROOT
TORSDOF 0
ENDMDL
