MODEL 1
REMARK minimizedAffinity 9.33509064
REMARK minimizedRMSD -1
REMARK  0 active torsions:
REMARK  status: ('A' for Active; 'I' for Inactive)
ROOT
ATOM      1  N1  IND d   1       2.818  -3.601  -0.321  0.00  0.00    -0.196 N 
ATOM      2  C2  IND d   1       2.606  -4.861   0.165  0.00  0.00     0.054 A 
ATOM      3  C3  IND d   1       1.477  -4.895   0.907  0.00  0.00    -0.031 A 
ATOM      4  C4  IND d   1      -0.231  -3.026   1.374  0.00  0.00     0.051 A 
ATOM      5  C5  IND d   1      -0.449  -1.692   1.174  0.00  0.00    -0.031 A 
ATOM      6  C6  IND d   1       0.427  -0.911   0.448  0.00  0.00     0.015 A 
ATOM      7  C7  IND d   1       1.553  -1.440  -0.117  0.00  0.00    -0.016 A 
ATOM      8  C8  IND d   1       1.781  -2.793   0.090  0.00  0.00    -0.047 A 
ATOM      9  C9  IND d   1       0.918  -3.581   0.862  0.00  0.00    -0.096 A 
ATOM     10  HN1 IND d   1       3.486  -3.355  -0.803  0.00  0.00     0.298 HD
ENDROOT
TORSDOF 0
ENDMDL
