MODEL 1
REMARK minimizedAffinity -2.52548146
REMARK minimizedRMSD -1
REMARK  0 active torsions:
REMARK  status: ('A' for Active; 'I' for Inactive)
ROOT
ATOM      1  N1  IND d   1      -0.049  -1.249   1.696  0.00  0.00    -0.196 N 
ATOM      2  C2  IND d   1       0.940  -0.543   1.070  0.00  0.00     0.054 A 
ATOM      3  C3  IND d   1       1.890  -1.381   0.599  0.00  0.00    -0.031 A 
ATOM      4  C4  IND d   1       1.975  -3.954   0.652  0.00  0.00     0.051 A 
ATOM      5  C5  IND d   1       1.315  -5.043   1.148  0.00  0.00    -0.031 A 
ATOM      6  C6  IND d   1       0.141  -4.921   1.864  0.00  0.00     0.015 A 
ATOM      7  C7  IND d   1      -0.424  -3.700   2.102  0.00  0.00    -0.016 A 
ATOM      8  C8  IND d   1       0.247  -2.592   1.606  0.00  0.00    -0.047 A 
ATOM      9  C9  IND d   1       1.460  -2.706   0.915  0.00  0.00    -0.096 A 
ATOM     10  HN1 IND d   1      -0.740  -0.912   2.080  0.00  0.00     0.298 HD
ENDROOT
TORSDOF 0
ENDMDL
