MODEL 1
REMARK minimizedAffinity 20.3756084
REMARK minimizedRMSD -1
REMARK  0 active torsions:
REMARK  status: ('A' for Active; 'I' for Inactive)
ROOT
ATOM      1  N1  IND d   1      -4.335  -3.378   0.749  0.00  0.00    -0.196 N 
ATOM      2  C2  IND d   1      -3.003  -3.430   0.447  0.00  0.00     0.054 A 
ATOM      3  C3  IND d   1      -2.498  -2.181   0.334  0.00  0.00    -0.031 A 
ATOM      4  C4  IND d   1      -3.653   0.090   0.702  0.00  0.00     0.051 A 
ATOM      5  C5  IND d   1      -4.874   0.649   0.956  0.00  0.00    -0.031 A 
ATOM      6  C6  IND d   1      -6.000  -0.122   1.161  0.00  0.00     0.015 A 
ATOM      7  C7  IND d   1      -5.944  -1.486   1.131  0.00  0.00    -0.016 A 
ATOM      8  C8  IND d   1      -4.707  -2.057   0.866  0.00  0.00    -0.047 A 
ATOM      9  C9  IND d   1      -3.570  -1.279   0.615  0.00  0.00    -0.096 A 
ATOM     10  HN1 IND d   1      -4.853  -4.057   0.849  0.00  0.00     0.298 HD
ENDROOT
TORSDOF 0
ENDMDL
