MODEL 1
REMARK minimizedAffinity 10.171277
REMARK minimizedRMSD -1
REMARK  0 active torsions:
REMARK  status: ('A' for Active; 'I' for Inactive)
ROOT
ATOM      1  N1  IND d   1       1.332  -3.734   0.210  0.00  0.00    -0.196 N 
ATOM      2  C2  IND d   1       2.643  -3.468  -0.072  0.00  0.00     0.054 A 
ATOM      3  C3  IND d   1       2.965  -2.217   0.328  0.00  0.00    -0.031 A 
ATOM      4  C4  IND d   1       1.528  -0.472   1.559  0.00  0.00     0.051 A 
ATOM      5  C5  IND d   1       0.255  -0.244   2.002  0.00  0.00    -0.031 A 
ATOM      6  C6  IND d   1      -0.743  -1.187   1.869  0.00  0.00     0.015 A 
ATOM      7  C7  IND d   1      -0.502  -2.404   1.297  0.00  0.00    -0.016 A 
ATOM      8  C8  IND d   1       0.788  -2.637   0.841  0.00  0.00    -0.047 A 
ATOM      9  C9  IND d   1       1.794  -1.667   0.934  0.00  0.00    -0.096 A 
ATOM     10  HN1 IND d   1       0.918  -4.465   0.025  0.00  0.00     0.298 HD
ENDROOT
TORSDOF 0
ENDMDL
