MODEL 1
REMARK minimizedAffinity 1.78741205
REMARK minimizedRMSD -1
REMARK  0 active torsions:
REMARK  status: ('A' for Active; 'I' for Inactive)
ROOT
ATOM      1  N1  IND d   1      -1.202  -1.840   2.596  0.00  0.00    -0.196 N 
ATOM      2  C2  IND d   1      -1.223  -3.083   3.164  0.00  0.00     0.054 A 
ATOM      3  C3  IND d   1      -0.247  -3.857   2.640  0.00  0.00    -0.031 A 
ATOM      4  C4  IND d   1       1.565  -3.257   0.912  0.00  0.00     0.051 A 
ATOM      5  C5  IND d   1       1.968  -2.252   0.079  0.00  0.00    -0.031 A 
ATOM      6  C6  IND d   1       1.324  -1.032   0.044  0.00  0.00     0.015 A 
ATOM      7  C7  IND d   1       0.255  -0.767   0.852  0.00  0.00    -0.016 A 
ATOM      8  C8  IND d   1      -0.162  -1.788   1.694  0.00  0.00    -0.047 A 
ATOM      9  C9  IND d   1       0.462  -3.043   1.704  0.00  0.00    -0.096 A 
ATOM     10  HN1 IND d   1      -1.746  -1.198   2.772  0.00  0.00     0.298 HD
ENDROOT
TORSDOF 0
ENDMDL
