MODEL 1
REMARK minimizedAffinity 0.257096529
REMARK minimizedRMSD -1
REMARK  0 active torsions:
REMARK  status: ('A' for Active; 'I' for Inactive)
ROOT
ATOM      1  N1  IND d   1      -4.094   1.732   4.864  0.00  0.00    -0.196 N 
ATOM      2  C2  IND d   1      -5.423   1.518   5.103  0.00  0.00     0.054 A 
ATOM      3  C3  IND d   1      -5.998   2.638   5.597  0.00  0.00    -0.031 A 
ATOM      4  C4  IND d   1      -4.970   4.964   5.998  0.00  0.00     0.051 A 
ATOM      5  C5  IND d   1      -3.781   5.637   5.962  0.00  0.00    -0.031 A 
ATOM      6  C6  IND d   1      -2.612   5.031   5.548  0.00  0.00     0.015 A 
ATOM      7  C7  IND d   1      -2.592   3.727   5.141  0.00  0.00    -0.016 A 
ATOM      8  C8  IND d   1      -3.796   3.039   5.182  0.00  0.00    -0.047 A 
ATOM      9  C9  IND d   1      -4.976   3.636   5.642  0.00  0.00    -0.096 A 
ATOM     10  HN1 IND d   1      -3.538   1.148   4.565  0.00  0.00     0.298 HD
ENDROOT
TORSDOF 0
ENDMDL
