MODEL 1
REMARK minimizedAffinity 9.44464397
REMARK minimizedRMSD -1
REMARK  0 active torsions:
REMARK  status: ('A' for Active; 'I' for Inactive)
ROOT
ATOM      1  N1  IND d   1      -3.774   2.386   4.353  0.00  0.00    -0.196 N 
ATOM      2  C2  IND d   1      -4.957   2.688   4.969  0.00  0.00     0.054 A 
ATOM      3  C3  IND d   1      -6.000   2.315   4.194  0.00  0.00    -0.031 A 
ATOM      4  C4  IND d   1      -5.998   1.103   1.923  0.00  0.00     0.051 A 
ATOM      5  C5  IND d   1      -5.159   0.652   0.943  0.00  0.00    -0.031 A 
ATOM      6  C6  IND d   1      -3.787   0.755   1.054  0.00  0.00     0.015 A 
ATOM      7  C7  IND d   1      -3.201   1.306   2.158  0.00  0.00    -0.016 A 
ATOM      8  C8  IND d   1      -4.051   1.772   3.151  0.00  0.00    -0.047 A 
ATOM      9  C9  IND d   1      -5.444   1.708   3.026  0.00  0.00    -0.096 A 
ATOM     10  HN1 IND d   1      -2.990   2.553   4.663  0.00  0.00     0.298 HD
ENDROOT
TORSDOF 0
ENDMDL
