MODEL 1
REMARK minimizedAffinity -2.50323033
REMARK minimizedRMSD -1
REMARK  0 active torsions:
REMARK  status: ('A' for Active; 'I' for Inactive)
ROOT
ATOM      1  C1  BNZ d   1      -1.159  -2.307   0.993  0.00  0.00     0.000 A 
ATOM      2  C2  BNZ d   1      -0.939  -2.273  -0.358  0.00  0.00     0.000 A 
ATOM      3  C3  BNZ d   1       0.017  -3.064  -0.932  0.00  0.00     0.000 A 
ATOM      4  C4  BNZ d   1       0.777  -3.858  -0.151  0.00  0.00     0.000 A 
ATOM      5  C5  BNZ d   1       0.574  -3.897   1.214  0.00  0.00     0.000 A 
ATOM      6  C6  BNZ d   1      -0.415  -3.128   1.784  0.00  0.00     0.000 A 
ENDROOT
TORSDOF 0
ENDMDL
