MODEL 1
REMARK minimizedAffinity 0.217713252
REMARK minimizedRMSD -1
REMARK  0 active torsions:
REMARK  status: ('A' for Active; 'I' for Inactive)
ROOT
ATOM      1  C1  BNZ d   1      -1.324  -0.474   0.439  0.00  0.00     0.000 A 
ATOM      2  C2  BNZ d   1      -0.820  -1.485  -0.335  0.00  0.00     0.000 A 
ATOM      3  C3  BNZ d   1      -0.479  -2.687   0.220  0.00  0.00     0.000 A 
ATOM      4  C4  BNZ d   1      -0.605  -2.863   1.551  0.00  0.00     0.000 A 
ATOM      5  C5  BNZ d   1      -1.102  -1.849   2.346  0.00  0.00     0.000 A 
ATOM      6  C6  BNZ d   1      -1.481  -0.654   1.779  0.00  0.00     0.000 A 
ENDROOT
TORSDOF 0
ENDMDL
