MODEL 1
REMARK minimizedAffinity 0.908528805
REMARK minimizedRMSD -1
REMARK  0 active torsions:
REMARK  status: ('A' for Active; 'I' for Inactive)
ROOT
ATOM      1  C1  BNZ d   1       4.332  -3.071  -5.247  0.00  0.00     0.000 A 
ATOM      2  C2  BNZ d   1       3.413  -3.753  -5.999  0.00  0.00     0.000 A 
ATOM      3  C3  BNZ d   1       3.385  -5.120  -6.000  0.00  0.00     0.000 A 
ATOM      4  C4  BNZ d   1       4.300  -5.802  -5.282  0.00  0.00     0.000 A 
ATOM      5  C5  BNZ d   1       5.239  -5.129  -4.526  0.00  0.00     0.000 A 
ATOM      6  C6  BNZ d   1       5.239  -3.753  -4.497  0.00  0.00     0.000 A 
ENDROOT
TORSDOF 0
ENDMDL
