MODEL 1
REMARK minimizedAffinity -2.60820937
REMARK minimizedRMSD -1
REMARK  0 active torsions:
REMARK  status: ('A' for Active; 'I' for Inactive)
ROOT
ATOM      1  C1  BNZ d   1       0.028  -1.832  -1.114  0.00  0.00     0.000 A 
ATOM      2  C2  BNZ d   1       0.309  -1.121  -2.249  0.00  0.00     0.000 A 
ATOM      3  C3  BNZ d   1       0.621  -1.760  -3.417  0.00  0.00     0.000 A 
ATOM      4  C4  BNZ d   1       0.690  -3.106  -3.437  0.00  0.00     0.000 A 
ATOM      5  C5  BNZ d   1       0.419  -3.838  -2.298  0.00  0.00     0.000 A 
ATOM      6  C6  BNZ d   1       0.068  -3.192  -1.135  0.00  0.00     0.000 A 
ENDROOT
TORSDOF 0
ENDMDL
