MODEL 1
REMARK minimizedAffinity -0.302160412
REMARK minimizedRMSD -1
REMARK  0 active torsions:
REMARK  status: ('A' for Active; 'I' for Inactive)
ROOT
ATOM      1  C1  BNZ d   1       0.440  -4.335  -1.080  0.00  0.00     0.000 A 
ATOM      2  C2  BNZ d   1       0.544  -3.541  -2.191  0.00  0.00     0.000 A 
ATOM      3  C3  BNZ d   1       0.398  -2.185  -2.099  0.00  0.00     0.000 A 
ATOM      4  C4  BNZ d   1       0.110  -1.629  -0.904  0.00  0.00     0.000 A 
ATOM      5  C5  BNZ d   1      -0.008  -2.417   0.224  0.00  0.00     0.000 A 
ATOM      6  C6  BNZ d   1       0.178  -3.777   0.134  0.00  0.00     0.000 A 
ENDROOT
TORSDOF 0
ENDMDL
