MODEL 1
REMARK minimizedAffinity 5.11840487
REMARK minimizedRMSD -1
REMARK  0 active torsions:
REMARK  status: ('A' for Active; 'I' for Inactive)
ROOT
ATOM      1  C1  BNZ d   1      -0.323  -3.691   0.029  0.00  0.00     0.000 A 
ATOM      2  C2  BNZ d   1      -0.264  -3.667   1.397  0.00  0.00     0.000 A 
ATOM      3  C3  BNZ d   1      -0.980  -2.749   2.113  0.00  0.00     0.000 A 
ATOM      4  C4  BNZ d   1      -1.722  -1.831   1.460  0.00  0.00     0.000 A 
ATOM      5  C5  BNZ d   1      -1.784  -1.836   0.081  0.00  0.00     0.000 A 
ATOM      6  C6  BNZ d   1      -1.093  -2.786  -0.635  0.00  0.00     0.000 A 
ENDROOT
TORSDOF 0
ENDMDL
